MODEL 1
REMARK VINA RESULT:    -3.465      0.000      0.000
REMARK INTER + INTRA:          -7.523
REMARK INTER:                  -6.301
REMARK INTRA:                  -1.223
REMARK UNBOUND:                -1.223
REMARK SMILES CCCCCCCCCCCCCC[C@H](C)C(=O)[O-]
REMARK SMILES IDX 9 1 10 2 11 3 12 4 13 5 14 6 15 7 16 8 17 9 18 10 19 11 8 12
REMARK SMILES IDX 7 13 6 14 5 15 4 16 3 17 2 18 1 19
REMARK H PARENT
REMARK Flexibility Score: inf
ROOT
ATOM      1  C   UNL     1      -9.314   3.479  -4.141  1.00  0.00     0.000 C 
ENDROOT
BRANCH   1   2
ATOM      2  C   UNL     1     -10.076   4.514  -4.995  1.00  0.00     0.000 C 
BRANCH   2   3
ATOM      3  C   UNL     1      -9.272   5.774  -5.366  1.00  0.00     0.000 C 
BRANCH   3   4
ATOM      4  C   UNL     1      -8.587   5.663  -6.735  1.00  0.00     0.000 C 
BRANCH   4   5
ATOM      5  C   UNL     1      -9.512   4.998  -7.761  1.00  0.00     0.001 C 
BRANCH   5   6
ATOM      6  C   UNL     1      -8.804   4.827  -9.114  1.00  0.00     0.009 C 
BRANCH   6   7
ATOM      7  C   UNL     1      -8.633   3.347  -9.515  1.00  0.00     0.032 C 
ATOM      8  C   UNL     1      -9.338   2.394  -8.539  1.00  0.00     0.014 C 
BRANCH   7   9
ATOM      9  C   UNL     1      -7.170   3.005  -9.582  1.00  0.00     0.044 C 
ATOM     10  O   UNL     1      -6.792   1.812  -9.440  1.00  0.00    -0.550 OA
ATOM     11  O   UNL     1      -6.226   4.002  -9.801  1.00  0.00    -0.550 OA
ENDBRANCH   7   9
ENDBRANCH   6   7
ENDBRANCH   5   6
ENDBRANCH   4   5
ENDBRANCH   3   4
ENDBRANCH   2   3
ENDBRANCH   1   2
BRANCH   1  12
ATOM     12  C   UNL     1      -9.140   2.094  -4.788  1.00  0.00     0.000 C 
BRANCH  12  13
ATOM     13  C   UNL     1      -7.962   1.302  -4.197  1.00  0.00    -0.000 C 
BRANCH  13  14
ATOM     14  C   UNL     1      -7.136   2.129  -3.198  1.00  0.00    -0.000 C 
BRANCH  14  15
ATOM     15  C   UNL     1      -5.720   1.571  -2.992  1.00  0.00    -0.000 C 
BRANCH  15  16
ATOM     16  C   UNL     1      -5.285   1.707  -1.525  1.00  0.00    -0.000 C 
BRANCH  16  17
ATOM     17  C   UNL     1      -5.975   2.879  -0.809  1.00  0.00    -0.000 C 
BRANCH  17  18
ATOM     18  C   UNL     1      -5.193   3.367   0.419  1.00  0.00    -0.003 C 
ATOM     19  C   UNL     1      -5.143   2.292   1.501  1.00  0.00     0.004 C 
ENDBRANCH  17  18
ENDBRANCH  16  17
ENDBRANCH  15  16
ENDBRANCH  14  15
ENDBRANCH  13  14
ENDBRANCH  12  13
ENDBRANCH   1  12
TORSDOF 14
ENDMDL
MODEL 2
REMARK VINA RESULT:    -3.373     14.541     16.198
REMARK INTER + INTRA:          -7.356
REMARK INTER:                  -5.358
REMARK INTRA:                  -1.998
REMARK UNBOUND:                -1.223
REMARK SMILES CCCCCCCCCCCCCC[C@H](C)C(=O)[O-]
REMARK SMILES IDX 9 1 10 2 11 3 12 4 13 5 14 6 15 7 16 8 17 9 18 10 19 11 8 12
REMARK SMILES IDX 7 13 6 14 5 15 4 16 3 17 2 18 1 19
REMARK H PARENT
REMARK Flexibility Score: inf
ROOT
ATOM      1  C   UNL     1       5.081   7.123  -2.729  1.00  0.00     0.000 C 
ENDROOT
BRANCH   1   2
ATOM      2  C   UNL     1       4.158   7.918  -3.676  1.00  0.00     0.000 C 
BRANCH   2   3
ATOM      3  C   UNL     1       4.261   9.449  -3.557  1.00  0.00     0.000 C 
BRANCH   3   4
ATOM      4  C   UNL     1       4.863  10.105  -4.809  1.00  0.00     0.000 C 
BRANCH   4   5
ATOM      5  C   UNL     1       5.079   9.071  -5.921  1.00  0.00     0.001 C 
BRANCH   5   6
ATOM      6  C   UNL     1       6.354   9.382  -6.722  1.00  0.00     0.009 C 
BRANCH   6   7
ATOM      7  C   UNL     1       7.639   8.942  -5.990  1.00  0.00     0.032 C 
ATOM      8  C   UNL     1       8.375  10.125  -5.345  1.00  0.00     0.014 C 
BRANCH   7   9
ATOM      9  C   UNL     1       8.559   8.245  -6.955  1.00  0.00     0.044 C 
ATOM     10  O   UNL     1       8.343   8.310  -8.194  1.00  0.00    -0.550 OA
ATOM     11  O   UNL     1       9.652   7.525  -6.486  1.00  0.00    -0.550 OA
ENDBRANCH   7   9
ENDBRANCH   6   7
ENDBRANCH   5   6
ENDBRANCH   4   5
ENDBRANCH   3   4
ENDBRANCH   2   3
ENDBRANCH   1   2
BRANCH   1  12
ATOM     12  C   UNL     1       6.443   7.779  -2.436  1.00  0.00     0.000 C 
BRANCH  12  13
ATOM     13  C   UNL     1       7.617   7.034  -3.092  1.00  0.00    -0.000 C 
BRANCH  13  14
ATOM     14  C   UNL     1       8.891   7.064  -2.232  1.00  0.00    -0.000 C 
BRANCH  14  15
ATOM     15  C   UNL     1       9.916   8.096  -2.724  1.00  0.00    -0.000 C 
BRANCH  15  16
ATOM     16  C   UNL     1       9.925   9.336  -1.816  1.00  0.00    -0.000 C 
BRANCH  16  17
ATOM     17  C   UNL     1       9.449   9.027  -0.388  1.00  0.00    -0.000 C 
BRANCH  17  18
ATOM     18  C   UNL     1       8.191   9.815   0.001  1.00  0.00    -0.003 C 
ATOM     19  C   UNL     1       7.740   9.468   1.418  1.00  0.00     0.004 C 
ENDBRANCH  17  18
ENDBRANCH  16  17
ENDBRANCH  15  16
ENDBRANCH  14  15
ENDBRANCH  13  14
ENDBRANCH  12  13
ENDBRANCH   1  12
TORSDOF 14
ENDMDL
MODEL 3
REMARK VINA RESULT:    -3.298      1.215      2.379
REMARK INTER + INTRA:          -7.220
REMARK INTER:                  -5.839
REMARK INTRA:                  -1.382
REMARK UNBOUND:                -1.223
REMARK SMILES CCCCCCCCCCCCCC[C@H](C)C(=O)[O-]
REMARK SMILES IDX 9 1 10 2 11 3 12 4 13 5 14 6 15 7 16 8 17 9 18 10 19 11 8 12
REMARK SMILES IDX 7 13 6 14 5 15 4 16 3 17 2 18 1 19
REMARK H PARENT
REMARK Flexibility Score: inf
ROOT
ATOM      1  C   UNL     1      -9.820   2.377  -4.985  1.00  0.00     0.000 C 
ENDROOT
BRANCH   1   2
ATOM      2  C   UNL     1      -9.731   0.888  -5.381  1.00  0.00     0.000 C 
BRANCH   2   3
ATOM      3  C   UNL     1     -10.062   0.582  -6.853  1.00  0.00     0.000 C 
BRANCH   3   4
ATOM      4  C   UNL     1      -9.028   1.159  -7.830  1.00  0.00     0.000 C 
BRANCH   4   5
ATOM      5  C   UNL     1      -9.715   1.839  -9.020  1.00  0.00     0.001 C 
BRANCH   5   6
ATOM      6  C   UNL     1      -9.413   3.345  -9.045  1.00  0.00     0.009 C 
BRANCH   6   7
ATOM      7  C   UNL     1      -8.072   3.696  -8.366  1.00  0.00     0.032 C 
ATOM      8  C   UNL     1      -8.180   4.937  -7.470  1.00  0.00     0.014 C 
BRANCH   7   9
ATOM      9  C   UNL     1      -7.018   3.924  -9.415  1.00  0.00     0.044 C 
ATOM     10  O   UNL     1      -6.390   2.947  -9.902  1.00  0.00    -0.550 OA
ATOM     11  O   UNL     1      -6.731   5.211  -9.853  1.00  0.00    -0.550 OA
ENDBRANCH   7   9
ENDBRANCH   6   7
ENDBRANCH   5   6
ENDBRANCH   4   5
ENDBRANCH   3   4
ENDBRANCH   2   3
ENDBRANCH   1   2
BRANCH   1  12
ATOM     12  C   UNL     1      -8.512   2.997  -4.462  1.00  0.00     0.000 C 
BRANCH  12  13
ATOM     13  C   UNL     1      -7.981   2.295  -3.200  1.00  0.00    -0.000 C 
BRANCH  13  14
ATOM     14  C   UNL     1      -6.596   1.661  -3.415  1.00  0.00    -0.000 C 
BRANCH  14  15
ATOM     15  C   UNL     1      -5.597   2.029  -2.307  1.00  0.00    -0.000 C 
BRANCH  15  16
ATOM     16  C   UNL     1      -6.299   2.778  -1.164  1.00  0.00    -0.000 C 
BRANCH  16  17
ATOM     17  C   UNL     1      -5.351   3.104   0.001  1.00  0.00    -0.000 C 
BRANCH  17  18
ATOM     18  C   UNL     1      -5.631   2.254   1.248  1.00  0.00    -0.003 C 
ATOM     19  C   UNL     1      -4.851   2.772   2.453  1.00  0.00     0.004 C 
ENDBRANCH  17  18
ENDBRANCH  16  17
ENDBRANCH  15  16
ENDBRANCH  14  15
ENDBRANCH  13  14
ENDBRANCH  12  13
ENDBRANCH   1  12
TORSDOF 14
ENDMDL
MODEL 4
REMARK VINA RESULT:    -3.226      2.046      3.850
REMARK INTER + INTRA:          -7.090
REMARK INTER:                  -5.276
REMARK INTRA:                  -1.814
REMARK UNBOUND:                -1.223
REMARK SMILES CCCCCCCCCCCCCC[C@H](C)C(=O)[O-]
REMARK SMILES IDX 9 1 10 2 11 3 12 4 13 5 14 6 15 7 16 8 17 9 18 10 19 11 8 12
REMARK SMILES IDX 7 13 6 14 5 15 4 16 3 17 2 18 1 19
REMARK H PARENT
REMARK Flexibility Score: inf
ROOT
ATOM      1  C   UNL     1      -9.354   0.396  -7.496  1.00  0.00     0.000 C 
ENDROOT
BRANCH   1   2
ATOM      2  C   UNL     1      -8.486   0.977  -8.632  1.00  0.00     0.000 C 
BRANCH   2   3
ATOM      3  C   UNL     1      -8.768   2.450  -8.982  1.00  0.00     0.000 C 
BRANCH   3   4
ATOM      4  C   UNL     1     -10.003   3.009  -8.261  1.00  0.00     0.000 C 
BRANCH   4   5
ATOM      5  C   UNL     1      -9.771   4.458  -7.816  1.00  0.00     0.001 C 
BRANCH   5   6
ATOM      6  C   UNL     1      -8.289   4.706  -7.494  1.00  0.00     0.009 C 
BRANCH   6   7
ATOM      7  C   UNL     1      -8.075   5.930  -6.579  1.00  0.00     0.032 C 
ATOM      8  C   UNL     1      -9.246   6.146  -5.611  1.00  0.00     0.014 C 
BRANCH   7   9
ATOM      9  C   UNL     1      -7.884   7.163  -7.419  1.00  0.00     0.044 C 
ATOM     10  O   UNL     1      -7.422   7.068  -8.586  1.00  0.00    -0.550 OA
ATOM     11  O   UNL     1      -8.217   8.415  -6.914  1.00  0.00    -0.550 OA
ENDBRANCH   7   9
ENDBRANCH   6   7
ENDBRANCH   5   6
ENDBRANCH   4   5
ENDBRANCH   3   4
ENDBRANCH   2   3
ENDBRANCH   1   2
BRANCH   1  12
ATOM     12  C   UNL     1      -8.579  -0.067  -6.249  1.00  0.00     0.000 C 
BRANCH  12  13
ATOM     13  C   UNL     1      -9.229   0.401  -4.935  1.00  0.00    -0.000 C 
BRANCH  13  14
ATOM     14  C   UNL     1      -9.568   1.900  -4.944  1.00  0.00    -0.000 C 
BRANCH  14  15
ATOM     15  C   UNL     1      -8.534   2.747  -4.188  1.00  0.00    -0.000 C 
BRANCH  15  16
ATOM     16  C   UNL     1      -7.478   1.853  -3.519  1.00  0.00    -0.000 C 
BRANCH  16  17
ATOM     17  C   UNL     1      -6.885   2.485  -2.250  1.00  0.00    -0.000 C 
BRANCH  17  18
ATOM     18  C   UNL     1      -5.436   2.048  -1.992  1.00  0.00    -0.003 C 
ATOM     19  C   UNL     1      -4.877   1.269  -3.180  1.00  0.00     0.004 C 
ENDBRANCH  17  18
ENDBRANCH  16  17
ENDBRANCH  15  16
ENDBRANCH  14  15
ENDBRANCH  13  14
ENDBRANCH  12  13
ENDBRANCH   1  12
TORSDOF 14
ENDMDL
MODEL 5
REMARK VINA RESULT:    -3.219     14.185     15.748
REMARK INTER + INTRA:          -7.075
REMARK INTER:                  -6.041
REMARK INTRA:                  -1.034
REMARK UNBOUND:                -1.223
REMARK SMILES CCCCCCCCCCCCCC[C@H](C)C(=O)[O-]
REMARK SMILES IDX 9 1 10 2 11 3 12 4 13 5 14 6 15 7 16 8 17 9 18 10 19 11 8 12
REMARK SMILES IDX 7 13 6 14 5 15 4 16 3 17 2 18 1 19
REMARK H PARENT
REMARK Flexibility Score: inf
ROOT
ATOM      1  C   UNL     1       5.121   7.479  -2.668  1.00  0.00     0.000 C 
ENDROOT
BRANCH   1   2
ATOM      2  C   UNL     1       4.207   8.120  -3.732  1.00  0.00     0.000 C 
BRANCH   2   3
ATOM      3  C   UNL     1       4.867   9.219  -4.584  1.00  0.00     0.000 C 
BRANCH   3   4
ATOM      4  C   UNL     1       4.233   9.357  -5.976  1.00  0.00     0.000 C 
BRANCH   4   5
ATOM      5  C   UNL     1       5.259   9.856  -7.001  1.00  0.00     0.001 C 
BRANCH   5   6
ATOM      6  C   UNL     1       6.141   8.703  -7.505  1.00  0.00     0.009 C 
BRANCH   6   7
ATOM      7  C   UNL     1       7.599   9.137  -7.764  1.00  0.00     0.032 C 
ATOM      8  C   UNL     1       8.066   8.793  -9.185  1.00  0.00     0.014 C 
BRANCH   7   9
ATOM      9  C   UNL     1       8.509   8.479  -6.763  1.00  0.00     0.044 C 
ATOM     10  O   UNL     1       9.239   7.514  -7.111  1.00  0.00    -0.550 OA
ATOM     11  O   UNL     1       8.552   8.933  -5.450  1.00  0.00    -0.550 OA
ENDBRANCH   7   9
ENDBRANCH   6   7
ENDBRANCH   5   6
ENDBRANCH   4   5
ENDBRANCH   3   4
ENDBRANCH   2   3
ENDBRANCH   1   2
BRANCH   1  12
ATOM     12  C   UNL     1       6.554   7.165  -3.135  1.00  0.00     0.000 C 
BRANCH  12  13
ATOM     13  C   UNL     1       7.626   7.661  -2.149  1.00  0.00    -0.000 C 
BRANCH  13  14
ATOM     14  C   UNL     1       7.158   8.875  -1.329  1.00  0.00    -0.000 C 
BRANCH  14  15
ATOM     15  C   UNL     1       8.070   9.166  -0.128  1.00  0.00    -0.000 C 
BRANCH  15  16
ATOM     16  C   UNL     1       7.262   9.743   1.045  1.00  0.00    -0.000 C 
BRANCH  16  17
ATOM     17  C   UNL     1       7.917   9.467   2.408  1.00  0.00    -0.000 C 
BRANCH  17  18
ATOM     18  C   UNL     1       6.922   8.928   3.446  1.00  0.00    -0.003 C 
ATOM     19  C   UNL     1       5.604   9.698   3.396  1.00  0.00     0.004 C 
ENDBRANCH  17  18
ENDBRANCH  16  17
ENDBRANCH  15  16
ENDBRANCH  14  15
ENDBRANCH  13  14
ENDBRANCH  12  13
ENDBRANCH   1  12
TORSDOF 14
ENDMDL
MODEL 6
REMARK VINA RESULT:    -3.217      1.983      3.042
REMARK INTER + INTRA:          -7.072
REMARK INTER:                  -5.833
REMARK INTRA:                  -1.239
REMARK UNBOUND:                -1.223
REMARK SMILES CCCCCCCCCCCCCC[C@H](C)C(=O)[O-]
REMARK SMILES IDX 9 1 10 2 11 3 12 4 13 5 14 6 15 7 16 8 17 9 18 10 19 11 8 12
REMARK SMILES IDX 7 13 6 14 5 15 4 16 3 17 2 18 1 19
REMARK H PARENT
REMARK Flexibility Score: inf
ROOT
ATOM      1  C   UNL     1      -9.275   0.054  -5.785  1.00  0.00     0.000 C 
ENDROOT
BRANCH   1   2
ATOM      2  C   UNL     1      -9.968   0.211  -7.154  1.00  0.00     0.000 C 
BRANCH   2   3
ATOM      3  C   UNL     1      -9.047   0.655  -8.305  1.00  0.00     0.000 C 
BRANCH   3   4
ATOM      4  C   UNL     1      -9.696   1.706  -9.217  1.00  0.00     0.000 C 
BRANCH   4   5
ATOM      5  C   UNL     1      -9.838   3.051  -8.493  1.00  0.00     0.001 C 
BRANCH   5   6
ATOM      6  C   UNL     1      -8.463   3.608  -8.091  1.00  0.00     0.009 C 
BRANCH   6   7
ATOM      7  C   UNL     1      -7.963   4.711  -9.047  1.00  0.00     0.032 C 
ATOM      8  C   UNL     1      -6.664   4.317  -9.763  1.00  0.00     0.014 C 
BRANCH   7   9
ATOM      9  C   UNL     1      -7.747   5.987  -8.281  1.00  0.00     0.044 C 
ATOM     10  O   UNL     1      -7.243   6.990  -8.852  1.00  0.00    -0.550 OA
ATOM     11  O   UNL     1      -8.103   6.069  -6.939  1.00  0.00    -0.550 OA
ENDBRANCH   7   9
ENDBRANCH   6   7
ENDBRANCH   5   6
ENDBRANCH   4   5
ENDBRANCH   3   4
ENDBRANCH   2   3
ENDBRANCH   1   2
BRANCH   1  12
ATOM     12  C   UNL     1      -9.544   1.187  -4.778  1.00  0.00     0.000 C 
BRANCH  12  13
ATOM     13  C   UNL     1      -8.372   2.177  -4.666  1.00  0.00    -0.000 C 
BRANCH  13  14
ATOM     14  C   UNL     1      -7.675   2.116  -3.297  1.00  0.00    -0.000 C 
BRANCH  14  15
ATOM     15  C   UNL     1      -6.273   1.494  -3.373  1.00  0.00    -0.000 C 
BRANCH  15  16
ATOM     16  C   UNL     1      -5.382   2.012  -2.233  1.00  0.00    -0.000 C 
BRANCH  16  17
ATOM     17  C   UNL     1      -6.183   2.730  -1.135  1.00  0.00    -0.000 C 
BRANCH  17  18
ATOM     18  C   UNL     1      -5.284   3.355  -0.059  1.00  0.00    -0.003 C 
ATOM     19  C   UNL     1      -5.310   2.532   1.226  1.00  0.00     0.004 C 
ENDBRANCH  17  18
ENDBRANCH  16  17
ENDBRANCH  15  16
ENDBRANCH  14  15
ENDBRANCH  13  14
ENDBRANCH  12  13
ENDBRANCH   1  12
TORSDOF 14
ENDMDL
MODEL 7
REMARK VINA RESULT:    -3.205      2.470      3.290
REMARK INTER + INTRA:          -7.050
REMARK INTER:                  -6.208
REMARK INTRA:                  -0.842
REMARK UNBOUND:                -1.223
REMARK SMILES CCCCCCCCCCCCCC[C@H](C)C(=O)[O-]
REMARK SMILES IDX 9 1 10 2 11 3 12 4 13 5 14 6 15 7 16 8 17 9 18 10 19 11 8 12
REMARK SMILES IDX 7 13 6 14 5 15 4 16 3 17 2 18 1 19
REMARK H PARENT
REMARK Flexibility Score: inf
ROOT
ATOM      1  C   UNL     1      -9.054   2.368  -5.309  1.00  0.00     0.000 C 
ENDROOT
BRANCH   1   2
ATOM      2  C   UNL     1      -9.373   3.733  -4.664  1.00  0.00     0.000 C 
BRANCH   2   3
ATOM      3  C   UNL     1      -9.832   4.827  -5.645  1.00  0.00     0.000 C 
BRANCH   3   4
ATOM      4  C   UNL     1      -9.449   6.241  -5.184  1.00  0.00     0.000 C 
BRANCH   4   5
ATOM      5  C   UNL     1      -8.213   6.748  -5.937  1.00  0.00     0.001 C 
BRANCH   5   6
ATOM      6  C   UNL     1      -8.537   8.020  -6.736  1.00  0.00     0.009 C 
BRANCH   6   7
ATOM      7  C   UNL     1      -8.125   7.912  -8.220  1.00  0.00     0.032 C 
ATOM      8  C   UNL     1      -7.791   6.471  -8.629  1.00  0.00     0.014 C 
BRANCH   7   9
ATOM      9  C   UNL     1      -6.937   8.797  -8.482  1.00  0.00     0.044 C 
ATOM     10  O   UNL     1      -6.186   8.571  -9.467  1.00  0.00    -0.550 OA
ATOM     11  O   UNL     1      -6.662   9.869  -7.641  1.00  0.00    -0.550 OA
ENDBRANCH   7   9
ENDBRANCH   6   7
ENDBRANCH   5   6
ENDBRANCH   4   5
ENDBRANCH   3   4
ENDBRANCH   2   3
ENDBRANCH   1   2
BRANCH   1  12
ATOM     12  C   UNL     1      -8.337   1.360  -4.392  1.00  0.00     0.000 C 
BRANCH  12  13
ATOM     13  C   UNL     1      -7.474   2.040  -3.316  1.00  0.00    -0.000 C 
BRANCH  13  14
ATOM     14  C   UNL     1      -6.017   1.546  -3.327  1.00  0.00    -0.000 C 
BRANCH  14  15
ATOM     15  C   UNL     1      -5.292   1.808  -1.998  1.00  0.00    -0.000 C 
BRANCH  15  16
ATOM     16  C   UNL     1      -6.118   2.742  -1.099  1.00  0.00    -0.000 C 
BRANCH  16  17
ATOM     17  C   UNL     1      -5.255   3.488  -0.070  1.00  0.00    -0.000 C 
BRANCH  17  18
ATOM     18  C   UNL     1      -4.659   2.553   0.993  1.00  0.00    -0.003 C 
ATOM     19  C   UNL     1      -5.601   2.406   2.185  1.00  0.00     0.004 C 
ENDBRANCH  17  18
ENDBRANCH  16  17
ENDBRANCH  15  16
ENDBRANCH  14  15
ENDBRANCH  13  14
ENDBRANCH  12  13
ENDBRANCH   1  12
TORSDOF 14
ENDMDL
MODEL 8
REMARK VINA RESULT:    -3.185     14.743     18.037
REMARK INTER + INTRA:          -7.014
REMARK INTER:                  -6.067
REMARK INTRA:                  -0.947
REMARK UNBOUND:                -1.223
REMARK SMILES CCCCCCCCCCCCCC[C@H](C)C(=O)[O-]
REMARK SMILES IDX 9 1 10 2 11 3 12 4 13 5 14 6 15 7 16 8 17 9 18 10 19 11 8 12
REMARK SMILES IDX 7 13 6 14 5 15 4 16 3 17 2 18 1 19
REMARK H PARENT
REMARK Flexibility Score: inf
ROOT
ATOM      1  C   UNL     1       7.815   7.283  -2.622  1.00  0.00     0.000 C 
ENDROOT
BRANCH   1   2
ATOM      2  C   UNL     1       8.984   7.893  -1.821  1.00  0.00     0.000 C 
BRANCH   2   3
ATOM      3  C   UNL     1       8.764   9.340  -1.343  1.00  0.00     0.000 C 
BRANCH   3   4
ATOM      4  C   UNL     1       9.058   9.526   0.152  1.00  0.00     0.000 C 
BRANCH   4   5
ATOM      5  C   UNL     1       7.783   9.361   0.988  1.00  0.00     0.001 C 
BRANCH   5   6
ATOM      6  C   UNL     1       8.030   9.751   2.454  1.00  0.00     0.009 C 
BRANCH   6   7
ATOM      7  C   UNL     1       7.138   8.964   3.438  1.00  0.00     0.032 C 
ATOM      8  C   UNL     1       5.700   9.500   3.477  1.00  0.00     0.014 C 
BRANCH   7   9
ATOM      9  C   UNL     1       7.733   9.021   4.818  1.00  0.00     0.044 C 
ATOM     10  O   UNL     1       8.827   8.445   5.059  1.00  0.00    -0.550 OA
ATOM     11  O   UNL     1       7.082   9.709   5.835  1.00  0.00    -0.550 OA
ENDBRANCH   7   9
ENDBRANCH   6   7
ENDBRANCH   5   6
ENDBRANCH   4   5
ENDBRANCH   3   4
ENDBRANCH   2   3
ENDBRANCH   1   2
BRANCH   1  12
ATOM     12  C   UNL     1       6.412   7.766  -2.208  1.00  0.00     0.000 C 
BRANCH  12  13
ATOM     13  C   UNL     1       5.292   7.142  -3.058  1.00  0.00    -0.000 C 
BRANCH  13  14
ATOM     14  C   UNL     1       4.313   8.192  -3.608  1.00  0.00    -0.000 C 
BRANCH  14  15
ATOM     15  C   UNL     1       5.026   9.367  -4.294  1.00  0.00    -0.000 C 
BRANCH  15  16
ATOM     16  C   UNL     1       5.823   8.885  -5.516  1.00  0.00    -0.000 C 
BRANCH  16  17
ATOM     17  C   UNL     1       5.552   9.729  -6.771  1.00  0.00    -0.000 C 
BRANCH  17  18
ATOM     18  C   UNL     1       4.711   8.983  -7.817  1.00  0.00    -0.003 C 
ATOM     19  C   UNL     1       3.243   8.923  -7.401  1.00  0.00     0.004 C 
ENDBRANCH  17  18
ENDBRANCH  16  17
ENDBRANCH  15  16
ENDBRANCH  14  15
ENDBRANCH  13  14
ENDBRANCH  12  13
ENDBRANCH   1  12
TORSDOF 14
ENDMDL
MODEL 9
REMARK VINA RESULT:    -3.111      2.840      3.978
REMARK INTER + INTRA:          -6.881
REMARK INTER:                  -6.001
REMARK INTRA:                  -0.879
REMARK UNBOUND:                -1.223
REMARK SMILES CCCCCCCCCCCCCC[C@H](C)C(=O)[O-]
REMARK SMILES IDX 9 1 10 2 11 3 12 4 13 5 14 6 15 7 16 8 17 9 18 10 19 11 8 12
REMARK SMILES IDX 7 13 6 14 5 15 4 16 3 17 2 18 1 19
REMARK H PARENT
REMARK Flexibility Score: inf
ROOT
ATOM      1  C   UNL     1      -9.561   4.321  -5.646  1.00  0.00     0.000 C 
ENDROOT
BRANCH   1   2
ATOM      2  C   UNL     1      -8.594   3.848  -6.751  1.00  0.00     0.000 C 
BRANCH   2   3
ATOM      3  C   UNL     1      -8.528   4.753  -7.995  1.00  0.00     0.000 C 
BRANCH   3   4
ATOM      4  C   UNL     1      -9.495   5.944  -7.918  1.00  0.00     0.000 C 
BRANCH   4   5
ATOM      5  C   UNL     1      -8.805   7.241  -8.359  1.00  0.00     0.001 C 
BRANCH   5   6
ATOM      6  C   UNL     1      -7.928   7.810  -7.233  1.00  0.00     0.009 C 
BRANCH   6   7
ATOM      7  C   UNL     1      -7.853   9.351  -7.257  1.00  0.00     0.032 C 
ATOM      8  C   UNL     1      -9.175   9.992  -7.701  1.00  0.00     0.014 C 
BRANCH   7   9
ATOM      9  C   UNL     1      -6.748   9.790  -8.179  1.00  0.00     0.044 C 
ATOM     10  O   UNL     1      -7.008  10.123  -9.365  1.00  0.00    -0.550 OA
ATOM     11  O   UNL     1      -5.434   9.833  -7.728  1.00  0.00    -0.550 OA
ENDBRANCH   7   9
ENDBRANCH   6   7
ENDBRANCH   5   6
ENDBRANCH   4   5
ENDBRANCH   3   4
ENDBRANCH   2   3
ENDBRANCH   1   2
BRANCH   1  12
ATOM     12  C   UNL     1      -9.733   3.351  -4.464  1.00  0.00     0.000 C 
BRANCH  12  13
ATOM     13  C   UNL     1      -8.653   2.257  -4.426  1.00  0.00    -0.000 C 
BRANCH  13  14
ATOM     14  C   UNL     1      -7.770   2.341  -3.170  1.00  0.00    -0.000 C 
BRANCH  14  15
ATOM     15  C   UNL     1      -6.412   1.646  -3.351  1.00  0.00    -0.000 C 
BRANCH  15  16
ATOM     16  C   UNL     1      -5.466   1.982  -2.187  1.00  0.00    -0.000 C 
BRANCH  16  17
ATOM     17  C   UNL     1      -6.187   2.671  -1.018  1.00  0.00    -0.000 C 
BRANCH  17  18
ATOM     18  C   UNL     1      -5.214   3.294  -0.007  1.00  0.00    -0.003 C 
ATOM     19  C   UNL     1      -5.299   2.588   1.344  1.00  0.00     0.004 C 
ENDBRANCH  17  18
ENDBRANCH  16  17
ENDBRANCH  15  16
ENDBRANCH  14  15
ENDBRANCH  13  14
ENDBRANCH  12  13
ENDBRANCH   1  12
TORSDOF 14
ENDMDL
