MODEL 1
REMARK VINA RESULT:    -5.286      0.000      0.000
REMARK INTER + INTRA:          -6.401
REMARK INTER:                  -6.368
REMARK INTRA:                  -0.033
REMARK UNBOUND:                -0.033
REMARK SMILES Oc1cc(O)c2c(c1)O[C@H](c1ccc(O)c(O)c1)[C@H](O)C2
REMARK SMILES IDX 21 1 19 2 10 3 9 4 7 5 8 6 2 7 3 8 4 9 6 10 20 11 11 13
REMARK SMILES IDX 18 14 12 15 16 16 13 17 14 18 17 19 15 21 5 23 1 25
REMARK H PARENT 20 12 17 20 15 22 5 24 1 26
REMARK Flexibility Score: inf
ROOT
ATOM      1  C   UNL     1      69.796   6.703 364.904  1.00  0.00     0.079 C 
ATOM      2  C   UNL     1      69.907   7.359 366.291  1.00  0.00     0.164 C 
ATOM      3  C   UNL     1      70.034   8.894 366.173  1.00  0.00     0.232 C 
ATOM      4  O   UNL     1      68.984   9.425 365.359  1.00  0.00    -0.482 OA
ATOM      5  C   UNL     1      68.385   8.713 364.311  1.00  0.00     0.131 A 
ATOM      6  C   UNL     1      67.427   9.348 363.515  1.00  0.00     0.093 A 
ATOM      7  C   UNL     1      66.828   8.665 362.454  1.00  0.00     0.122 A 
ATOM      8  C   UNL     1      67.190   7.339 362.185  1.00  0.00     0.092 A 
ATOM      9  C   UNL     1      68.146   6.691 362.977  1.00  0.00     0.126 A 
ATOM     10  C   UNL     1      68.736   7.371 364.060  1.00  0.00     0.039 A 
ENDROOT
BRANCH   2  11
ATOM     11  O   UNL     1      71.003   6.831 366.993  1.00  0.00    -0.389 OA
ATOM     12  H   UNL     1      71.349   7.559 367.573  1.00  0.00     0.211 HD
ENDBRANCH   2  11
BRANCH   3  13
ATOM     13  C   UNL     1      71.398   9.336 365.668  1.00  0.00    -0.001 A 
ATOM     14  C   UNL     1      72.519   9.397 366.516  1.00  0.00     0.057 A 
ATOM     15  C   UNL     1      71.540   9.732 364.327  1.00  0.00     0.012 A 
ATOM     16  C   UNL     1      73.758   9.833 366.033  1.00  0.00     0.157 A 
ATOM     17  C   UNL     1      72.775  10.167 363.842  1.00  0.00     0.050 A 
ATOM     18  C   UNL     1      73.889  10.219 364.689  1.00  0.00     0.157 A 
BRANCH  16  19
ATOM     19  O   UNL     1      74.847   9.877 366.904  1.00  0.00    -0.504 OA
ATOM     20  H   UNL     1      74.759   9.654 367.888  1.00  0.00     0.293 HD
ENDBRANCH  16  19
BRANCH  18  21
ATOM     21  O   UNL     1      75.121  10.654 364.202  1.00  0.00    -0.504 OA
ATOM     22  H   UNL     1      75.417  10.454 363.255  1.00  0.00     0.293 HD
ENDBRANCH  18  21
ENDBRANCH   3  13
BRANCH   9  23
ATOM     23  O   UNL     1      68.514   5.376 362.691  1.00  0.00    -0.507 OA
ATOM     24  H   UNL     1      67.916   4.763 362.148  1.00  0.00     0.293 HD
ENDBRANCH   9  23
BRANCH   7  25
ATOM     25  O   UNL     1      65.876   9.314 361.669  1.00  0.00    -0.508 OA
ATOM     26  H   UNL     1      64.888   9.106 361.754  1.00  0.00     0.293 HD
ENDBRANCH   7  25
TORSDOF 6
ENDMDL
MODEL 2
REMARK VINA RESULT:    -5.051      2.006      6.304
REMARK INTER + INTRA:          -6.117
REMARK INTER:                  -6.100
REMARK INTRA:                  -0.017
REMARK UNBOUND:                -0.033
REMARK SMILES Oc1cc(O)c2c(c1)O[C@H](c1ccc(O)c(O)c1)[C@H](O)C2
REMARK SMILES IDX 21 1 19 2 10 3 9 4 7 5 8 6 2 7 3 8 4 9 6 10 20 11 11 13
REMARK SMILES IDX 18 14 12 15 16 16 13 17 14 18 17 19 15 21 5 23 1 25
REMARK H PARENT 20 12 17 20 15 22 5 24 1 26
REMARK Flexibility Score: inf
ROOT
ATOM      1  C   UNL     1      71.178  10.957 363.910  1.00  0.00     0.079 C 
ATOM      2  C   UNL     1      70.167  11.380 364.990  1.00  0.00     0.164 C 
ATOM      3  C   UNL     1      70.071  10.318 366.109  1.00  0.00     0.232 C 
ATOM      4  O   UNL     1      71.372  10.003 366.618  1.00  0.00    -0.482 OA
ATOM      5  C   UNL     1      72.539  10.069 365.844  1.00  0.00     0.131 A 
ATOM      6  C   UNL     1      73.751   9.657 366.405  1.00  0.00     0.093 A 
ATOM      7  C   UNL     1      74.926   9.697 365.650  1.00  0.00     0.122 A 
ATOM      8  C   UNL     1      74.888  10.149 364.325  1.00  0.00     0.092 A 
ATOM      9  C   UNL     1      73.679  10.566 363.753  1.00  0.00     0.126 A 
ATOM     10  C   UNL     1      72.498  10.547 364.519  1.00  0.00     0.039 A 
ENDROOT
BRANCH   2  11
ATOM     11  O   UNL     1      68.904  11.600 364.417  1.00  0.00    -0.389 OA
ATOM     12  H   UNL     1      69.062  12.016 363.529  1.00  0.00     0.211 HD
ENDBRANCH   2  11
BRANCH   3  13
ATOM     13  C   UNL     1      69.335   9.063 365.669  1.00  0.00    -0.001 A 
ATOM     14  C   UNL     1      70.022   7.895 365.288  1.00  0.00     0.057 A 
ATOM     15  C   UNL     1      67.931   9.076 365.601  1.00  0.00     0.012 A 
ATOM     16  C   UNL     1      69.322   6.761 364.860  1.00  0.00     0.157 A 
ATOM     17  C   UNL     1      67.230   7.946 365.175  1.00  0.00     0.050 A 
ATOM     18  C   UNL     1      67.919   6.785 364.804  1.00  0.00     0.157 A 
BRANCH  16  19
ATOM     19  O   UNL     1      70.039   5.622 364.493  1.00  0.00    -0.504 OA
ATOM     20  H   UNL     1      69.681   4.688 364.649  1.00  0.00     0.293 HD
ENDBRANCH  16  19
BRANCH  18  21
ATOM     21  O   UNL     1      67.217   5.658 364.379  1.00  0.00    -0.504 OA
ATOM     22  H   UNL     1      66.205   5.641 364.358  1.00  0.00     0.293 HD
ENDBRANCH  18  21
ENDBRANCH   3  13
BRANCH   9  23
ATOM     23  O   UNL     1      73.648  10.998 362.426  1.00  0.00    -0.507 OA
ATOM     24  H   UNL     1      73.703  10.345 361.654  1.00  0.00     0.293 HD
ENDBRANCH   9  23
BRANCH   7  25
ATOM     25  O   UNL     1      76.126   9.281 366.224  1.00  0.00    -0.508 OA
ATOM     26  H   UNL     1      76.146   8.608 366.982  1.00  0.00     0.293 HD
ENDBRANCH   7  25
TORSDOF 6
ENDMDL
MODEL 3
REMARK VINA RESULT:    -5.029      8.824     11.002
REMARK INTER + INTRA:          -6.091
REMARK INTER:                  -6.342
REMARK INTRA:                   0.252
REMARK UNBOUND:                -0.033
REMARK SMILES Oc1cc(O)c2c(c1)O[C@H](c1ccc(O)c(O)c1)[C@H](O)C2
REMARK SMILES IDX 21 1 19 2 10 3 9 4 7 5 8 6 2 7 3 8 4 9 6 10 20 11 11 13
REMARK SMILES IDX 18 14 12 15 16 16 13 17 14 18 17 19 15 21 5 23 1 25
REMARK H PARENT 20 12 17 20 15 22 5 24 1 26
REMARK Flexibility Score: inf
ROOT
ATOM      1  C   UNL     1      66.814   8.616 354.119  1.00  0.00     0.079 C 
ATOM      2  C   UNL     1      66.930   8.564 355.652  1.00  0.00     0.164 C 
ATOM      3  C   UNL     1      68.314   9.063 356.124  1.00  0.00     0.232 C 
ATOM      4  O   UNL     1      68.606  10.345 355.559  1.00  0.00    -0.482 OA
ATOM      5  C   UNL     1      68.122  10.768 354.314  1.00  0.00     0.131 A 
ATOM      6  C   UNL     1      68.534  12.004 353.807  1.00  0.00     0.093 A 
ATOM      7  C   UNL     1      68.079  12.442 352.561  1.00  0.00     0.122 A 
ATOM      8  C   UNL     1      67.208  11.638 351.815  1.00  0.00     0.092 A 
ATOM      9  C   UNL     1      66.786  10.398 352.314  1.00  0.00     0.126 A 
ATOM     10  C   UNL     1      67.227   9.965 353.579  1.00  0.00     0.039 A 
ENDROOT
BRANCH   2  11
ATOM     11  O   UNL     1      66.698   7.258 356.114  1.00  0.00    -0.389 OA
ATOM     12  H   UNL     1      66.454   7.333 357.073  1.00  0.00     0.211 HD
ENDBRANCH   2  11
BRANCH   3  13
ATOM     13  C   UNL     1      69.428   8.069 355.835  1.00  0.00    -0.001 A 
ATOM     14  C   UNL     1      69.442   7.290 354.663  1.00  0.00     0.057 A 
ATOM     15  C   UNL     1      70.453   7.891 356.780  1.00  0.00     0.012 A 
ATOM     16  C   UNL     1      70.464   6.362 354.433  1.00  0.00     0.157 A 
ATOM     17  C   UNL     1      71.476   6.966 356.553  1.00  0.00     0.050 A 
ATOM     18  C   UNL     1      71.487   6.200 355.382  1.00  0.00     0.157 A 
BRANCH  16  19
ATOM     19  O   UNL     1      70.445   5.611 353.259  1.00  0.00    -0.504 OA
ATOM     20  H   UNL     1      70.120   5.994 352.380  1.00  0.00     0.293 HD
ENDBRANCH  16  19
BRANCH  18  21
ATOM     21  O   UNL     1      72.509   5.277 355.158  1.00  0.00    -0.504 OA
ATOM     22  H   UNL     1      72.343   4.415 354.653  1.00  0.00     0.293 HD
ENDBRANCH  18  21
ENDBRANCH   3  13
BRANCH   9  23
ATOM     23  O   UNL     1      65.933   9.595 351.556  1.00  0.00    -0.507 OA
ATOM     24  H   UNL     1      65.593   9.890 350.648  1.00  0.00     0.293 HD
ENDBRANCH   9  23
BRANCH   7  25
ATOM     25  O   UNL     1      68.501  13.676 352.070  1.00  0.00    -0.508 OA
ATOM     26  H   UNL     1      68.409  13.916 351.090  1.00  0.00     0.293 HD
ENDBRANCH   7  25
TORSDOF 6
ENDMDL
MODEL 4
REMARK VINA RESULT:    -5.026      7.826     10.929
REMARK INTER + INTRA:          -6.087
REMARK INTER:                  -6.042
REMARK INTRA:                  -0.045
REMARK UNBOUND:                -0.033
REMARK SMILES Oc1cc(O)c2c(c1)O[C@H](c1ccc(O)c(O)c1)[C@H](O)C2
REMARK SMILES IDX 21 1 19 2 10 3 9 4 7 5 8 6 2 7 3 8 4 9 6 10 20 11 11 13
REMARK SMILES IDX 18 14 12 15 16 16 13 17 14 18 17 19 15 21 5 23 1 25
REMARK H PARENT 20 12 17 20 15 22 5 24 1 26
REMARK Flexibility Score: inf
ROOT
ATOM      1  C   UNL     1      68.508  10.381 354.382  1.00  0.00     0.079 C 
ATOM      2  C   UNL     1      67.299   9.429 354.399  1.00  0.00     0.164 C 
ATOM      3  C   UNL     1      67.561   8.212 355.314  1.00  0.00     0.232 C 
ATOM      4  O   UNL     1      67.985   8.640 356.613  1.00  0.00    -0.482 OA
ATOM      5  C   UNL     1      68.700   9.824 356.839  1.00  0.00     0.131 A 
ATOM      6  C   UNL     1      69.148  10.114 358.131  1.00  0.00     0.093 A 
ATOM      7  C   UNL     1      69.877  11.279 358.380  1.00  0.00     0.122 A 
ATOM      8  C   UNL     1      70.164  12.160 357.329  1.00  0.00     0.092 A 
ATOM      9  C   UNL     1      69.718  11.882 356.030  1.00  0.00     0.126 A 
ATOM     10  C   UNL     1      68.965  10.719 355.782  1.00  0.00     0.039 A 
ENDROOT
BRANCH   2  11
ATOM     11  O   UNL     1      66.996   9.003 353.096  1.00  0.00    -0.389 OA
ATOM     12  H   UNL     1      66.163   9.473 352.827  1.00  0.00     0.211 HD
ENDBRANCH   2  11
BRANCH   3  13
ATOM     13  C   UNL     1      68.546   7.224 354.713  1.00  0.00    -0.001 A 
ATOM     14  C   UNL     1      68.123   6.155 353.901  1.00  0.00     0.057 A 
ATOM     15  C   UNL     1      69.915   7.353 355.004  1.00  0.00     0.012 A 
ATOM     16  C   UNL     1      69.047   5.241 353.381  1.00  0.00     0.157 A 
ATOM     17  C   UNL     1      70.841   6.443 354.486  1.00  0.00     0.050 A 
ATOM     18  C   UNL     1      70.414   5.386 353.673  1.00  0.00     0.157 A 
BRANCH  16  19
ATOM     19  O   UNL     1      68.589   4.197 352.578  1.00  0.00    -0.504 OA
ATOM     20  H   UNL     1      68.136   4.361 351.688  1.00  0.00     0.293 HD
ENDBRANCH  16  19
BRANCH  18  21
ATOM     21  O   UNL     1      71.339   4.480 353.157  1.00  0.00    -0.504 OA
ATOM     22  H   UNL     1      71.728   4.590 352.229  1.00  0.00     0.293 HD
ENDBRANCH  18  21
ENDBRANCH   3  13
BRANCH   9  23
ATOM     23  O   UNL     1      70.024  12.756 354.986  1.00  0.00    -0.507 OA
ATOM     24  H   UNL     1      70.579  12.461 354.191  1.00  0.00     0.293 HD
ENDBRANCH   9  23
BRANCH   7  25
ATOM     25  O   UNL     1      70.316  11.551 359.674  1.00  0.00    -0.508 OA
ATOM     26  H   UNL     1      71.191  12.033 359.847  1.00  0.00     0.293 HD
ENDBRANCH   7  25
TORSDOF 6
ENDMDL
MODEL 5
REMARK VINA RESULT:    -5.013      7.259     10.419
REMARK INTER + INTRA:          -6.072
REMARK INTER:                  -6.108
REMARK INTRA:                   0.036
REMARK UNBOUND:                -0.033
REMARK SMILES Oc1cc(O)c2c(c1)O[C@H](c1ccc(O)c(O)c1)[C@H](O)C2
REMARK SMILES IDX 21 1 19 2 10 3 9 4 7 5 8 6 2 7 3 8 4 9 6 10 20 11 11 13
REMARK SMILES IDX 18 14 12 15 16 16 13 17 14 18 17 19 15 21 5 23 1 25
REMARK H PARENT 20 12 17 20 15 22 5 24 1 26
REMARK Flexibility Score: inf
ROOT
ATOM      1  C   UNL     1      74.917  14.812 359.336  1.00  0.00     0.079 C 
ATOM      2  C   UNL     1      75.313  14.187 357.988  1.00  0.00     0.164 C 
ATOM      3  C   UNL     1      76.493  13.204 358.155  1.00  0.00     0.232 C 
ATOM      4  O   UNL     1      76.211  12.247 359.182  1.00  0.00    -0.482 OA
ATOM      5  C   UNL     1      75.396  12.523 360.289  1.00  0.00     0.131 A 
ATOM      6  C   UNL     1      75.250  11.553 361.285  1.00  0.00     0.093 A 
ATOM      7  C   UNL     1      74.458  11.808 362.407  1.00  0.00     0.122 A 
ATOM      8  C   UNL     1      73.808  13.043 362.535  1.00  0.00     0.092 A 
ATOM      9  C   UNL     1      73.945  14.022 361.541  1.00  0.00     0.126 A 
ATOM     10  C   UNL     1      74.726  13.758 360.401  1.00  0.00     0.039 A 
ENDROOT
BRANCH   2  11
ATOM     11  O   UNL     1      75.641  15.191 357.062  1.00  0.00    -0.389 OA
ATOM     12  H   UNL     1      76.625  15.158 356.941  1.00  0.00     0.211 HD
ENDBRANCH   2  11
BRANCH   3  13
ATOM     13  C   UNL     1      77.815  13.909 358.409  1.00  0.00    -0.001 A 
ATOM     14  C   UNL     1      78.427  14.714 357.430  1.00  0.00     0.057 A 
ATOM     15  C   UNL     1      78.469  13.723 359.639  1.00  0.00     0.012 A 
ATOM     16  C   UNL     1      79.659  15.331 357.679  1.00  0.00     0.157 A 
ATOM     17  C   UNL     1      79.698  14.338 359.891  1.00  0.00     0.050 A 
ATOM     18  C   UNL     1      80.298  15.143 358.915  1.00  0.00     0.157 A 
BRANCH  16  19
ATOM     19  O   UNL     1      80.232  16.123 356.685  1.00  0.00    -0.504 OA
ATOM     20  H   UNL     1      80.377  17.118 356.806  1.00  0.00     0.293 HD
ENDBRANCH  16  19
BRANCH  18  21
ATOM     21  O   UNL     1      81.524  15.755 359.169  1.00  0.00    -0.504 OA
ATOM     22  H   UNL     1      81.775  16.077 360.095  1.00  0.00     0.293 HD
ENDBRANCH  18  21
ENDBRANCH   3  13
BRANCH   9  23
ATOM     23  O   UNL     1      73.309  15.256 361.686  1.00  0.00    -0.507 OA
ATOM     24  H   UNL     1      73.778  16.125 361.460  1.00  0.00     0.293 HD
ENDBRANCH   9  23
BRANCH   7  25
ATOM     25  O   UNL     1      74.325  10.831 363.391  1.00  0.00    -0.508 OA
ATOM     26  H   UNL     1      73.436  10.379 363.572  1.00  0.00     0.293 HD
ENDBRANCH   7  25
TORSDOF 6
ENDMDL
MODEL 6
REMARK VINA RESULT:    -4.984      7.679     10.556
REMARK INTER + INTRA:          -6.037
REMARK INTER:                  -6.019
REMARK INTRA:                  -0.018
REMARK UNBOUND:                -0.033
REMARK SMILES Oc1cc(O)c2c(c1)O[C@H](c1ccc(O)c(O)c1)[C@H](O)C2
REMARK SMILES IDX 21 1 19 2 10 3 9 4 7 5 8 6 2 7 3 8 4 9 6 10 20 11 11 13
REMARK SMILES IDX 18 14 12 15 16 16 13 17 14 18 17 19 15 21 5 23 1 25
REMARK H PARENT 20 12 17 20 15 22 5 24 1 26
REMARK Flexibility Score: inf
ROOT
ATOM      1  C   UNL     1      68.324  10.449 354.244  1.00  0.00     0.079 C 
ATOM      2  C   UNL     1      67.191   9.411 354.307  1.00  0.00     0.164 C 
ATOM      3  C   UNL     1      67.491   8.322 355.361  1.00  0.00     0.232 C 
ATOM      4  O   UNL     1      67.809   8.917 356.624  1.00  0.00    -0.482 OA
ATOM      5  C   UNL     1      68.421  10.172 356.752  1.00  0.00     0.131 A 
ATOM      6  C   UNL     1      68.773  10.631 358.025  1.00  0.00     0.093 A 
ATOM      7  C   UNL     1      69.398  11.871 358.179  1.00  0.00     0.122 A 
ATOM      8  C   UNL     1      69.676  12.656 357.053  1.00  0.00     0.092 A 
ATOM      9  C   UNL     1      69.326  12.208 355.772  1.00  0.00     0.126 A 
ATOM     10  C   UNL     1      68.676  10.968 355.617  1.00  0.00     0.039 A 
ENDROOT
BRANCH   2  11
ATOM     11  O   UNL     1      66.993   8.827 353.045  1.00  0.00    -0.389 OA
ATOM     12  H   UNL     1      66.145   8.314 353.097  1.00  0.00     0.211 HD
ENDBRANCH   2  11
BRANCH   3  13
ATOM     13  C   UNL     1      68.580   7.358 354.919  1.00  0.00    -0.001 A 
ATOM     14  C   UNL     1      69.902   7.466 355.388  1.00  0.00     0.057 A 
ATOM     15  C   UNL     1      68.272   6.353 353.985  1.00  0.00     0.012 A 
ATOM     16  C   UNL     1      70.893   6.583 354.945  1.00  0.00     0.157 A 
ATOM     17  C   UNL     1      69.259   5.470 353.541  1.00  0.00     0.050 A 
ATOM     18  C   UNL     1      70.571   5.579 354.018  1.00  0.00     0.157 A 
BRANCH  16  19
ATOM     19  O   UNL     1      72.192   6.721 355.436  1.00  0.00    -0.504 OA
ATOM     20  H   UNL     1      72.380   6.960 356.401  1.00  0.00     0.293 HD
ENDBRANCH  16  19
BRANCH  18  21
ATOM     21  O   UNL     1      71.554   4.696 353.573  1.00  0.00    -0.504 OA
ATOM     22  H   UNL     1      72.216   4.274 354.212  1.00  0.00     0.293 HD
ENDBRANCH  18  21
ENDBRANCH   3  13
BRANCH   9  23
ATOM     23  O   UNL     1      69.623  12.988 354.655  1.00  0.00    -0.507 OA
ATOM     24  H   UNL     1      68.895  13.423 354.101  1.00  0.00     0.293 HD
ENDBRANCH   9  23
BRANCH   7  25
ATOM     25  O   UNL     1      69.743  12.312 359.455  1.00  0.00    -0.508 OA
ATOM     26  H   UNL     1      70.569  12.878 359.615  1.00  0.00     0.293 HD
ENDBRANCH   7  25
TORSDOF 6
ENDMDL
MODEL 7
REMARK VINA RESULT:    -4.885      6.752      9.461
REMARK INTER + INTRA:          -5.917
REMARK INTER:                  -5.884
REMARK INTRA:                  -0.033
REMARK UNBOUND:                -0.033
REMARK SMILES Oc1cc(O)c2c(c1)O[C@H](c1ccc(O)c(O)c1)[C@H](O)C2
REMARK SMILES IDX 21 1 19 2 10 3 9 4 7 5 8 6 2 7 3 8 4 9 6 10 20 11 11 13
REMARK SMILES IDX 18 14 12 15 16 16 13 17 14 18 17 19 15 21 5 23 1 25
REMARK H PARENT 20 12 17 20 15 22 5 24 1 26
REMARK Flexibility Score: inf
ROOT
ATOM      1  C   UNL     1      70.311  11.613 356.331  1.00  0.00     0.079 C 
ATOM      2  C   UNL     1      69.014  10.967 355.816  1.00  0.00     0.164 C 
ATOM      3  C   UNL     1      68.698   9.663 356.582  1.00  0.00     0.232 C 
ATOM      4  O   UNL     1      68.715   9.892 357.995  1.00  0.00    -0.482 OA
ATOM      5  C   UNL     1      69.521  10.861 358.609  1.00  0.00     0.131 A 
ATOM      6  C   UNL     1      69.534  10.952 360.004  1.00  0.00     0.093 A 
ATOM      7  C   UNL     1      70.341  11.897 360.641  1.00  0.00     0.122 A 
ATOM      8  C   UNL     1      71.142  12.757 359.879  1.00  0.00     0.092 A 
ATOM      9  C   UNL     1      71.135  12.678 358.480  1.00  0.00     0.126 A 
ATOM     10  C   UNL     1      70.306  11.740 357.836  1.00  0.00     0.039 A 
ENDROOT
BRANCH   2  11
ATOM     11  O   UNL     1      69.109  10.712 354.438  1.00  0.00    -0.389 OA
ATOM     12  H   UNL     1      69.585  11.485 354.036  1.00  0.00     0.211 HD
ENDBRANCH   2  11
BRANCH   3  13
ATOM     13  C   UNL     1      69.621   8.517 356.201  1.00  0.00    -0.001 A 
ATOM     14  C   UNL     1      69.426   7.767 355.026  1.00  0.00     0.057 A 
ATOM     15  C   UNL     1      70.676   8.167 357.061  1.00  0.00     0.012 A 
ATOM     16  C   UNL     1      70.273   6.698 354.711  1.00  0.00     0.157 A 
ATOM     17  C   UNL     1      71.524   7.102 356.749  1.00  0.00     0.050 A 
ATOM     18  C   UNL     1      71.329   6.364 355.575  1.00  0.00     0.157 A 
BRANCH  16  19
ATOM     19  O   UNL     1      70.049   5.980 353.536  1.00  0.00    -0.504 OA
ATOM     20  H   UNL     1      69.190   6.068 353.007  1.00  0.00     0.293 HD
ENDBRANCH  16  19
BRANCH  18  21
ATOM     21  O   UNL     1      72.176   5.301 355.265  1.00  0.00    -0.504 OA
ATOM     22  H   UNL     1      72.592   5.204 354.347  1.00  0.00     0.293 HD
ENDBRANCH  18  21
ENDBRANCH   3  13
BRANCH   9  23
ATOM     23  O   UNL     1      71.949  13.527 357.730  1.00  0.00    -0.507 OA
ATOM     24  H   UNL     1      71.909  13.544 356.718  1.00  0.00     0.293 HD
ENDBRANCH   9  23
BRANCH   7  25
ATOM     25  O   UNL     1      70.343  11.972 362.033  1.00  0.00    -0.508 OA
ATOM     26  H   UNL     1      70.596  12.826 362.518  1.00  0.00     0.293 HD
ENDBRANCH   7  25
TORSDOF 6
ENDMDL
MODEL 8
REMARK VINA RESULT:    -4.789      6.701      9.570
REMARK INTER + INTRA:          -5.802
REMARK INTER:                  -5.746
REMARK INTRA:                  -0.056
REMARK UNBOUND:                -0.033
REMARK SMILES Oc1cc(O)c2c(c1)O[C@H](c1ccc(O)c(O)c1)[C@H](O)C2
REMARK SMILES IDX 21 1 19 2 10 3 9 4 7 5 8 6 2 7 3 8 4 9 6 10 20 11 11 13
REMARK SMILES IDX 18 14 12 15 16 16 13 17 14 18 17 19 15 21 5 23 1 25
REMARK H PARENT 20 12 17 20 15 22 5 24 1 26
REMARK Flexibility Score: inf
ROOT
ATOM      1  C   UNL     1      71.057  13.047 356.645  1.00  0.00     0.079 C 
ATOM      2  C   UNL     1      69.620  13.105 356.099  1.00  0.00     0.164 C 
ATOM      3  C   UNL     1      68.712  12.078 356.812  1.00  0.00     0.232 C 
ATOM      4  O   UNL     1      68.803  12.225 358.233  1.00  0.00    -0.482 OA
ATOM      5  C   UNL     1      69.955  12.680 358.888  1.00  0.00     0.131 A 
ATOM      6  C   UNL     1      69.979  12.707 360.286  1.00  0.00     0.093 A 
ATOM      7  C   UNL     1      71.121  13.140 360.964  1.00  0.00     0.122 A 
ATOM      8  C   UNL     1      72.249  13.547 360.240  1.00  0.00     0.092 A 
ATOM      9  C   UNL     1      72.237  13.527 358.838  1.00  0.00     0.126 A 
ATOM     10  C   UNL     1      71.079  13.111 358.154  1.00  0.00     0.039 A 
ENDROOT
BRANCH   2  11
ATOM     11  O   UNL     1      69.616  12.881 354.713  1.00  0.00    -0.389 OA
ATOM     12  H   UNL     1      68.721  12.517 354.484  1.00  0.00     0.211 HD
ENDBRANCH   2  11
BRANCH   3  13
ATOM     13  C   UNL     1      68.996  10.646 356.389  1.00  0.00    -0.001 A 
ATOM     14  C   UNL     1      69.963   9.858 357.041  1.00  0.00     0.057 A 
ATOM     15  C   UNL     1      68.305  10.102 355.293  1.00  0.00     0.012 A 
ATOM     16  C   UNL     1      70.226   8.551 356.616  1.00  0.00     0.157 A 
ATOM     17  C   UNL     1      68.565   8.797 354.866  1.00  0.00     0.050 A 
ATOM     18  C   UNL     1      69.523   8.016 355.523  1.00  0.00     0.157 A 
BRANCH  16  19
ATOM     19  O   UNL     1      71.189   7.800 357.289  1.00  0.00    -0.504 OA
ATOM     20  H   UNL     1      71.902   8.232 357.864  1.00  0.00     0.293 HD
ENDBRANCH  16  19
BRANCH  18  21
ATOM     21  O   UNL     1      69.781   6.715 355.095  1.00  0.00    -0.504 OA
ATOM     22  H   UNL     1      69.795   5.936 355.743  1.00  0.00     0.293 HD
ENDBRANCH  18  21
ENDBRANCH   3  13
BRANCH   9  23
ATOM     23  O   UNL     1      73.371  13.917 358.126  1.00  0.00    -0.507 OA
ATOM     24  H   UNL     1      74.100  14.476 358.553  1.00  0.00     0.293 HD
ENDBRANCH   9  23
BRANCH   7  25
ATOM     25  O   UNL     1      71.127  13.159 362.357  1.00  0.00    -0.508 OA
ATOM     26  H   UNL     1      70.669  13.898 362.880  1.00  0.00     0.293 HD
ENDBRANCH   7  25
TORSDOF 6
ENDMDL
MODEL 9
REMARK VINA RESULT:    -4.752      3.550      5.370
REMARK INTER + INTRA:          -5.757
REMARK INTER:                  -5.779
REMARK INTRA:                   0.022
REMARK UNBOUND:                -0.033
REMARK SMILES Oc1cc(O)c2c(c1)O[C@H](c1ccc(O)c(O)c1)[C@H](O)C2
REMARK SMILES IDX 21 1 19 2 10 3 9 4 7 5 8 6 2 7 3 8 4 9 6 10 20 11 11 13
REMARK SMILES IDX 18 14 12 15 16 16 13 17 14 18 17 19 15 21 5 23 1 25
REMARK H PARENT 20 12 17 20 15 22 5 24 1 26
REMARK Flexibility Score: inf
ROOT
ATOM      1  C   UNL     1      71.289  10.526 361.933  1.00  0.00     0.079 C 
ATOM      2  C   UNL     1      70.670  10.960 363.273  1.00  0.00     0.164 C 
ATOM      3  C   UNL     1      71.637  11.867 364.066  1.00  0.00     0.232 C 
ATOM      4  O   UNL     1      72.091  12.954 363.253  1.00  0.00    -0.482 OA
ATOM      5  C   UNL     1      72.229  12.870 361.861  1.00  0.00     0.131 A 
ATOM      6  C   UNL     1      72.762  13.956 361.162  1.00  0.00     0.093 A 
ATOM      7  C   UNL     1      72.926  13.892 359.776  1.00  0.00     0.122 A 
ATOM      8  C   UNL     1      72.557  12.732 359.084  1.00  0.00     0.092 A 
ATOM      9  C   UNL     1      72.018  11.637 359.773  1.00  0.00     0.126 A 
ATOM     10  C   UNL     1      71.833  11.708 361.166  1.00  0.00     0.039 A 
ENDROOT
BRANCH   2  11
ATOM     11  O   UNL     1      70.320   9.834 364.036  1.00  0.00    -0.389 OA
ATOM     12  H   UNL     1      69.331   9.846 364.126  1.00  0.00     0.211 HD
ENDBRANCH   2  11
BRANCH   3  13
ATOM     13  C   UNL     1      72.808  11.101 364.661  1.00  0.00    -0.001 A 
ATOM     14  C   UNL     1      72.930  10.891 366.047  1.00  0.00     0.057 A 
ATOM     15  C   UNL     1      73.820  10.621 363.811  1.00  0.00     0.012 A 
ATOM     16  C   UNL     1      74.032  10.206 366.573  1.00  0.00     0.157 A 
ATOM     17  C   UNL     1      74.920   9.937 364.333  1.00  0.00     0.050 A 
ATOM     18  C   UNL     1      75.032   9.725 365.712  1.00  0.00     0.157 A 
BRANCH  16  19
ATOM     19  O   UNL     1      74.115  10.016 367.952  1.00  0.00    -0.504 OA
ATOM     20  H   UNL     1      74.481   9.163 368.357  1.00  0.00     0.293 HD
ENDBRANCH  16  19
BRANCH  18  21
ATOM     21  O   UNL     1      76.131   9.042 366.231  1.00  0.00    -0.504 OA
ATOM     22  H   UNL     1      76.219   8.852 367.221  1.00  0.00     0.293 HD
ENDBRANCH  18  21
ENDBRANCH   3  13
BRANCH   9  23
ATOM     23  O   UNL     1      71.670  10.478 359.077  1.00  0.00    -0.507 OA
ATOM     24  H   UNL     1      70.718  10.305 358.778  1.00  0.00     0.293 HD
ENDBRANCH   9  23
BRANCH   7  25
ATOM     25  O   UNL     1      73.461  14.984 359.096  1.00  0.00    -0.508 OA
ATOM     26  H   UNL     1      72.911  15.816 358.912  1.00  0.00     0.293 HD
ENDBRANCH   7  25
TORSDOF 6
ENDMDL
