MODEL 1
REMARK VINA RESULT:    -3.120      0.000      0.000
REMARK INTER + INTRA:          -6.523
REMARK INTER:                  -4.944
REMARK INTRA:                  -1.578
REMARK UNBOUND:                -1.578
REMARK SMILES CCCCCCCCCCCC(=O)[O-]
REMARK SMILES IDX 7 1 8 2 9 3 10 4 11 5 12 6 13 7 14 8 6 9 5 10 4 11 3 12 2 13
REMARK SMILES IDX 1 14
REMARK H PARENT
REMARK Flexibility Score: inf
ROOT
ATOM      1  C   UNL     1      60.928  30.881  60.155  1.00  0.00     0.000 C 
ENDROOT
BRANCH   1   2
ATOM      2  C   UNL     1      61.030  32.331  59.647  1.00  0.00     0.000 C 
BRANCH   2   3
ATOM      3  C   UNL     1      61.684  33.271  60.672  1.00  0.00     0.000 C 
BRANCH   3   4
ATOM      4  C   UNL     1      62.847  34.080  60.078  1.00  0.00     0.006 C 
BRANCH   4   5
ATOM      5  C   UNL     1      63.942  34.312  61.125  1.00  0.00     0.053 C 
BRANCH   5   6
ATOM      6  C   UNL     1      63.896  35.719  61.629  1.00  0.00     0.041 C 
ATOM      7  O   UNL     1      62.874  36.428  61.436  1.00  0.00    -0.550 OA
ATOM      8  O   UNL     1      65.002  36.265  62.269  1.00  0.00    -0.550 OA
ENDBRANCH   5   6
ENDBRANCH   4   5
ENDBRANCH   3   4
ENDBRANCH   2   3
ENDBRANCH   1   2
BRANCH   1   9
ATOM      9  C   UNL     1      61.218  30.766  61.662  1.00  0.00     0.000 C 
BRANCH   9  10
ATOM     10  C   UNL     1      62.338  29.758  61.972  1.00  0.00    -0.000 C 
BRANCH  10  11
ATOM     11  C   UNL     1      63.746  30.349  61.775  1.00  0.00    -0.000 C 
BRANCH  11  12
ATOM     12  C   UNL     1      64.499  29.841  60.532  1.00  0.00    -0.000 C 
BRANCH  12  13
ATOM     13  C   UNL     1      64.985  30.976  59.621  1.00  0.00    -0.003 C 
ATOM     14  C   UNL     1      64.187  31.019  58.321  1.00  0.00     0.004 C 
ENDBRANCH  12  13
ENDBRANCH  11  12
ENDBRANCH  10  11
ENDBRANCH   9  10
ENDBRANCH   1   9
TORSDOF 10
ENDMDL
MODEL 2
REMARK VINA RESULT:    -3.110      3.464      5.568
REMARK INTER + INTRA:          -6.507
REMARK INTER:                  -5.314
REMARK INTRA:                  -1.193
REMARK UNBOUND:                -1.578
REMARK SMILES CCCCCCCCCCCC(=O)[O-]
REMARK SMILES IDX 7 1 8 2 9 3 10 4 11 5 12 6 13 7 14 8 6 9 5 10 4 11 3 12 2 13
REMARK SMILES IDX 1 14
REMARK H PARENT
REMARK Flexibility Score: inf
ROOT
ATOM      1  C   UNL     1      62.389  32.902  59.481  1.00  0.00     0.000 C 
ENDROOT
BRANCH   1   2
ATOM      2  C   UNL     1      61.599  32.619  60.772  1.00  0.00     0.000 C 
BRANCH   2   3
ATOM      3  C   UNL     1      61.162  31.150  60.886  1.00  0.00     0.000 C 
BRANCH   3   4
ATOM      4  C   UNL     1      61.821  30.424  62.069  1.00  0.00     0.006 C 
BRANCH   4   5
ATOM      5  C   UNL     1      63.263  30.029  61.734  1.00  0.00     0.053 C 
BRANCH   5   6
ATOM      6  C   UNL     1      63.315  28.627  61.214  1.00  0.00     0.041 C 
ATOM      7  O   UNL     1      63.922  28.372  60.141  1.00  0.00    -0.550 OA
ATOM      8  O   UNL     1      62.651  27.611  61.889  1.00  0.00    -0.550 OA
ENDBRANCH   5   6
ENDBRANCH   4   5
ENDBRANCH   3   4
ENDBRANCH   2   3
ENDBRANCH   1   2
BRANCH   1   9
ATOM      9  C   UNL     1      63.827  33.372  59.763  1.00  0.00     0.000 C 
BRANCH   9  10
ATOM     10  C   UNL     1      64.084  33.616  61.260  1.00  0.00    -0.000 C 
BRANCH  10  11
ATOM     11  C   UNL     1      64.405  35.088  61.580  1.00  0.00    -0.000 C 
BRANCH  11  12
ATOM     12  C   UNL     1      63.642  36.121  60.733  1.00  0.00    -0.000 C 
BRANCH  12  13
ATOM     13  C   UNL     1      62.382  36.654  61.430  1.00  0.00    -0.003 C 
ATOM     14  C   UNL     1      61.134  36.377  60.597  1.00  0.00     0.004 C 
ENDBRANCH  12  13
ENDBRANCH  11  12
ENDBRANCH  10  11
ENDBRANCH   9  10
ENDBRANCH   1   9
TORSDOF 10
ENDMDL
MODEL 3
REMARK VINA RESULT:    -3.099     12.284     14.025
REMARK INTER + INTRA:          -6.489
REMARK INTER:                  -5.163
REMARK INTRA:                  -1.326
REMARK UNBOUND:                -1.578
REMARK SMILES CCCCCCCCCCCC(=O)[O-]
REMARK SMILES IDX 7 1 8 2 9 3 10 4 11 5 12 6 13 7 14 8 6 9 5 10 4 11 3 12 2 13
REMARK SMILES IDX 1 14
REMARK H PARENT
REMARK Flexibility Score: inf
ROOT
ATOM      1  C   UNL     1      59.146  28.404  50.438  1.00  0.00     0.000 C 
ENDROOT
BRANCH   1   2
ATOM      2  C   UNL     1      57.803  29.057  50.067  1.00  0.00     0.000 C 
BRANCH   2   3
ATOM      3  C   UNL     1      56.702  28.771  51.101  1.00  0.00     0.000 C 
BRANCH   3   4
ATOM      4  C   UNL     1      55.353  28.428  50.452  1.00  0.00     0.006 C 
BRANCH   4   5
ATOM      5  C   UNL     1      55.303  26.953  50.040  1.00  0.00     0.053 C 
BRANCH   5   6
ATOM      6  C   UNL     1      53.969  26.618  49.452  1.00  0.00     0.041 C 
ATOM      7  O   UNL     1      53.786  25.505  48.891  1.00  0.00    -0.550 OA
ATOM      8  O   UNL     1      52.943  27.553  49.478  1.00  0.00    -0.550 OA
ENDBRANCH   5   6
ENDBRANCH   4   5
ENDBRANCH   3   4
ENDBRANCH   2   3
ENDBRANCH   1   2
BRANCH   1   9
ATOM      9  C   UNL     1      59.790  27.668  49.250  1.00  0.00     0.000 C 
BRANCH   9  10
ATOM     10  C   UNL     1      59.917  26.154  49.493  1.00  0.00    -0.000 C 
BRANCH  10  11
ATOM     11  C   UNL     1      58.603  25.514  49.977  1.00  0.00    -0.000 C 
BRANCH  11  12
ATOM     12  C   UNL     1      58.696  24.770  51.321  1.00  0.00    -0.000 C 
BRANCH  12  13
ATOM     13  C   UNL     1      57.681  25.274  52.356  1.00  0.00    -0.003 C 
ATOM     14  C   UNL     1      58.330  26.249  53.334  1.00  0.00     0.004 C 
ENDBRANCH  12  13
ENDBRANCH  11  12
ENDBRANCH  10  11
ENDBRANCH   9  10
ENDBRANCH   1   9
TORSDOF 10
ENDMDL
MODEL 4
REMARK VINA RESULT:    -3.060     11.488     13.295
REMARK INTER + INTRA:          -6.427
REMARK INTER:                  -5.309
REMARK INTRA:                  -1.119
REMARK UNBOUND:                -1.578
REMARK SMILES CCCCCCCCCCCC(=O)[O-]
REMARK SMILES IDX 7 1 8 2 9 3 10 4 11 5 12 6 13 7 14 8 6 9 5 10 4 11 3 12 2 13
REMARK SMILES IDX 1 14
REMARK H PARENT
REMARK Flexibility Score: inf
ROOT
ATOM      1  C   UNL     1      57.590  28.089  51.318  1.00  0.00     0.000 C 
ENDROOT
BRANCH   1   2
ATOM      2  C   UNL     1      57.550  28.840  49.975  1.00  0.00     0.000 C 
BRANCH   2   3
ATOM      3  C   UNL     1      58.921  28.877  49.279  1.00  0.00     0.000 C 
BRANCH   3   4
ATOM      4  C   UNL     1      59.651  27.526  49.334  1.00  0.00     0.006 C 
BRANCH   4   5
ATOM      5  C   UNL     1      61.170  27.726  49.362  1.00  0.00     0.053 C 
BRANCH   5   6
ATOM      6  C   UNL     1      61.558  28.635  50.486  1.00  0.00     0.041 C 
ATOM      7  O   UNL     1      61.342  28.295  51.679  1.00  0.00    -0.550 OA
ATOM      8  O   UNL     1      62.112  29.879  50.214  1.00  0.00    -0.550 OA
ENDBRANCH   5   6
ENDBRANCH   4   5
ENDBRANCH   3   4
ENDBRANCH   2   3
ENDBRANCH   1   2
BRANCH   1   9
ATOM      9  C   UNL     1      56.594  26.917  51.365  1.00  0.00     0.000 C 
BRANCH   9  10
ATOM     10  C   UNL     1      56.349  26.296  49.979  1.00  0.00    -0.000 C 
BRANCH  10  11
ATOM     11  C   UNL     1      54.855  26.214  49.616  1.00  0.00    -0.000 C 
BRANCH  11  12
ATOM     12  C   UNL     1      53.913  26.999  50.546  1.00  0.00    -0.000 C 
BRANCH  12  13
ATOM     13  C   UNL     1      53.304  28.238  49.875  1.00  0.00    -0.003 C 
ATOM     14  C   UNL     1      53.897  29.522  50.450  1.00  0.00     0.004 C 
ENDBRANCH  12  13
ENDBRANCH  11  12
ENDBRANCH  10  11
ENDBRANCH   9  10
ENDBRANCH   1   9
TORSDOF 10
ENDMDL
MODEL 5
REMARK VINA RESULT:    -3.029     11.647     13.469
REMARK INTER + INTRA:          -6.378
REMARK INTER:                  -5.244
REMARK INTRA:                  -1.135
REMARK UNBOUND:                -1.578
REMARK SMILES CCCCCCCCCCCC(=O)[O-]
REMARK SMILES IDX 7 1 8 2 9 3 10 4 11 5 12 6 13 7 14 8 6 9 5 10 4 11 3 12 2 13
REMARK SMILES IDX 1 14
REMARK H PARENT
REMARK Flexibility Score: inf
ROOT
ATOM      1  C   UNL     1      58.330  27.957  52.321  1.00  0.00     0.000 C 
ENDROOT
BRANCH   1   2
ATOM      2  C   UNL     1      59.659  27.269  51.958  1.00  0.00     0.000 C 
BRANCH   2   3
ATOM      3  C   UNL     1      59.457  26.025  51.078  1.00  0.00     0.000 C 
BRANCH   3   4
ATOM      4  C   UNL     1      59.938  26.235  49.634  1.00  0.00     0.006 C 
BRANCH   4   5
ATOM      5  C   UNL     1      60.852  27.461  49.535  1.00  0.00     0.053 C 
BRANCH   5   6
ATOM      6  C   UNL     1      62.267  27.041  49.291  1.00  0.00     0.041 C 
ATOM      7  O   UNL     1      62.994  27.694  48.497  1.00  0.00    -0.550 OA
ATOM      8  O   UNL     1      62.768  25.899  49.903  1.00  0.00    -0.550 OA
ENDBRANCH   5   6
ENDBRANCH   4   5
ENDBRANCH   3   4
ENDBRANCH   2   3
ENDBRANCH   1   2
BRANCH   1   9
ATOM      9  C   UNL     1      57.986  29.112  51.364  1.00  0.00     0.000 C 
BRANCH   9  10
ATOM     10  C   UNL     1      57.080  28.664  50.204  1.00  0.00    -0.000 C 
BRANCH  10  11
ATOM     11  C   UNL     1      55.938  27.736  50.659  1.00  0.00    -0.000 C 
BRANCH  11  12
ATOM     12  C   UNL     1      55.923  26.348  49.995  1.00  0.00    -0.000 C 
BRANCH  12  13
ATOM     13  C   UNL     1      54.563  25.994  49.377  1.00  0.00    -0.003 C 
ATOM     14  C   UNL     1      53.565  27.135  49.556  1.00  0.00     0.004 C 
ENDBRANCH  12  13
ENDBRANCH  11  12
ENDBRANCH  10  11
ENDBRANCH   9  10
ENDBRANCH   1   9
TORSDOF 10
ENDMDL
MODEL 6
REMARK VINA RESULT:    -3.017      3.439      5.416
REMARK INTER + INTRA:          -6.359
REMARK INTER:                  -5.579
REMARK INTRA:                  -0.779
REMARK UNBOUND:                -1.578
REMARK SMILES CCCCCCCCCCCC(=O)[O-]
REMARK SMILES IDX 7 1 8 2 9 3 10 4 11 5 12 6 13 7 14 8 6 9 5 10 4 11 3 12 2 13
REMARK SMILES IDX 1 14
REMARK H PARENT
REMARK Flexibility Score: inf
ROOT
ATOM      1  C   UNL     1      61.202  30.059  60.967  1.00  0.00     0.000 C 
ENDROOT
BRANCH   1   2
ATOM      2  C   UNL     1      62.582  29.729  60.370  1.00  0.00     0.000 C 
BRANCH   2   3
ATOM      3  C   UNL     1      63.700  29.744  61.426  1.00  0.00     0.000 C 
BRANCH   3   4
ATOM      4  C   UNL     1      64.961  30.478  60.945  1.00  0.00     0.006 C 
BRANCH   4   5
ATOM      5  C   UNL     1      65.874  29.535  60.155  1.00  0.00     0.053 C 
BRANCH   5   6
ATOM      6  C   UNL     1      66.428  28.470  61.048  1.00  0.00     0.041 C 
ATOM      7  O   UNL     1      67.348  28.743  61.864  1.00  0.00    -0.550 OA
ATOM      8  O   UNL     1      65.962  27.166  60.946  1.00  0.00    -0.550 OA
ENDBRANCH   5   6
ENDBRANCH   4   5
ENDBRANCH   3   4
ENDBRANCH   2   3
ENDBRANCH   1   2
BRANCH   1   9
ATOM      9  C   UNL     1      61.134  31.487  61.536  1.00  0.00     0.000 C 
BRANCH   9  10
ATOM     10  C   UNL     1      61.376  32.561  60.461  1.00  0.00    -0.000 C 
BRANCH  10  11
ATOM     11  C   UNL     1      62.565  33.482  60.791  1.00  0.00    -0.000 C 
BRANCH  11  12
ATOM     12  C   UNL     1      62.253  34.989  60.754  1.00  0.00    -0.000 C 
BRANCH  12  13
ATOM     13  C   UNL     1      63.371  35.846  61.363  1.00  0.00    -0.003 C 
ATOM     14  C   UNL     1      64.540  34.980  61.823  1.00  0.00     0.004 C 
ENDBRANCH  12  13
ENDBRANCH  11  12
ENDBRANCH  10  11
ENDBRANCH   9  10
ENDBRANCH   1   9
TORSDOF 10
ENDMDL
MODEL 7
REMARK VINA RESULT:    -2.995     11.662     13.404
REMARK INTER + INTRA:          -6.324
REMARK INTER:                  -4.921
REMARK INTRA:                  -1.403
REMARK UNBOUND:                -1.578
REMARK SMILES CCCCCCCCCCCC(=O)[O-]
REMARK SMILES IDX 7 1 8 2 9 3 10 4 11 5 12 6 13 7 14 8 6 9 5 10 4 11 3 12 2 13
REMARK SMILES IDX 1 14
REMARK H PARENT
REMARK Flexibility Score: inf
ROOT
ATOM      1  C   UNL     1      56.608  26.039  50.250  1.00  0.00     0.000 C 
ENDROOT
BRANCH   1   2
ATOM      2  C   UNL     1      56.745  26.949  51.484  1.00  0.00     0.000 C 
BRANCH   2   3
ATOM      3  C   UNL     1      57.907  27.946  51.355  1.00  0.00     0.000 C 
BRANCH   3   4
ATOM      4  C   UNL     1      57.708  28.944  50.204  1.00  0.00     0.006 C 
BRANCH   4   5
ATOM      5  C   UNL     1      58.840  28.828  49.178  1.00  0.00     0.053 C 
BRANCH   5   6
ATOM      6  C   UNL     1      60.171  28.836  49.862  1.00  0.00     0.041 C 
ATOM      7  O   UNL     1      60.596  29.888  50.408  1.00  0.00    -0.550 OA
ATOM      8  O   UNL     1      60.964  27.696  49.853  1.00  0.00    -0.550 OA
ENDBRANCH   5   6
ENDBRANCH   4   5
ENDBRANCH   3   4
ENDBRANCH   2   3
ENDBRANCH   1   2
BRANCH   1   9
ATOM      9  C   UNL     1      55.221  26.147  49.591  1.00  0.00     0.000 C 
BRANCH   9  10
ATOM     10  C   UNL     1      54.190  26.839  50.499  1.00  0.00    -0.000 C 
BRANCH  10  11
ATOM     11  C   UNL     1      53.572  28.094  49.856  1.00  0.00    -0.000 C 
BRANCH  11  12
ATOM     12  C   UNL     1      53.965  29.427  50.518  1.00  0.00    -0.000 C 
BRANCH  12  13
ATOM     13  C   UNL     1      53.926  29.369  52.051  1.00  0.00    -0.003 C 
ATOM     14  C   UNL     1      55.097  30.134  52.661  1.00  0.00     0.004 C 
ENDBRANCH  12  13
ENDBRANCH  11  12
ENDBRANCH  10  11
ENDBRANCH   9  10
ENDBRANCH   1   9
TORSDOF 10
ENDMDL
MODEL 8
REMARK VINA RESULT:    -2.977     11.998     13.869
REMARK INTER + INTRA:          -6.296
REMARK INTER:                  -5.278
REMARK INTRA:                  -1.018
REMARK UNBOUND:                -1.578
REMARK SMILES CCCCCCCCCCCC(=O)[O-]
REMARK SMILES IDX 7 1 8 2 9 3 10 4 11 5 12 6 13 7 14 8 6 9 5 10 4 11 3 12 2 13
REMARK SMILES IDX 1 14
REMARK H PARENT
REMARK Flexibility Score: inf
ROOT
ATOM      1  C   UNL     1      57.268  28.945  51.465  1.00  0.00     0.000 C 
ENDROOT
BRANCH   1   2
ATOM      2  C   UNL     1      58.611  29.383  50.855  1.00  0.00     0.000 C 
BRANCH   2   3
ATOM      3  C   UNL     1      58.854  28.775  49.464  1.00  0.00     0.000 C 
BRANCH   3   4
ATOM      4  C   UNL     1      59.990  27.741  49.459  1.00  0.00     0.006 C 
BRANCH   4   5
ATOM      5  C   UNL     1      59.434  26.317  49.355  1.00  0.00     0.053 C 
BRANCH   5   6
ATOM      6  C   UNL     1      59.150  25.765  50.716  1.00  0.00     0.041 C 
ATOM      7  O   UNL     1      58.107  25.090  50.921  1.00  0.00    -0.550 OA
ATOM      8  O   UNL     1      60.012  26.037  51.770  1.00  0.00    -0.550 OA
ENDBRANCH   5   6
ENDBRANCH   4   5
ENDBRANCH   3   4
ENDBRANCH   2   3
ENDBRANCH   1   2
BRANCH   1   9
ATOM      9  C   UNL     1      56.344  28.276  50.433  1.00  0.00     0.000 C 
BRANCH   9  10
ATOM     10  C   UNL     1      54.891  28.773  50.533  1.00  0.00    -0.000 C 
BRANCH  10  11
ATOM     11  C   UNL     1      53.888  27.838  49.833  1.00  0.00    -0.000 C 
BRANCH  11  12
ATOM     12  C   UNL     1      54.363  26.384  49.661  1.00  0.00    -0.000 C 
BRANCH  12  13
ATOM     13  C   UNL     1      53.697  25.416  50.649  1.00  0.00    -0.003 C 
ATOM     14  C   UNL     1      54.511  25.294  51.933  1.00  0.00     0.004 C 
ENDBRANCH  12  13
ENDBRANCH  11  12
ENDBRANCH  10  11
ENDBRANCH   9  10
ENDBRANCH   1   9
TORSDOF 10
ENDMDL
MODEL 9
REMARK VINA RESULT:    -2.975      1.254      2.560
REMARK INTER + INTRA:          -6.293
REMARK INTER:                  -4.736
REMARK INTRA:                  -1.557
REMARK UNBOUND:                -1.578
REMARK SMILES CCCCCCCCCCCC(=O)[O-]
REMARK SMILES IDX 7 1 8 2 9 3 10 4 11 5 12 6 13 7 14 8 6 9 5 10 4 11 3 12 2 13
REMARK SMILES IDX 1 14
REMARK H PARENT
REMARK Flexibility Score: inf
ROOT
ATOM      1  C   UNL     1      64.145  32.312  61.022  1.00  0.00     0.000 C 
ENDROOT
BRANCH   1   2
ATOM      2  C   UNL     1      64.156  32.936  59.614  1.00  0.00     0.000 C 
BRANCH   2   3
ATOM      3  C   UNL     1      63.205  34.138  59.495  1.00  0.00     0.000 C 
BRANCH   3   4
ATOM      4  C   UNL     1      62.446  34.425  60.799  1.00  0.00     0.006 C 
BRANCH   4   5
ATOM      5  C   UNL     1      62.609  35.891  61.214  1.00  0.00     0.053 C 
BRANCH   5   6
ATOM      6  C   UNL     1      64.057  36.233  61.371  1.00  0.00     0.041 C 
ATOM      7  O   UNL     1      64.579  37.123  60.650  1.00  0.00    -0.550 OA
ATOM      8  O   UNL     1      64.842  35.534  62.279  1.00  0.00    -0.550 OA
ENDBRANCH   5   6
ENDBRANCH   4   5
ENDBRANCH   3   4
ENDBRANCH   2   3
ENDBRANCH   1   2
BRANCH   1   9
ATOM      9  C   UNL     1      64.478  30.810  61.002  1.00  0.00     0.000 C 
BRANCH   9  10
ATOM     10  C   UNL     1      63.396  29.959  61.688  1.00  0.00    -0.000 C 
BRANCH  10  11
ATOM     11  C   UNL     1      62.067  30.714  61.872  1.00  0.00    -0.000 C 
BRANCH  11  12
ATOM     12  C   UNL     1      60.936  30.287  60.919  1.00  0.00    -0.000 C 
BRANCH  12  13
ATOM     13  C   UNL     1      60.754  31.252  59.738  1.00  0.00    -0.003 C 
ATOM     14  C   UNL     1      61.439  30.720  58.483  1.00  0.00     0.004 C 
ENDBRANCH  12  13
ENDBRANCH  11  12
ENDBRANCH  10  11
ENDBRANCH   9  10
ENDBRANCH   1   9
TORSDOF 10
ENDMDL
