MODEL 1
REMARK VINA RESULT:    -2.183      0.000      0.000
REMARK INTER + INTRA:          -3.825
REMARK INTER:                  -3.395
REMARK INTRA:                  -0.430
REMARK UNBOUND:                -0.430
REMARK SMILES C[C@@]12C[C@@]3(O)O[C@@H](O1)[C@]1(COC(=O)c4ccccc4)[C@H]3C[C@@]12O[C@@H]1O[C@H](CO)[C@@H](O)[C@H](O)[C@@H]1O
REMARK SMILES IDX 1 1 2 2 3 3 4 4 20 5 21 6 22 7 9 8 7 9 8 10 6 11 23 12 24 13
REMARK SMILES IDX 33 14 25 15 31 16 26 17 29 18 34 19 32 21 27 23 28 24 30 26
REMARK SMILES IDX 5 28 10 30 11 31 12 32 13 33 14 34 15 35 19 36 16 37 18 38
REMARK SMILES IDX 17 39
REMARK H PARENT 34 20 32 22 28 25 30 27 5 29
REMARK Flexibility Score: inf
ROOT
ATOM      1  C   UNL     1      39.471  26.074  63.313  1.00  0.00     0.046 C 
ATOM      2  C   UNL     1      38.499  25.243  62.518  1.00  0.00     0.104 C 
ATOM      3  C   UNL     1      37.676  26.125  61.387  1.00  0.00     0.104 C 
ATOM      4  C   UNL     1      36.653  24.972  60.866  1.00  0.00     0.175 C 
ATOM      5  C   UNL     1      35.929  24.451  62.204  1.00  0.00     0.070 C 
ATOM      6  C   UNL     1      36.288  25.192  63.566  1.00  0.00     0.050 C 
ATOM      7  C   UNL     1      37.564  24.405  63.495  1.00  0.00     0.115 C 
ATOM      8  C   UNL     1      37.002  23.432  62.529  1.00  0.00     0.096 C 
ATOM      9  C   UNL     1      38.052  23.364  61.439  1.00  0.00     0.267 C 
ATOM     10  O   UNL     1      39.130  24.257  61.776  1.00  0.00    -0.342 OA
ATOM     11  O   UNL     1      37.376  23.926  60.342  1.00  0.00    -0.320 OA
ENDROOT
BRANCH   7  12
ATOM     12  O   UNL     1      38.068  23.884  64.782  1.00  0.00    -0.339 OA
BRANCH  12  13
ATOM     13  C   UNL     1      37.334  24.376  65.988  1.00  0.00     0.282 C 
ATOM     14  C   UNL     1      36.431  23.277  66.640  1.00  0.00     0.202 C 
ATOM     15  O   UNL     1      38.207  24.743  67.040  1.00  0.00    -0.341 OA
ATOM     16  C   UNL     1      35.860  23.728  68.008  1.00  0.00     0.179 C 
ATOM     17  C   UNL     1      37.547  25.674  67.897  1.00  0.00     0.178 C 
ATOM     18  C   UNL     1      36.154  25.210  68.422  1.00  0.00     0.177 C 
BRANCH  14  19
ATOM     19  O   UNL     1      36.863  21.947  66.754  1.00  0.00    -0.385 OA
ATOM     20  H   UNL     1      37.581  21.803  67.475  1.00  0.00     0.211 HD
ENDBRANCH  14  19
BRANCH  16  21
ATOM     21  O   UNL     1      36.224  22.912  69.072  1.00  0.00    -0.387 OA
ATOM     22  H   UNL     1      36.756  22.230  68.549  1.00  0.00     0.211 HD
ENDBRANCH  16  21
BRANCH  17  23
ATOM     23  C   UNL     1      38.438  25.858  69.125  1.00  0.00     0.191 C 
BRANCH  23  24
ATOM     24  O   UNL     1      38.661  24.572  69.723  1.00  0.00    -0.394 OA
ATOM     25  H   UNL     1      39.499  24.626  70.261  1.00  0.00     0.210 HD
ENDBRANCH  23  24
ENDBRANCH  17  23
BRANCH  18  26
ATOM     26  O   UNL     1      35.209  26.122  67.937  1.00  0.00    -0.387 OA
ATOM     27  H   UNL     1      35.739  26.968  67.736  1.00  0.00     0.211 HD
ENDBRANCH  18  26
ENDBRANCH  12  13
ENDBRANCH   7  12
BRANCH   4  28
ATOM     28  O   UNL     1      35.638  25.254  59.902  1.00  0.00    -0.365 OA
ATOM     29  H   UNL     1      35.401  26.258  59.958  1.00  0.00     0.214 HD
ENDBRANCH   4  28
BRANCH   8  30
ATOM     30  C   UNL     1      36.340  22.115  62.928  1.00  0.00     0.249 C 
BRANCH  30  31
ATOM     31  O   UNL     1      37.173  21.473  63.949  1.00  0.00    -0.461 OA
BRANCH  31  32
ATOM     32  C   UNL     1      38.067  20.460  63.620  1.00  0.00     0.338 C 
ATOM     33  O   UNL     1      38.772  19.951  64.543  1.00  0.00    -0.246 OA
BRANCH  32  34
ATOM     34  C   UNL     1      38.341  19.967  62.209  1.00  0.00     0.060 A 
ATOM     35  C   UNL     1      37.359  19.337  61.393  1.00  0.00     0.015 A 
ATOM     36  C   UNL     1      39.634  20.162  61.658  1.00  0.00     0.015 A 
ATOM     37  C   UNL     1      37.693  18.842  60.121  1.00  0.00     0.001 A 
ATOM     38  C   UNL     1      39.913  19.690  60.375  1.00  0.00     0.001 A 
ATOM     39  C   UNL     1      38.980  19.026  59.594  1.00  0.00     0.000 A 
ENDBRANCH  32  34
ENDBRANCH  31  32
ENDBRANCH  30  31
ENDBRANCH   8  30
TORSDOF 12
ENDMDL
