MODEL 1
REMARK VINA RESULT:    -4.563      0.000      0.000
REMARK INTER + INTRA:         -10.621
REMARK INTER:                  -8.832
REMARK INTRA:                  -1.790
REMARK UNBOUND:                -1.790
REMARK SMILES CCCCCCCCCCCCCCCCCC(=O)[O-]
REMARK SMILES IDX 10 1 11 2 12 3 13 4 14 5 15 6 16 7 17 8 18 9 19 10 20 11
REMARK SMILES IDX 9 12 8 13 7 14 6 15 5 16 4 17 3 18 2 19 1 20
REMARK H PARENT
REMARK Flexibility Score: inf
ROOT
ATOM      1  C   UNL     1       5.767  -1.660  50.532  1.00  0.00     0.000 C 
ENDROOT
BRANCH   1   2
ATOM      2  C   UNL     1       7.123  -1.596  51.252  1.00  0.00     0.000 C 
BRANCH   2   3
ATOM      3  C   UNL     1       6.980  -1.324  52.760  1.00  0.00     0.000 C 
BRANCH   3   4
ATOM      4  C   UNL     1       7.141   0.165  53.116  1.00  0.00     0.000 C 
BRANCH   4   5
ATOM      5  C   UNL     1       8.353   0.496  54.010  1.00  0.00     0.000 C 
BRANCH   5   6
ATOM      6  C   UNL     1       8.304   1.877  54.693  1.00  0.00     0.000 C 
BRANCH   6   7
ATOM      7  C   UNL     1       7.169   2.803  54.211  1.00  0.00     0.006 C 
BRANCH   7   8
ATOM      8  C   UNL     1       7.647   4.148  53.640  1.00  0.00     0.053 C 
BRANCH   8   9
ATOM      9  C   UNL     1       6.502   5.033  53.255  1.00  0.00     0.041 C 
ATOM     10  O   UNL     1       6.589   6.281  53.400  1.00  0.00    -0.550 OA
ATOM     11  O   UNL     1       5.350   4.483  52.706  1.00  0.00    -0.550 OA
ENDBRANCH   8   9
ENDBRANCH   7   8
ENDBRANCH   6   7
ENDBRANCH   5   6
ENDBRANCH   4   5
ENDBRANCH   3   4
ENDBRANCH   2   3
ENDBRANCH   1   2
BRANCH   1  12
ATOM     12  C   UNL     1       5.336  -3.098  50.204  1.00  0.00     0.000 C 
BRANCH  12  13
ATOM     13  C   UNL     1       5.027  -3.251  48.710  1.00  0.00    -0.000 C 
BRANCH  13  14
ATOM     14  C   UNL     1       5.430  -1.991  47.932  1.00  0.00    -0.000 C 
BRANCH  14  15
ATOM     15  C   UNL     1       6.106  -2.309  46.586  1.00  0.00    -0.000 C 
BRANCH  15  16
ATOM     16  C   UNL     1       7.594  -1.918  46.497  1.00  0.00    -0.000 C 
BRANCH  16  17
ATOM     17  C   UNL     1       8.267  -1.598  47.846  1.00  0.00    -0.000 C 
BRANCH  17  18
ATOM     18  C   UNL     1       9.337  -2.612  48.299  1.00  0.00    -0.000 C 
BRANCH  18  19
ATOM     19  C   UNL     1       8.782  -3.877  48.976  1.00  0.00    -0.003 C 
ATOM     20  C   UNL     1       8.698  -5.072  48.029  1.00  0.00     0.004 C 
ENDBRANCH  18  19
ENDBRANCH  17  18
ENDBRANCH  16  17
ENDBRANCH  15  16
ENDBRANCH  14  15
ENDBRANCH  13  14
ENDBRANCH  12  13
ENDBRANCH   1  12
TORSDOF 16
ENDMDL
MODEL 2
REMARK VINA RESULT:    -4.560      4.688      7.345
REMARK INTER + INTRA:         -10.616
REMARK INTER:                  -7.899
REMARK INTRA:                  -2.717
REMARK UNBOUND:                -1.790
REMARK SMILES CCCCCCCCCCCCCCCCCC(=O)[O-]
REMARK SMILES IDX 10 1 11 2 12 3 13 4 14 5 15 6 16 7 17 8 18 9 19 10 20 11
REMARK SMILES IDX 9 12 8 13 7 14 6 15 5 16 4 17 3 18 2 19 1 20
REMARK H PARENT
REMARK Flexibility Score: inf
ROOT
ATOM      1  C   UNL     1       4.995  -1.808  45.284  1.00  0.00     0.000 C 
ENDROOT
BRANCH   1   2
ATOM      2  C   UNL     1       5.135  -3.337  45.200  1.00  0.00     0.000 C 
BRANCH   2   3
ATOM      3  C   UNL     1       4.659  -4.045  46.480  1.00  0.00     0.000 C 
BRANCH   3   4
ATOM      4  C   UNL     1       4.865  -5.569  46.431  1.00  0.00     0.000 C 
BRANCH   4   5
ATOM      5  C   UNL     1       6.194  -6.069  47.031  1.00  0.00     0.000 C 
BRANCH   5   6
ATOM      6  C   UNL     1       7.118  -4.967  47.585  1.00  0.00     0.000 C 
BRANCH   6   7
ATOM      7  C   UNL     1       8.581  -5.395  47.815  1.00  0.00     0.006 C 
BRANCH   7   8
ATOM      8  C   UNL     1       9.261  -4.713  49.013  1.00  0.00     0.053 C 
BRANCH   8   9
ATOM      9  C   UNL     1       9.801  -3.363  48.657  1.00  0.00     0.041 C 
ATOM     10  O   UNL     1      10.161  -2.566  49.563  1.00  0.00    -0.550 OA
ATOM     11  O   UNL     1       9.937  -2.996  47.324  1.00  0.00    -0.550 OA
ENDBRANCH   8   9
ENDBRANCH   7   8
ENDBRANCH   6   7
ENDBRANCH   5   6
ENDBRANCH   4   5
ENDBRANCH   3   4
ENDBRANCH   2   3
ENDBRANCH   1   2
BRANCH   1  12
ATOM     12  C   UNL     1       5.158  -1.275  46.715  1.00  0.00     0.000 C 
BRANCH  12  13
ATOM     13  C   UNL     1       6.580  -0.749  46.947  1.00  0.00    -0.000 C 
BRANCH  13  14
ATOM     14  C   UNL     1       7.150  -1.271  48.273  1.00  0.00    -0.000 C 
BRANCH  14  15
ATOM     15  C   UNL     1       6.070  -1.854  49.201  1.00  0.00    -0.000 C 
BRANCH  15  16
ATOM     16  C   UNL     1       6.581  -2.339  50.572  1.00  0.00    -0.000 C 
BRANCH  16  17
ATOM     17  C   UNL     1       5.705  -3.406  51.256  1.00  0.00    -0.000 C 
BRANCH  17  18
ATOM     18  C   UNL     1       6.070  -4.865  50.918  1.00  0.00    -0.000 C 
BRANCH  18  19
ATOM     19  C   UNL     1       4.872  -5.768  50.579  1.00  0.00    -0.003 C 
ATOM     20  C   UNL     1       3.689  -4.997  49.998  1.00  0.00     0.004 C 
ENDBRANCH  18  19
ENDBRANCH  17  18
ENDBRANCH  16  17
ENDBRANCH  15  16
ENDBRANCH  14  15
ENDBRANCH  13  14
ENDBRANCH  12  13
ENDBRANCH   1  12
TORSDOF 16
ENDMDL
MODEL 3
REMARK VINA RESULT:    -4.511     10.635     13.048
REMARK INTER + INTRA:         -10.519
REMARK INTER:                  -8.680
REMARK INTRA:                  -1.839
REMARK UNBOUND:                -1.790
REMARK SMILES CCCCCCCCCCCCCCCCCC(=O)[O-]
REMARK SMILES IDX 10 1 11 2 12 3 13 4 14 5 15 6 16 7 17 8 18 9 19 10 20 11
REMARK SMILES IDX 9 12 8 13 7 14 6 15 5 16 4 17 3 18 2 19 1 20
REMARK H PARENT
REMARK Flexibility Score: inf
ROOT
ATOM      1  C   UNL     1       4.404  12.751  49.770  1.00  0.00     0.000 C 
ENDROOT
BRANCH   1   2
ATOM      2  C   UNL     1       3.042  13.196  49.213  1.00  0.00     0.000 C 
BRANCH   2   3
ATOM      3  C   UNL     1       3.134  13.705  47.765  1.00  0.00     0.000 C 
BRANCH   3   4
ATOM      4  C   UNL     1       2.610  12.684  46.739  1.00  0.00     0.000 C 
BRANCH   4   5
ATOM      5  C   UNL     1       1.739  11.555  47.325  1.00  0.00     0.000 C 
BRANCH   5   6
ATOM      6  C   UNL     1       2.159  10.128  46.921  1.00  0.00     0.000 C 
BRANCH   6   7
ATOM      7  C   UNL     1       1.018   9.090  46.911  1.00  0.00     0.006 C 
BRANCH   7   8
ATOM      8  C   UNL     1      -0.011   9.268  48.039  1.00  0.00     0.053 C 
BRANCH   8   9
ATOM      9  C   UNL     1      -1.365   8.765  47.647  1.00  0.00     0.041 C 
ATOM     10  O   UNL     1      -1.640   8.564  46.435  1.00  0.00    -0.550 OA
ATOM     11  O   UNL     1      -2.314   8.485  48.623  1.00  0.00    -0.550 OA
ENDBRANCH   8   9
ENDBRANCH   7   8
ENDBRANCH   6   7
ENDBRANCH   5   6
ENDBRANCH   4   5
ENDBRANCH   3   4
ENDBRANCH   2   3
ENDBRANCH   1   2
BRANCH   1  12
ATOM     12  C   UNL     1       4.688  11.261  49.522  1.00  0.00     0.000 C 
BRANCH  12  13
ATOM     13  C   UNL     1       6.052  11.067  48.846  1.00  0.00    -0.000 C 
BRANCH  13  14
ATOM     14  C   UNL     1       6.058  11.672  47.436  1.00  0.00    -0.000 C 
BRANCH  14  15
ATOM     15  C   UNL     1       5.794  10.627  46.336  1.00  0.00    -0.000 C 
BRANCH  15  16
ATOM     16  C   UNL     1       6.833  10.606  45.197  1.00  0.00    -0.000 C 
BRANCH  16  17
ATOM     17  C   UNL     1       8.258  10.199  45.621  1.00  0.00    -0.000 C 
BRANCH  17  18
ATOM     18  C   UNL     1       8.348   8.898  46.443  1.00  0.00    -0.000 C 
BRANCH  18  19
ATOM     19  C   UNL     1       8.685   7.639  45.624  1.00  0.00    -0.003 C 
ATOM     20  C   UNL     1      10.015   7.749  44.883  1.00  0.00     0.004 C 
ENDBRANCH  18  19
ENDBRANCH  17  18
ENDBRANCH  16  17
ENDBRANCH  15  16
ENDBRANCH  14  15
ENDBRANCH  13  14
ENDBRANCH  12  13
ENDBRANCH   1  12
TORSDOF 16
ENDMDL
MODEL 4
REMARK VINA RESULT:    -4.461      2.304      4.034
REMARK INTER + INTRA:         -10.424
REMARK INTER:                  -8.032
REMARK INTRA:                  -2.392
REMARK UNBOUND:                -1.790
REMARK SMILES CCCCCCCCCCCCCCCCCC(=O)[O-]
REMARK SMILES IDX 10 1 11 2 12 3 13 4 14 5 15 6 16 7 17 8 18 9 19 10 20 11
REMARK SMILES IDX 9 12 8 13 7 14 6 15 5 16 4 17 3 18 2 19 1 20
REMARK H PARENT
REMARK Flexibility Score: inf
ROOT
ATOM      1  C   UNL     1       5.411  -4.219  47.066  1.00  0.00     0.000 C 
ENDROOT
BRANCH   1   2
ATOM      2  C   UNL     1       4.326  -4.310  48.151  1.00  0.00     0.000 C 
BRANCH   2   3
ATOM      3  C   UNL     1       4.891  -4.733  49.518  1.00  0.00     0.000 C 
BRANCH   3   4
ATOM      4  C   UNL     1       4.896  -3.585  50.543  1.00  0.00     0.000 C 
BRANCH   4   5
ATOM      5  C   UNL     1       6.293  -3.066  50.938  1.00  0.00     0.000 C 
BRANCH   5   6
ATOM      6  C   UNL     1       6.345  -1.586  51.365  1.00  0.00     0.000 C 
BRANCH   6   7
ATOM      7  C   UNL     1       7.394  -1.255  52.446  1.00  0.00     0.006 C 
BRANCH   7   8
ATOM      8  C   UNL     1       7.117   0.042  53.222  1.00  0.00     0.053 C 
BRANCH   8   9
ATOM      9  C   UNL     1       8.270   0.431  54.094  1.00  0.00     0.041 C 
ATOM     10  O   UNL     1       8.723  -0.379  54.945  1.00  0.00    -0.550 OA
ATOM     11  O   UNL     1       8.867   1.678  53.945  1.00  0.00    -0.550 OA
ENDBRANCH   8   9
ENDBRANCH   7   8
ENDBRANCH   6   7
ENDBRANCH   5   6
ENDBRANCH   4   5
ENDBRANCH   3   4
ENDBRANCH   2   3
ENDBRANCH   1   2
BRANCH   1  12
ATOM     12  C   UNL     1       5.413  -2.864  46.341  1.00  0.00     0.000 C 
BRANCH  12  13
ATOM     13  C   UNL     1       5.186  -1.713  47.329  1.00  0.00    -0.000 C 
BRANCH  13  14
ATOM     14  C   UNL     1       6.389  -0.760  47.350  1.00  0.00    -0.000 C 
BRANCH  14  15
ATOM     15  C   UNL     1       7.709  -1.454  46.965  1.00  0.00    -0.000 C 
BRANCH  15  16
ATOM     16  C   UNL     1       8.540  -1.977  48.153  1.00  0.00    -0.000 C 
BRANCH  16  17
ATOM     17  C   UNL     1       9.109  -3.398  47.977  1.00  0.00    -0.000 C 
BRANCH  17  18
ATOM     18  C   UNL     1       9.126  -4.257  49.257  1.00  0.00    -0.000 C 
BRANCH  18  19
ATOM     19  C   UNL     1       8.745  -5.733  49.048  1.00  0.00    -0.003 C 
ATOM     20  C   UNL     1       8.160  -6.009  47.664  1.00  0.00     0.004 C 
ENDBRANCH  18  19
ENDBRANCH  17  18
ENDBRANCH  16  17
ENDBRANCH  15  16
ENDBRANCH  14  15
ENDBRANCH  13  14
ENDBRANCH  12  13
ENDBRANCH   1  12
TORSDOF 16
ENDMDL
MODEL 5
REMARK VINA RESULT:    -4.450      3.945      7.025
REMARK INTER + INTRA:         -10.402
REMARK INTER:                  -8.019
REMARK INTRA:                  -2.383
REMARK UNBOUND:                -1.790
REMARK SMILES CCCCCCCCCCCCCCCCCC(=O)[O-]
REMARK SMILES IDX 10 1 11 2 12 3 13 4 14 5 15 6 16 7 17 8 18 9 19 10 20 11
REMARK SMILES IDX 9 12 8 13 7 14 6 15 5 16 4 17 3 18 2 19 1 20
REMARK H PARENT
REMARK Flexibility Score: inf
ROOT
ATOM      1  C   UNL     1       5.123  -4.247  47.111  1.00  0.00     0.000 C 
ENDROOT
BRANCH   1   2
ATOM      2  C   UNL     1       4.999  -3.821  45.639  1.00  0.00     0.000 C 
BRANCH   2   3
ATOM      3  C   UNL     1       5.089  -2.297  45.456  1.00  0.00     0.000 C 
BRANCH   3   4
ATOM      4  C   UNL     1       4.980  -1.527  46.784  1.00  0.00     0.000 C 
BRANCH   4   5
ATOM      5  C   UNL     1       6.149  -0.568  47.084  1.00  0.00     0.000 C 
BRANCH   5   6
ATOM      6  C   UNL     1       7.538  -1.075  46.650  1.00  0.00     0.000 C 
BRANCH   6   7
ATOM      7  C   UNL     1       8.388  -1.697  47.777  1.00  0.00     0.006 C 
BRANCH   7   8
ATOM      8  C   UNL     1       8.560  -3.221  47.674  1.00  0.00     0.053 C 
BRANCH   8   9
ATOM      9  C   UNL     1       9.374  -3.771  48.803  1.00  0.00     0.041 C 
ATOM     10  O   UNL     1       9.194  -4.953  49.198  1.00  0.00    -0.550 OA
ATOM     11  O   UNL     1      10.357  -2.990  49.398  1.00  0.00    -0.550 OA
ENDBRANCH   8   9
ENDBRANCH   7   8
ENDBRANCH   6   7
ENDBRANCH   5   6
ENDBRANCH   4   5
ENDBRANCH   3   4
ENDBRANCH   2   3
ENDBRANCH   1   2
BRANCH   1  12
ATOM     12  C   UNL     1       4.789  -5.731  47.330  1.00  0.00     0.000 C 
BRANCH  12  13
ATOM     13  C   UNL     1       4.655  -6.048  48.825  1.00  0.00    -0.000 C 
BRANCH  13  14
ATOM     14  C   UNL     1       6.002  -5.891  49.544  1.00  0.00    -0.000 C 
BRANCH  14  15
ATOM     15  C   UNL     1       5.886  -5.114  50.868  1.00  0.00    -0.000 C 
BRANCH  15  16
ATOM     16  C   UNL     1       5.026  -3.837  50.800  1.00  0.00    -0.000 C 
BRANCH  16  17
ATOM     17  C   UNL     1       5.713  -2.622  50.147  1.00  0.00    -0.000 C 
BRANCH  17  18
ATOM     18  C   UNL     1       6.859  -2.000  50.970  1.00  0.00    -0.000 C 
BRANCH  18  19
ATOM     19  C   UNL     1       6.406  -1.166  52.181  1.00  0.00    -0.003 C 
ATOM     20  C   UNL     1       7.555  -0.806  53.120  1.00  0.00     0.004 C 
ENDBRANCH  18  19
ENDBRANCH  17  18
ENDBRANCH  16  17
ENDBRANCH  15  16
ENDBRANCH  14  15
ENDBRANCH  13  14
ENDBRANCH  12  13
ENDBRANCH   1  12
TORSDOF 16
ENDMDL
MODEL 6
REMARK VINA RESULT:    -4.449      3.063      7.478
REMARK INTER + INTRA:         -10.399
REMARK INTER:                  -8.882
REMARK INTRA:                  -1.518
REMARK UNBOUND:                -1.790
REMARK SMILES CCCCCCCCCCCCCCCCCC(=O)[O-]
REMARK SMILES IDX 10 1 11 2 12 3 13 4 14 5 15 6 16 7 17 8 18 9 19 10 20 11
REMARK SMILES IDX 9 12 8 13 7 14 6 15 5 16 4 17 3 18 2 19 1 20
REMARK H PARENT
REMARK Flexibility Score: inf
ROOT
ATOM      1  C   UNL     1       5.643  -3.328  50.580  1.00  0.00     0.000 C 
ENDROOT
BRANCH   1   2
ATOM      2  C   UNL     1       6.212  -4.185  49.437  1.00  0.00     0.000 C 
BRANCH   2   3
ATOM      3  C   UNL     1       7.590  -4.780  49.774  1.00  0.00     0.000 C 
BRANCH   3   4
ATOM      4  C   UNL     1       8.635  -4.528  48.672  1.00  0.00     0.000 C 
BRANCH   4   5
ATOM      5  C   UNL     1       9.586  -3.343  48.931  1.00  0.00     0.000 C 
BRANCH   5   6
ATOM      6  C   UNL     1       9.169  -2.013  48.271  1.00  0.00     0.000 C 
BRANCH   6   7
ATOM      7  C   UNL     1       8.049  -2.131  47.217  1.00  0.00     0.006 C 
BRANCH   7   8
ATOM      8  C   UNL     1       7.075  -0.942  47.191  1.00  0.00     0.053 C 
BRANCH   8   9
ATOM      9  C   UNL     1       5.726  -1.334  46.674  1.00  0.00     0.041 C 
ATOM     10  O   UNL     1       4.882  -1.865  47.443  1.00  0.00    -0.550 OA
ATOM     11  O   UNL     1       5.387  -1.083  45.350  1.00  0.00    -0.550 OA
ENDBRANCH   8   9
ENDBRANCH   7   8
ENDBRANCH   6   7
ENDBRANCH   5   6
ENDBRANCH   4   5
ENDBRANCH   3   4
ENDBRANCH   2   3
ENDBRANCH   1   2
BRANCH   1  12
ATOM     12  C   UNL     1       6.415  -2.014  50.777  1.00  0.00     0.000 C 
BRANCH  12  13
ATOM     13  C   UNL     1       6.930  -1.891  52.217  1.00  0.00    -0.000 C 
BRANCH  13  14
ATOM     14  C   UNL     1       7.075  -0.419  52.626  1.00  0.00    -0.000 C 
BRANCH  14  15
ATOM     15  C   UNL     1       7.936  -0.230  53.888  1.00  0.00    -0.000 C 
BRANCH  15  16
ATOM     16  C   UNL     1       8.466   1.201  54.105  1.00  0.00    -0.000 C 
BRANCH  16  17
ATOM     17  C   UNL     1       7.426   2.320  53.907  1.00  0.00    -0.000 C 
BRANCH  17  18
ATOM     18  C   UNL     1       7.975   3.754  54.050  1.00  0.00    -0.000 C 
BRANCH  18  19
ATOM     19  C   UNL     1       7.054   4.856  53.497  1.00  0.00    -0.003 C 
ATOM     20  C   UNL     1       5.800   4.303  52.824  1.00  0.00     0.004 C 
ENDBRANCH  18  19
ENDBRANCH  17  18
ENDBRANCH  16  17
ENDBRANCH  15  16
ENDBRANCH  14  15
ENDBRANCH  13  14
ENDBRANCH  12  13
ENDBRANCH   1  12
TORSDOF 16
ENDMDL
MODEL 7
REMARK VINA RESULT:    -4.421      1.177      2.281
REMARK INTER + INTRA:         -10.345
REMARK INTER:                  -8.719
REMARK INTRA:                  -1.626
REMARK UNBOUND:                -1.790
REMARK SMILES CCCCCCCCCCCCCCCCCC(=O)[O-]
REMARK SMILES IDX 10 1 11 2 12 3 13 4 14 5 15 6 16 7 17 8 18 9 19 10 20 11
REMARK SMILES IDX 9 12 8 13 7 14 6 15 5 16 4 17 3 18 2 19 1 20
REMARK H PARENT
REMARK Flexibility Score: inf
ROOT
ATOM      1  C   UNL     1       5.948  -2.143  50.637  1.00  0.00     0.000 C 
ENDROOT
BRANCH   1   2
ATOM      2  C   UNL     1       7.180  -1.619  51.392  1.00  0.00     0.000 C 
BRANCH   2   3
ATOM      3  C   UNL     1       6.808  -0.866  52.680  1.00  0.00     0.000 C 
BRANCH   3   4
ATOM      4  C   UNL     1       8.030  -0.548  53.560  1.00  0.00     0.000 C 
BRANCH   4   5
ATOM      5  C   UNL     1       7.996   0.828  54.256  1.00  0.00     0.000 C 
BRANCH   5   6
ATOM      6  C   UNL     1       9.226   1.722  53.998  1.00  0.00     0.000 C 
BRANCH   6   7
ATOM      7  C   UNL     1       8.930   3.233  53.925  1.00  0.00     0.006 C 
BRANCH   7   8
ATOM      8  C   UNL     1       7.435   3.590  53.961  1.00  0.00     0.053 C 
BRANCH   8   9
ATOM      9  C   UNL     1       7.017   4.379  52.759  1.00  0.00     0.041 C 
ATOM     10  O   UNL     1       7.870   4.723  51.900  1.00  0.00    -0.550 OA
ATOM     11  O   UNL     1       5.679   4.705  52.571  1.00  0.00    -0.550 OA
ENDBRANCH   8   9
ENDBRANCH   7   8
ENDBRANCH   6   7
ENDBRANCH   5   6
ENDBRANCH   4   5
ENDBRANCH   3   4
ENDBRANCH   2   3
ENDBRANCH   1   2
BRANCH   1  12
ATOM     12  C   UNL     1       5.660  -3.624  50.926  1.00  0.00     0.000 C 
BRANCH  12  13
ATOM     13  C   UNL     1       5.876  -4.480  49.672  1.00  0.00    -0.000 C 
BRANCH  13  14
ATOM     14  C   UNL     1       7.355  -4.859  49.512  1.00  0.00    -0.000 C 
BRANCH  14  15
ATOM     15  C   UNL     1       7.920  -4.491  48.128  1.00  0.00    -0.000 C 
BRANCH  15  16
ATOM     16  C   UNL     1       8.631  -3.125  48.058  1.00  0.00    -0.000 C 
BRANCH  16  17
ATOM     17  C   UNL     1       8.107  -2.171  46.967  1.00  0.00    -0.000 C 
BRANCH  17  18
ATOM     18  C   UNL     1       7.398  -0.907  47.492  1.00  0.00    -0.000 C 
BRANCH  18  19
ATOM     19  C   UNL     1       5.898  -0.823  47.160  1.00  0.00    -0.003 C 
ATOM     20  C   UNL     1       5.501  -1.695  45.970  1.00  0.00     0.004 C 
ENDBRANCH  18  19
ENDBRANCH  17  18
ENDBRANCH  16  17
ENDBRANCH  15  16
ENDBRANCH  14  15
ENDBRANCH  13  14
ENDBRANCH  12  13
ENDBRANCH   1  12
TORSDOF 16
ENDMDL
MODEL 8
REMARK VINA RESULT:    -4.349     10.217     12.800
REMARK INTER + INTRA:         -10.207
REMARK INTER:                  -8.082
REMARK INTRA:                  -2.125
REMARK UNBOUND:                -1.790
REMARK SMILES CCCCCCCCCCCCCCCCCC(=O)[O-]
REMARK SMILES IDX 10 1 11 2 12 3 13 4 14 5 15 6 16 7 17 8 18 9 19 10 20 11
REMARK SMILES IDX 9 12 8 13 7 14 6 15 5 16 4 17 3 18 2 19 1 20
REMARK H PARENT
REMARK Flexibility Score: inf
ROOT
ATOM      1  C   UNL     1       6.709  10.240  47.271  1.00  0.00     0.000 C 
ENDROOT
BRANCH   1   2
ATOM      2  C   UNL     1       6.465  10.840  48.665  1.00  0.00     0.000 C 
BRANCH   2   3
ATOM      3  C   UNL     1       5.461  12.005  48.640  1.00  0.00     0.000 C 
BRANCH   3   4
ATOM      4  C   UNL     1       4.229  11.752  49.527  1.00  0.00     0.000 C 
BRANCH   4   5
ATOM      5  C   UNL     1       2.931  12.437  49.056  1.00  0.00     0.000 C 
BRANCH   5   6
ATOM      6  C   UNL     1       2.815  12.642  47.533  1.00  0.00     0.000 C 
BRANCH   6   7
ATOM      7  C   UNL     1       1.875  11.656  46.811  1.00  0.00     0.006 C 
BRANCH   7   8
ATOM      8  C   UNL     1       2.287  10.181  46.933  1.00  0.00     0.053 C 
BRANCH   8   9
ATOM      9  C   UNL     1       1.142   9.311  47.351  1.00  0.00     0.041 C 
ATOM     10  O   UNL     1       0.945   9.065  48.570  1.00  0.00    -0.550 OA
ATOM     11  O   UNL     1       0.272   8.799  46.396  1.00  0.00    -0.550 OA
ENDBRANCH   8   9
ENDBRANCH   7   8
ENDBRANCH   6   7
ENDBRANCH   5   6
ENDBRANCH   4   5
ENDBRANCH   3   4
ENDBRANCH   2   3
ENDBRANCH   1   2
BRANCH   1  12
ATOM     12  C   UNL     1       5.746  10.794  46.210  1.00  0.00     0.000 C 
BRANCH  12  13
ATOM     13  C   UNL     1       6.444  10.926  44.850  1.00  0.00    -0.000 C 
BRANCH  13  14
ATOM     14  C   UNL     1       6.953  12.357  44.629  1.00  0.00    -0.000 C 
BRANCH  14  15
ATOM     15  C   UNL     1       8.424  12.406  44.178  1.00  0.00    -0.000 C 
BRANCH  15  16
ATOM     16  C   UNL     1       9.449  12.016  45.260  1.00  0.00    -0.000 C 
BRANCH  16  17
ATOM     17  C   UNL     1      10.276  10.753  44.951  1.00  0.00    -0.000 C 
BRANCH  17  18
ATOM     18  C   UNL     1      10.029   9.563  45.900  1.00  0.00    -0.000 C 
BRANCH  18  19
ATOM     19  C   UNL     1       9.766   8.220  45.196  1.00  0.00    -0.003 C 
ATOM     20  C   UNL     1       8.623   7.429  45.829  1.00  0.00     0.004 C 
ENDBRANCH  18  19
ENDBRANCH  17  18
ENDBRANCH  16  17
ENDBRANCH  15  16
ENDBRANCH  14  15
ENDBRANCH  13  14
ENDBRANCH  12  13
ENDBRANCH   1  12
TORSDOF 16
ENDMDL
MODEL 9
REMARK VINA RESULT:    -4.342      2.050      3.023
REMARK INTER + INTRA:         -10.193
REMARK INTER:                  -8.560
REMARK INTRA:                  -1.633
REMARK UNBOUND:                -1.790
REMARK SMILES CCCCCCCCCCCCCCCCCC(=O)[O-]
REMARK SMILES IDX 10 1 11 2 12 3 13 4 14 5 15 6 16 7 17 8 18 9 19 10 20 11
REMARK SMILES IDX 9 12 8 13 7 14 6 15 5 16 4 17 3 18 2 19 1 20
REMARK H PARENT
REMARK Flexibility Score: inf
ROOT
ATOM      1  C   UNL     1       5.824  -1.863  50.160  1.00  0.00     0.000 C 
ENDROOT
BRANCH   1   2
ATOM      2  C   UNL     1       6.952  -1.813  51.203  1.00  0.00     0.000 C 
BRANCH   2   3
ATOM      3  C   UNL     1       6.643  -0.849  52.361  1.00  0.00     0.000 C 
BRANCH   3   4
ATOM      4  C   UNL     1       7.766  -0.800  53.413  1.00  0.00     0.000 C 
BRANCH   4   5
ATOM      5  C   UNL     1       8.137   0.612  53.909  1.00  0.00     0.000 C 
BRANCH   5   6
ATOM      6  C   UNL     1       9.131   0.651  55.086  1.00  0.00     0.000 C 
BRANCH   6   7
ATOM      7  C   UNL     1      10.276   1.674  54.940  1.00  0.00     0.006 C 
BRANCH   7   8
ATOM      8  C   UNL     1      10.314   2.746  56.041  1.00  0.00     0.053 C 
BRANCH   8   9
ATOM      9  C   UNL     1      10.295   4.132  55.475  1.00  0.00     0.041 C 
ATOM     10  O   UNL     1      10.956   5.051  56.027  1.00  0.00    -0.550 OA
ATOM     11  O   UNL     1       9.574   4.402  54.318  1.00  0.00    -0.550 OA
ENDBRANCH   8   9
ENDBRANCH   7   8
ENDBRANCH   6   7
ENDBRANCH   5   6
ENDBRANCH   4   5
ENDBRANCH   3   4
ENDBRANCH   2   3
ENDBRANCH   1   2
BRANCH   1  12
ATOM     12  C   UNL     1       5.126  -3.231  50.105  1.00  0.00     0.000 C 
BRANCH  12  13
ATOM     13  C   UNL     1       5.580  -4.030  48.877  1.00  0.00    -0.000 C 
BRANCH  13  14
ATOM     14  C   UNL     1       6.668  -5.046  49.253  1.00  0.00    -0.000 C 
BRANCH  14  15
ATOM     15  C   UNL     1       7.914  -4.947  48.354  1.00  0.00    -0.000 C 
BRANCH  15  16
ATOM     16  C   UNL     1       8.996  -3.966  48.847  1.00  0.00    -0.000 C 
BRANCH  16  17
ATOM     17  C   UNL     1       9.391  -2.869  47.840  1.00  0.00    -0.000 C 
BRANCH  17  18
ATOM     18  C   UNL     1       8.483  -1.623  47.843  1.00  0.00    -0.000 C 
BRANCH  18  19
ATOM     19  C   UNL     1       7.439  -1.581  46.713  1.00  0.00    -0.003 C 
ATOM     20  C   UNL     1       6.484  -0.395  46.828  1.00  0.00     0.004 C 
ENDBRANCH  18  19
ENDBRANCH  17  18
ENDBRANCH  16  17
ENDBRANCH  15  16
ENDBRANCH  14  15
ENDBRANCH  13  14
ENDBRANCH  12  13
ENDBRANCH   1  12
TORSDOF 16
ENDMDL
