MODEL 1
REMARK VINA RESULT:    -7.021      0.000      0.000
REMARK INTER + INTRA:          -8.569
REMARK INTER:                  -8.252
REMARK INTRA:                  -0.317
REMARK UNBOUND:                -0.317
REMARK SMILES O=c1c(O)c(-c2ccc(O)c(O)c2)oc2cc(O)ccc12
REMARK SMILES IDX 5 1 3 2 2 3 1 4 21 5 15 6 14 7 16 8 17 9 19 10 20 11 6 12
REMARK SMILES IDX 7 13 8 14 9 15 13 16 11 17 10 18 12 20 4 22 18 24
REMARK H PARENT 10 19 12 21 4 23 18 25
REMARK Flexibility Score: inf
ROOT
ATOM      1  C   UNL     1      29.347  57.798  -1.050  1.00  0.00     0.180 A 
ATOM      2  C   UNL     1      30.365  58.743  -1.300  1.00  0.00     0.208 A 
ATOM      3  C   UNL     1      30.842  58.893  -2.612  1.00  0.00     0.235 A 
ATOM      4  O   UNL     1      31.758  59.724  -2.858  1.00  0.00    -0.285 OA
ATOM      5  C   UNL     1      30.284  58.118  -3.641  1.00  0.00     0.069 A 
ATOM      6  C   UNL     1      29.253  57.211  -3.313  1.00  0.00     0.142 A 
ATOM      7  O   UNL     1      28.837  57.093  -2.057  1.00  0.00    -0.452 OA
ATOM      8  C   UNL     1      28.665  56.428  -4.313  1.00  0.00     0.094 A 
ATOM      9  C   UNL     1      29.096  56.537  -5.639  1.00  0.00     0.119 A 
ATOM     10  C   UNL     1      30.120  57.435  -5.968  1.00  0.00     0.047 A 
ATOM     11  C   UNL     1      30.713  58.222  -4.976  1.00  0.00     0.020 A 
ENDROOT
BRANCH   1  12
ATOM     12  C   UNL     1      28.805  57.569   0.309  1.00  0.00     0.025 A 
ATOM     13  C   UNL     1      29.418  56.626   1.145  1.00  0.00     0.016 A 
ATOM     14  C   UNL     1      28.935  56.408   2.436  1.00  0.00     0.051 A 
ATOM     15  C   UNL     1      27.844  57.135   2.924  1.00  0.00     0.157 A 
ATOM     16  C   UNL     1      27.723  58.317   0.802  1.00  0.00     0.062 A 
ATOM     17  C   UNL     1      27.234  58.108   2.097  1.00  0.00     0.158 A 
BRANCH  15  18
ATOM     18  O   UNL     1      27.406  56.863   4.221  1.00  0.00    -0.504 OA
ATOM     19  H   UNL     1      27.886  57.170   5.054  1.00  0.00     0.293 HD
ENDBRANCH  15  18
BRANCH  17  20
ATOM     20  O   UNL     1      26.154  58.886   2.521  1.00  0.00    -0.504 OA
ATOM     21  H   UNL     1      25.295  58.506   2.893  1.00  0.00     0.293 HD
ENDBRANCH  17  20
ENDBRANCH   1  12
BRANCH   2  22
ATOM     22  O   UNL     1      30.865  59.536  -0.264  1.00  0.00    -0.502 OA
ATOM     23  H   UNL     1      31.322  60.424  -0.433  1.00  0.00     0.293 HD
ENDBRANCH   2  22
BRANCH   9  24
ATOM     24  O   UNL     1      28.500  55.748  -6.621  1.00  0.00    -0.508 OA
ATOM     25  H   UNL     1      28.504  54.737  -6.560  1.00  0.00     0.293 HD
ENDBRANCH   9  24
TORSDOF 5
ENDMDL
MODEL 2
REMARK VINA RESULT:    -6.911      2.996      5.620
REMARK INTER + INTRA:          -8.440
REMARK INTER:                  -8.537
REMARK INTRA:                   0.097
REMARK UNBOUND:                -0.317
REMARK SMILES O=c1c(O)c(-c2ccc(O)c(O)c2)oc2cc(O)ccc12
REMARK SMILES IDX 5 1 3 2 2 3 1 4 21 5 15 6 14 7 16 8 17 9 19 10 20 11 6 12
REMARK SMILES IDX 7 13 8 14 9 15 13 16 11 17 10 18 12 20 4 22 18 24
REMARK H PARENT 10 19 12 21 4 23 18 25
REMARK Flexibility Score: inf
ROOT
ATOM      1  C   UNL     1      29.785  58.069  -5.582  1.00  0.00     0.180 A 
ATOM      2  C   UNL     1      29.251  56.792  -5.853  1.00  0.00     0.208 A 
ATOM      3  C   UNL     1      28.682  56.549  -7.112  1.00  0.00     0.235 A 
ATOM      4  O   UNL     1      28.190  55.417  -7.374  1.00  0.00    -0.285 OA
ATOM      5  C   UNL     1      28.675  57.571  -8.075  1.00  0.00     0.069 A 
ATOM      6  C   UNL     1      29.249  58.814  -7.735  1.00  0.00     0.142 A 
ATOM      7  O   UNL     1      29.770  59.006  -6.527  1.00  0.00    -0.452 OA
ATOM      8  C   UNL     1      29.270  59.855  -8.670  1.00  0.00     0.094 A 
ATOM      9  C   UNL     1      28.722  59.670  -9.943  1.00  0.00     0.119 A 
ATOM     10  C   UNL     1      28.150  58.437 -10.284  1.00  0.00     0.047 A 
ATOM     11  C   UNL     1      28.124  57.391  -9.357  1.00  0.00     0.020 A 
ENDROOT
BRANCH   1  12
ATOM     12  C   UNL     1      30.385  58.409  -4.272  1.00  0.00     0.025 A 
ATOM     13  C   UNL     1      31.532  59.212  -4.227  1.00  0.00     0.016 A 
ATOM     14  C   UNL     1      32.103  59.561  -3.002  1.00  0.00     0.051 A 
ATOM     15  C   UNL     1      31.533  59.128  -1.799  1.00  0.00     0.157 A 
ATOM     16  C   UNL     1      29.796  57.991  -3.066  1.00  0.00     0.062 A 
ATOM     17  C   UNL     1      30.360  58.338  -1.832  1.00  0.00     0.158 A 
BRANCH  15  18
ATOM     18  O   UNL     1      32.158  59.506  -0.609  1.00  0.00    -0.504 OA
ATOM     19  H   UNL     1      31.973  59.075   0.286  1.00  0.00     0.293 HD
ENDBRANCH  15  18
BRANCH  17  20
ATOM     20  O   UNL     1      29.724  57.887  -0.674  1.00  0.00    -0.504 OA
ATOM     21  H   UNL     1      28.839  57.399  -0.668  1.00  0.00     0.293 HD
ENDBRANCH  17  20
ENDBRANCH   1  12
BRANCH   2  22
ATOM     22  O   UNL     1      29.317  55.779  -4.892  1.00  0.00    -0.502 OA
ATOM     23  H   UNL     1      28.558  55.126  -4.740  1.00  0.00     0.293 HD
ENDBRANCH   2  22
BRANCH   9  24
ATOM     24  O   UNL     1      28.751  60.718 -10.861  1.00  0.00    -0.508 OA
ATOM     25  H   UNL     1      29.549  61.338 -10.930  1.00  0.00     0.293 HD
ENDBRANCH   9  24
TORSDOF 5
ENDMDL
MODEL 3
REMARK VINA RESULT:    -6.909      3.509      6.929
REMARK INTER + INTRA:          -8.438
REMARK INTER:                  -8.245
REMARK INTRA:                  -0.193
REMARK UNBOUND:                -0.317
REMARK SMILES O=c1c(O)c(-c2ccc(O)c(O)c2)oc2cc(O)ccc12
REMARK SMILES IDX 5 1 3 2 2 3 1 4 21 5 15 6 14 7 16 8 17 9 19 10 20 11 6 12
REMARK SMILES IDX 7 13 8 14 9 15 13 16 11 17 10 18 12 20 4 22 18 24
REMARK H PARENT 10 19 12 21 4 23 18 25
REMARK Flexibility Score: inf
ROOT
ATOM      1  C   UNL     1      31.477  58.611  -2.843  1.00  0.00     0.180 A 
ATOM      2  C   UNL     1      31.050  59.588  -1.919  1.00  0.00     0.208 A 
ATOM      3  C   UNL     1      31.695  59.670  -0.675  1.00  0.00     0.235 A 
ATOM      4  O   UNL     1      31.324  60.528   0.172  1.00  0.00    -0.285 OA
ATOM      5  C   UNL     1      32.756  58.797  -0.389  1.00  0.00     0.069 A 
ATOM      6  C   UNL     1      33.139  57.863  -1.376  1.00  0.00     0.142 A 
ATOM      7  O   UNL     1      32.496  57.812  -2.537  1.00  0.00    -0.452 OA
ATOM      8  C   UNL     1      34.199  56.983  -1.133  1.00  0.00     0.094 A 
ATOM      9  C   UNL     1      34.882  57.021   0.087  1.00  0.00     0.119 A 
ATOM     10  C   UNL     1      34.504  57.946   1.070  1.00  0.00     0.047 A 
ATOM     11  C   UNL     1      33.447  58.830   0.836  1.00  0.00     0.020 A 
ENDROOT
BRANCH   1  12
ATOM     12  C   UNL     1      30.835  58.449  -4.168  1.00  0.00     0.025 A 
ATOM     13  C   UNL     1      31.019  59.434  -5.147  1.00  0.00     0.016 A 
ATOM     14  C   UNL     1      30.439  59.292  -6.409  1.00  0.00     0.051 A 
ATOM     15  C   UNL     1      29.679  58.160  -6.723  1.00  0.00     0.157 A 
ATOM     16  C   UNL     1      30.092  57.300  -4.486  1.00  0.00     0.062 A 
ATOM     17  C   UNL     1      29.509  57.147  -5.750  1.00  0.00     0.158 A 
BRANCH  15  18
ATOM     18  O   UNL     1      29.121  58.083  -8.001  1.00  0.00    -0.504 OA
ATOM     19  H   UNL     1      29.075  58.861  -8.643  1.00  0.00     0.293 HD
ENDBRANCH  15  18
BRANCH  17  20
ATOM     20  O   UNL     1      28.782  55.981  -5.997  1.00  0.00    -0.504 OA
ATOM     21  H   UNL     1      29.199  55.097  -6.250  1.00  0.00     0.293 HD
ENDBRANCH  17  20
ENDBRANCH   1  12
BRANCH   2  22
ATOM     22  O   UNL     1      30.023  60.476  -2.250  1.00  0.00    -0.502 OA
ATOM     23  H   UNL     1      29.364  60.822  -1.564  1.00  0.00     0.293 HD
ENDBRANCH   2  22
BRANCH   9  24
ATOM     24  O   UNL     1      35.935  56.136   0.312  1.00  0.00    -0.508 OA
ATOM     25  H   UNL     1      36.002  55.258  -0.189  1.00  0.00     0.293 HD
ENDBRANCH   9  24
TORSDOF 5
ENDMDL
MODEL 4
REMARK VINA RESULT:    -6.870     12.671     14.563
REMARK INTER + INTRA:          -8.392
REMARK INTER:                  -8.100
REMARK INTRA:                  -0.291
REMARK UNBOUND:                -0.317
REMARK SMILES O=c1c(O)c(-c2ccc(O)c(O)c2)oc2cc(O)ccc12
REMARK SMILES IDX 5 1 3 2 2 3 1 4 21 5 15 6 14 7 16 8 17 9 19 10 20 11 6 12
REMARK SMILES IDX 7 13 8 14 9 15 13 16 11 17 10 18 12 20 4 22 18 24
REMARK H PARENT 10 19 12 21 4 23 18 25
REMARK Flexibility Score: inf
ROOT
ATOM      1  C   UNL     1      39.949  60.090   6.535  1.00  0.00     0.180 A 
ATOM      2  C   UNL     1      38.762  59.372   6.282  1.00  0.00     0.208 A 
ATOM      3  C   UNL     1      38.854  58.033   5.871  1.00  0.00     0.235 A 
ATOM      4  O   UNL     1      37.806  57.374   5.629  1.00  0.00    -0.285 OA
ATOM      5  C   UNL     1      40.118  57.438   5.741  1.00  0.00     0.069 A 
ATOM      6  C   UNL     1      41.259  58.216   6.035  1.00  0.00     0.142 A 
ATOM      7  O   UNL     1      41.128  59.483   6.413  1.00  0.00    -0.452 OA
ATOM      8  C   UNL     1      42.536  57.655   5.926  1.00  0.00     0.094 A 
ATOM      9  C   UNL     1      42.691  56.324   5.525  1.00  0.00     0.119 A 
ATOM     10  C   UNL     1      41.561  55.549   5.231  1.00  0.00     0.047 A 
ATOM     11  C   UNL     1      40.281  56.100   5.337  1.00  0.00     0.020 A 
ENDROOT
BRANCH   1  12
ATOM     12  C   UNL     1      39.935  61.510   6.954  1.00  0.00     0.025 A 
ATOM     13  C   UNL     1      39.723  61.828   8.302  1.00  0.00     0.016 A 
ATOM     14  C   UNL     1      39.725  63.159   8.723  1.00  0.00     0.051 A 
ATOM     15  C   UNL     1      39.955  64.196   7.811  1.00  0.00     0.157 A 
ATOM     16  C   UNL     1      40.189  62.546   6.040  1.00  0.00     0.062 A 
ATOM     17  C   UNL     1      40.196  63.884   6.452  1.00  0.00     0.158 A 
BRANCH  15  18
ATOM     18  O   UNL     1      39.936  65.506   8.295  1.00  0.00    -0.504 OA
ATOM     19  H   UNL     1      40.380  65.795   9.154  1.00  0.00     0.293 HD
ENDBRANCH  15  18
BRANCH  17  20
ATOM     20  O   UNL     1      40.453  64.863   5.489  1.00  0.00    -0.504 OA
ATOM     21  H   UNL     1      40.953  65.721   5.674  1.00  0.00     0.293 HD
ENDBRANCH  17  20
ENDBRANCH   1  12
BRANCH   2  22
ATOM     22  O   UNL     1      37.515  59.977   6.469  1.00  0.00    -0.502 OA
ATOM     23  H   UNL     1      37.414  60.973   6.619  1.00  0.00     0.293 HD
ENDBRANCH   2  22
BRANCH   9  24
ATOM     24  O   UNL     1      43.970  55.783   5.421  1.00  0.00    -0.508 OA
ATOM     25  H   UNL     1      44.671  56.196   4.817  1.00  0.00     0.293 HD
ENDBRANCH   9  24
TORSDOF 5
ENDMDL
MODEL 5
REMARK VINA RESULT:    -6.811     12.110     13.920
REMARK INTER + INTRA:          -8.323
REMARK INTER:                  -8.056
REMARK INTRA:                  -0.267
REMARK UNBOUND:                -0.317
REMARK SMILES O=c1c(O)c(-c2ccc(O)c(O)c2)oc2cc(O)ccc12
REMARK SMILES IDX 5 1 3 2 2 3 1 4 21 5 15 6 14 7 16 8 17 9 19 10 20 11 6 12
REMARK SMILES IDX 7 13 8 14 9 15 13 16 11 17 10 18 12 20 4 22 18 24
REMARK H PARENT 10 19 12 21 4 23 18 25
REMARK Flexibility Score: inf
ROOT
ATOM      1  C   UNL     1      39.677  60.952   6.580  1.00  0.00     0.180 A 
ATOM      2  C   UNL     1      39.630  59.946   7.567  1.00  0.00     0.208 A 
ATOM      3  C   UNL     1      39.065  58.703   7.240  1.00  0.00     0.235 A 
ATOM      4  O   UNL     1      39.003  57.791   8.109  1.00  0.00    -0.285 OA
ATOM      5  C   UNL     1      38.583  58.485   5.940  1.00  0.00     0.069 A 
ATOM      6  C   UNL     1      38.688  59.534   5.002  1.00  0.00     0.142 A 
ATOM      7  O   UNL     1      39.220  60.700   5.355  1.00  0.00    -0.452 OA
ATOM      8  C   UNL     1      38.227  59.353   3.694  1.00  0.00     0.094 A 
ATOM      9  C   UNL     1      37.659  58.134   3.309  1.00  0.00     0.119 A 
ATOM     10  C   UNL     1      37.552  57.090   4.237  1.00  0.00     0.047 A 
ATOM     11  C   UNL     1      38.011  57.262   5.547  1.00  0.00     0.020 A 
ENDROOT
BRANCH   1  12
ATOM     12  C   UNL     1      40.239  62.295   6.852  1.00  0.00     0.025 A 
ATOM     13  C   UNL     1      41.468  62.655   6.285  1.00  0.00     0.016 A 
ATOM     14  C   UNL     1      42.007  63.923   6.512  1.00  0.00     0.051 A 
ATOM     15  C   UNL     1      41.324  64.859   7.296  1.00  0.00     0.157 A 
ATOM     16  C   UNL     1      39.538  63.239   7.621  1.00  0.00     0.062 A 
ATOM     17  C   UNL     1      40.069  64.515   7.853  1.00  0.00     0.158 A 
BRANCH  15  18
ATOM     18  O   UNL     1      41.921  66.106   7.492  1.00  0.00    -0.504 OA
ATOM     19  H   UNL     1      42.245  66.699   6.741  1.00  0.00     0.293 HD
ENDBRANCH  15  18
BRANCH  17  20
ATOM     20  O   UNL     1      39.320  65.403   8.628  1.00  0.00    -0.504 OA
ATOM     21  H   UNL     1      38.603  66.011   8.259  1.00  0.00     0.293 HD
ENDBRANCH  17  20
ENDBRANCH   1  12
BRANCH   2  22
ATOM     22  O   UNL     1      40.163  60.175   8.838  1.00  0.00    -0.502 OA
ATOM     23  H   UNL     1      39.910  60.983   9.394  1.00  0.00     0.293 HD
ENDBRANCH   2  22
BRANCH   9  24
ATOM     24  O   UNL     1      37.204  57.971   2.002  1.00  0.00    -0.508 OA
ATOM     25  H   UNL     1      37.667  57.342   1.356  1.00  0.00     0.293 HD
ENDBRANCH   9  24
TORSDOF 5
ENDMDL
MODEL 6
REMARK VINA RESULT:    -6.787      3.565      7.750
REMARK INTER + INTRA:          -8.294
REMARK INTER:                  -7.977
REMARK INTRA:                  -0.317
REMARK UNBOUND:                -0.317
REMARK SMILES O=c1c(O)c(-c2ccc(O)c(O)c2)oc2cc(O)ccc12
REMARK SMILES IDX 5 1 3 2 2 3 1 4 21 5 15 6 14 7 16 8 17 9 19 10 20 11 6 12
REMARK SMILES IDX 7 13 8 14 9 15 13 16 11 17 10 18 12 20 4 22 18 24
REMARK H PARENT 10 19 12 21 4 23 18 25
REMARK Flexibility Score: inf
ROOT
ATOM      1  C   UNL     1      30.158  57.406   1.799  1.00  0.00     0.180 A 
ATOM      2  C   UNL     1      29.162  56.469   1.452  1.00  0.00     0.208 A 
ATOM      3  C   UNL     1      28.456  55.821   2.478  1.00  0.00     0.235 A 
ATOM      4  O   UNL     1      27.568  54.972   2.193  1.00  0.00    -0.285 OA
ATOM      5  C   UNL     1      28.741  56.134   3.816  1.00  0.00     0.069 A 
ATOM      6  C   UNL     1      29.736  57.100   4.080  1.00  0.00     0.142 A 
ATOM      7  O   UNL     1      30.388  57.683   3.080  1.00  0.00    -0.452 OA
ATOM      8  C   UNL     1      30.043  57.447   5.400  1.00  0.00     0.094 A 
ATOM      9  C   UNL     1      29.368  56.838   6.464  1.00  0.00     0.119 A 
ATOM     10  C   UNL     1      28.381  55.878   6.206  1.00  0.00     0.047 A 
ATOM     11  C   UNL     1      28.067  55.526   4.890  1.00  0.00     0.020 A 
ENDROOT
BRANCH   1  12
ATOM     12  C   UNL     1      30.959  58.116   0.775  1.00  0.00     0.025 A 
ATOM     13  C   UNL     1      32.150  57.541   0.312  1.00  0.00     0.016 A 
ATOM     14  C   UNL     1      32.910  58.184  -0.667  1.00  0.00     0.051 A 
ATOM     15  C   UNL     1      32.491  59.402  -1.212  1.00  0.00     0.157 A 
ATOM     16  C   UNL     1      30.522  59.328   0.215  1.00  0.00     0.062 A 
ATOM     17  C   UNL     1      31.277  59.979  -0.770  1.00  0.00     0.158 A 
BRANCH  15  18
ATOM     18  O   UNL     1      33.302  59.997  -2.181  1.00  0.00    -0.504 OA
ATOM     19  H   UNL     1      34.292  59.823  -2.271  1.00  0.00     0.293 HD
ENDBRANCH  15  18
BRANCH  17  20
ATOM     20  O   UNL     1      30.784  61.181  -1.281  1.00  0.00    -0.504 OA
ATOM     21  H   UNL     1      29.883  61.571  -1.042  1.00  0.00     0.293 HD
ENDBRANCH  17  20
ENDBRANCH   1  12
BRANCH   2  22
ATOM     22  O   UNL     1      28.865  56.214   0.110  1.00  0.00    -0.502 OA
ATOM     23  H   UNL     1      29.402  56.615  -0.649  1.00  0.00     0.293 HD
ENDBRANCH   2  22
BRANCH   9  24
ATOM     24  O   UNL     1      29.687  57.195   7.773  1.00  0.00    -0.508 OA
ATOM     25  H   UNL     1      30.569  56.926   8.193  1.00  0.00     0.293 HD
ENDBRANCH   9  24
TORSDOF 5
ENDMDL
MODEL 7
REMARK VINA RESULT:    -6.724     13.461     15.337
REMARK INTER + INTRA:          -8.221
REMARK INTER:                  -8.067
REMARK INTRA:                  -0.154
REMARK UNBOUND:                -0.317
REMARK SMILES O=c1c(O)c(-c2ccc(O)c(O)c2)oc2cc(O)ccc12
REMARK SMILES IDX 5 1 3 2 2 3 1 4 21 5 15 6 14 7 16 8 17 9 19 10 20 11 6 12
REMARK SMILES IDX 7 13 8 14 9 15 13 16 11 17 10 18 12 20 4 22 18 24
REMARK H PARENT 10 19 12 21 4 23 18 25
REMARK Flexibility Score: inf
ROOT
ATOM      1  C   UNL     1      40.547  61.949   6.447  1.00  0.00     0.180 A 
ATOM      2  C   UNL     1      40.064  62.973   7.289  1.00  0.00     0.208 A 
ATOM      3  C   UNL     1      40.709  64.219   7.277  1.00  0.00     0.235 A 
ATOM      4  O   UNL     1      40.301  65.147   8.028  1.00  0.00    -0.285 OA
ATOM      5  C   UNL     1      41.801  64.423   6.419  1.00  0.00     0.069 A 
ATOM      6  C   UNL     1      42.210  63.356   5.591  1.00  0.00     0.142 A 
ATOM      7  O   UNL     1      41.577  62.188   5.639  1.00  0.00    -0.452 OA
ATOM      8  C   UNL     1      43.288  63.522   4.715  1.00  0.00     0.094 A 
ATOM      9  C   UNL     1      43.967  64.744   4.657  1.00  0.00     0.119 A 
ATOM     10  C   UNL     1      43.565  65.805   5.478  1.00  0.00     0.047 A 
ATOM     11  C   UNL     1      42.488  65.648   6.356  1.00  0.00     0.020 A 
ENDROOT
BRANCH   1  12
ATOM     12  C   UNL     1      39.933  60.602   6.416  1.00  0.00     0.025 A 
ATOM     13  C   UNL     1      39.415  60.109   5.211  1.00  0.00     0.016 A 
ATOM     14  C   UNL     1      38.849  58.834   5.154  1.00  0.00     0.051 A 
ATOM     15  C   UNL     1      38.803  58.022   6.293  1.00  0.00     0.157 A 
ATOM     16  C   UNL     1      39.909  59.781   7.556  1.00  0.00     0.062 A 
ATOM     17  C   UNL     1      39.347  58.499   7.508  1.00  0.00     0.158 A 
BRANCH  15  18
ATOM     18  O   UNL     1      38.216  56.760   6.170  1.00  0.00    -0.504 OA
ATOM     19  H   UNL     1      38.593  55.921   6.586  1.00  0.00     0.293 HD
ENDBRANCH  15  18
BRANCH  17  20
ATOM     20  O   UNL     1      39.355  57.739   8.680  1.00  0.00    -0.504 OA
ATOM     21  H   UNL     1      38.524  57.380   9.127  1.00  0.00     0.293 HD
ENDBRANCH  17  20
ENDBRANCH   1  12
BRANCH   2  22
ATOM     22  O   UNL     1      38.943  62.757   8.096  1.00  0.00    -0.502 OA
ATOM     23  H   UNL     1      38.045  62.486   7.714  1.00  0.00     0.293 HD
ENDBRANCH   2  22
BRANCH   9  24
ATOM     24  O   UNL     1      45.039  64.891   3.779  1.00  0.00    -0.508 OA
ATOM     25  H   UNL     1      45.791  64.212   3.745  1.00  0.00     0.293 HD
ENDBRANCH   9  24
TORSDOF 5
ENDMDL
MODEL 8
REMARK VINA RESULT:    -6.573     12.710     14.433
REMARK INTER + INTRA:          -8.043
REMARK INTER:                  -7.726
REMARK INTRA:                  -0.318
REMARK UNBOUND:                -0.317
REMARK SMILES O=c1c(O)c(-c2ccc(O)c(O)c2)oc2cc(O)ccc12
REMARK SMILES IDX 5 1 3 2 2 3 1 4 21 5 15 6 14 7 16 8 17 9 19 10 20 11 6 12
REMARK SMILES IDX 7 13 8 14 9 15 13 16 11 17 10 18 12 20 4 22 18 24
REMARK H PARENT 10 19 12 21 4 23 18 25
REMARK Flexibility Score: inf
ROOT
ATOM      1  C   UNL     1      40.610  60.135   6.620  1.00  0.00     0.180 A 
ATOM      2  C   UNL     1      41.880  59.538   6.755  1.00  0.00     0.208 A 
ATOM      3  C   UNL     1      42.039  58.194   6.383  1.00  0.00     0.235 A 
ATOM      4  O   UNL     1      43.163  57.635   6.504  1.00  0.00    -0.285 OA
ATOM      5  C   UNL     1      40.941  57.486   5.868  1.00  0.00     0.069 A 
ATOM      6  C   UNL     1      39.709  58.162   5.742  1.00  0.00     0.142 A 
ATOM      7  O   UNL     1      39.599  59.433   6.115  1.00  0.00    -0.452 OA
ATOM      8  C   UNL     1      38.593  57.495   5.224  1.00  0.00     0.094 A 
ATOM      9  C   UNL     1      38.693  56.155   4.832  1.00  0.00     0.119 A 
ATOM     10  C   UNL     1      39.914  55.481   4.957  1.00  0.00     0.047 A 
ATOM     11  C   UNL     1      41.034  56.140   5.472  1.00  0.00     0.020 A 
ENDROOT
BRANCH   1  12
ATOM     12  C   UNL     1      40.358  61.542   7.008  1.00  0.00     0.025 A 
ATOM     13  C   UNL     1      39.990  61.837   8.328  1.00  0.00     0.016 A 
ATOM     14  C   UNL     1      39.766  63.157   8.721  1.00  0.00     0.051 A 
ATOM     15  C   UNL     1      39.920  64.210   7.811  1.00  0.00     0.157 A 
ATOM     16  C   UNL     1      40.536  62.597   6.097  1.00  0.00     0.062 A 
ATOM     17  C   UNL     1      40.317  63.925   6.483  1.00  0.00     0.158 A 
BRANCH  15  18
ATOM     18  O   UNL     1      39.674  65.506   8.266  1.00  0.00    -0.504 OA
ATOM     19  H   UNL     1      39.315  65.722   9.184  1.00  0.00     0.293 HD
ENDBRANCH  15  18
BRANCH  17  20
ATOM     20  O   UNL     1      40.511  64.923   5.525  1.00  0.00    -0.504 OA
ATOM     21  H   UNL     1      41.041  65.767   5.687  1.00  0.00     0.293 HD
ENDBRANCH  17  20
ENDBRANCH   1  12
BRANCH   2  22
ATOM     22  O   UNL     1      42.967  60.282   7.224  1.00  0.00    -0.502 OA
ATOM     23  H   UNL     1      43.299  60.213   8.178  1.00  0.00     0.293 HD
ENDBRANCH   2  22
BRANCH   9  24
ATOM     24  O   UNL     1      37.571  55.506   4.320  1.00  0.00    -0.508 OA
ATOM     25  H   UNL     1      36.711  55.439   4.851  1.00  0.00     0.293 HD
ENDBRANCH   9  24
TORSDOF 5
ENDMDL
MODEL 9
REMARK VINA RESULT:    -6.510      4.098      6.332
REMARK INTER + INTRA:          -7.968
REMARK INTER:                  -7.686
REMARK INTRA:                  -0.283
REMARK UNBOUND:                -0.317
REMARK SMILES O=c1c(O)c(-c2ccc(O)c(O)c2)oc2cc(O)ccc12
REMARK SMILES IDX 5 1 3 2 2 3 1 4 21 5 15 6 14 7 16 8 17 9 19 10 20 11 6 12
REMARK SMILES IDX 7 13 8 14 9 15 13 16 11 17 10 18 12 20 4 22 18 24
REMARK H PARENT 10 19 12 21 4 23 18 25
REMARK Flexibility Score: inf
ROOT
ATOM      1  C   UNL     1      32.918  58.058  -0.346  1.00  0.00     0.180 A 
ATOM      2  C   UNL     1      32.507  59.021  -1.292  1.00  0.00     0.208 A 
ATOM      3  C   UNL     1      31.142  59.124  -1.604  1.00  0.00     0.235 A 
ATOM      4  O   UNL     1      30.752  59.971  -2.453  1.00  0.00    -0.285 OA
ATOM      5  C   UNL     1      30.222  58.285  -0.958  1.00  0.00     0.069 A 
ATOM      6  C   UNL     1      30.709  57.363  -0.006  1.00  0.00     0.142 A 
ATOM      7  O   UNL     1      32.011  57.291   0.254  1.00  0.00    -0.452 OA
ATOM      8  C   UNL     1      29.822  56.515   0.666  1.00  0.00     0.094 A 
ATOM      9  C   UNL     1      28.450  56.575   0.400  1.00  0.00     0.119 A 
ATOM     10  C   UNL     1      27.963  57.488  -0.545  1.00  0.00     0.047 A 
ATOM     11  C   UNL     1      28.841  58.339  -1.221  1.00  0.00     0.020 A 
ENDROOT
BRANCH   1  12
ATOM     12  C   UNL     1      34.340  57.876   0.023  1.00  0.00     0.025 A 
ATOM     13  C   UNL     1      35.190  57.168  -0.838  1.00  0.00     0.016 A 
ATOM     14  C   UNL     1      36.539  57.001  -0.519  1.00  0.00     0.051 A 
ATOM     15  C   UNL     1      37.069  57.550   0.654  1.00  0.00     0.157 A 
ATOM     16  C   UNL     1      34.873  58.448   1.190  1.00  0.00     0.062 A 
ATOM     17  C   UNL     1      36.226  58.288   1.517  1.00  0.00     0.158 A 
BRANCH  15  18
ATOM     18  O   UNL     1      38.424  57.339   0.917  1.00  0.00    -0.504 OA
ATOM     19  H   UNL     1      39.171  57.836   0.454  1.00  0.00     0.293 HD
ENDBRANCH  15  18
BRANCH  17  20
ATOM     20  O   UNL     1      36.687  58.881   2.694  1.00  0.00    -0.504 OA
ATOM     21  H   UNL     1      36.204  59.623   3.181  1.00  0.00     0.293 HD
ENDBRANCH  17  20
ENDBRANCH   1  12
BRANCH   2  22
ATOM     22  O   UNL     1      33.441  59.877  -1.882  1.00  0.00    -0.502 OA
ATOM     23  H   UNL     1      33.535  60.848  -1.608  1.00  0.00     0.293 HD
ENDBRANCH   2  22
BRANCH   9  24
ATOM     24  O   UNL     1      27.582  55.723   1.079  1.00  0.00    -0.508 OA
ATOM     25  H   UNL     1      26.629  55.580   0.764  1.00  0.00     0.293 HD
ENDBRANCH   9  24
TORSDOF 5
ENDMDL
