MODEL 1
REMARK VINA RESULT:    79.005      0.000      0.000
REMARK INTER + INTRA:         112.690
REMARK INTER:                 113.644
REMARK INTRA:                  -0.955
REMARK UNBOUND:                -0.955
REMARK SMILES O=c1cc(-c2ccc(O)c(O)c2)oc2cc(O[C@@H]3O[C@H](CO)[C@H](O)[C@@H](O)[C@H]3O)cc(O)c12
REMARK SMILES IDX 17 1 16 2 4 3 3 4 13 5 2 6 14 7 1 8 32 9 15 10 30 11 29 12
REMARK SMILES IDX 5 13 6 14 7 15 8 16 12 17 10 18 9 19 11 21 31 23 18 25 27 26
REMARK SMILES IDX 19 27 25 28 20 29 23 30 28 31 26 33 21 35 22 36 24 38
REMARK H PARENT 9 20 11 22 31 24 28 32 26 34 22 37 24 39
REMARK Flexibility Score: inf
ROOT
ATOM      1  O   UNL     1     -34.996  40.130 -22.939  1.00  0.00    -0.462 OA
ENDROOT
BRANCH   1   2
ATOM      2  C   UNL     1     -35.931  40.434 -21.895  1.00  0.00     0.130 A 
ATOM      3  C   UNL     1     -40.266  39.467 -20.160  1.00  0.00     0.138 A 
ATOM      4  C   UNL     1     -39.939  39.914 -18.864  1.00  0.00     0.100 A 
ATOM      5  O   UNL     1     -39.324  39.426 -21.105  1.00  0.00    -0.456 OA
ATOM      6  C   UNL     1     -38.637  40.425 -18.639  1.00  0.00     0.197 A 
ATOM      7  C   UNL     1     -38.116  39.917 -20.943  1.00  0.00     0.146 A 
ATOM      8  O   UNL     1     -38.336  40.878 -17.491  1.00  0.00    -0.289 OA
ATOM      9  C   UNL     1     -37.716  40.457 -19.698  1.00  0.00     0.107 A 
ATOM     10  C   UNL     1     -37.200  39.832 -21.986  1.00  0.00     0.094 A 
ATOM     11  C   UNL     1     -36.390  40.913 -19.557  1.00  0.00     0.134 A 
ATOM     12  C   UNL     1     -35.598  41.125 -20.696  1.00  0.00     0.093 A 
BRANCH   3  13
ATOM     13  C   UNL     1     -41.637  39.011 -20.528  1.00  0.00     0.021 A 
ATOM     14  C   UNL     1     -41.899  38.349 -21.741  1.00  0.00     0.016 A 
ATOM     15  C   UNL     1     -43.172  37.838 -22.007  1.00  0.00     0.051 A 
ATOM     16  C   UNL     1     -44.193  37.936 -21.057  1.00  0.00     0.157 A 
ATOM     17  C   UNL     1     -42.690  39.191 -19.613  1.00  0.00     0.062 A 
ATOM     18  C   UNL     1     -43.954  38.651 -19.864  1.00  0.00     0.158 A 
BRANCH  16  19
ATOM     19  O   UNL     1     -45.383  37.245 -21.276  1.00  0.00    -0.504 OA
ATOM     20  H   UNL     1     -45.906  37.287 -22.156  1.00  0.00     0.293 HD
ENDBRANCH  16  19
BRANCH  18  21
ATOM     21  O   UNL     1     -44.975  38.849 -18.940  1.00  0.00    -0.504 OA
ATOM     22  H   UNL     1     -45.546  38.065 -18.638  1.00  0.00     0.293 HD
ENDBRANCH  18  21
ENDBRANCH   3  13
BRANCH  11  23
ATOM     23  O   UNL     1     -35.780  40.963 -18.310  1.00  0.00    -0.507 OA
ATOM     24  H   UNL     1     -34.924  41.540 -18.259  1.00  0.00     0.293 HD
ENDBRANCH  11  23
ENDBRANCH   1   2
BRANCH   1  25
ATOM     25  C   UNL     1     -33.567  40.327 -22.919  1.00  0.00     0.339 C 
ATOM     26  C   UNL     1     -32.745  39.043 -22.632  1.00  0.00     0.214 C 
ATOM     27  O   UNL     1     -33.168  40.943 -24.151  1.00  0.00    -0.332 OA
ATOM     28  C   UNL     1     -32.939  38.031 -23.737  1.00  0.00     0.180 C 
ATOM     29  C   UNL     1     -33.300  40.053 -25.288  1.00  0.00     0.179 C 
ATOM     30  C   UNL     1     -32.622  38.634 -25.126  1.00  0.00     0.177 C 
BRANCH  26  31
ATOM     31  O   UNL     1     -31.376  39.315 -22.462  1.00  0.00    -0.384 OA
ATOM     32  H   UNL     1     -31.010  38.753 -21.714  1.00  0.00     0.211 HD
ENDBRANCH  26  31
BRANCH  28  33
ATOM     33  O   UNL     1     -32.242  36.837 -23.446  1.00  0.00    -0.387 OA
ATOM     34  H   UNL     1     -31.304  36.875 -23.808  1.00  0.00     0.211 HD
ENDBRANCH  28  33
BRANCH  29  35
ATOM     35  C   UNL     1     -34.808  39.955 -25.723  1.00  0.00     0.191 C 
BRANCH  35  36
ATOM     36  O   UNL     1     -35.568  41.125 -25.400  1.00  0.00    -0.394 OA
ATOM     37  H   UNL     1     -36.312  40.932 -24.752  1.00  0.00     0.210 HD
ENDBRANCH  35  36
ENDBRANCH  29  35
BRANCH  30  38
ATOM     38  O   UNL     1     -32.997  37.705 -26.125  1.00  0.00    -0.387 OA
ATOM     39  H   UNL     1     -32.267  37.037 -26.208  1.00  0.00     0.211 HD
ENDBRANCH  30  38
ENDBRANCH   1  25
TORSDOF 11
ENDMDL
MODEL 2
REMARK VINA RESULT:    81.200      9.605     11.207
REMARK INTER + INTRA:         115.847
REMARK INTER:                 116.428
REMARK INTRA:                  -0.581
REMARK UNBOUND:                -0.955
REMARK SMILES O=c1cc(-c2ccc(O)c(O)c2)oc2cc(O[C@@H]3O[C@H](CO)[C@H](O)[C@@H](O)[C@H]3O)cc(O)c12
REMARK SMILES IDX 17 1 16 2 4 3 3 4 13 5 2 6 14 7 1 8 32 9 15 10 30 11 29 12
REMARK SMILES IDX 5 13 6 14 7 15 8 16 12 17 10 18 9 19 11 21 31 23 18 25 27 26
REMARK SMILES IDX 19 27 25 28 20 29 23 30 28 31 26 33 21 35 22 36 24 38
REMARK H PARENT 9 20 11 22 31 24 28 32 26 34 22 37 24 39
REMARK Flexibility Score: inf
ROOT
ATOM      1  O   UNL     1     -34.831  29.815 -19.079  1.00  0.00    -0.462 OA
ENDROOT
BRANCH   1   2
ATOM      2  C   UNL     1     -35.937  29.073 -19.612  1.00  0.00     0.130 A 
ATOM      3  C   UNL     1     -40.206  29.433 -21.707  1.00  0.00     0.138 A 
ATOM      4  C   UNL     1     -40.144  28.132 -22.246  1.00  0.00     0.100 A 
ATOM      5  O   UNL     1     -39.155  29.928 -21.049  1.00  0.00    -0.456 OA
ATOM      6  C   UNL     1     -39.003  27.342 -21.963  1.00  0.00     0.197 A 
ATOM      7  C   UNL     1     -38.093  29.218 -20.742  1.00  0.00     0.146 A 
ATOM      8  O   UNL     1     -38.948  26.149 -22.398  1.00  0.00    -0.289 OA
ATOM      9  C   UNL     1     -37.972  27.877 -21.175  1.00  0.00     0.107 A 
ATOM     10  C   UNL     1     -37.047  29.819 -20.051  1.00  0.00     0.094 A 
ATOM     11  C   UNL     1     -36.786  27.177 -20.874  1.00  0.00     0.134 A 
ATOM     12  C   UNL     1     -35.902  27.681 -19.907  1.00  0.00     0.093 A 
BRANCH   3  13
ATOM     13  C   UNL     1     -41.405  30.305 -21.856  1.00  0.00     0.021 A 
ATOM     14  C   UNL     1     -41.660  31.021 -23.039  1.00  0.00     0.016 A 
ATOM     15  C   UNL     1     -42.848  31.743 -23.187  1.00  0.00     0.051 A 
ATOM     16  C   UNL     1     -43.821  31.730 -22.183  1.00  0.00     0.157 A 
ATOM     17  C   UNL     1     -42.343  30.370 -20.810  1.00  0.00     0.062 A 
ATOM     18  C   UNL     1     -43.546  31.063 -20.970  1.00  0.00     0.158 A 
BRANCH  16  19
ATOM     19  O   UNL     1     -45.066  32.294 -22.448  1.00  0.00    -0.504 OA
ATOM     20  H   UNL     1     -45.441  33.098 -21.937  1.00  0.00     0.293 HD
ENDBRANCH  16  19
BRANCH  18  21
ATOM     21  O   UNL     1     -44.451  31.109 -19.915  1.00  0.00    -0.504 OA
ATOM     22  H   UNL     1     -44.494  30.344 -19.249  1.00  0.00     0.293 HD
ENDBRANCH  18  21
ENDBRANCH   3  13
BRANCH  11  23
ATOM     23  O   UNL     1     -36.367  26.108 -21.656  1.00  0.00    -0.507 OA
ATOM     24  H   UNL     1     -36.277  25.206 -21.161  1.00  0.00     0.293 HD
ENDBRANCH  11  23
ENDBRANCH   1   2
BRANCH   1  25
ATOM     25  C   UNL     1     -34.761  30.489 -17.806  1.00  0.00     0.339 C 
ATOM     26  C   UNL     1     -34.562  29.547 -16.590  1.00  0.00     0.214 C 
ATOM     27  O   UNL     1     -33.738  31.491 -17.869  1.00  0.00    -0.332 OA
ATOM     28  C   UNL     1     -33.230  28.840 -16.680  1.00  0.00     0.180 C 
ATOM     29  C   UNL     1     -32.405  30.923 -17.944  1.00  0.00     0.179 C 
ATOM     30  C   UNL     1     -32.062  29.840 -16.846  1.00  0.00     0.177 C 
BRANCH  26  31
ATOM     31  O   UNL     1     -34.664  30.231 -15.365  1.00  0.00    -0.384 OA
ATOM     32  H   UNL     1     -33.747  30.370 -14.979  1.00  0.00     0.211 HD
ENDBRANCH  26  31
BRANCH  28  33
ATOM     33  O   UNL     1     -33.075  27.934 -15.606  1.00  0.00    -0.387 OA
ATOM     34  H   UNL     1     -32.866  28.425 -14.753  1.00  0.00     0.211 HD
ENDBRANCH  28  33
BRANCH  29  35
ATOM     35  C   UNL     1     -32.120  30.414 -19.405  1.00  0.00     0.191 C 
BRANCH  35  36
ATOM     36  O   UNL     1     -31.030  29.489 -19.480  1.00  0.00    -0.394 OA
ATOM     37  H   UNL     1     -30.450  29.645 -20.287  1.00  0.00     0.210 HD
ENDBRANCH  35  36
ENDBRANCH  29  35
BRANCH  30  38
ATOM     38  O   UNL     1     -30.875  29.117 -17.108  1.00  0.00    -0.387 OA
ATOM     39  H   UNL     1     -30.317  29.141 -16.287  1.00  0.00     0.211 HD
ENDBRANCH  30  38
ENDBRANCH   1  25
TORSDOF 11
ENDMDL
