MODEL 1
REMARK VINA RESULT:    -6.140      0.000      0.000
REMARK INTER + INTRA:          -8.885
REMARK INTER:                  -8.294
REMARK INTRA:                  -0.590
REMARK UNBOUND:                -0.590
REMARK SMILES CC(=O)CCC=C(C)CCC=C(C)C
REMARK SMILES IDX 7 1 6 2 8 3 9 4 10 5 11 6 13 7 12 8 14 9 5 10 4 11 2 12 3 13
REMARK SMILES IDX 1 14
REMARK H PARENT
REMARK Flexibility Score: inf
ROOT
ATOM      1  C   UNL     1      28.976   9.229  25.964  1.00  0.00    -0.077 C 
ATOM      2  C   UNL     1      28.765  10.542  25.717  1.00  0.00    -0.028 C 
ATOM      3  C   UNL     1      27.833   8.251  26.101  1.00  0.00     0.039 C 
ENDROOT
BRANCH   1   4
ATOM      4  C   UNL     1      30.393   8.703  26.056  1.00  0.00     0.034 C 
BRANCH   4   5
ATOM      5  C   UNL     1      31.431   9.819  25.874  1.00  0.00     0.032 C 
BRANCH   5   6
ATOM      6  C   UNL     1      31.980  10.314  27.193  1.00  0.00    -0.028 C 
ATOM      7  C   UNL     1      34.279   9.515  26.639  1.00  0.00     0.039 C 
ATOM      8  C   UNL     1      33.274  10.179  27.550  1.00  0.00    -0.080 C 
ATOM      9  C   UNL     1      33.714  10.708  28.890  1.00  0.00     0.039 C 
ENDBRANCH   5   6
ENDBRANCH   4   5
ENDBRANCH   1   4
BRANCH   2  10
ATOM     10  C   UNL     1      27.404  11.183  25.617  1.00  0.00     0.035 C 
BRANCH  10  11
ATOM     11  C   UNL     1      27.090  11.992  26.880  1.00  0.00     0.079 C 
BRANCH  11  12
ATOM     12  C   UNL     1      25.783  11.549  27.483  1.00  0.00     0.130 C 
ATOM     13  O   UNL     1      25.636  10.380  27.808  1.00  0.00    -0.300 OA
ATOM     14  C   UNL     1      24.650  12.511  27.686  1.00  0.00     0.087 C 
ENDBRANCH  11  12
ENDBRANCH  10  11
ENDBRANCH   2  10
TORSDOF 6
ENDMDL
MODEL 2
REMARK VINA RESULT:    -6.133      3.067      5.410
REMARK INTER + INTRA:          -8.874
REMARK INTER:                  -8.426
REMARK INTRA:                  -0.448
REMARK UNBOUND:                -0.590
REMARK SMILES CC(=O)CCC=C(C)CCC=C(C)C
REMARK SMILES IDX 7 1 6 2 8 3 9 4 10 5 11 6 13 7 12 8 14 9 5 10 4 11 2 12 3 13
REMARK SMILES IDX 1 14
REMARK H PARENT
REMARK Flexibility Score: inf
ROOT
ATOM      1  C   UNL     1      33.873  10.619  27.840  1.00  0.00    -0.077 C 
ATOM      2  C   UNL     1      32.593  10.378  27.475  1.00  0.00    -0.028 C 
ATOM      3  C   UNL     1      35.042  10.136  27.014  1.00  0.00     0.039 C 
ENDROOT
BRANCH   1   4
ATOM      4  C   UNL     1      34.155  11.439  29.082  1.00  0.00     0.034 C 
BRANCH   4   5
ATOM      5  C   UNL     1      35.287  12.451  28.855  1.00  0.00     0.032 C 
BRANCH   5   6
ATOM      6  C   UNL     1      34.784  13.875  28.809  1.00  0.00    -0.028 C 
ATOM      7  C   UNL     1      37.105  14.792  28.878  1.00  0.00     0.039 C 
ATOM      8  C   UNL     1      35.604  14.946  28.821  1.00  0.00    -0.080 C 
ATOM      9  C   UNL     1      34.996  16.324  28.773  1.00  0.00     0.039 C 
ENDBRANCH   5   6
ENDBRANCH   4   5
ENDBRANCH   1   4
BRANCH   2  10
ATOM     10  C   UNL     1      32.189   9.565  26.270  1.00  0.00     0.035 C 
BRANCH  10  11
ATOM     11  C   UNL     1      30.958  10.174  25.593  1.00  0.00     0.079 C 
BRANCH  11  12
ATOM     12  C   UNL     1      29.729   9.353  25.886  1.00  0.00     0.130 C 
ATOM     13  O   UNL     1      29.755   8.146  25.703  1.00  0.00    -0.300 OA
ATOM     14  C   UNL     1      28.467   9.988  26.390  1.00  0.00     0.087 C 
ENDBRANCH  11  12
ENDBRANCH  10  11
ENDBRANCH   2  10
TORSDOF 6
ENDMDL
MODEL 3
REMARK VINA RESULT:    -5.837      2.760      6.689
REMARK INTER + INTRA:          -8.475
REMARK INTER:                  -8.027
REMARK INTRA:                  -0.448
REMARK UNBOUND:                -0.590
REMARK SMILES CC(=O)CCC=C(C)CCC=C(C)C
REMARK SMILES IDX 7 1 6 2 8 3 9 4 10 5 11 6 13 7 12 8 14 9 5 10 4 11 2 12 3 13
REMARK SMILES IDX 1 14
REMARK H PARENT
REMARK Flexibility Score: inf
ROOT
ATOM      1  C   UNL     1      29.777   8.841  26.144  1.00  0.00    -0.077 C 
ATOM      2  C   UNL     1      30.742   9.776  26.301  1.00  0.00    -0.028 C 
ATOM      3  C   UNL     1      30.107   7.399  25.840  1.00  0.00     0.039 C 
ENDROOT
BRANCH   1   4
ATOM      4  C   UNL     1      28.324   9.228  26.326  1.00  0.00     0.034 C 
BRANCH   4   5
ATOM      5  C   UNL     1      28.166  10.716  26.667  1.00  0.00     0.032 C 
BRANCH   5   6
ATOM      6  C   UNL     1      26.802  11.034  27.236  1.00  0.00    -0.028 C 
ATOM      7  C   UNL     1      26.742  13.251  26.089  1.00  0.00     0.039 C 
ATOM      8  C   UNL     1      26.148  12.186  26.979  1.00  0.00    -0.080 C 
ATOM      9  C   UNL     1      24.792  12.401  27.601  1.00  0.00     0.039 C 
ENDBRANCH   5   6
ENDBRANCH   4   5
ENDBRANCH   1   4
BRANCH   2  10
ATOM     10  C   UNL     1      32.218   9.514  26.132  1.00  0.00     0.035 C 
BRANCH  10  11
ATOM     11  C   UNL     1      33.020  10.178  27.256  1.00  0.00     0.079 C 
BRANCH  11  12
ATOM     12  C   UNL     1      34.489   9.883  27.107  1.00  0.00     0.130 C 
ATOM     13  O   UNL     1      35.309  10.663  27.565  1.00  0.00    -0.300 OA
ATOM     14  C   UNL     1      34.970   8.652  26.397  1.00  0.00     0.087 C 
ENDBRANCH  11  12
ENDBRANCH  10  11
ENDBRANCH   2  10
TORSDOF 6
ENDMDL
MODEL 4
REMARK VINA RESULT:    -5.819      3.294      7.071
REMARK INTER + INTRA:          -8.450
REMARK INTER:                  -7.819
REMARK INTRA:                  -0.631
REMARK UNBOUND:                -0.590
REMARK SMILES CC(=O)CCC=C(C)CCC=C(C)C
REMARK SMILES IDX 7 1 6 2 8 3 9 4 10 5 11 6 13 7 12 8 14 9 5 10 4 11 2 12 3 13
REMARK SMILES IDX 1 14
REMARK H PARENT
REMARK Flexibility Score: inf
ROOT
ATOM      1  C   UNL     1      32.836   9.636  26.502  1.00  0.00    -0.077 C 
ATOM      2  C   UNL     1      32.622  10.249  27.688  1.00  0.00    -0.028 C 
ATOM      3  C   UNL     1      34.170   9.019  26.152  1.00  0.00     0.039 C 
ENDROOT
BRANCH   1   4
ATOM      4  C   UNL     1      31.698   9.510  25.509  1.00  0.00     0.034 C 
BRANCH   4   5
ATOM      5  C   UNL     1      30.381  10.058  26.074  1.00  0.00     0.032 C 
BRANCH   5   6
ATOM      6  C   UNL     1      29.253   9.057  25.977  1.00  0.00    -0.028 C 
ATOM      7  C   UNL     1      27.621  10.665  26.971  1.00  0.00     0.039 C 
ATOM      8  C   UNL     1      27.995   9.325  26.384  1.00  0.00    -0.080 C 
ATOM      9  C   UNL     1      26.945   8.252  26.243  1.00  0.00     0.039 C 
ENDBRANCH   5   6
ENDBRANCH   4   5
ENDBRANCH   1   4
BRANCH   2  10
ATOM     10  C   UNL     1      33.677  10.445  28.748  1.00  0.00     0.035 C 
BRANCH  10  11
ATOM     11  C   UNL     1      34.292  11.845  28.649  1.00  0.00     0.079 C 
BRANCH  11  12
ATOM     12  C   UNL     1      35.794  11.772  28.738  1.00  0.00     0.130 C 
ATOM     13  O   UNL     1      36.425  12.764  29.068  1.00  0.00    -0.300 OA
ATOM     14  C   UNL     1      36.536  10.508  28.418  1.00  0.00     0.087 C 
ENDBRANCH  11  12
ENDBRANCH  10  11
ENDBRANCH   2  10
TORSDOF 6
ENDMDL
MODEL 5
REMARK VINA RESULT:    -5.681      3.043      6.756
REMARK INTER + INTRA:          -8.265
REMARK INTER:                  -7.905
REMARK INTRA:                  -0.360
REMARK UNBOUND:                -0.590
REMARK SMILES CC(=O)CCC=C(C)CCC=C(C)C
REMARK SMILES IDX 7 1 6 2 8 3 9 4 10 5 11 6 13 7 12 8 14 9 5 10 4 11 2 12 3 13
REMARK SMILES IDX 1 14
REMARK H PARENT
REMARK Flexibility Score: inf
ROOT
ATOM      1  C   UNL     1      31.245   9.667  26.520  1.00  0.00    -0.077 C 
ATOM      2  C   UNL     1      31.883  10.188  27.592  1.00  0.00    -0.028 C 
ATOM      3  C   UNL     1      31.985   9.290  25.258  1.00  0.00     0.039 C 
ENDROOT
BRANCH   1   4
ATOM      4  C   UNL     1      29.756   9.399  26.592  1.00  0.00     0.034 C 
BRANCH   4   5
ATOM      5  C   UNL     1      28.932  10.626  26.178  1.00  0.00     0.032 C 
BRANCH   5   6
ATOM      6  C   UNL     1      27.601  10.693  26.891  1.00  0.00    -0.028 C 
ATOM      7  C   UNL     1      27.125  12.968  25.980  1.00  0.00     0.039 C 
ATOM      8  C   UNL     1      26.774  11.755  26.808  1.00  0.00    -0.080 C 
ATOM      9  C   UNL     1      25.470  11.718  27.562  1.00  0.00     0.039 C 
ENDBRANCH   5   6
ENDBRANCH   4   5
ENDBRANCH   1   4
BRANCH   2  10
ATOM     10  C   UNL     1      33.356  10.510  27.634  1.00  0.00     0.035 C 
BRANCH  10  11
ATOM     11  C   UNL     1      33.768  10.986  29.031  1.00  0.00     0.079 C 
BRANCH  11  12
ATOM     12  C   UNL     1      34.964  11.898  28.949  1.00  0.00     0.130 C 
ATOM     13  O   UNL     1      36.078  11.419  28.809  1.00  0.00    -0.300 OA
ATOM     14  C   UNL     1      34.818  13.388  29.048  1.00  0.00     0.087 C 
ENDBRANCH  11  12
ENDBRANCH  10  11
ENDBRANCH   2  10
TORSDOF 6
ENDMDL
MODEL 6
REMARK VINA RESULT:    -5.658      2.808      4.461
REMARK INTER + INTRA:          -8.234
REMARK INTER:                  -7.758
REMARK INTRA:                  -0.475
REMARK UNBOUND:                -0.590
REMARK SMILES CC(=O)CCC=C(C)CCC=C(C)C
REMARK SMILES IDX 7 1 6 2 8 3 9 4 10 5 11 6 13 7 12 8 14 9 5 10 4 11 2 12 3 13
REMARK SMILES IDX 1 14
REMARK H PARENT
REMARK Flexibility Score: inf
ROOT
ATOM      1  C   UNL     1      29.281   9.087  26.042  1.00  0.00    -0.077 C 
ATOM      2  C   UNL     1      29.527   7.757  26.029  1.00  0.00    -0.028 C 
ATOM      3  C   UNL     1      27.958   9.648  26.509  1.00  0.00     0.039 C 
ENDROOT
BRANCH   1   4
ATOM      4  C   UNL     1      30.371  10.054  25.629  1.00  0.00     0.034 C 
BRANCH   4   5
ATOM      5  C   UNL     1      31.764   9.555  26.037  1.00  0.00     0.032 C 
BRANCH   5   6
ATOM      6  C   UNL     1      32.296  10.271  27.258  1.00  0.00    -0.028 C 
ATOM      7  C   UNL     1      34.643   9.595  26.742  1.00  0.00     0.039 C 
ATOM      8  C   UNL     1      33.604  10.292  27.586  1.00  0.00    -0.080 C 
ATOM      9  C   UNL     1      34.026  11.036  28.828  1.00  0.00     0.039 C 
ENDBRANCH   5   6
ENDBRANCH   4   5
ENDBRANCH   1   4
BRANCH   2  10
ATOM     10  C   UNL     1      28.519   6.700  26.405  1.00  0.00     0.035 C 
BRANCH  10  11
ATOM     11  C   UNL     1      28.776   5.404  25.629  1.00  0.00     0.079 C 
BRANCH  11  12
ATOM     12  C   UNL     1      27.969   4.271  26.205  1.00  0.00     0.130 C 
ATOM     13  O   UNL     1      27.570   3.382  25.469  1.00  0.00    -0.300 OA
ATOM     14  C   UNL     1      27.633   4.214  27.666  1.00  0.00     0.087 C 
ENDBRANCH  11  12
ENDBRANCH  10  11
ENDBRANCH   2  10
TORSDOF 6
ENDMDL
MODEL 7
REMARK VINA RESULT:    -5.633      4.230      7.371
REMARK INTER + INTRA:          -8.199
REMARK INTER:                  -7.784
REMARK INTRA:                  -0.416
REMARK UNBOUND:                -0.590
REMARK SMILES CC(=O)CCC=C(C)CCC=C(C)C
REMARK SMILES IDX 7 1 6 2 8 3 9 4 10 5 11 6 13 7 12 8 14 9 5 10 4 11 2 12 3 13
REMARK SMILES IDX 1 14
REMARK H PARENT
REMARK Flexibility Score: inf
ROOT
ATOM      1  C   UNL     1      34.320  10.954  28.254  1.00  0.00    -0.077 C 
ATOM      2  C   UNL     1      34.170  12.128  28.909  1.00  0.00    -0.028 C 
ATOM      3  C   UNL     1      35.635  10.551  27.630  1.00  0.00     0.039 C 
ENDROOT
BRANCH   1   4
ATOM      4  C   UNL     1      33.158   9.984  28.182  1.00  0.00     0.034 C 
BRANCH   4   5
ATOM      5  C   UNL     1      32.672   9.778  26.741  1.00  0.00     0.032 C 
BRANCH   5   6
ATOM      6  C   UNL     1      31.285  10.334  26.517  1.00  0.00    -0.028 C 
ATOM      7  C   UNL     1      30.390   8.091  25.884  1.00  0.00     0.039 C 
ATOM      8  C   UNL     1      30.241   9.574  26.125  1.00  0.00    -0.080 C 
ATOM      9  C   UNL     1      28.900  10.232  25.929  1.00  0.00     0.039 C 
ENDBRANCH   5   6
ENDBRANCH   4   5
ENDBRANCH   1   4
BRANCH   2  10
ATOM     10  C   UNL     1      35.247  13.177  29.035  1.00  0.00     0.035 C 
BRANCH  10  11
ATOM     11  C   UNL     1      34.641  14.539  29.386  1.00  0.00     0.079 C 
BRANCH  11  12
ATOM     12  C   UNL     1      35.488  15.656  28.836  1.00  0.00     0.130 C 
ATOM     13  O   UNL     1      36.608  15.409  28.415  1.00  0.00    -0.300 OA
ATOM     14  C   UNL     1      34.991  17.070  28.804  1.00  0.00     0.087 C 
ENDBRANCH  11  12
ENDBRANCH  10  11
ENDBRANCH   2  10
TORSDOF 6
ENDMDL
MODEL 8
REMARK VINA RESULT:    -5.558      7.247      9.477
REMARK INTER + INTRA:          -8.098
REMARK INTER:                  -7.184
REMARK INTRA:                  -0.914
REMARK UNBOUND:                -0.590
REMARK SMILES CC(=O)CCC=C(C)CCC=C(C)C
REMARK SMILES IDX 7 1 6 2 8 3 9 4 10 5 11 6 13 7 12 8 14 9 5 10 4 11 2 12 3 13
REMARK SMILES IDX 1 14
REMARK H PARENT
REMARK Flexibility Score: inf
ROOT
ATOM      1  C   UNL     1      35.768  10.656  28.168  1.00  0.00    -0.077 C 
ATOM      2  C   UNL     1      37.019  11.051  28.500  1.00  0.00    -0.028 C 
ATOM      3  C   UNL     1      35.501   9.322  27.512  1.00  0.00     0.039 C 
ENDROOT
BRANCH   1   4
ATOM      4  C   UNL     1      34.589  11.545  28.506  1.00  0.00     0.034 C 
BRANCH   4   5
ATOM      5  C   UNL     1      34.939  12.573  29.591  1.00  0.00     0.032 C 
BRANCH   5   6
ATOM      6  C   UNL     1      34.570  13.982  29.188  1.00  0.00    -0.028 C 
ATOM      7  C   UNL     1      36.966  14.632  28.925  1.00  0.00     0.039 C 
ATOM      8  C   UNL     1      35.486  14.926  28.885  1.00  0.00    -0.080 C 
ATOM      9  C   UNL     1      35.006  16.301  28.498  1.00  0.00     0.039 C 
ENDBRANCH   5   6
ENDBRANCH   4   5
ENDBRANCH   1   4
BRANCH   2  10
ATOM     10  C   UNL     1      38.268  10.260  28.204  1.00  0.00     0.035 C 
BRANCH  10  11
ATOM     11  C   UNL     1      39.147  10.993  27.185  1.00  0.00     0.079 C 
BRANCH  11  12
ATOM     12  C   UNL     1      39.281  10.185  25.921  1.00  0.00     0.130 C 
ATOM     13  O   UNL     1      40.379   9.761  25.592  1.00  0.00    -0.300 OA
ATOM     14  C   UNL     1      38.096   9.897  25.047  1.00  0.00     0.087 C 
ENDBRANCH  11  12
ENDBRANCH  10  11
ENDBRANCH   2  10
TORSDOF 6
ENDMDL
MODEL 9
REMARK VINA RESULT:    -5.536      5.498      8.307
REMARK INTER + INTRA:          -8.068
REMARK INTER:                  -7.529
REMARK INTRA:                  -0.540
REMARK UNBOUND:                -0.590
REMARK SMILES CC(=O)CCC=C(C)CCC=C(C)C
REMARK SMILES IDX 7 1 6 2 8 3 9 4 10 5 11 6 13 7 12 8 14 9 5 10 4 11 2 12 3 13
REMARK SMILES IDX 1 14
REMARK H PARENT
REMARK Flexibility Score: inf
ROOT
ATOM      1  C   UNL     1      34.110  10.544  27.908  1.00  0.00    -0.077 C 
ATOM      2  C   UNL     1      35.163  10.004  27.253  1.00  0.00    -0.028 C 
ATOM      3  C   UNL     1      32.684  10.217  27.531  1.00  0.00     0.039 C 
ENDROOT
BRANCH   1   4
ATOM      4  C   UNL     1      34.354  11.463  29.087  1.00  0.00     0.034 C 
BRANCH   4   5
ATOM      5  C   UNL     1      35.450  12.496  28.792  1.00  0.00     0.032 C 
BRANCH   5   6
ATOM      6  C   UNL     1      34.904  13.902  28.700  1.00  0.00    -0.028 C 
ATOM      7  C   UNL     1      37.188  14.896  28.872  1.00  0.00     0.039 C 
ATOM      8  C   UNL     1      35.688  15.000  28.738  1.00  0.00    -0.080 C 
ATOM      9  C   UNL     1      35.038  16.356  28.641  1.00  0.00     0.039 C 
ENDBRANCH   5   6
ENDBRANCH   4   5
ENDBRANCH   1   4
BRANCH   2  10
ATOM     10  C   UNL     1      35.046   9.089  26.059  1.00  0.00     0.035 C 
BRANCH  10  11
ATOM     11  C   UNL     1      36.148   9.385  25.038  1.00  0.00     0.079 C 
BRANCH  11  12
ATOM     12  C   UNL     1      37.419   8.663  25.402  1.00  0.00     0.130 C 
ATOM     13  O   UNL     1      37.445   7.442  25.378  1.00  0.00    -0.300 OA
ATOM     14  C   UNL     1      38.655   9.412  25.805  1.00  0.00     0.087 C 
ENDBRANCH  11  12
ENDBRANCH  10  11
ENDBRANCH   2  10
TORSDOF 6
ENDMDL
