MODEL 1
REMARK VINA RESULT:    -3.702      0.000      0.000
REMARK INTER + INTRA:          -4.468
REMARK INTER:                  -4.135
REMARK INTRA:                  -0.333
REMARK UNBOUND:                -0.333
REMARK SMILES CC(=O)O[C@H]1C[C@H]2CC[C@]1(C)C2(C)C
REMARK SMILES IDX 4 1 2 2 1 3 3 4 5 5 6 6 10 7 7 8 9 9 12 10 11 11 8 12 13 13
REMARK SMILES IDX 14 14
REMARK H PARENT
REMARK Flexibility Score: inf
ROOT
ATOM      1  O   UNL     1     211.741 211.385 218.373  1.00  0.00    -0.462 OA
ENDROOT
BRANCH   1   2
ATOM      2  C   UNL     1     210.501 211.893 218.771  1.00  0.00     0.302 C 
ATOM      3  C   UNL     1     210.376 212.563 220.098  1.00  0.00     0.139 C 
ATOM      4  O   UNL     1     209.503 211.844 218.002  1.00  0.00    -0.253 OA
ENDBRANCH   1   2
BRANCH   1   5
ATOM      5  C   UNL     1     212.121 210.014 218.523  1.00  0.00     0.183 C 
ATOM      6  C   UNL     1     212.886 209.529 217.271  1.00  0.00     0.050 C 
ATOM      7  C   UNL     1     213.171 209.791 219.658  1.00  0.00     0.010 C 
ATOM      8  C   UNL     1     214.246 209.066 217.850  1.00  0.00    -0.001 C 
ATOM      9  C   UNL     1     214.289 210.855 219.472  1.00  0.00     0.011 C 
ATOM     10  C   UNL     1     213.871 208.481 219.220  1.00  0.00    -0.024 C 
ATOM     11  C   UNL     1     212.574 209.777 221.071  1.00  0.00     0.016 C 
ATOM     12  C   UNL     1     215.022 210.356 218.212  1.00  0.00     0.005 C 
ATOM     13  C   UNL     1     215.105 208.054 220.076  1.00  0.00     0.012 C 
ATOM     14  C   UNL     1     212.955 207.222 219.139  1.00  0.00     0.012 C 
ENDBRANCH   1   5
TORSDOF 2
ENDMDL
MODEL 2
REMARK VINA RESULT:    -3.692     18.196     19.737
REMARK INTER + INTRA:          -4.457
REMARK INTER:                  -4.161
REMARK INTRA:                  -0.296
REMARK UNBOUND:                -0.333
REMARK SMILES CC(=O)O[C@H]1C[C@H]2CC[C@]1(C)C2(C)C
REMARK SMILES IDX 4 1 2 2 1 3 3 4 5 5 6 6 10 7 7 8 9 9 12 10 11 11 8 12 13 13
REMARK SMILES IDX 14 14
REMARK H PARENT
REMARK Flexibility Score: inf
ROOT
ATOM      1  O   UNL     1     197.975 197.610 218.098  1.00  0.00    -0.462 OA
ENDROOT
BRANCH   1   2
ATOM      2  C   UNL     1     198.982 196.683 218.387  1.00  0.00     0.302 C 
ATOM      3  C   UNL     1     200.410 197.090 218.257  1.00  0.00     0.139 C 
ATOM      4  O   UNL     1     198.698 195.530 218.810  1.00  0.00    -0.253 OA
ENDBRANCH   1   2
BRANCH   1   5
ATOM      5  C   UNL     1     197.030 198.080 219.062  1.00  0.00     0.183 C 
ATOM      6  C   UNL     1     197.761 198.723 220.262  1.00  0.00     0.050 C 
ATOM      7  C   UNL     1     196.157 199.264 218.535  1.00  0.00     0.010 C 
ATOM      8  C   UNL     1     197.194 200.165 220.285  1.00  0.00    -0.001 C 
ATOM      9  C   UNL     1     197.118 200.292 217.874  1.00  0.00     0.011 C 
ATOM     10  C   UNL     1     195.735 199.983 219.840  1.00  0.00    -0.024 C 
ATOM     11  C   UNL     1     195.004 198.835 217.619  1.00  0.00     0.016 C 
ATOM     12  C   UNL     1     197.843 200.903 219.089  1.00  0.00     0.005 C 
ATOM     13  C   UNL     1     194.966 201.328 219.655  1.00  0.00     0.012 C 
ATOM     14  C   UNL     1     194.875 199.136 220.828  1.00  0.00     0.012 C 
ENDBRANCH   1   5
TORSDOF 2
ENDMDL
MODEL 3
REMARK VINA RESULT:    -3.601      2.029      2.687
REMARK INTER + INTRA:          -4.355
REMARK INTER:                  -4.066
REMARK INTRA:                  -0.290
REMARK UNBOUND:                -0.333
REMARK SMILES CC(=O)O[C@H]1C[C@H]2CC[C@]1(C)C2(C)C
REMARK SMILES IDX 4 1 2 2 1 3 3 4 5 5 6 6 10 7 7 8 9 9 12 10 11 11 8 12 13 13
REMARK SMILES IDX 14 14
REMARK H PARENT
REMARK Flexibility Score: inf
ROOT
ATOM      1  O   UNL     1     210.639 208.707 219.887  1.00  0.00    -0.462 OA
ENDROOT
BRANCH   1   2
ATOM      2  C   UNL     1     209.789 209.311 220.820  1.00  0.00     0.302 C 
ATOM      3  C   UNL     1     208.931 210.453 220.396  1.00  0.00     0.139 C 
ATOM      4  O   UNL     1     209.700 208.866 221.996  1.00  0.00    -0.253 OA
ENDBRANCH   1   2
BRANCH   1   5
ATOM      5  C   UNL     1     212.061 208.661 220.024  1.00  0.00     0.183 C 
ATOM      6  C   UNL     1     212.651 207.548 219.128  1.00  0.00     0.050 C 
ATOM      7  C   UNL     1     212.771 209.939 219.473  1.00  0.00     0.010 C 
ATOM      8  C   UNL     1     213.634 208.321 218.213  1.00  0.00    -0.001 C 
ATOM      9  C   UNL     1     212.170 210.237 218.071  1.00  0.00     0.011 C 
ATOM     10  C   UNL     1     214.189 209.420 219.132  1.00  0.00    -0.024 C 
ATOM     11  C   UNL     1     212.723 211.143 220.423  1.00  0.00     0.016 C 
ATOM     12  C   UNL     1     212.759 209.106 217.205  1.00  0.00     0.005 C 
ATOM     13  C   UNL     1     215.124 210.433 218.400  1.00  0.00     0.012 C 
ATOM     14  C   UNL     1     215.016 208.876 220.338  1.00  0.00     0.012 C 
ENDBRANCH   1   5
TORSDOF 2
ENDMDL
MODEL 4
REMARK VINA RESULT:    -3.589     18.163     19.733
REMARK INTER + INTRA:          -4.342
REMARK INTER:                  -4.043
REMARK INTRA:                  -0.299
REMARK UNBOUND:                -0.333
REMARK SMILES CC(=O)O[C@H]1C[C@H]2CC[C@]1(C)C2(C)C
REMARK SMILES IDX 4 1 2 2 1 3 3 4 5 5 6 6 10 7 7 8 9 9 12 10 11 11 8 12 13 13
REMARK SMILES IDX 14 14
REMARK H PARENT
REMARK Flexibility Score: inf
ROOT
ATOM      1  O   UNL     1     198.208 197.688 219.749  1.00  0.00    -0.462 OA
ENDROOT
BRANCH   1   2
ATOM      2  C   UNL     1     199.515 197.512 219.283  1.00  0.00     0.302 C 
ATOM      3  C   UNL     1     199.749 196.716 218.044  1.00  0.00     0.139 C 
ATOM      4  O   UNL     1     200.489 198.062 219.863  1.00  0.00    -0.253 OA
ENDBRANCH   1   2
BRANCH   1   5
ATOM      5  C   UNL     1     197.197 198.396 219.026  1.00  0.00     0.183 C 
ATOM      6  C   UNL     1     195.820 197.728 219.235  1.00  0.00     0.050 C 
ATOM      7  C   UNL     1     196.951 199.838 219.575  1.00  0.00     0.010 C 
ATOM      8  C   UNL     1     194.965 198.871 219.838  1.00  0.00    -0.001 C 
ATOM      9  C   UNL     1     196.822 199.732 221.121  1.00  0.00     0.011 C 
ATOM     10  C   UNL     1     195.496 200.127 219.131  1.00  0.00    -0.024 C 
ATOM     11  C   UNL     1     197.993 200.869 219.122  1.00  0.00     0.016 C 
ATOM     12  C   UNL     1     195.452 199.049 221.297  1.00  0.00     0.005 C 
ATOM     13  C   UNL     1     194.875 201.455 219.667  1.00  0.00     0.012 C 
ATOM     14  C   UNL     1     195.251 200.135 217.591  1.00  0.00     0.012 C 
ENDBRANCH   1   5
TORSDOF 2
ENDMDL
MODEL 5
REMARK VINA RESULT:    -3.555     17.925     19.358
REMARK INTER + INTRA:          -4.304
REMARK INTER:                  -4.035
REMARK INTRA:                  -0.269
REMARK UNBOUND:                -0.333
REMARK SMILES CC(=O)O[C@H]1C[C@H]2CC[C@]1(C)C2(C)C
REMARK SMILES IDX 4 1 2 2 1 3 3 4 5 5 6 6 10 7 7 8 9 9 12 10 11 11 8 12 13 13
REMARK SMILES IDX 14 14
REMARK H PARENT
REMARK Flexibility Score: inf
ROOT
ATOM      1  O   UNL     1     198.029 200.122 221.324  1.00  0.00    -0.462 OA
ENDROOT
BRANCH   1   2
ATOM      2  C   UNL     1     199.106 199.487 221.951  1.00  0.00     0.302 C 
ATOM      3  C   UNL     1     200.102 200.305 222.701  1.00  0.00     0.139 C 
ATOM      4  O   UNL     1     199.214 198.231 221.939  1.00  0.00    -0.253 OA
ENDBRANCH   1   2
BRANCH   1   5
ATOM      5  C   UNL     1     196.943 199.421 220.712  1.00  0.00     0.183 C 
ATOM      6  C   UNL     1     195.604 200.124 221.030  1.00  0.00     0.050 C 
ATOM      7  C   UNL     1     196.982 199.476 219.151  1.00  0.00     0.010 C 
ATOM      8  C   UNL     1     195.042 200.457 219.626  1.00  0.00    -0.001 C 
ATOM      9  C   UNL     1     197.235 200.955 218.744  1.00  0.00     0.011 C 
ATOM     10  C   UNL     1     195.497 199.266 218.767  1.00  0.00    -0.024 C 
ATOM     11  C   UNL     1     197.971 198.493 218.513  1.00  0.00     0.016 C 
ATOM     12  C   UNL     1     195.894 201.632 219.087  1.00  0.00     0.005 C 
ATOM     13  C   UNL     1     195.160 199.425 217.251  1.00  0.00     0.012 C 
ATOM     14  C   UNL     1     194.875 197.903 219.199  1.00  0.00     0.012 C 
ENDBRANCH   1   5
TORSDOF 2
ENDMDL
MODEL 6
REMARK VINA RESULT:    -3.488      3.966      6.014
REMARK INTER + INTRA:          -4.228
REMARK INTER:                  -3.919
REMARK INTRA:                  -0.309
REMARK UNBOUND:                -0.333
REMARK SMILES CC(=O)O[C@H]1C[C@H]2CC[C@]1(C)C2(C)C
REMARK SMILES IDX 4 1 2 2 1 3 3 4 5 5 6 6 10 7 7 8 9 9 12 10 11 11 8 12 13 13
REMARK SMILES IDX 14 14
REMARK H PARENT
REMARK Flexibility Score: inf
ROOT
ATOM      1  O   UNL     1     206.268 211.585 218.294  1.00  0.00    -0.462 OA
ENDROOT
BRANCH   1   2
ATOM      2  C   UNL     1     205.526 210.467 218.689  1.00  0.00     0.302 C 
ATOM      3  C   UNL     1     205.876 209.126 218.141  1.00  0.00     0.139 C 
ATOM      4  O   UNL     1     204.604 210.570 219.543  1.00  0.00    -0.253 OA
ENDBRANCH   1   2
BRANCH   1   5
ATOM      5  C   UNL     1     207.697 211.621 218.275  1.00  0.00     0.183 C 
ATOM      6  C   UNL     1     208.196 212.538 217.135  1.00  0.00     0.050 C 
ATOM      7  C   UNL     1     208.308 212.306 219.540  1.00  0.00     0.010 C 
ATOM      8  C   UNL     1     209.044 213.596 217.883  1.00  0.00    -0.001 C 
ATOM      9  C   UNL     1     207.535 213.635 219.769  1.00  0.00     0.011 C 
ATOM     10  C   UNL     1     209.685 212.797 219.029  1.00  0.00    -0.024 C 
ATOM     11  C   UNL     1     208.351 211.407 220.782  1.00  0.00     0.016 C 
ATOM     12  C   UNL     1     208.038 214.520 218.612  1.00  0.00     0.005 C 
ATOM     13  C   UNL     1     210.502 213.678 220.025  1.00  0.00     0.012 C 
ATOM     14  C   UNL     1     210.663 211.681 218.550  1.00  0.00     0.012 C 
ENDBRANCH   1   5
TORSDOF 2
ENDMDL
MODEL 7
REMARK VINA RESULT:    -3.387      1.231      2.251
REMARK INTER + INTRA:          -4.116
REMARK INTER:                  -3.799
REMARK INTRA:                  -0.317
REMARK UNBOUND:                -0.333
REMARK SMILES CC(=O)O[C@H]1C[C@H]2CC[C@]1(C)C2(C)C
REMARK SMILES IDX 4 1 2 2 1 3 3 4 5 5 6 6 10 7 7 8 9 9 12 10 11 11 8 12 13 13
REMARK SMILES IDX 14 14
REMARK H PARENT
REMARK Flexibility Score: inf
ROOT
ATOM      1  O   UNL     1     210.653 211.255 218.223  1.00  0.00    -0.462 OA
ENDROOT
BRANCH   1   2
ATOM      2  C   UNL     1     209.780 212.345 218.292  1.00  0.00     0.302 C 
ATOM      3  C   UNL     1     209.995 213.390 219.334  1.00  0.00     0.139 C 
ATOM      4  O   UNL     1     208.851 212.486 217.452  1.00  0.00    -0.253 OA
ENDBRANCH   1   2
BRANCH   1   5
ATOM      5  C   UNL     1     211.542 210.883 219.279  1.00  0.00     0.183 C 
ATOM      6  C   UNL     1     211.164 209.491 219.833  1.00  0.00     0.050 C 
ATOM      7  C   UNL     1     213.009 210.657 218.792  1.00  0.00     0.010 C 
ATOM      8  C   UNL     1     212.460 208.668 219.624  1.00  0.00    -0.001 C 
ATOM      9  C   UNL     1     212.946 209.760 217.525  1.00  0.00     0.011 C 
ATOM     10  C   UNL     1     213.578 209.695 219.863  1.00  0.00    -0.024 C 
ATOM     11  C   UNL     1     213.807 211.951 218.582  1.00  0.00     0.016 C 
ATOM     12  C   UNL     1     212.553 208.387 218.104  1.00  0.00     0.005 C 
ATOM     13  C   UNL     1     215.009 209.137 219.582  1.00  0.00     0.012 C 
ATOM     14  C   UNL     1     213.620 210.254 221.319  1.00  0.00     0.012 C 
ENDBRANCH   1   5
TORSDOF 2
ENDMDL
MODEL 8
REMARK VINA RESULT:    -3.339      2.441      4.425
REMARK INTER + INTRA:          -4.062
REMARK INTER:                  -3.812
REMARK INTRA:                  -0.250
REMARK UNBOUND:                -0.333
REMARK SMILES CC(=O)O[C@H]1C[C@H]2CC[C@]1(C)C2(C)C
REMARK SMILES IDX 4 1 2 2 1 3 3 4 5 5 6 6 10 7 7 8 9 9 12 10 11 11 8 12 13 13
REMARK SMILES IDX 14 14
REMARK H PARENT
REMARK Flexibility Score: inf
ROOT
ATOM      1  O   UNL     1     214.954 208.395 219.687  1.00  0.00    -0.462 OA
ENDROOT
BRANCH   1   2
ATOM      2  C   UNL     1     214.988 207.541 220.793  1.00  0.00     0.302 C 
ATOM      3  C   UNL     1     215.123 208.119 222.161  1.00  0.00     0.139 C 
ATOM      4  O   UNL     1     214.851 206.295 220.655  1.00  0.00    -0.253 OA
ENDBRANCH   1   2
BRANCH   1   5
ATOM      5  C   UNL     1     214.377 209.704 219.713  1.00  0.00     0.183 C 
ATOM      6  C   UNL     1     214.892 210.541 218.521  1.00  0.00     0.050 C 
ATOM      7  C   UNL     1     212.834 209.696 219.469  1.00  0.00     0.010 C 
ATOM      8  C   UNL     1     213.590 210.928 217.777  1.00  0.00    -0.001 C 
ATOM      9  C   UNL     1     212.563 208.790 218.235  1.00  0.00     0.011 C 
ATOM     10  C   UNL     1     212.571 211.117 218.912  1.00  0.00    -0.024 C 
ATOM     11  C   UNL     1     212.005 209.309 220.700  1.00  0.00     0.016 C 
ATOM     12  C   UNL     1     213.100 209.641 217.068  1.00  0.00     0.005 C 
ATOM     13  C   UNL     1     211.119 211.390 218.409  1.00  0.00     0.012 C 
ATOM     14  C   UNL     1     212.914 212.293 219.877  1.00  0.00     0.012 C 
ENDBRANCH   1   5
TORSDOF 2
ENDMDL
MODEL 9
REMARK VINA RESULT:    -3.274      1.678      2.132
REMARK INTER + INTRA:          -3.990
REMARK INTER:                  -3.757
REMARK INTRA:                  -0.233
REMARK UNBOUND:                -0.333
REMARK SMILES CC(=O)O[C@H]1C[C@H]2CC[C@]1(C)C2(C)C
REMARK SMILES IDX 4 1 2 2 1 3 3 4 5 5 6 6 10 7 7 8 9 9 12 10 11 11 8 12 13 13
REMARK SMILES IDX 14 14
REMARK H PARENT
REMARK Flexibility Score: inf
ROOT
ATOM      1  O   UNL     1     213.333 211.846 219.926  1.00  0.00    -0.462 OA
ENDROOT
BRANCH   1   2
ATOM      2  C   UNL     1     212.972 213.106 219.441  1.00  0.00     0.302 C 
ATOM      3  C   UNL     1     213.992 213.945 218.749  1.00  0.00     0.139 C 
ATOM      4  O   UNL     1     211.784 213.518 219.530  1.00  0.00    -0.253 OA
ENDBRANCH   1   2
BRANCH   1   5
ATOM      5  C   UNL     1     212.560 210.662 219.711  1.00  0.00     0.183 C 
ATOM      6  C   UNL     1     212.240 210.495 218.209  1.00  0.00     0.050 C 
ATOM      7  C   UNL     1     213.350 209.351 220.027  1.00  0.00     0.010 C 
ATOM      8  C   UNL     1     212.851 209.112 217.872  1.00  0.00    -0.001 C 
ATOM      9  C   UNL     1     214.738 209.466 219.338  1.00  0.00     0.011 C 
ATOM     10  C   UNL     1     212.623 208.298 219.156  1.00  0.00    -0.024 C 
ATOM     11  C   UNL     1     213.440 209.017 221.522  1.00  0.00     0.016 C 
ATOM     12  C   UNL     1     214.386 209.314 217.846  1.00  0.00     0.005 C 
ATOM     13  C   UNL     1     213.275 206.880 219.120  1.00  0.00     0.012 C 
ATOM     14  C   UNL     1     211.118 208.064 219.495  1.00  0.00     0.012 C 
ENDBRANCH   1   5
TORSDOF 2
ENDMDL
