MODEL 1
REMARK VINA RESULT:    -5.705      0.000      0.000
REMARK INTER + INTRA:          -6.908
REMARK INTER:                  -6.705
REMARK INTRA:                  -0.203
REMARK UNBOUND:                -0.203
REMARK SMILES CCC=Cc1oc(O)c2c(O)cccc12
REMARK SMILES IDX 7 1 6 2 5 3 15 4 14 5 13 6 12 7 10 8 9 9 8 10 4 12 3 13 2 14
REMARK SMILES IDX 1 15 11 16
REMARK H PARENT 8 11 11 17
REMARK Flexibility Score: inf
ROOT
ATOM      1  C   UNL     1     -26.486  26.663 -22.331  1.00  0.00     0.294 A 
ATOM      2  O   UNL     1     -25.250  27.117 -22.254  1.00  0.00    -0.425 OA
ATOM      3  C   UNL     1     -25.100  27.738 -21.095  1.00  0.00     0.138 A 
ATOM      4  C   UNL     1     -26.293  27.679 -20.396  1.00  0.00     0.035 A 
ATOM      5  C   UNL     1     -26.664  28.172 -19.143  1.00  0.00     0.013 A 
ATOM      6  C   UNL     1     -27.982  27.941 -18.710  1.00  0.00     0.005 A 
ATOM      7  C   UNL     1     -28.892  27.232 -19.526  1.00  0.00     0.047 A 
ATOM      8  C   UNL     1     -28.490  26.746 -20.788  1.00  0.00     0.130 A 
ATOM      9  C   UNL     1     -27.176  26.992 -21.187  1.00  0.00     0.108 A 
ENDROOT
BRANCH   1  10
ATOM     10  O   UNL     1     -26.995  25.957 -23.416  1.00  0.00    -0.480 OA
ATOM     11  H   UNL     1     -27.679  26.384 -24.029  1.00  0.00     0.297 HD
ENDBRANCH   1  10
BRANCH   3  12
ATOM     12  C   UNL     1     -23.854  28.379 -20.646  1.00  0.00     0.043 C 
ATOM     13  C   UNL     1     -23.254  29.327 -21.371  1.00  0.00    -0.023 C 
BRANCH  13  14
ATOM     14  C   UNL     1     -21.976  29.972 -20.919  1.00  0.00     0.024 C 
ATOM     15  C   UNL     1     -20.768  29.368 -21.630  1.00  0.00     0.008 C 
ENDBRANCH  13  14
ENDBRANCH   3  12
BRANCH   8  16
ATOM     16  O   UNL     1     -29.370  26.046 -21.610  1.00  0.00    -0.507 OA
ATOM     17  H   UNL     1     -30.335  25.893 -21.340  1.00  0.00     0.293 HD
ENDBRANCH   8  16
TORSDOF 4
ENDMDL
MODEL 2
REMARK VINA RESULT:    -5.671      8.606     12.347
REMARK INTER + INTRA:          -6.868
REMARK INTER:                  -6.622
REMARK INTRA:                  -0.245
REMARK UNBOUND:                -0.203
REMARK SMILES CCC=Cc1oc(O)c2c(O)cccc12
REMARK SMILES IDX 7 1 6 2 5 3 15 4 14 5 13 6 12 7 10 8 9 9 8 10 4 12 3 13 2 14
REMARK SMILES IDX 1 15 11 16
REMARK H PARENT 8 11 11 17
REMARK Flexibility Score: inf
ROOT
ATOM      1  C   UNL     1     -13.695  25.594 -20.505  1.00  0.00     0.294 A 
ATOM      2  O   UNL     1     -14.994  25.639 -20.729  1.00  0.00    -0.425 OA
ATOM      3  C   UNL     1     -15.499  26.676 -20.081  1.00  0.00     0.138 A 
ATOM      4  C   UNL     1     -14.477  27.327 -19.410  1.00  0.00     0.035 A 
ATOM      5  C   UNL     1     -14.474  28.458 -18.592  1.00  0.00     0.013 A 
ATOM      6  C   UNL     1     -13.243  28.873 -18.051  1.00  0.00     0.005 A 
ATOM      7  C   UNL     1     -12.058  28.158 -18.332  1.00  0.00     0.047 A 
ATOM      8  C   UNL     1     -12.091  27.018 -19.162  1.00  0.00     0.130 A 
ATOM      9  C   UNL     1     -13.327  26.634 -19.683  1.00  0.00     0.108 A 
ENDROOT
BRANCH   1  10
ATOM     10  O   UNL     1     -12.843  24.630 -21.032  1.00  0.00    -0.480 OA
ATOM     11  H   UNL     1     -12.058  24.288 -20.489  1.00  0.00     0.297 HD
ENDBRANCH   1  10
BRANCH   3  12
ATOM     12  C   UNL     1     -16.921  27.055 -20.089  1.00  0.00     0.043 C 
ATOM     13  C   UNL     1     -17.380  28.029 -20.880  1.00  0.00    -0.023 C 
BRANCH  13  14
ATOM     14  C   UNL     1     -18.828  28.425 -20.879  1.00  0.00     0.024 C 
ATOM     15  C   UNL     1     -19.000  29.901 -21.226  1.00  0.00     0.008 C 
ENDBRANCH  13  14
ENDBRANCH   3  12
BRANCH   8  16
ATOM     16  O   UNL     1     -10.935  26.297 -19.452  1.00  0.00    -0.507 OA
ATOM     17  H   UNL     1     -10.867  25.723 -20.284  1.00  0.00     0.293 HD
ENDBRANCH   8  16
TORSDOF 4
ENDMDL
MODEL 3
REMARK VINA RESULT:    -5.581      2.294      3.390
REMARK INTER + INTRA:          -6.763
REMARK INTER:                  -6.521
REMARK INTRA:                  -0.242
REMARK UNBOUND:                -0.203
REMARK SMILES CCC=Cc1oc(O)c2c(O)cccc12
REMARK SMILES IDX 7 1 6 2 5 3 15 4 14 5 13 6 12 7 10 8 9 9 8 10 4 12 3 13 2 14
REMARK SMILES IDX 1 15 11 16
REMARK H PARENT 8 11 11 17
REMARK Flexibility Score: inf
ROOT
ATOM      1  C   UNL     1     -25.046  27.738 -20.916  1.00  0.00     0.294 A 
ATOM      2  O   UNL     1     -24.485  28.382 -19.912  1.00  0.00    -0.425 OA
ATOM      3  C   UNL     1     -25.385  28.533 -18.953  1.00  0.00     0.138 A 
ATOM      4  C   UNL     1     -26.577  27.961 -19.361  1.00  0.00     0.035 A 
ATOM      5  C   UNL     1     -27.820  27.850 -18.734  1.00  0.00     0.013 A 
ATOM      6  C   UNL     1     -28.852  27.196 -19.432  1.00  0.00     0.005 A 
ATOM      7  C   UNL     1     -28.625  26.673 -20.724  1.00  0.00     0.047 A 
ATOM      8  C   UNL     1     -27.359  26.800 -21.334  1.00  0.00     0.130 A 
ATOM      9  C   UNL     1     -26.358  27.453 -20.615  1.00  0.00     0.108 A 
ENDROOT
BRANCH   1  10
ATOM     10  O   UNL     1     -24.390  27.406 -22.097  1.00  0.00    -0.480 OA
ATOM     11  H   UNL     1     -24.833  26.798 -22.775  1.00  0.00     0.297 HD
ENDBRANCH   1  10
BRANCH   3  12
ATOM     12  C   UNL     1     -25.132  29.206 -17.669  1.00  0.00     0.043 C 
ATOM     13  C   UNL     1     -24.873  28.514 -16.556  1.00  0.00    -0.023 C 
BRANCH  13  14
ATOM     14  C   UNL     1     -24.628  29.199 -15.243  1.00  0.00     0.024 C 
ATOM     15  C   UNL     1     -23.137  29.270 -14.923  1.00  0.00     0.008 C 
ENDBRANCH  13  14
ENDBRANCH   3  12
BRANCH   8  16
ATOM     16  O   UNL     1     -27.113  26.293 -22.608  1.00  0.00    -0.507 OA
ATOM     17  H   UNL     1     -27.844  26.250 -23.309  1.00  0.00     0.293 HD
ENDBRANCH   8  16
TORSDOF 4
ENDMDL
MODEL 4
REMARK VINA RESULT:    -5.329      2.110      4.222
REMARK INTER + INTRA:          -6.466
REMARK INTER:                  -6.221
REMARK INTRA:                  -0.245
REMARK UNBOUND:                -0.203
REMARK SMILES CCC=Cc1oc(O)c2c(O)cccc12
REMARK SMILES IDX 7 1 6 2 5 3 15 4 14 5 13 6 12 7 10 8 9 9 8 10 4 12 3 13 2 14
REMARK SMILES IDX 1 15 11 16
REMARK H PARENT 8 11 11 17
REMARK Flexibility Score: inf
ROOT
ATOM      1  C   UNL     1     -27.988  26.953 -20.194  1.00  0.00     0.294 A 
ATOM      2  O   UNL     1     -28.136  27.495 -19.001  1.00  0.00    -0.425 OA
ATOM      3  C   UNL     1     -27.031  28.156 -18.697  1.00  0.00     0.138 A 
ATOM      4  C   UNL     1     -26.132  28.033 -19.743  1.00  0.00     0.035 A 
ATOM      5  C   UNL     1     -24.840  28.532 -19.924  1.00  0.00     0.013 A 
ATOM      6  C   UNL     1     -24.179  28.221 -21.126  1.00  0.00     0.005 A 
ATOM      7  C   UNL     1     -24.812  27.428 -22.109  1.00  0.00     0.047 A 
ATOM      8  C   UNL     1     -26.118  26.938 -21.899  1.00  0.00     0.130 A 
ATOM      9  C   UNL     1     -26.746  27.265 -20.697  1.00  0.00     0.108 A 
ENDROOT
BRANCH   1  10
ATOM     10  O   UNL     1     -28.955  26.184 -20.831  1.00  0.00    -0.480 OA
ATOM     11  H   UNL     1     -29.241  26.401 -21.778  1.00  0.00     0.297 HD
ENDBRANCH   1  10
BRANCH   3  12
ATOM     12  C   UNL     1     -26.818  28.895 -17.443  1.00  0.00     0.043 C 
ATOM     13  C   UNL     1     -25.952  28.470 -16.519  1.00  0.00    -0.023 C 
BRANCH  13  14
ATOM     14  C   UNL     1     -25.743  29.217 -15.234  1.00  0.00     0.024 C 
ATOM     15  C   UNL     1     -25.213  30.625 -15.489  1.00  0.00     0.008 C 
ENDBRANCH  13  14
ENDBRANCH   3  12
BRANCH   8  16
ATOM     16  O   UNL     1     -26.761  26.154 -22.854  1.00  0.00    -0.507 OA
ATOM     17  H   UNL     1     -27.508  26.528 -23.427  1.00  0.00     0.293 HD
ENDBRANCH   8  16
TORSDOF 4
ENDMDL
MODEL 5
REMARK VINA RESULT:    -5.309     10.290     12.335
REMARK INTER + INTRA:          -6.443
REMARK INTER:                  -6.228
REMARK INTRA:                  -0.214
REMARK UNBOUND:                -0.203
REMARK SMILES CCC=Cc1oc(O)c2c(O)cccc12
REMARK SMILES IDX 7 1 6 2 5 3 15 4 14 5 13 6 12 7 10 8 9 9 8 10 4 12 3 13 2 14
REMARK SMILES IDX 1 15 11 16
REMARK H PARENT 8 11 11 17
REMARK Flexibility Score: inf
ROOT
ATOM      1  C   UNL     1     -18.140  33.783 -14.328  1.00  0.00     0.294 A 
ATOM      2  O   UNL     1     -18.715  32.873 -13.567  1.00  0.00    -0.425 OA
ATOM      3  C   UNL     1     -19.913  33.311 -13.215  1.00  0.00     0.138 A 
ATOM      4  C   UNL     1     -20.117  34.560 -13.776  1.00  0.00     0.035 A 
ATOM      5  C   UNL     1     -21.197  35.443 -13.716  1.00  0.00     0.013 A 
ATOM      6  C   UNL     1     -21.090  36.661 -14.412  1.00  0.00     0.005 A 
ATOM      7  C   UNL     1     -19.921  36.969 -15.144  1.00  0.00     0.047 A 
ATOM      8  C   UNL     1     -18.845  36.058 -15.187  1.00  0.00     0.130 A 
ATOM      9  C   UNL     1     -18.984  34.859 -14.486  1.00  0.00     0.108 A 
ENDROOT
BRANCH   1  10
ATOM     10  O   UNL     1     -16.870  33.656 -14.878  1.00  0.00    -0.480 OA
ATOM     11  H   UNL     1     -16.631  32.842 -15.431  1.00  0.00     0.297 HD
ENDBRANCH   1  10
BRANCH   3  12
ATOM     12  C   UNL     1     -20.858  32.570 -12.364  1.00  0.00     0.043 C 
ATOM     13  C   UNL     1     -21.357  31.389 -12.738  1.00  0.00    -0.023 C 
BRANCH  13  14
ATOM     14  C   UNL     1     -22.331  30.639 -11.876  1.00  0.00     0.024 C 
ATOM     15  C   UNL     1     -23.722  30.611 -12.504  1.00  0.00     0.008 C 
ENDBRANCH  13  14
ENDBRANCH   3  12
BRANCH   8  16
ATOM     16  O   UNL     1     -17.683  36.340 -15.901  1.00  0.00    -0.507 OA
ATOM     17  H   UNL     1     -17.633  36.204 -16.904  1.00  0.00     0.293 HD
ENDBRANCH   8  16
TORSDOF 4
ENDMDL
MODEL 6
REMARK VINA RESULT:    -5.301     12.314     13.882
REMARK INTER + INTRA:          -6.433
REMARK INTER:                  -6.250
REMARK INTRA:                  -0.184
REMARK UNBOUND:                -0.203
REMARK SMILES CCC=Cc1oc(O)c2c(O)cccc12
REMARK SMILES IDX 7 1 6 2 5 3 15 4 14 5 13 6 12 7 10 8 9 9 8 10 4 12 3 13 2 14
REMARK SMILES IDX 1 15 11 16
REMARK H PARENT 8 11 11 17
REMARK Flexibility Score: inf
ROOT
ATOM      1  C   UNL     1     -17.761  21.572 -14.905  1.00  0.00     0.294 A 
ATOM      2  O   UNL     1     -17.753  20.826 -15.992  1.00  0.00    -0.425 OA
ATOM      3  C   UNL     1     -16.713  20.010 -15.936  1.00  0.00     0.138 A 
ATOM      4  C   UNL     1     -16.023  20.242 -14.758  1.00  0.00     0.035 A 
ATOM      5  C   UNL     1     -14.871  19.661 -14.223  1.00  0.00     0.013 A 
ATOM      6  C   UNL     1     -14.415  20.131 -12.979  1.00  0.00     0.005 A 
ATOM      7  C   UNL     1     -15.108  21.161 -12.303  1.00  0.00     0.047 A 
ATOM      8  C   UNL     1     -16.269  21.730 -12.867  1.00  0.00     0.130 A 
ATOM      9  C   UNL     1     -16.694  21.240 -14.102  1.00  0.00     0.108 A 
ENDROOT
BRANCH   1  10
ATOM     10  O   UNL     1     -18.716  22.545 -14.630  1.00  0.00    -0.480 OA
ATOM     11  H   UNL     1     -19.470  22.722 -15.283  1.00  0.00     0.297 HD
ENDBRANCH   1  10
BRANCH   3  12
ATOM     12  C   UNL     1     -16.369  19.022 -16.971  1.00  0.00     0.043 C 
ATOM     13  C   UNL     1     -16.637  19.239 -18.261  1.00  0.00    -0.023 C 
BRANCH  13  14
ATOM     14  C   UNL     1     -16.298  18.226 -19.316  1.00  0.00     0.024 C 
ATOM     15  C   UNL     1     -16.493  18.797 -20.718  1.00  0.00     0.008 C 
ENDBRANCH  13  14
ENDBRANCH   3  12
BRANCH   8  16
ATOM     16  O   UNL     1     -16.967  22.747 -12.220  1.00  0.00    -0.507 OA
ATOM     17  H   UNL     1     -17.698  23.267 -12.690  1.00  0.00     0.293 HD
ENDBRANCH   8  16
TORSDOF 4
ENDMDL
MODEL 7
REMARK VINA RESULT:    -5.283      2.205      5.231
REMARK INTER + INTRA:          -6.413
REMARK INTER:                  -6.144
REMARK INTRA:                  -0.269
REMARK UNBOUND:                -0.203
REMARK SMILES CCC=Cc1oc(O)c2c(O)cccc12
REMARK SMILES IDX 7 1 6 2 5 3 15 4 14 5 13 6 12 7 10 8 9 9 8 10 4 12 3 13 2 14
REMARK SMILES IDX 1 15 11 16
REMARK H PARENT 8 11 11 17
REMARK Flexibility Score: inf
ROOT
ATOM      1  C   UNL     1     -29.203  26.798 -22.146  1.00  0.00     0.294 A 
ATOM      2  O   UNL     1     -30.062  27.331 -21.300  1.00  0.00    -0.425 OA
ATOM      3  C   UNL     1     -29.386  27.926 -20.331  1.00  0.00     0.138 A 
ATOM      4  C   UNL     1     -28.030  27.768 -20.566  1.00  0.00     0.035 A 
ATOM      5  C   UNL     1     -26.906  28.197 -19.858  1.00  0.00     0.013 A 
ATOM      6  C   UNL     1     -25.639  27.866 -20.373  1.00  0.00     0.005 A 
ATOM      7  C   UNL     1     -25.523  27.122 -21.569  1.00  0.00     0.047 A 
ATOM      8  C   UNL     1     -26.677  26.702 -22.264  1.00  0.00     0.130 A 
ATOM      9  C   UNL     1     -27.917  27.047 -21.726  1.00  0.00     0.108 A 
ENDROOT
BRANCH   1  10
ATOM     10  O   UNL     1     -29.565  26.091 -23.288  1.00  0.00    -0.480 OA
ATOM     11  H   UNL     1     -29.273  25.129 -23.409  1.00  0.00     0.297 HD
ENDBRANCH   1  10
BRANCH   3  12
ATOM     12  C   UNL     1     -29.999  28.636 -19.197  1.00  0.00     0.043 C 
ATOM     13  C   UNL     1     -30.170  28.045 -18.011  1.00  0.00    -0.023 C 
BRANCH  13  14
ATOM     14  C   UNL     1     -30.807  28.764 -16.859  1.00  0.00     0.024 C 
ATOM     15  C   UNL     1     -29.802  29.658 -16.138  1.00  0.00     0.008 C 
ENDBRANCH  13  14
ENDBRANCH   3  12
BRANCH   8  16
ATOM     16  O   UNL     1     -26.586  25.967 -23.444  1.00  0.00    -0.507 OA
ATOM     17  H   UNL     1     -26.595  24.954 -23.436  1.00  0.00     0.293 HD
ENDBRANCH   8  16
TORSDOF 4
ENDMDL
MODEL 8
REMARK VINA RESULT:    -5.173      8.606     11.282
REMARK INTER + INTRA:          -6.283
REMARK INTER:                  -6.077
REMARK INTRA:                  -0.205
REMARK UNBOUND:                -0.203
REMARK SMILES CCC=Cc1oc(O)c2c(O)cccc12
REMARK SMILES IDX 7 1 6 2 5 3 15 4 14 5 13 6 12 7 10 8 9 9 8 10 4 12 3 13 2 14
REMARK SMILES IDX 1 15 11 16
REMARK H PARENT 8 11 11 17
REMARK Flexibility Score: inf
ROOT
ATOM      1  C   UNL     1     -19.671  33.463 -15.418  1.00  0.00     0.294 A 
ATOM      2  O   UNL     1     -20.859  32.891 -15.424  1.00  0.00    -0.425 OA
ATOM      3  C   UNL     1     -20.940  32.074 -14.387  1.00  0.00     0.138 A 
ATOM      4  C   UNL     1     -19.749  32.123 -13.682  1.00  0.00     0.035 A 
ATOM      5  C   UNL     1     -19.322  31.463 -12.528  1.00  0.00     0.013 A 
ATOM      6  C   UNL     1     -18.025  31.738 -12.056  1.00  0.00     0.005 A 
ATOM      7  C   UNL     1     -17.192  32.653 -12.738  1.00  0.00     0.047 A 
ATOM      8  C   UNL     1     -17.650  33.305 -13.902  1.00  0.00     0.130 A 
ATOM      9  C   UNL     1     -18.941  33.011 -14.343  1.00  0.00     0.108 A 
ENDROOT
BRANCH   1  10
ATOM     10  O   UNL     1     -19.239  34.383 -16.367  1.00  0.00    -0.480 OA
ATOM     11  H   UNL     1     -19.412  35.372 -16.237  1.00  0.00     0.297 HD
ENDBRANCH   1  10
BRANCH   3  12
ATOM     12  C   UNL     1     -22.118  31.256 -14.057  1.00  0.00     0.043 C 
ATOM     13  C   UNL     1     -22.585  30.331 -14.900  1.00  0.00    -0.023 C 
BRANCH  13  14
ATOM     14  C   UNL     1     -23.794  29.505 -14.569  1.00  0.00     0.024 C 
ATOM     15  C   UNL     1     -24.034  28.424 -15.620  1.00  0.00     0.008 C 
ENDBRANCH  13  14
ENDBRANCH   3  12
BRANCH   8  16
ATOM     16  O   UNL     1     -16.846  34.210 -14.591  1.00  0.00    -0.507 OA
ATOM     17  H   UNL     1     -16.780  35.180 -14.306  1.00  0.00     0.293 HD
ENDBRANCH   8  16
TORSDOF 4
ENDMDL
MODEL 9
REMARK VINA RESULT:    -5.126      2.647      5.740
REMARK INTER + INTRA:          -6.227
REMARK INTER:                  -5.998
REMARK INTRA:                  -0.229
REMARK UNBOUND:                -0.203
REMARK SMILES CCC=Cc1oc(O)c2c(O)cccc12
REMARK SMILES IDX 7 1 6 2 5 3 15 4 14 5 13 6 12 7 10 8 9 9 8 10 4 12 3 13 2 14
REMARK SMILES IDX 1 15 11 16
REMARK H PARENT 8 11 11 17
REMARK Flexibility Score: inf
ROOT
ATOM      1  C   UNL     1     -27.762  28.458 -18.475  1.00  0.00     0.294 A 
ATOM      2  O   UNL     1     -28.816  27.946 -19.078  1.00  0.00    -0.425 OA
ATOM      3  C   UNL     1     -28.418  27.343 -20.186  1.00  0.00     0.138 A 
ATOM      4  C   UNL     1     -27.045  27.474 -20.300  1.00  0.00     0.035 A 
ATOM      5  C   UNL     1     -26.144  27.027 -21.269  1.00  0.00     0.013 A 
ATOM      6  C   UNL     1     -24.782  27.331 -21.089  1.00  0.00     0.005 A 
ATOM      7  C   UNL     1     -24.353  28.065 -19.961  1.00  0.00     0.047 A 
ATOM      8  C   UNL     1     -25.286  28.504 -18.997  1.00  0.00     0.130 A 
ATOM      9  C   UNL     1     -26.628  28.185 -19.205  1.00  0.00     0.108 A 
ENDROOT
BRANCH   1  10
ATOM     10  O   UNL     1     -27.809  29.164 -17.278  1.00  0.00    -0.480 OA
ATOM     11  H   UNL     1     -27.194  29.954 -17.124  1.00  0.00     0.297 HD
ENDBRANCH   1  10
BRANCH   3  12
ATOM     12  C   UNL     1     -29.312  26.652 -21.129  1.00  0.00     0.043 C 
ATOM     13  C   UNL     1     -29.611  27.176 -22.321  1.00  0.00    -0.023 C 
BRANCH  13  14
ATOM     14  C   UNL     1     -30.532  26.478 -23.278  1.00  0.00     0.024 C 
ATOM     15  C   UNL     1     -30.550  27.170 -24.638  1.00  0.00     0.008 C 
ENDBRANCH  13  14
ENDBRANCH   3  12
BRANCH   8  16
ATOM     16  O   UNL     1     -24.886  29.229 -17.878  1.00  0.00    -0.507 OA
ATOM     17  H   UNL     1     -25.523  29.855 -17.400  1.00  0.00     0.293 HD
ENDBRANCH   8  16
TORSDOF 4
ENDMDL
