MODEL 1
REMARK VINA RESULT:    -2.364      0.000      0.000
REMARK INTER + INTRA:          -3.892
REMARK INTER:                  -3.608
REMARK INTRA:                  -0.283
REMARK UNBOUND:                -0.283
REMARK SMILES CC1=CCC[C@@H](C)C(=O)C[C@@H](C(C)C)C(=O)C1
REMARK SMILES IDX 8 1 9 2 6 3 7 4 5 5 4 6 3 7 2 8 1 9 10 11 11 12 15 13 16 14
REMARK SMILES IDX 17 15 12 17 13 18 14 19
REMARK H PARENT
REMARK Flexibility Score: 70.00
ROOT
ATOM      1  C   UNL     1      70.915   2.693  32.623  1.00  0.00     0.136 C 
ATOM      2  O   UNL     1      71.284   3.771  33.068  1.00  0.00    -0.299 OA
ENDROOT
BRANCH   1   3
ATOM      3  C   UNL     1      69.682   2.655  31.737  1.00  0.00     0.053 C 
ATOM      4  C   UNL     1      69.883   3.509  30.478  1.00  0.00     0.016 C 
BRANCH   3   5
ATOM      5  C   UNL     1      68.421   3.085  32.506  1.00  0.00     0.015 C 
BRANCH   5   6
ATOM      6  C   UNL     1      67.541   1.879  32.886  1.00  0.00     0.028 C 
BRANCH   6   7
ATOM      7  C   UNL     1      67.649   1.569  34.356  1.00  0.00    -0.028 C 
ATOM      8  C   UNL     1      68.248   0.468  34.867  1.00  0.00    -0.070 CG0
ATOM      9  C   UNL     1      68.310   0.326  36.367  1.00  0.00     0.039 C 
ATOM     10  G   UNL     1      68.850  -0.627  33.998  1.00  0.00     0.000 G0
ENDBRANCH   6   7
ENDBRANCH   5   6
ENDBRANCH   3   5
ENDBRANCH   1   3
BRANCH   1  11
ATOM     11  C   UNL     1      71.686   1.448  33.003  1.00  0.00     0.087 C 
BRANCH  11  12
ATOM     12  C   UNL     1      70.944   0.147  32.594  1.00  0.00     0.066 C 
BRANCH  12  13
ATOM     13  C   UNL     1      70.354  -0.505  33.836  1.00  0.00     0.140 C 
ATOM     14  O   UNL     1      71.105  -0.997  34.669  1.00  0.00    -0.299 OA
BRANCH  13  15
ATOM     15  C   UNL     1      68.862  -0.658  34.000  1.00  0.00     0.106 CG0
ATOM     16  G   UNL     1      68.260   0.452  34.849  1.00  0.00     0.000 G0
ENDBRANCH  13  15
ENDBRANCH  12  13
BRANCH  12  17
ATOM     17  C   UNL     1      71.869  -0.859  31.833  1.00  0.00    -0.006 C 
ATOM     18  C   UNL     1      73.303  -0.875  32.399  1.00  0.00     0.008 C 
ATOM     19  C   UNL     1      71.943  -0.529  30.328  1.00  0.00     0.008 C 
ENDBRANCH  12  17
ENDBRANCH  11  12
ENDBRANCH   1  11
TORSDOF 1
ENDMDL
MODEL 2
REMARK VINA RESULT:    -2.286      2.679      5.075
REMARK INTER + INTRA:          -3.772
REMARK INTER:                  -3.340
REMARK INTRA:                  -0.432
REMARK UNBOUND:                -0.283
REMARK SMILES CC1=CCC[C@@H](C)C(=O)C[C@@H](C(C)C)C(=O)C1
REMARK SMILES IDX 8 1 9 2 6 3 7 4 5 5 4 6 3 7 2 8 1 9 10 11 11 12 15 13 16 14
REMARK SMILES IDX 17 15 12 17 13 18 14 19
REMARK H PARENT
REMARK Flexibility Score: 70.00
ROOT
ATOM      1  C   UNL     1      70.226   0.583  33.532  1.00  0.00     0.136 C 
ATOM      2  O   UNL     1      69.553  -0.385  33.857  1.00  0.00    -0.299 OA
ENDROOT
BRANCH   1   3
ATOM      3  C   UNL     1      71.641   0.351  33.031  1.00  0.00     0.053 C 
ATOM      4  C   UNL     1      71.708  -0.882  32.121  1.00  0.00     0.016 C 
BRANCH   3   5
ATOM      5  C   UNL     1      72.639   0.238  34.197  1.00  0.00     0.015 C 
BRANCH   5   6
ATOM      6  C   UNL     1      73.598   1.442  34.251  1.00  0.00     0.028 C 
BRANCH   6   7
ATOM      7  C   UNL     1      73.288   2.332  35.427  1.00  0.00    -0.028 C 
ATOM      8  C   UNL     1      72.727   3.561  35.334  1.00  0.00    -0.070 CG0
ATOM      9  C   UNL     1      72.441   4.308  36.612  1.00  0.00     0.039 C 
ATOM     10  G   UNL     1      72.384   4.216  34.004  1.00  0.00     0.000 G0
ENDBRANCH   6   7
ENDBRANCH   5   6
ENDBRANCH   3   5
ENDBRANCH   1   3
BRANCH   1  11
ATOM     11  C   UNL     1      69.626   1.965  33.673  1.00  0.00     0.087 C 
BRANCH  11  12
ATOM     12  C   UNL     1      70.364   3.019  32.804  1.00  0.00     0.066 C 
BRANCH  12  13
ATOM     13  C   UNL     1      70.892   4.128  33.702  1.00  0.00     0.140 C 
ATOM     14  O   UNL     1      70.126   5.000  34.093  1.00  0.00    -0.299 OA
BRANCH  13  15
ATOM     15  C   UNL     1      72.362   4.235  34.023  1.00  0.00     0.106 CG0
ATOM     16  G   UNL     1      72.713   3.565  35.343  1.00  0.00     0.000 G0
ENDBRANCH  13  15
ENDBRANCH  12  13
BRANCH  12  17
ATOM     17  C   UNL     1      69.454   3.612  31.677  1.00  0.00    -0.006 C 
ATOM     18  C   UNL     1      68.008   3.085  31.757  1.00  0.00     0.008 C 
ATOM     19  C   UNL     1      70.014   3.292  30.275  1.00  0.00     0.008 C 
ENDBRANCH  12  17
ENDBRANCH  11  12
ENDBRANCH   1  11
TORSDOF 1
ENDMDL
MODEL 3
REMARK VINA RESULT:    -2.278      2.169      4.280
REMARK INTER + INTRA:          -3.759
REMARK INTER:                  -3.550
REMARK INTRA:                  -0.209
REMARK UNBOUND:                -0.283
REMARK SMILES CC1=CCC[C@@H](C)C(=O)C[C@@H](C(C)C)C(=O)C1
REMARK SMILES IDX 8 1 9 2 6 3 7 4 5 5 4 6 3 7 2 8 1 9 10 11 11 12 15 13 16 14
REMARK SMILES IDX 17 15 12 17 13 18 14 19
REMARK H PARENT
REMARK Flexibility Score: 70.00
ROOT
ATOM      1  C   UNL     1      72.616   2.985  33.349  1.00  0.00     0.136 C 
ATOM      2  O   UNL     1      73.096   3.900  32.696  1.00  0.00    -0.299 OA
ENDROOT
BRANCH   1   3
ATOM      3  C   UNL     1      73.229   2.653  34.698  1.00  0.00     0.053 C 
ATOM      4  C   UNL     1      74.259   3.714  35.111  1.00  0.00     0.016 C 
BRANCH   3   5
ATOM      5  C   UNL     1      73.848   1.244  34.706  1.00  0.00     0.015 C 
BRANCH   5   6
ATOM      6  C   UNL     1      73.111   0.298  35.672  1.00  0.00     0.028 C 
BRANCH   6   7
ATOM      7  C   UNL     1      72.464  -0.842  34.928  1.00  0.00    -0.028 C 
ATOM      8  C   UNL     1      71.146  -0.916  34.630  1.00  0.00    -0.070 CG0
ATOM      9  C   UNL     1      70.663  -2.107  33.842  1.00  0.00     0.039 C 
ATOM     10  G   UNL     1      70.139   0.140  35.061  1.00  0.00     0.000 G0
ENDBRANCH   6   7
ENDBRANCH   5   6
ENDBRANCH   3   5
ENDBRANCH   1   3
BRANCH   1  11
ATOM     11  C   UNL     1      71.456   2.208  32.767  1.00  0.00     0.087 C 
BRANCH  11  12
ATOM     12  C   UNL     1      70.167   2.342  33.623  1.00  0.00     0.066 C 
BRANCH  12  13
ATOM     13  C   UNL     1      69.608   0.957  33.908  1.00  0.00     0.140 C 
ATOM     14  O   UNL     1      68.660   0.545  33.251  1.00  0.00    -0.299 OA
BRANCH  13  15
ATOM     15  C   UNL     1      70.124   0.132  35.061  1.00  0.00     0.106 CG0
ATOM     16  G   UNL     1      71.156  -0.894  34.617  1.00  0.00     0.000 G0
ENDBRANCH  13  15
ENDBRANCH  12  13
BRANCH  12  17
ATOM     17  C   UNL     1      69.084   3.242  32.942  1.00  0.00    -0.006 C 
ATOM     18  C   UNL     1      69.218   3.254  31.406  1.00  0.00     0.008 C 
ATOM     19  C   UNL     1      69.160   4.697  33.449  1.00  0.00     0.008 C 
ENDBRANCH  12  17
ENDBRANCH  11  12
ENDBRANCH   1  11
TORSDOF 1
ENDMDL
MODEL 4
REMARK VINA RESULT:    -2.229      2.068      3.912
REMARK INTER + INTRA:          -3.685
REMARK INTER:                  -3.213
REMARK INTRA:                  -0.472
REMARK UNBOUND:                -0.283
REMARK SMILES CC1=CCC[C@@H](C)C(=O)C[C@@H](C(C)C)C(=O)C1
REMARK SMILES IDX 8 1 9 2 6 3 7 4 5 5 4 6 3 7 2 8 1 9 10 11 11 12 15 13 16 14
REMARK SMILES IDX 17 15 12 17 13 18 14 19
REMARK H PARENT
REMARK Flexibility Score: 70.00
ROOT
ATOM      1  C   UNL     1      70.850   0.551  34.272  1.00  0.00     0.136 C 
ATOM      2  O   UNL     1      71.958   1.059  34.170  1.00  0.00    -0.299 OA
ENDROOT
BRANCH   1   3
ATOM      3  C   UNL     1      70.143   0.084  33.012  1.00  0.00     0.053 C 
ATOM      4  C   UNL     1      70.958  -1.001  32.294  1.00  0.00     0.016 C 
BRANCH   3   5
ATOM      5  C   UNL     1      69.833   1.261  32.070  1.00  0.00     0.015 C 
BRANCH   5   6
ATOM      6  C   UNL     1      68.424   1.833  32.310  1.00  0.00     0.028 C 
BRANCH   6   7
ATOM      7  C   UNL     1      68.470   3.021  33.236  1.00  0.00    -0.028 C 
ATOM      8  C   UNL     1      67.886   3.068  34.456  1.00  0.00    -0.070 CG0
ATOM      9  C   UNL     1      68.061   4.319  35.279  1.00  0.00     0.039 C 
ATOM     10  G   UNL     1      67.060   1.923  35.024  1.00  0.00     0.000 G0
ENDBRANCH   6   7
ENDBRANCH   5   6
ENDBRANCH   3   5
ENDBRANCH   1   3
BRANCH   1  11
ATOM     11  C   UNL     1      70.225   0.442  35.646  1.00  0.00     0.087 C 
BRANCH  11  12
ATOM     12  C   UNL     1      68.749  -0.038  35.586  1.00  0.00     0.066 C 
BRANCH  12  13
ATOM     13  C   UNL     1      67.836   1.092  36.035  1.00  0.00     0.140 C 
ATOM     14  O   UNL     1      67.661   1.283  37.232  1.00  0.00    -0.299 OA
BRANCH  13  15
ATOM     15  C   UNL     1      67.054   1.905  35.033  1.00  0.00     0.106 CG0
ATOM     16  G   UNL     1      67.871   3.055  34.462  1.00  0.00     0.000 G0
ENDBRANCH  13  15
ENDBRANCH  12  13
BRANCH  12  17
ATOM     17  C   UNL     1      68.499  -1.321  36.447  1.00  0.00    -0.006 C 
ATOM     18  C   UNL     1      69.778  -1.802  37.161  1.00  0.00     0.008 C 
ATOM     19  C   UNL     1      67.956  -2.480  35.586  1.00  0.00     0.008 C 
ENDBRANCH  12  17
ENDBRANCH  11  12
ENDBRANCH   1  11
TORSDOF 1
ENDMDL
MODEL 5
REMARK VINA RESULT:    -2.206      2.523      3.586
REMARK INTER + INTRA:          -3.650
REMARK INTER:                  -3.205
REMARK INTRA:                  -0.445
REMARK UNBOUND:                -0.283
REMARK SMILES CC1=CCC[C@@H](C)C(=O)C[C@@H](C(C)C)C(=O)C1
REMARK SMILES IDX 8 1 9 2 6 3 7 4 5 5 4 6 3 7 2 8 1 9 10 11 11 12 15 13 16 14
REMARK SMILES IDX 17 15 12 17 13 18 14 19
REMARK H PARENT
REMARK Flexibility Score: 70.00
ROOT
ATOM      1  C   UNL     1      69.831   3.120  34.051  1.00  0.00     0.136 C 
ATOM      2  O   UNL     1      68.807   3.789  34.066  1.00  0.00    -0.299 OA
ENDROOT
BRANCH   1   3
ATOM      3  C   UNL     1      70.230   2.427  32.760  1.00  0.00     0.053 C 
ATOM      4  C   UNL     1      70.095   3.375  31.562  1.00  0.00     0.016 C 
BRANCH   3   5
ATOM      5  C   UNL     1      69.422   1.135  32.541  1.00  0.00     0.015 C 
BRANCH   5   6
ATOM      6  C   UNL     1      70.283  -0.124  32.756  1.00  0.00     0.028 C 
BRANCH   6   7
ATOM      7  C   UNL     1      69.943  -0.799  34.059  1.00  0.00    -0.028 C 
ATOM      8  C   UNL     1      70.756  -0.832  35.142  1.00  0.00    -0.070 CG0
ATOM      9  C   UNL     1      70.249  -1.514  36.387  1.00  0.00     0.039 C 
ATOM     10  G   UNL     1      72.149  -0.222  35.151  1.00  0.00     0.000 G0
ENDBRANCH   6   7
ENDBRANCH   5   6
ENDBRANCH   3   5
ENDBRANCH   1   3
BRANCH   1  11
ATOM     11  C   UNL     1      70.633   2.991  35.328  1.00  0.00     0.087 C 
BRANCH  11  12
ATOM     12  C   UNL     1      72.049   2.405  35.078  1.00  0.00     0.066 C 
BRANCH  12  13
ATOM     13  C   UNL     1      72.201   1.111  35.863  1.00  0.00     0.140 C 
ATOM     14  O   UNL     1      72.459   1.161  37.059  1.00  0.00    -0.299 OA
BRANCH  13  15
ATOM     15  C   UNL     1      72.156  -0.229  35.170  1.00  0.00     0.106 CG0
ATOM     16  G   UNL     1      70.752  -0.816  35.146  1.00  0.00     0.000 G0
ENDBRANCH  13  15
ENDBRANCH  12  13
BRANCH  12  17
ATOM     17  C   UNL     1      73.189   3.410  35.450  1.00  0.00    -0.006 C 
ATOM     18  C   UNL     1      72.831   4.862  35.077  1.00  0.00     0.008 C 
ATOM     19  C   UNL     1      74.515   3.040  34.752  1.00  0.00     0.008 C 
ENDBRANCH  12  17
ENDBRANCH  11  12
ENDBRANCH   1  11
TORSDOF 1
ENDMDL
MODEL 6
REMARK VINA RESULT:    -2.176     16.236     18.190
REMARK INTER + INTRA:          -3.605
REMARK INTER:                  -3.276
REMARK INTRA:                  -0.329
REMARK UNBOUND:                -0.283
REMARK SMILES CC1=CCC[C@@H](C)C(=O)C[C@@H](C(C)C)C(=O)C1
REMARK SMILES IDX 8 1 9 2 6 3 7 4 5 5 4 6 3 7 2 8 1 9 10 11 11 12 15 13 16 14
REMARK SMILES IDX 17 15 12 17 13 18 14 19
REMARK H PARENT
REMARK Flexibility Score: 70.00
ROOT
ATOM      1  C   UNL     1      62.135  12.477  44.273  1.00  0.00     0.136 C 
ATOM      2  O   UNL     1      61.109  11.847  44.060  1.00  0.00    -0.299 OA
ENDROOT
BRANCH   1   3
ATOM      3  C   UNL     1      62.132  13.977  44.035  1.00  0.00     0.053 C 
ATOM      4  C   UNL     1      60.702  14.533  44.043  1.00  0.00     0.016 C 
BRANCH   3   5
ATOM      5  C   UNL     1      62.864  14.343  42.731  1.00  0.00     0.015 C 
BRANCH   5   6
ATOM      6  C   UNL     1      64.066  15.270  42.988  1.00  0.00     0.028 C 
BRANCH   6   7
ATOM      7  C   UNL     1      65.332  14.690  42.413  1.00  0.00    -0.028 C 
ATOM      8  C   UNL     1      66.296  14.077  43.140  1.00  0.00    -0.070 CG0
ATOM      9  C   UNL     1      67.485  13.512  42.405  1.00  0.00     0.039 C 
ATOM     10  G   UNL     1      66.233  13.943  44.654  1.00  0.00     0.000 G0
ENDBRANCH   6   7
ENDBRANCH   5   6
ENDBRANCH   3   5
ENDBRANCH   1   3
BRANCH   1  11
ATOM     11  C   UNL     1      63.366  11.726  44.732  1.00  0.00     0.087 C 
BRANCH  11  12
ATOM     12  C   UNL     1      64.248  12.572  45.690  1.00  0.00     0.066 C 
BRANCH  12  13
ATOM     13  C   UNL     1      65.663  12.644  45.137  1.00  0.00     0.140 C 
ATOM     14  O   UNL     1      66.368  11.642  45.158  1.00  0.00    -0.299 OA
BRANCH  13  15
ATOM     15  C   UNL     1      66.250  13.953  44.670  1.00  0.00     0.106 CG0
ATOM     16  G   UNL     1      66.291  14.057  43.153  1.00  0.00     0.000 G0
ENDBRANCH  13  15
ENDBRANCH  12  13
BRANCH  12  17
ATOM     17  C   UNL     1      64.259  12.009  47.151  1.00  0.00    -0.006 C 
ATOM     18  C   UNL     1      63.636  10.602  47.238  1.00  0.00     0.008 C 
ATOM     19  C   UNL     1      63.498  12.940  48.118  1.00  0.00     0.008 C 
ENDBRANCH  12  17
ENDBRANCH  11  12
ENDBRANCH   1  11
TORSDOF 1
ENDMDL
MODEL 7
REMARK VINA RESULT:    -2.176      3.047      4.645
REMARK INTER + INTRA:          -3.605
REMARK INTER:                  -3.125
REMARK INTRA:                  -0.480
REMARK UNBOUND:                -0.283
REMARK SMILES CC1=CCC[C@@H](C)C(=O)C[C@@H](C(C)C)C(=O)C1
REMARK SMILES IDX 8 1 9 2 6 3 7 4 5 5 4 6 3 7 2 8 1 9 10 11 11 12 15 13 16 14
REMARK SMILES IDX 17 15 12 17 13 18 14 19
REMARK H PARENT
REMARK Flexibility Score: 70.00
ROOT
ATOM      1  C   UNL     1      69.257   0.389  34.827  1.00  0.00     0.136 C 
ATOM      2  O   UNL     1      68.124   0.661  34.457  1.00  0.00    -0.299 OA
ENDROOT
BRANCH   1   3
ATOM      3  C   UNL     1      69.615  -1.066  35.071  1.00  0.00     0.053 C 
ATOM      4  C   UNL     1      69.198  -1.942  33.883  1.00  0.00     0.016 C 
BRANCH   3   5
ATOM      5  C   UNL     1      69.004  -1.584  36.386  1.00  0.00     0.015 C 
BRANCH   5   6
ATOM      6  C   UNL     1      70.035  -1.605  37.529  1.00  0.00     0.028 C 
BRANCH   6   7
ATOM      7  C   UNL     1      69.786  -0.486  38.507  1.00  0.00    -0.028 C 
ATOM      8  C   UNL     1      70.644   0.534  38.743  1.00  0.00    -0.070 CG0
ATOM      9  C   UNL     1      70.225   1.600  39.724  1.00  0.00     0.039 C 
ATOM     10  G   UNL     1      72.004   0.645  38.071  1.00  0.00     0.000 G0
ENDBRANCH   6   7
ENDBRANCH   5   6
ENDBRANCH   3   5
ENDBRANCH   1   3
BRANCH   1  11
ATOM     11  C   UNL     1      70.238   1.520  35.053  1.00  0.00     0.087 C 
BRANCH  11  12
ATOM     12  C   UNL     1      71.642   1.007  35.470  1.00  0.00     0.066 C 
BRANCH  12  13
ATOM     13  C   UNL     1      71.988   1.554  36.847  1.00  0.00     0.140 C 
ATOM     14  O   UNL     1      72.336   2.722  36.959  1.00  0.00    -0.299 OA
BRANCH  13  15
ATOM     15  C   UNL     1      72.019   0.652  38.056  1.00  0.00     0.106 CG0
ATOM     16  G   UNL     1      70.653   0.526  38.715  1.00  0.00     0.000 G0
ENDBRANCH  13  15
ENDBRANCH  12  13
BRANCH  12  17
ATOM     17  C   UNL     1      72.753   1.387  34.435  1.00  0.00    -0.006 C 
ATOM     18  C   UNL     1      72.271   2.447  33.425  1.00  0.00     0.008 C 
ATOM     19  C   UNL     1      73.238   0.150  33.650  1.00  0.00     0.008 C 
ENDBRANCH  12  17
ENDBRANCH  11  12
ENDBRANCH   1  11
TORSDOF 1
ENDMDL
MODEL 8
REMARK VINA RESULT:    -2.174     17.833     20.063
REMARK INTER + INTRA:          -3.600
REMARK INTER:                  -3.189
REMARK INTRA:                  -0.412
REMARK UNBOUND:                -0.283
REMARK SMILES CC1=CCC[C@@H](C)C(=O)C[C@@H](C(C)C)C(=O)C1
REMARK SMILES IDX 8 1 9 2 6 3 7 4 5 5 4 6 3 7 2 8 1 9 10 11 11 12 15 13 16 14
REMARK SMILES IDX 17 15 12 17 13 18 14 19
REMARK H PARENT
REMARK Flexibility Score: 70.00
ROOT
ATOM      1  C   UNL     1      62.634  11.095  46.822  1.00  0.00     0.136 C 
ATOM      2  O   UNL     1      62.098  10.019  47.045  1.00  0.00    -0.299 OA
ENDROOT
BRANCH   1   3
ATOM      3  C   UNL     1      64.072  11.300  47.267  1.00  0.00     0.053 C 
ATOM      4  C   UNL     1      64.879  10.002  47.135  1.00  0.00     0.016 C 
BRANCH   3   5
ATOM      5  C   UNL     1      64.144  11.858  48.699  1.00  0.00     0.015 C 
BRANCH   5   6
ATOM      6  C   UNL     1      64.666  13.307  48.726  1.00  0.00     0.028 C 
BRANCH   6   7
ATOM      7  C   UNL     1      63.580  14.268  49.136  1.00  0.00    -0.028 C 
ATOM      8  C   UNL     1      62.973  15.143  48.301  1.00  0.00    -0.070 CG0
ATOM      9  C   UNL     1      61.873  16.009  48.860  1.00  0.00     0.039 C 
ATOM     10  G   UNL     1      63.356  15.293  46.836  1.00  0.00     0.000 G0
ENDBRANCH   6   7
ENDBRANCH   5   6
ENDBRANCH   3   5
ENDBRANCH   1   3
BRANCH   1  11
ATOM     11  C   UNL     1      61.828  12.179  46.140  1.00  0.00     0.087 C 
BRANCH  11  12
ATOM     12  C   UNL     1      62.727  13.197  45.387  1.00  0.00     0.066 C 
BRANCH  12  13
ATOM     13  C   UNL     1      62.422  14.602  45.887  1.00  0.00     0.140 C 
ATOM     14  O   UNL     1      61.451  15.199  45.441  1.00  0.00    -0.299 OA
BRANCH  13  15
ATOM     15  C   UNL     1      63.359  15.311  46.832  1.00  0.00     0.106 CG0
ATOM     16  G   UNL     1      62.949  15.136  48.287  1.00  0.00     0.000 G0
ENDBRANCH  13  15
ENDBRANCH  12  13
BRANCH  12  17
ATOM     17  C   UNL     1      62.554  13.118  43.834  1.00  0.00    -0.006 C 
ATOM     18  C   UNL     1      61.245  12.412  43.429  1.00  0.00     0.008 C 
ATOM     19  C   UNL     1      63.734  12.375  43.173  1.00  0.00     0.008 C 
ENDBRANCH  12  17
ENDBRANCH  11  12
ENDBRANCH   1  11
TORSDOF 1
ENDMDL
MODEL 9
REMARK VINA RESULT:    -2.142      1.927      4.044
REMARK INTER + INTRA:          -3.552
REMARK INTER:                  -3.197
REMARK INTRA:                  -0.355
REMARK UNBOUND:                -0.283
REMARK SMILES CC1=CCC[C@@H](C)C(=O)C[C@@H](C(C)C)C(=O)C1
REMARK SMILES IDX 8 1 9 2 6 3 7 4 5 5 4 6 3 7 2 8 1 9 10 11 11 12 15 13 16 14
REMARK SMILES IDX 17 15 12 17 13 18 14 19
REMARK H PARENT
REMARK Flexibility Score: 70.00
ROOT
ATOM      1  C   UNL     1      70.534   0.370  32.928  1.00  0.00     0.136 C 
ATOM      2  O   UNL     1      70.281  -0.826  32.917  1.00  0.00    -0.299 OA
ENDROOT
BRANCH   1   3
ATOM      3  C   UNL     1      71.692   0.863  33.777  1.00  0.00     0.053 C 
ATOM      4  C   UNL     1      73.021   0.265  33.296  1.00  0.00     0.016 C 
BRANCH   3   5
ATOM      5  C   UNL     1      71.460   0.572  35.271  1.00  0.00     0.015 C 
BRANCH   5   6
ATOM      6  C   UNL     1      70.639   1.684  35.951  1.00  0.00     0.028 C 
BRANCH   6   7
ATOM      7  C   UNL     1      69.231   1.226  36.230  1.00  0.00    -0.028 C 
ATOM      8  C   UNL     1      68.117   1.844  35.771  1.00  0.00    -0.070 CG0
ATOM      9  C   UNL     1      66.780   1.234  36.105  1.00  0.00     0.039 C 
ATOM     10  G   UNL     1      68.159   3.121  34.946  1.00  0.00     0.000 G0
ENDBRANCH   6   7
ENDBRANCH   5   6
ENDBRANCH   3   5
ENDBRANCH   1   3
BRANCH   1  11
ATOM     11  C   UNL     1      69.661   1.304  32.118  1.00  0.00     0.087 C 
BRANCH  11  12
ATOM     12  C   UNL     1      69.560   2.717  32.754  1.00  0.00     0.066 C 
BRANCH  12  13
ATOM     13  C   UNL     1      68.219   2.856  33.457  1.00  0.00     0.140 C 
ATOM     14  O   UNL     1      67.189   2.841  32.794  1.00  0.00    -0.299 OA
BRANCH  13  15
ATOM     15  C   UNL     1      68.142   3.126  34.939  1.00  0.00     0.106 CG0
ATOM     16  G   UNL     1      68.114   1.844  35.758  1.00  0.00     0.000 G0
ENDBRANCH  13  15
ENDBRANCH  12  13
BRANCH  12  17
ATOM     17  C   UNL     1      69.752   3.863  31.706  1.00  0.00    -0.006 C 
ATOM     18  C   UNL     1      69.931   3.319  30.274  1.00  0.00     0.008 C 
ATOM     19  C   UNL     1      70.971   4.743  32.050  1.00  0.00     0.008 C 
ENDBRANCH  12  17
ENDBRANCH  11  12
ENDBRANCH   1  11
TORSDOF 1
ENDMDL
