MODEL 1
REMARK VINA RESULT:    -5.575      0.000      0.000
REMARK INTER + INTRA:         -10.455
REMARK INTER:                  -9.812
REMARK INTRA:                  -0.644
REMARK UNBOUND:                -0.644
REMARK SMILES CCCCCCCCCCCCCCC(=O)[O-]
REMARK SMILES IDX 9 1 10 2 11 3 12 4 13 5 14 6 15 7 16 8 17 9 8 10 7 11 6 12
REMARK SMILES IDX 5 13 4 14 3 15 2 16 1 17
REMARK H PARENT
REMARK Flexibility Score: inf
ROOT
ATOM      1  C   UNL     1      21.438 -13.707  20.346  1.00  0.00     0.000 C 
ENDROOT
BRANCH   1   2
ATOM      2  C   UNL     1      22.745 -14.482  20.574  1.00  0.00     0.000 C 
BRANCH   2   3
ATOM      3  C   UNL     1      22.893 -15.685  19.625  1.00  0.00     0.000 C 
BRANCH   3   4
ATOM      4  C   UNL     1      22.713 -15.296  18.149  1.00  0.00     0.000 C 
BRANCH   4   5
ATOM      5  C   UNL     1      22.944 -16.481  17.195  1.00  0.00     0.006 C 
BRANCH   5   6
ATOM      6  C   UNL     1      23.101 -17.808  17.948  1.00  0.00     0.053 C 
BRANCH   6   7
ATOM      7  C   UNL     1      22.338 -18.914  17.286  1.00  0.00     0.041 C 
ATOM      8  O   UNL     1      22.365 -19.041  16.033  1.00  0.00    -0.550 OA
ATOM      9  O   UNL     1      21.569 -19.782  18.050  1.00  0.00    -0.550 OA
ENDBRANCH   6   7
ENDBRANCH   5   6
ENDBRANCH   4   5
ENDBRANCH   3   4
ENDBRANCH   2   3
ENDBRANCH   1   2
BRANCH   1  10
ATOM     10  C   UNL     1      21.159 -12.679  21.451  1.00  0.00     0.000 C 
BRANCH  10  11
ATOM     11  C   UNL     1      22.391 -11.802  21.708  1.00  0.00    -0.000 C 
BRANCH  11  12
ATOM     12  C   UNL     1      22.046 -10.624  22.630  1.00  0.00    -0.000 C 
BRANCH  12  13
ATOM     13  C   UNL     1      20.836 -10.905  23.539  1.00  0.00    -0.000 C 
BRANCH  13  14
ATOM     14  C   UNL     1      20.655  -9.911  24.702  1.00  0.00    -0.000 C 
BRANCH  14  15
ATOM     15  C   UNL     1      20.920  -8.453  24.288  1.00  0.00    -0.000 C 
BRANCH  15  16
ATOM     16  C   UNL     1      21.838  -7.718  25.278  1.00  0.00    -0.003 C 
ATOM     17  C   UNL     1      21.146  -7.412  26.607  1.00  0.00     0.004 C 
ENDBRANCH  15  16
ENDBRANCH  14  15
ENDBRANCH  13  14
ENDBRANCH  12  13
ENDBRANCH  11  12
ENDBRANCH  10  11
ENDBRANCH   1  10
TORSDOF 13
ENDMDL
MODEL 2
REMARK VINA RESULT:    -5.422      5.203     10.206
REMARK INTER + INTRA:         -10.186
REMARK INTER:                  -9.574
REMARK INTRA:                  -0.612
REMARK UNBOUND:                -0.644
REMARK SMILES CCCCCCCCCCCCCCC(=O)[O-]
REMARK SMILES IDX 9 1 10 2 11 3 12 4 13 5 14 6 15 7 16 8 17 9 8 10 7 11 6 12
REMARK SMILES IDX 5 13 4 14 3 15 2 16 1 17
REMARK H PARENT
REMARK Flexibility Score: inf
ROOT
ATOM      1  C   UNL     1      21.105 -12.726  21.334  1.00  0.00     0.000 C 
ENDROOT
BRANCH   1   2
ATOM      2  C   UNL     1      22.317 -11.846  21.679  1.00  0.00     0.000 C 
BRANCH   2   3
ATOM      3  C   UNL     1      21.963 -10.708  22.653  1.00  0.00     0.000 C 
BRANCH   3   4
ATOM      4  C   UNL     1      20.891 -11.119  23.675  1.00  0.00     0.000 C 
BRANCH   4   5
ATOM      5  C   UNL     1      20.562  -9.994  24.671  1.00  0.00     0.006 C 
BRANCH   5   6
ATOM      6  C   UNL     1      21.210  -8.662  24.272  1.00  0.00     0.053 C 
BRANCH   6   7
ATOM      7  C   UNL     1      20.910  -7.580  25.264  1.00  0.00     0.041 C 
ATOM      8  O   UNL     1      21.079  -7.785  26.495  1.00  0.00    -0.550 OA
ATOM      9  O   UNL     1      20.409  -6.359  24.831  1.00  0.00    -0.550 OA
ENDBRANCH   6   7
ENDBRANCH   5   6
ENDBRANCH   4   5
ENDBRANCH   3   4
ENDBRANCH   2   3
ENDBRANCH   1   2
BRANCH   1  10
ATOM     10  C   UNL     1      21.374 -13.663  20.148  1.00  0.00     0.000 C 
BRANCH  10  11
ATOM     11  C   UNL     1      22.662 -14.467  20.364  1.00  0.00    -0.000 C 
BRANCH  11  12
ATOM     12  C   UNL     1      22.903 -15.444  19.205  1.00  0.00    -0.000 C 
BRANCH  12  13
ATOM     13  C   UNL     1      23.125 -16.893  19.676  1.00  0.00    -0.000 C 
BRANCH  13  14
ATOM     14  C   UNL     1      23.602 -17.864  18.580  1.00  0.00    -0.000 C 
BRANCH  14  15
ATOM     15  C   UNL     1      23.024 -17.529  17.193  1.00  0.00    -0.000 C 
BRANCH  15  16
ATOM     16  C   UNL     1      22.424 -18.759  16.493  1.00  0.00    -0.003 C 
ATOM     17  C   UNL     1      21.686 -19.685  17.460  1.00  0.00     0.004 C 
ENDBRANCH  15  16
ENDBRANCH  14  15
ENDBRANCH  13  14
ENDBRANCH  12  13
ENDBRANCH  11  12
ENDBRANCH  10  11
ENDBRANCH   1  10
TORSDOF 13
ENDMDL
MODEL 3
REMARK VINA RESULT:    -5.237      5.712     10.357
REMARK INTER + INTRA:          -9.860
REMARK INTER:                  -9.281
REMARK INTRA:                  -0.580
REMARK UNBOUND:                -0.644
REMARK SMILES CCCCCCCCCCCCCCC(=O)[O-]
REMARK SMILES IDX 9 1 10 2 11 3 12 4 13 5 14 6 15 7 16 8 17 9 8 10 7 11 6 12
REMARK SMILES IDX 5 13 4 14 3 15 2 16 1 17
REMARK H PARENT
REMARK Flexibility Score: inf
ROOT
ATOM      1  C   UNL     1      20.769 -11.499  22.781  1.00  0.00     0.000 C 
ENDROOT
BRANCH   1   2
ATOM      2  C   UNL     1      20.478 -10.725  24.076  1.00  0.00     0.000 C 
BRANCH   2   3
ATOM      3  C   UNL     1      21.138  -9.335  24.094  1.00  0.00     0.000 C 
BRANCH   3   4
ATOM      4  C   UNL     1      21.025  -8.647  25.464  1.00  0.00     0.000 C 
BRANCH   4   5
ATOM      5  C   UNL     1      20.273  -7.307  25.391  1.00  0.00     0.006 C 
BRANCH   5   6
ATOM      6  C   UNL     1      20.356  -6.672  23.997  1.00  0.00     0.053 C 
BRANCH   6   7
ATOM      7  C   UNL     1      19.588  -5.388  23.926  1.00  0.00     0.041 C 
ATOM      8  O   UNL     1      20.149  -4.336  23.522  1.00  0.00    -0.550 OA
ATOM      9  O   UNL     1      18.262  -5.347  24.339  1.00  0.00    -0.550 OA
ENDBRANCH   6   7
ENDBRANCH   5   6
ENDBRANCH   4   5
ENDBRANCH   3   4
ENDBRANCH   2   3
ENDBRANCH   1   2
BRANCH   1  10
ATOM     10  C   UNL     1      22.040 -11.009  22.073  1.00  0.00     0.000 C 
BRANCH  10  11
ATOM     11  C   UNL     1      22.961 -12.184  21.723  1.00  0.00    -0.000 C 
BRANCH  11  12
ATOM     12  C   UNL     1      22.173 -13.325  21.063  1.00  0.00    -0.000 C 
BRANCH  12  13
ATOM     13  C   UNL     1      22.966 -14.643  20.995  1.00  0.00    -0.000 C 
BRANCH  13  14
ATOM     14  C   UNL     1      22.875 -15.383  19.647  1.00  0.00    -0.000 C 
BRANCH  14  15
ATOM     15  C   UNL     1      23.039 -16.907  19.790  1.00  0.00    -0.000 C 
BRANCH  15  16
ATOM     16  C   UNL     1      23.291 -17.600  18.441  1.00  0.00    -0.003 C 
ATOM     17  C   UNL     1      22.988 -16.695  17.248  1.00  0.00     0.004 C 
ENDBRANCH  15  16
ENDBRANCH  14  15
ENDBRANCH  13  14
ENDBRANCH  12  13
ENDBRANCH  11  12
ENDBRANCH  10  11
ENDBRANCH   1  10
TORSDOF 13
ENDMDL
MODEL 4
REMARK VINA RESULT:    -5.097      1.102      2.445
REMARK INTER + INTRA:          -9.615
REMARK INTER:                  -8.939
REMARK INTRA:                  -0.676
REMARK UNBOUND:                -0.644
REMARK SMILES CCCCCCCCCCCCCCC(=O)[O-]
REMARK SMILES IDX 9 1 10 2 11 3 12 4 13 5 14 6 15 7 16 8 17 9 8 10 7 11 6 12
REMARK SMILES IDX 5 13 4 14 3 15 2 16 1 17
REMARK H PARENT
REMARK Flexibility Score: inf
ROOT
ATOM      1  C   UNL     1      22.230 -12.100  21.903  1.00  0.00     0.000 C 
ENDROOT
BRANCH   1   2
ATOM      2  C   UNL     1      20.936 -12.662  21.295  1.00  0.00     0.000 C 
BRANCH   2   3
ATOM      3  C   UNL     1      21.204 -13.671  20.163  1.00  0.00     0.000 C 
BRANCH   3   4
ATOM      4  C   UNL     1      22.521 -14.439  20.358  1.00  0.00     0.000 C 
BRANCH   4   5
ATOM      5  C   UNL     1      22.917 -15.257  19.117  1.00  0.00     0.006 C 
BRANCH   5   6
ATOM      6  C   UNL     1      23.134 -16.739  19.447  1.00  0.00     0.053 C 
BRANCH   6   7
ATOM      7  C   UNL     1      23.179 -17.582  18.209  1.00  0.00     0.041 C 
ATOM      8  O   UNL     1      23.553 -18.783  18.274  1.00  0.00    -0.550 OA
ATOM      9  O   UNL     1      22.843 -17.030  16.980  1.00  0.00    -0.550 OA
ENDBRANCH   6   7
ENDBRANCH   5   6
ENDBRANCH   4   5
ENDBRANCH   3   4
ENDBRANCH   2   3
ENDBRANCH   1   2
BRANCH   1  10
ATOM     10  C   UNL     1      22.014 -10.756  22.614  1.00  0.00     0.000 C 
BRANCH  10  11
ATOM     11  C   UNL     1      20.932 -10.874  23.694  1.00  0.00    -0.000 C 
BRANCH  11  12
ATOM     12  C   UNL     1      20.873  -9.605  24.556  1.00  0.00    -0.000 C 
BRANCH  12  13
ATOM     13  C   UNL     1      21.358  -8.348  23.810  1.00  0.00    -0.000 C 
BRANCH  13  14
ATOM     14  C   UNL     1      21.506  -7.092  24.688  1.00  0.00    -0.000 C 
BRANCH  14  15
ATOM     15  C   UNL     1      22.935  -6.905  25.228  1.00  0.00    -0.000 C 
BRANCH  15  16
ATOM     16  C   UNL     1      22.967  -6.706  26.752  1.00  0.00    -0.003 C 
ATOM     17  C   UNL     1      21.593  -6.884  27.398  1.00  0.00     0.004 C 
ENDBRANCH  15  16
ENDBRANCH  14  15
ENDBRANCH  13  14
ENDBRANCH  12  13
ENDBRANCH  11  12
ENDBRANCH  10  11
ENDBRANCH   1  10
TORSDOF 13
ENDMDL
MODEL 5
REMARK VINA RESULT:    -5.088      1.341      2.535
REMARK INTER + INTRA:          -9.598
REMARK INTER:                  -8.996
REMARK INTRA:                  -0.602
REMARK UNBOUND:                -0.644
REMARK SMILES CCCCCCCCCCCCCCC(=O)[O-]
REMARK SMILES IDX 9 1 10 2 11 3 12 4 13 5 14 6 15 7 16 8 17 9 8 10 7 11 6 12
REMARK SMILES IDX 5 13 4 14 3 15 2 16 1 17
REMARK H PARENT
REMARK Flexibility Score: inf
ROOT
ATOM      1  C   UNL     1      23.001 -15.657  19.792  1.00  0.00     0.000 C 
ENDROOT
BRANCH   1   2
ATOM      2  C   UNL     1      22.649 -15.328  18.333  1.00  0.00     0.000 C 
BRANCH   2   3
ATOM      3  C   UNL     1      22.933 -16.501  17.378  1.00  0.00     0.000 C 
BRANCH   3   4
ATOM      4  C   UNL     1      23.094 -17.838  18.117  1.00  0.00     0.000 C 
BRANCH   4   5
ATOM      5  C   UNL     1      22.913 -19.052  17.190  1.00  0.00     0.006 C 
BRANCH   5   6
ATOM      6  C   UNL     1      21.718 -19.920  17.601  1.00  0.00     0.053 C 
BRANCH   6   7
ATOM      7  C   UNL     1      21.969 -21.372  17.332  1.00  0.00     0.041 C 
ATOM      8  O   UNL     1      21.009 -22.144  17.074  1.00  0.00    -0.550 OA
ATOM      9  O   UNL     1      23.261 -21.879  17.403  1.00  0.00    -0.550 OA
ENDBRANCH   6   7
ENDBRANCH   5   6
ENDBRANCH   4   5
ENDBRANCH   3   4
ENDBRANCH   2   3
ENDBRANCH   1   2
BRANCH   1  10
ATOM     10  C   UNL     1      22.637 -14.521  20.759  1.00  0.00     0.000 C 
BRANCH  10  11
ATOM     11  C   UNL     1      21.467 -13.691  20.216  1.00  0.00    -0.000 C 
BRANCH  11  12
ATOM     12  C   UNL     1      21.006 -12.649  21.245  1.00  0.00    -0.000 C 
BRANCH  12  13
ATOM     13  C   UNL     1      22.176 -11.919  21.928  1.00  0.00    -0.000 C 
BRANCH  13  14
ATOM     14  C   UNL     1      21.762 -10.902  23.008  1.00  0.00    -0.000 C 
BRANCH  14  15
ATOM     15  C   UNL     1      21.920  -9.442  22.546  1.00  0.00    -0.000 C 
BRANCH  15  16
ATOM     16  C   UNL     1      21.397  -8.437  23.584  1.00  0.00    -0.003 C 
ATOM     17  C   UNL     1      20.816  -9.118  24.822  1.00  0.00     0.004 C 
ENDBRANCH  15  16
ENDBRANCH  14  15
ENDBRANCH  13  14
ENDBRANCH  12  13
ENDBRANCH  11  12
ENDBRANCH  10  11
ENDBRANCH   1  10
TORSDOF 13
ENDMDL
MODEL 6
REMARK VINA RESULT:    -5.069      5.382     10.334
REMARK INTER + INTRA:          -9.565
REMARK INTER:                  -8.987
REMARK INTRA:                  -0.579
REMARK UNBOUND:                -0.644
REMARK SMILES CCCCCCCCCCCCCCC(=O)[O-]
REMARK SMILES IDX 9 1 10 2 11 3 12 4 13 5 14 6 15 7 16 8 17 9 8 10 7 11 6 12
REMARK SMILES IDX 5 13 4 14 3 15 2 16 1 17
REMARK H PARENT
REMARK Flexibility Score: inf
ROOT
ATOM      1  C   UNL     1      21.773 -12.082  21.636  1.00  0.00     0.000 C 
ENDROOT
BRANCH   1   2
ATOM      2  C   UNL     1      21.533 -10.832  22.497  1.00  0.00     0.000 C 
BRANCH   2   3
ATOM      3  C   UNL     1      20.763 -11.147  23.792  1.00  0.00     0.000 C 
BRANCH   3   4
ATOM      4  C   UNL     1      20.497  -9.892  24.639  1.00  0.00     0.000 C 
BRANCH   4   5
ATOM      5  C   UNL     1      21.470  -8.745  24.316  1.00  0.00     0.006 C 
BRANCH   5   6
ATOM      6  C   UNL     1      21.057  -7.429  24.988  1.00  0.00     0.053 C 
BRANCH   6   7
ATOM      7  C   UNL     1      21.907  -7.127  26.184  1.00  0.00     0.041 C 
ATOM      8  O   UNL     1      21.379  -7.002  27.321  1.00  0.00    -0.550 OA
ATOM      9  O   UNL     1      23.276  -6.949  26.037  1.00  0.00    -0.550 OA
ENDBRANCH   6   7
ENDBRANCH   5   6
ENDBRANCH   4   5
ENDBRANCH   3   4
ENDBRANCH   2   3
ENDBRANCH   1   2
BRANCH   1  10
ATOM     10  C   UNL     1      23.218 -12.593  21.727  1.00  0.00     0.000 C 
BRANCH  10  11
ATOM     11  C   UNL     1      23.318 -14.046  21.247  1.00  0.00    -0.000 C 
BRANCH  11  12
ATOM     12  C   UNL     1      22.266 -14.343  20.168  1.00  0.00    -0.000 C 
BRANCH  12  13
ATOM     13  C   UNL     1      22.737 -15.386  19.139  1.00  0.00    -0.000 C 
BRANCH  13  14
ATOM     14  C   UNL     1      23.048 -16.777  19.723  1.00  0.00    -0.000 C 
BRANCH  14  15
ATOM     15  C   UNL     1      23.726 -17.714  18.707  1.00  0.00    -0.000 C 
BRANCH  15  16
ATOM     16  C   UNL     1      23.083 -17.635  17.314  1.00  0.00    -0.003 C 
ATOM     17  C   UNL     1      23.747 -18.571  16.304  1.00  0.00     0.004 C 
ENDBRANCH  15  16
ENDBRANCH  14  15
ENDBRANCH  13  14
ENDBRANCH  12  13
ENDBRANCH  11  12
ENDBRANCH  10  11
ENDBRANCH   1  10
TORSDOF 13
ENDMDL
MODEL 7
REMARK VINA RESULT:    -5.048      4.083     10.131
REMARK INTER + INTRA:          -9.529
REMARK INTER:                  -8.867
REMARK INTRA:                  -0.662
REMARK UNBOUND:                -0.644
REMARK SMILES CCCCCCCCCCCCCCC(=O)[O-]
REMARK SMILES IDX 9 1 10 2 11 3 12 4 13 5 14 6 15 7 16 8 17 9 8 10 7 11 6 12
REMARK SMILES IDX 5 13 4 14 3 15 2 16 1 17
REMARK H PARENT
REMARK Flexibility Score: inf
ROOT
ATOM      1  C   UNL     1      23.683 -17.819  18.361  1.00  0.00     0.000 C 
ENDROOT
BRANCH   1   2
ATOM      2  C   UNL     1      23.025 -17.178  19.592  1.00  0.00     0.000 C 
BRANCH   2   3
ATOM      3  C   UNL     1      22.853 -15.655  19.444  1.00  0.00     0.000 C 
BRANCH   3   4
ATOM      4  C   UNL     1      23.033 -14.909  20.776  1.00  0.00     0.000 C 
BRANCH   4   5
ATOM      5  C   UNL     1      22.164 -13.643  20.866  1.00  0.00     0.006 C 
BRANCH   5   6
ATOM      6  C   UNL     1      22.874 -12.507  21.613  1.00  0.00     0.053 C 
BRANCH   6   7
ATOM      7  C   UNL     1      21.898 -11.521  22.180  1.00  0.00     0.041 C 
ATOM      8  O   UNL     1      22.292 -10.386  22.556  1.00  0.00    -0.550 OA
ATOM      9  O   UNL     1      20.562 -11.871  22.325  1.00  0.00    -0.550 OA
ENDBRANCH   6   7
ENDBRANCH   5   6
ENDBRANCH   4   5
ENDBRANCH   3   4
ENDBRANCH   2   3
ENDBRANCH   1   2
BRANCH   1  10
ATOM     10  C   UNL     1      22.905 -17.549  17.066  1.00  0.00     0.000 C 
BRANCH  10  11
ATOM     11  C   UNL     1      22.416 -18.858  16.435  1.00  0.00    -0.000 C 
BRANCH  11  12
ATOM     12  C   UNL     1      22.473 -20.012  17.447  1.00  0.00    -0.000 C 
BRANCH  12  13
ATOM     13  C   UNL     1      21.309 -21.007  17.290  1.00  0.00    -0.000 C 
BRANCH  13  14
ATOM     14  C   UNL     1      20.375 -20.728  16.099  1.00  0.00    -0.000 C 
BRANCH  14  15
ATOM     15  C   UNL     1      18.924 -21.170  16.360  1.00  0.00    -0.000 C 
BRANCH  15  16
ATOM     16  C   UNL     1      18.607 -21.289  17.859  1.00  0.00    -0.003 C 
ATOM     17  C   UNL     1      18.122 -22.685  18.250  1.00  0.00     0.004 C 
ENDBRANCH  15  16
ENDBRANCH  14  15
ENDBRANCH  13  14
ENDBRANCH  12  13
ENDBRANCH  11  12
ENDBRANCH  10  11
ENDBRANCH   1  10
TORSDOF 13
ENDMDL
MODEL 8
REMARK VINA RESULT:    -5.000      6.308     11.027
REMARK INTER + INTRA:          -9.444
REMARK INTER:                  -8.916
REMARK INTRA:                  -0.528
REMARK UNBOUND:                -0.644
REMARK SMILES CCCCCCCCCCCCCCC(=O)[O-]
REMARK SMILES IDX 9 1 10 2 11 3 12 4 13 5 14 6 15 7 16 8 17 9 8 10 7 11 6 12
REMARK SMILES IDX 5 13 4 14 3 15 2 16 1 17
REMARK H PARENT
REMARK Flexibility Score: inf
ROOT
ATOM      1  C   UNL     1      20.685 -11.172  23.567  1.00  0.00     0.000 C 
ENDROOT
BRANCH   1   2
ATOM      2  C   UNL     1      20.405 -10.145  24.675  1.00  0.00     0.000 C 
BRANCH   2   3
ATOM      3  C   UNL     1      21.293  -8.893  24.558  1.00  0.00     0.000 C 
BRANCH   3   4
ATOM      4  C   UNL     1      20.884  -7.787  25.544  1.00  0.00     0.000 C 
BRANCH   4   5
ATOM      5  C   UNL     1      22.070  -6.899  25.959  1.00  0.00     0.006 C 
BRANCH   5   6
ATOM      6  C   UNL     1      22.129  -6.684  27.477  1.00  0.00     0.053 C 
BRANCH   6   7
ATOM      7  C   UNL     1      22.306  -5.238  27.826  1.00  0.00     0.041 C 
ATOM      8  O   UNL     1      22.696  -4.908  28.976  1.00  0.00    -0.550 OA
ATOM      9  O   UNL     1      22.005  -4.255  26.891  1.00  0.00    -0.550 OA
ENDBRANCH   6   7
ENDBRANCH   5   6
ENDBRANCH   4   5
ENDBRANCH   3   4
ENDBRANCH   2   3
ENDBRANCH   1   2
BRANCH   1  10
ATOM     10  C   UNL     1      21.829 -10.741  22.637  1.00  0.00     0.000 C 
BRANCH  10  11
ATOM     11  C   UNL     1      22.228 -11.882  21.693  1.00  0.00    -0.000 C 
BRANCH  11  12
ATOM     12  C   UNL     1      21.000 -12.700  21.267  1.00  0.00    -0.000 C 
BRANCH  12  13
ATOM     13  C   UNL     1      21.314 -13.728  20.165  1.00  0.00    -0.000 C 
BRANCH  13  14
ATOM     14  C   UNL     1      22.656 -14.466  20.332  1.00  0.00    -0.000 C 
BRANCH  14  15
ATOM     15  C   UNL     1      22.924 -15.480  19.206  1.00  0.00    -0.000 C 
BRANCH  15  16
ATOM     16  C   UNL     1      23.087 -16.914  19.733  1.00  0.00    -0.003 C 
ATOM     17  C   UNL     1      23.089 -17.957  18.616  1.00  0.00     0.004 C 
ENDBRANCH  15  16
ENDBRANCH  14  15
ENDBRANCH  13  14
ENDBRANCH  12  13
ENDBRANCH  11  12
ENDBRANCH  10  11
ENDBRANCH   1  10
TORSDOF 13
ENDMDL
MODEL 9
REMARK VINA RESULT:    -4.959      1.999      4.182
REMARK INTER + INTRA:          -9.371
REMARK INTER:                  -8.635
REMARK INTRA:                  -0.736
REMARK UNBOUND:                -0.644
REMARK SMILES CCCCCCCCCCCCCCC(=O)[O-]
REMARK SMILES IDX 9 1 10 2 11 3 12 4 13 5 14 6 15 7 16 8 17 9 8 10 7 11 6 12
REMARK SMILES IDX 5 13 4 14 3 15 2 16 1 17
REMARK H PARENT
REMARK Flexibility Score: inf
ROOT
ATOM      1  C   UNL     1      20.738 -11.192  23.591  1.00  0.00     0.000 C 
ENDROOT
BRANCH   1   2
ATOM      2  C   UNL     1      21.914 -10.771  22.697  1.00  0.00     0.000 C 
BRANCH   2   3
ATOM      3  C   UNL     1      22.298 -11.857  21.675  1.00  0.00     0.000 C 
BRANCH   3   4
ATOM      4  C   UNL     1      21.096 -12.714  21.247  1.00  0.00     0.000 C 
BRANCH   4   5
ATOM      5  C   UNL     1      21.466 -13.758  20.179  1.00  0.00     0.006 C 
BRANCH   5   6
ATOM      6  C   UNL     1      22.722 -14.552  20.558  1.00  0.00     0.053 C 
BRANCH   6   7
ATOM      7  C   UNL     1      22.947 -15.708  19.632  1.00  0.00     0.041 C 
ATOM      8  O   UNL     1      23.240 -16.842  20.094  1.00  0.00    -0.550 OA
ATOM      9  O   UNL     1      22.867 -15.524  18.257  1.00  0.00    -0.550 OA
ENDBRANCH   6   7
ENDBRANCH   5   6
ENDBRANCH   4   5
ENDBRANCH   3   4
ENDBRANCH   2   3
ENDBRANCH   1   2
BRANCH   1  10
ATOM     10  C   UNL     1      20.430 -10.160  24.686  1.00  0.00     0.000 C 
BRANCH  10  11
ATOM     11  C   UNL     1      21.125  -8.825  24.394  1.00  0.00    -0.000 C 
BRANCH  11  12
ATOM     12  C   UNL     1      20.487  -7.684  25.199  1.00  0.00    -0.000 C 
BRANCH  12  13
ATOM     13  C   UNL     1      21.112  -7.509  26.595  1.00  0.00    -0.000 C 
BRANCH  13  14
ATOM     14  C   UNL     1      22.518  -6.881  26.600  1.00  0.00    -0.000 C 
BRANCH  14  15
ATOM     15  C   UNL     1      22.624  -5.647  25.687  1.00  0.00    -0.000 C 
BRANCH  15  16
ATOM     16  C   UNL     1      21.897  -4.423  26.266  1.00  0.00    -0.003 C 
ATOM     17  C   UNL     1      22.437  -4.009  27.634  1.00  0.00     0.004 C 
ENDBRANCH  15  16
ENDBRANCH  14  15
ENDBRANCH  13  14
ENDBRANCH  12  13
ENDBRANCH  11  12
ENDBRANCH  10  11
ENDBRANCH   1  10
TORSDOF 13
ENDMDL
