MODEL 1
REMARK VINA RESULT:    -1.568      0.000      0.000
REMARK INTER + INTRA:          -4.079
REMARK INTER:                  -2.164
REMARK INTRA:                  -1.915
REMARK UNBOUND:                -1.915
REMARK SMILES C=C(CC[C@@H](C(=O)[O-])[C@@H]1CC[C@]2(C)C3=C(CC[C@]12C)[C@]1(C)CC[C@H](O)C(C)(C)[C@H]1CC3)C(C)C
REMARK SMILES IDX 4 1 5 2 6 3 7 4 8 5 9 6 10 7 18 8 11 9 12 10 17 11 19 12
REMARK SMILES IDX 13 13 14 14 16 15 15 16 31 17 20 18 30 19 29 20 22 21 21 22
REMARK SMILES IDX 26 23 23 24 24 25 27 26 28 27 25 28 3 30 2 31 1 32 32 33
REMARK SMILES IDX 33 34 34 35
REMARK H PARENT 25 29
REMARK Flexibility Score: inf
ROOT
ATOM      1  C   UNL     1      92.764  32.113  16.785  1.00  0.00     0.014 C 
ENDROOT
BRANCH   1   2
ATOM      2  C   UNL     1      92.055  32.783  15.582  1.00  0.00     0.039 C 
BRANCH   2   3
ATOM      3  C   UNL     1      91.636  34.187  15.956  1.00  0.00     0.045 C 
ATOM      4  O   UNL     1      92.487  35.010  16.386  1.00  0.00    -0.550 OA
ATOM      5  O   UNL     1      90.305  34.573  15.847  1.00  0.00    -0.550 OA
ENDBRANCH   2   3
BRANCH   2   6
ATOM      6  C   UNL     1      92.961  32.840  14.300  1.00  0.00     0.004 C 
ATOM      7  C   UNL     1      92.342  33.745  13.216  1.00  0.00     0.006 C 
ATOM      8  C   UNL     1      93.323  31.507  13.558  1.00  0.00    -0.020 C 
ATOM      9  C   UNL     1      92.686  33.146  11.857  1.00  0.00     0.012 C 
ATOM     10  C   UNL     1      93.671  31.985  12.099  1.00  0.00    -0.006 C 
ATOM     11  C   UNL     1      92.099  30.561  13.495  1.00  0.00     0.012 C 
ATOM     12  C   UNL     1      94.526  30.773  14.228  1.00  0.00     0.012 C 
ATOM     13  C   UNL     1      95.125  32.552  12.021  1.00  0.00     0.017 C 
ATOM     14  C   UNL     1      93.470  30.917  10.989  1.00  0.00    -0.064 C 
ATOM     15  C   UNL     1      92.382  29.349  12.622  1.00  0.00     0.032 C 
ATOM     16  C   UNL     1      92.849  29.712  11.221  1.00  0.00    -0.064 C 
ATOM     17  C   UNL     1      93.979  31.298   9.598  1.00  0.00     0.032 C 
ATOM     18  C   UNL     1      92.500  28.724  10.076  1.00  0.00    -0.008 C 
ATOM     19  C   UNL     1      93.485  30.427   8.448  1.00  0.00     0.009 C 
ATOM     20  C   UNL     1      93.493  28.950   8.878  1.00  0.00     0.007 C 
ATOM     21  C   UNL     1      92.690  27.252  10.562  1.00  0.00     0.014 C 
ATOM     22  C   UNL     1      90.995  28.966   9.723  1.00  0.00     0.016 C 
ATOM     23  C   UNL     1      93.415  27.905   7.697  1.00  0.00    -0.006 C 
ATOM     24  C   UNL     1      92.567  26.205   9.441  1.00  0.00     0.033 C 
ATOM     25  C   UNL     1      93.542  26.462   8.285  1.00  0.00     0.120 C 
ATOM     26  C   UNL     1      92.117  28.029   6.858  1.00  0.00     0.014 C 
ATOM     27  C   UNL     1      94.597  28.121   6.710  1.00  0.00     0.014 C 
BRANCH  25  28
ATOM     28  O   UNL     1      94.849  26.233   8.760  1.00  0.00    -0.393 OA
ATOM     29  H   UNL     1      95.189  25.411   8.320  1.00  0.00     0.210 HD
ENDBRANCH  25  28
ENDBRANCH   2   6
ENDBRANCH   1   2
BRANCH   1  30
ATOM     30  C   UNL     1      91.845  31.186  17.603  1.00  0.00     0.031 C 
BRANCH  30  31
ATOM     31  C   UNL     1      91.724  29.754  17.092  1.00  0.00    -0.075 C 
ATOM     32  C   UNL     1      92.865  29.046  16.994  1.00  0.00     0.008 C 
BRANCH  31  33
ATOM     33  C   UNL     1      90.397  29.113  16.675  1.00  0.00     0.008 C 
ATOM     34  C   UNL     1      89.442  30.158  16.082  1.00  0.00     0.012 C 
ATOM     35  C   UNL     1      90.624  27.955  15.694  1.00  0.00     0.012 C 
ENDBRANCH  31  33
ENDBRANCH  30  31
ENDBRANCH   1  30
TORSDOF 7
ENDMDL
MODEL 2
REMARK VINA RESULT:    -1.500      2.020      7.618
REMARK INTER + INTRA:          -3.986
REMARK INTER:                  -2.111
REMARK INTRA:                  -1.875
REMARK UNBOUND:                -1.915
REMARK SMILES C=C(CC[C@@H](C(=O)[O-])[C@@H]1CC[C@]2(C)C3=C(CC[C@]12C)[C@]1(C)CC[C@H](O)C(C)(C)[C@H]1CC3)C(C)C
REMARK SMILES IDX 4 1 5 2 6 3 7 4 8 5 9 6 10 7 18 8 11 9 12 10 17 11 19 12
REMARK SMILES IDX 13 13 14 14 16 15 15 16 31 17 20 18 30 19 29 20 22 21 21 22
REMARK SMILES IDX 26 23 23 24 24 25 27 26 28 27 25 28 3 30 2 31 1 32 32 33
REMARK SMILES IDX 33 34 34 35
REMARK H PARENT 25 29
REMARK Flexibility Score: inf
ROOT
ATOM      1  C   UNL     1      91.485  29.514   7.641  1.00  0.00     0.014 C 
ENDROOT
BRANCH   1   2
ATOM      2  C   UNL     1      92.798  30.299   7.878  1.00  0.00     0.039 C 
BRANCH   2   3
ATOM      3  C   UNL     1      93.350  30.777   6.554  1.00  0.00     0.045 C 
ATOM      4  O   UNL     1      94.487  30.398   6.165  1.00  0.00    -0.550 OA
ATOM      5  O   UNL     1      92.617  31.657   5.765  1.00  0.00    -0.550 OA
ENDBRANCH   2   3
BRANCH   2   6
ATOM      6  C   UNL     1      92.603  31.532   8.830  1.00  0.00     0.004 C 
ATOM      7  C   UNL     1      93.869  32.409   8.879  1.00  0.00     0.006 C 
ATOM      8  C   UNL     1      92.221  31.288  10.331  1.00  0.00    -0.020 C 
ATOM      9  C   UNL     1      93.990  32.977  10.288  1.00  0.00     0.012 C 
ATOM     10  C   UNL     1      92.702  32.604  11.049  1.00  0.00    -0.006 C 
ATOM     11  C   UNL     1      93.006  30.086  10.911  1.00  0.00     0.012 C 
ATOM     12  C   UNL     1      90.689  31.057  10.514  1.00  0.00     0.012 C 
ATOM     13  C   UNL     1      91.669  33.761  10.860  1.00  0.00     0.017 C 
ATOM     14  C   UNL     1      93.038  32.448  12.557  1.00  0.00    -0.064 C 
ATOM     15  C   UNL     1      92.785  29.953  12.409  1.00  0.00     0.032 C 
ATOM     16  C   UNL     1      93.106  31.224  13.180  1.00  0.00    -0.064 C 
ATOM     17  C   UNL     1      93.324  33.746  13.313  1.00  0.00     0.032 C 
ATOM     18  C   UNL     1      93.606  31.063  14.641  1.00  0.00    -0.008 C 
ATOM     19  C   UNL     1      93.984  33.588  14.679  1.00  0.00     0.009 C 
ATOM     20  C   UNL     1      93.351  32.402  15.426  1.00  0.00     0.007 C 
ATOM     21  C   UNL     1      92.794  29.942  15.365  1.00  0.00     0.014 C 
ATOM     22  C   UNL     1      95.110  30.644  14.552  1.00  0.00     0.016 C 
ATOM     23  C   UNL     1      93.620  32.365  16.981  1.00  0.00    -0.006 C 
ATOM     24  C   UNL     1      93.075  29.846  16.875  1.00  0.00     0.033 C 
ATOM     25  C   UNL     1      92.826  31.171  17.606  1.00  0.00     0.120 C 
ATOM     26  C   UNL     1      95.124  32.252  17.337  1.00  0.00     0.014 C 
ATOM     27  C   UNL     1      93.108  33.674  17.645  1.00  0.00     0.014 C 
BRANCH  25  28
ATOM     28  O   UNL     1      91.440  31.429  17.579  1.00  0.00    -0.393 OA
ATOM     29  H   UNL     1      91.313  32.347  17.225  1.00  0.00     0.210 HD
ENDBRANCH  25  28
ENDBRANCH   2   6
ENDBRANCH   1   2
BRANCH   1  30
ATOM     30  C   UNL     1      91.679  27.985   7.605  1.00  0.00     0.031 C 
BRANCH  30  31
ATOM     31  C   UNL     1      91.542  27.268   8.944  1.00  0.00    -0.075 C 
ATOM     32  C   UNL     1      90.376  27.422   9.599  1.00  0.00     0.008 C 
BRANCH  31  33
ATOM     33  C   UNL     1      92.655  26.421   9.568  1.00  0.00     0.008 C 
ATOM     34  C   UNL     1      94.040  26.951   9.173  1.00  0.00     0.012 C 
ATOM     35  C   UNL     1      92.507  26.349  11.094  1.00  0.00     0.012 C 
ENDBRANCH  31  33
ENDBRANCH  30  31
ENDBRANCH   1  30
TORSDOF 7
ENDMDL
MODEL 3
REMARK VINA RESULT:    -1.466      1.649      7.369
REMARK INTER + INTRA:          -3.938
REMARK INTER:                  -2.179
REMARK INTRA:                  -1.759
REMARK UNBOUND:                -1.915
REMARK SMILES C=C(CC[C@@H](C(=O)[O-])[C@@H]1CC[C@]2(C)C3=C(CC[C@]12C)[C@]1(C)CC[C@H](O)C(C)(C)[C@H]1CC3)C(C)C
REMARK SMILES IDX 4 1 5 2 6 3 7 4 8 5 9 6 10 7 18 8 11 9 12 10 17 11 19 12
REMARK SMILES IDX 13 13 14 14 16 15 15 16 31 17 20 18 30 19 29 20 22 21 21 22
REMARK SMILES IDX 26 23 23 24 24 25 27 26 28 27 25 28 3 30 2 31 1 32 32 33
REMARK SMILES IDX 33 34 34 35
REMARK H PARENT 25 29
REMARK Flexibility Score: inf
ROOT
ATOM      1  C   UNL     1      91.708  26.514  11.016  1.00  0.00     0.014 C 
ENDROOT
BRANCH   1   2
ATOM      2  C   UNL     1      92.826  27.453  10.503  1.00  0.00     0.039 C 
BRANCH   2   3
ATOM      3  C   UNL     1      93.377  26.922   9.198  1.00  0.00     0.045 C 
ATOM      4  O   UNL     1      92.602  26.672   8.237  1.00  0.00    -0.550 OA
ATOM      5  O   UNL     1      94.740  26.687   9.056  1.00  0.00    -0.550 OA
ENDBRANCH   2   3
BRANCH   2   6
ATOM      6  C   UNL     1      92.330  28.927  10.289  1.00  0.00     0.004 C 
ATOM      7  C   UNL     1      93.399  29.784   9.583  1.00  0.00     0.006 C 
ATOM      8  C   UNL     1      91.889  29.775  11.534  1.00  0.00    -0.020 C 
ATOM      9  C   UNL     1      93.303  31.201  10.137  1.00  0.00     0.012 C 
ATOM     10  C   UNL     1      92.056  31.261  11.041  1.00  0.00    -0.006 C 
ATOM     11  C   UNL     1      92.842  29.534  12.729  1.00  0.00     0.012 C 
ATOM     12  C   UNL     1      90.419  29.468  11.958  1.00  0.00     0.012 C 
ATOM     13  C   UNL     1      90.839  31.706  10.168  1.00  0.00     0.017 C 
ATOM     14  C   UNL     1      92.300  32.305  12.164  1.00  0.00    -0.064 C 
ATOM     15  C   UNL     1      92.537  30.483  13.878  1.00  0.00     0.032 C 
ATOM     16  C   UNL     1      92.552  31.948  13.468  1.00  0.00    -0.064 C 
ATOM     17  C   UNL     1      92.276  33.770  11.728  1.00  0.00     0.032 C 
ATOM     18  C   UNL     1      92.962  32.985  14.548  1.00  0.00    -0.008 C 
ATOM     19  C   UNL     1      92.849  34.770  12.726  1.00  0.00     0.009 C 
ATOM     20  C   UNL     1      92.398  34.397  14.149  1.00  0.00     0.007 C 
ATOM     21  C   UNL     1      92.325  32.606  15.923  1.00  0.00     0.014 C 
ATOM     22  C   UNL     1      94.521  32.919  14.659  1.00  0.00     0.016 C 
ATOM     23  C   UNL     1      92.551  35.543  15.225  1.00  0.00    -0.006 C 
ATOM     24  C   UNL     1      92.504  33.681  17.010  1.00  0.00     0.033 C 
ATOM     25  C   UNL     1      91.953  35.048  16.583  1.00  0.00     0.120 C 
ATOM     26  C   UNL     1      94.018  36.002  15.422  1.00  0.00     0.014 C 
ATOM     27  C   UNL     1      91.752  36.802  14.786  1.00  0.00     0.014 C 
BRANCH  25  28
ATOM     28  O   UNL     1      90.550  34.944  16.498  1.00  0.00    -0.393 OA
ATOM     29  H   UNL     1      90.170  35.326  17.332  1.00  0.00     0.210 HD
ENDBRANCH  25  28
ENDBRANCH   2   6
ENDBRANCH   1   2
BRANCH   1  30
ATOM     30  C   UNL     1      91.993  25.922  12.410  1.00  0.00     0.031 C 
BRANCH  30  31
ATOM     31  C   UNL     1      90.954  26.227  13.485  1.00  0.00    -0.075 C 
ATOM     32  C   UNL     1      89.682  25.875  13.218  1.00  0.00     0.008 C 
BRANCH  31  33
ATOM     33  C   UNL     1      91.285  26.922  14.810  1.00  0.00     0.008 C 
ATOM     34  C   UNL     1      90.115  27.794  15.284  1.00  0.00     0.012 C 
ATOM     35  C   UNL     1      91.684  25.902  15.886  1.00  0.00     0.012 C 
ENDBRANCH  31  33
ENDBRANCH  30  31
ENDBRANCH   1  30
TORSDOF 7
ENDMDL
MODEL 4
REMARK VINA RESULT:    -1.397      2.951      8.260
REMARK INTER + INTRA:          -3.843
REMARK INTER:                  -2.153
REMARK INTRA:                  -1.690
REMARK UNBOUND:                -1.915
REMARK SMILES C=C(CC[C@@H](C(=O)[O-])[C@@H]1CC[C@]2(C)C3=C(CC[C@]12C)[C@]1(C)CC[C@H](O)C(C)(C)[C@H]1CC3)C(C)C
REMARK SMILES IDX 4 1 5 2 6 3 7 4 8 5 9 6 10 7 18 8 11 9 12 10 17 11 19 12
REMARK SMILES IDX 13 13 14 14 16 15 15 16 31 17 20 18 30 19 29 20 22 21 21 22
REMARK SMILES IDX 26 23 23 24 24 25 27 26 28 27 25 28 3 30 2 31 1 32 32 33
REMARK SMILES IDX 33 34 34 35
REMARK H PARENT 25 29
REMARK Flexibility Score: inf
ROOT
ATOM      1  C   UNL     1      90.826  29.841   7.103  1.00  0.00     0.014 C 
ENDROOT
BRANCH   1   2
ATOM      2  C   UNL     1      90.103  29.667   8.460  1.00  0.00     0.039 C 
BRANCH   2   3
ATOM      3  C   UNL     1      88.641  29.366   8.223  1.00  0.00     0.045 C 
ATOM      4  O   UNL     1      87.774  29.727   9.064  1.00  0.00    -0.550 OA
ATOM      5  O   UNL     1      88.243  28.672   7.086  1.00  0.00    -0.550 OA
ENDBRANCH   2   3
BRANCH   2   6
ATOM      6  C   UNL     1      90.727  28.523   9.337  1.00  0.00     0.004 C 
ATOM      7  C   UNL     1      89.718  27.382   9.574  1.00  0.00     0.006 C 
ATOM      8  C   UNL     1      91.290  28.868  10.760  1.00  0.00    -0.020 C 
ATOM      9  C   UNL     1      89.966  26.822  10.970  1.00  0.00     0.012 C 
ATOM     10  C   UNL     1      91.245  27.488  11.516  1.00  0.00    -0.006 C 
ATOM     11  C   UNL     1      90.362  29.869  11.491  1.00  0.00     0.012 C 
ATOM     12  C   UNL     1      92.739  29.443  10.691  1.00  0.00     0.012 C 
ATOM     13  C   UNL     1      92.465  26.592  11.129  1.00  0.00     0.017 C 
ATOM     14  C   UNL     1      91.139  27.585  13.061  1.00  0.00    -0.064 C 
ATOM     15  C   UNL     1      90.795  30.070  12.934  1.00  0.00     0.032 C 
ATOM     16  C   UNL     1      90.902  28.771  13.717  1.00  0.00    -0.064 C 
ATOM     17  C   UNL     1      91.284  26.267  13.823  1.00  0.00     0.032 C 
ATOM     18  C   UNL     1      90.630  28.835  15.244  1.00  0.00    -0.008 C 
ATOM     19  C   UNL     1      90.843  26.291  15.283  1.00  0.00     0.009 C 
ATOM     20  C   UNL     1      91.308  27.600  15.942  1.00  0.00     0.007 C 
ATOM     21  C   UNL     1      91.277  30.120  15.850  1.00  0.00     0.014 C 
ATOM     22  C   UNL     1      89.077  28.902  15.416  1.00  0.00     0.016 C 
ATOM     23  C   UNL     1      91.301  27.597  17.521  1.00  0.00    -0.006 C 
ATOM     24  C   UNL     1      91.238  30.172  17.388  1.00  0.00     0.033 C 
ATOM     25  C   UNL     1      91.898  28.948  18.035  1.00  0.00     0.120 C 
ATOM     26  C   UNL     1      89.891  27.371  18.125  1.00  0.00     0.014 C 
ATOM     27  C   UNL     1      92.198  26.447  18.060  1.00  0.00     0.014 C 
BRANCH  25  28
ATOM     28  O   UNL     1      93.282  29.010  17.772  1.00  0.00    -0.393 OA
ATOM     29  H   UNL     1      93.416  28.790  16.814  1.00  0.00     0.210 HD
ENDBRANCH  25  28
ENDBRANCH   2   6
ENDBRANCH   1   2
BRANCH   1  30
ATOM     30  C   UNL     1      91.617  28.594   6.662  1.00  0.00     0.031 C 
BRANCH  30  31
ATOM     31  C   UNL     1      93.105  28.600   6.996  1.00  0.00    -0.075 C 
ATOM     32  C   UNL     1      93.718  29.798   7.017  1.00  0.00     0.008 C 
BRANCH  31  33
ATOM     33  C   UNL     1      93.914  27.330   7.279  1.00  0.00     0.008 C 
ATOM     34  C   UNL     1      94.874  27.537   8.457  1.00  0.00     0.012 C 
ATOM     35  C   UNL     1      92.991  26.127   7.525  1.00  0.00     0.012 C 
ENDBRANCH  31  33
ENDBRANCH  30  31
ENDBRANCH   1  30
TORSDOF 7
ENDMDL
MODEL 5
REMARK VINA RESULT:    -1.304      2.447      8.495
REMARK INTER + INTRA:          -3.715
REMARK INTER:                  -1.968
REMARK INTRA:                  -1.747
REMARK UNBOUND:                -1.915
REMARK SMILES C=C(CC[C@@H](C(=O)[O-])[C@@H]1CC[C@]2(C)C3=C(CC[C@]12C)[C@]1(C)CC[C@H](O)C(C)(C)[C@H]1CC3)C(C)C
REMARK SMILES IDX 4 1 5 2 6 3 7 4 8 5 9 6 10 7 18 8 11 9 12 10 17 11 19 12
REMARK SMILES IDX 13 13 14 14 16 15 15 16 31 17 20 18 30 19 29 20 22 21 21 22
REMARK SMILES IDX 26 23 23 24 24 25 27 26 28 27 25 28 3 30 2 31 1 32 32 33
REMARK SMILES IDX 33 34 34 35
REMARK H PARENT 25 29
REMARK Flexibility Score: inf
ROOT
ATOM      1  C   UNL     1      92.436  29.040   5.909  1.00  0.00     0.014 C 
ENDROOT
BRANCH   1   2
ATOM      2  C   UNL     1      91.207  28.362   6.563  1.00  0.00     0.039 C 
BRANCH   2   3
ATOM      3  C   UNL     1      90.467  27.543   5.529  1.00  0.00     0.045 C 
ATOM      4  O   UNL     1      91.043  26.586   4.946  1.00  0.00    -0.550 OA
ATOM      5  O   UNL     1      89.153  27.854   5.197  1.00  0.00    -0.550 OA
ENDBRANCH   2   3
BRANCH   2   6
ATOM      6  C   UNL     1      91.595  27.436   7.770  1.00  0.00     0.004 C 
ATOM      7  C   UNL     1      90.417  26.535   8.189  1.00  0.00     0.006 C 
ATOM      8  C   UNL     1      92.101  28.088   9.104  1.00  0.00    -0.020 C 
ATOM      9  C   UNL     1      90.483  26.353   9.701  1.00  0.00     0.012 C 
ATOM     10  C   UNL     1      91.804  26.984  10.186  1.00  0.00    -0.006 C 
ATOM     11  C   UNL     1      91.279  29.355   9.444  1.00  0.00     0.012 C 
ATOM     12  C   UNL     1      93.619  28.443   9.042  1.00  0.00     0.012 C 
ATOM     13  C   UNL     1      92.906  25.876  10.180  1.00  0.00     0.017 C 
ATOM     14  C   UNL     1      91.605  27.513  11.632  1.00  0.00    -0.064 C 
ATOM     15  C   UNL     1      91.634  29.891  10.822  1.00  0.00     0.032 C 
ATOM     16  C   UNL     1      91.497  28.852  11.924  1.00  0.00    -0.064 C 
ATOM     17  C   UNL     1      91.504  26.447  12.723  1.00  0.00     0.032 C 
ATOM     18  C   UNL     1      91.131  29.365  13.343  1.00  0.00    -0.008 C 
ATOM     19  C   UNL     1      90.969  26.923  14.070  1.00  0.00     0.009 C 
ATOM     20  C   UNL     1      91.572  28.297  14.409  1.00  0.00     0.007 C 
ATOM     21  C   UNL     1      91.913  30.680  13.656  1.00  0.00     0.014 C 
ATOM     22  C   UNL     1      89.595  29.663  13.325  1.00  0.00     0.016 C 
ATOM     23  C   UNL     1      91.454  28.728  15.924  1.00  0.00    -0.006 C 
ATOM     24  C   UNL     1      91.774  31.156  15.113  1.00  0.00     0.033 C 
ATOM     25  C   UNL     1      92.203  30.086  16.125  1.00  0.00     0.120 C 
ATOM     26  C   UNL     1      89.988  28.848  16.411  1.00  0.00     0.014 C 
ATOM     27  C   UNL     1      92.135  27.670  16.837  1.00  0.00     0.014 C 
BRANCH  25  28
ATOM     28  O   UNL     1      93.596  29.906  16.005  1.00  0.00    -0.393 OA
ATOM     29  H   UNL     1      93.970  30.728  15.593  1.00  0.00     0.210 HD
ENDBRANCH  25  28
ENDBRANCH   2   6
ENDBRANCH   1   2
BRANCH   1  30
ATOM     30  C   UNL     1      92.238  30.544   5.639  1.00  0.00     0.031 C 
BRANCH  30  31
ATOM     31  C   UNL     1      93.202  31.479   6.361  1.00  0.00    -0.075 C 
ATOM     32  C   UNL     1      94.506  31.370   6.046  1.00  0.00     0.008 C 
BRANCH  31  33
ATOM     33  C   UNL     1      92.762  32.495   7.420  1.00  0.00     0.008 C 
ATOM     34  C   UNL     1      91.252  32.403   7.680  1.00  0.00     0.012 C 
ATOM     35  C   UNL     1      93.557  32.321   8.721  1.00  0.00     0.012 C 
ENDBRANCH  31  33
ENDBRANCH  30  31
ENDBRANCH   1  30
TORSDOF 7
ENDMDL
MODEL 6
REMARK VINA RESULT:    -1.273      2.966      8.024
REMARK INTER + INTRA:          -3.672
REMARK INTER:                  -1.727
REMARK INTRA:                  -1.945
REMARK UNBOUND:                -1.915
REMARK SMILES C=C(CC[C@@H](C(=O)[O-])[C@@H]1CC[C@]2(C)C3=C(CC[C@]12C)[C@]1(C)CC[C@H](O)C(C)(C)[C@H]1CC3)C(C)C
REMARK SMILES IDX 4 1 5 2 6 3 7 4 8 5 9 6 10 7 18 8 11 9 12 10 17 11 19 12
REMARK SMILES IDX 13 13 14 14 16 15 15 16 31 17 20 18 30 19 29 20 22 21 21 22
REMARK SMILES IDX 26 23 23 24 24 25 27 26 28 27 25 28 3 30 2 31 1 32 32 33
REMARK SMILES IDX 33 34 34 35
REMARK H PARENT 25 29
REMARK Flexibility Score: inf
ROOT
ATOM      1  C   UNL     1      90.662  28.918   6.330  1.00  0.00     0.014 C 
ENDROOT
BRANCH   1   2
ATOM      2  C   UNL     1      90.352  30.362   6.793  1.00  0.00     0.039 C 
BRANCH   2   3
ATOM      3  C   UNL     1      89.480  31.049   5.766  1.00  0.00     0.045 C 
ATOM      4  O   UNL     1      88.425  30.496   5.356  1.00  0.00    -0.550 OA
ATOM      5  O   UNL     1      89.846  32.288   5.251  1.00  0.00    -0.550 OA
ENDBRANCH   2   3
BRANCH   2   6
ATOM      6  C   UNL     1      89.637  30.411   8.190  1.00  0.00     0.004 C 
ATOM      7  C   UNL     1      89.073  31.814   8.484  1.00  0.00     0.006 C 
ATOM      8  C   UNL     1      90.443  30.020   9.477  1.00  0.00    -0.020 C 
ATOM      9  C   UNL     1      89.195  32.062   9.983  1.00  0.00     0.012 C 
ATOM     10  C   UNL     1      89.657  30.743  10.634  1.00  0.00    -0.006 C 
ATOM     11  C   UNL     1      91.882  30.587   9.419  1.00  0.00     0.012 C 
ATOM     12  C   UNL     1      90.492  28.475   9.689  1.00  0.00     0.012 C 
ATOM     13  C   UNL     1      88.388  29.931  11.049  1.00  0.00     0.017 C 
ATOM     14  C   UNL     1      90.498  31.074  11.896  1.00  0.00    -0.064 C 
ATOM     15  C   UNL     1      92.613  30.374  10.735  1.00  0.00     0.032 C 
ATOM     16  C   UNL     1      91.866  30.933  11.936  1.00  0.00    -0.064 C 
ATOM     17  C   UNL     1      89.715  31.602  13.099  1.00  0.00     0.032 C 
ATOM     18  C   UNL     1      92.716  31.424  13.139  1.00  0.00    -0.008 C 
ATOM     19  C   UNL     1      90.547  32.250  14.201  1.00  0.00     0.009 C 
ATOM     20  C   UNL     1      91.826  31.428  14.434  1.00  0.00     0.007 C 
ATOM     21  C   UNL     1      93.900  30.438  13.395  1.00  0.00     0.014 C 
ATOM     22  C   UNL     1      93.282  32.826  12.739  1.00  0.00     0.016 C 
ATOM     23  C   UNL     1      92.572  31.716  15.796  1.00  0.00    -0.006 C 
ATOM     24  C   UNL     1      94.681  30.725  14.690  1.00  0.00     0.033 C 
ATOM     25  C   UNL     1      93.780  30.732  15.931  1.00  0.00     0.120 C 
ATOM     26  C   UNL     1      93.057  33.182  15.927  1.00  0.00     0.014 C 
ATOM     27  C   UNL     1      91.616  31.460  16.995  1.00  0.00     0.014 C 
BRANCH  25  28
ATOM     28  O   UNL     1      93.327  29.415  16.147  1.00  0.00    -0.393 OA
ATOM     29  H   UNL     1      92.416  29.344  15.758  1.00  0.00     0.210 HD
ENDBRANCH  25  28
ENDBRANCH   2   6
ENDBRANCH   1   2
BRANCH   1  30
ATOM     30  C   UNL     1      92.161  28.657   6.090  1.00  0.00     0.031 C 
BRANCH  30  31
ATOM     31  C   UNL     1      92.788  27.560   6.946  1.00  0.00    -0.075 C 
ATOM     32  C   UNL     1      92.096  26.412   7.064  1.00  0.00     0.008 C 
BRANCH  31  33
ATOM     33  C   UNL     1      94.125  27.718   7.676  1.00  0.00     0.008 C 
ATOM     34  C   UNL     1      94.658  29.151   7.552  1.00  0.00     0.012 C 
ATOM     35  C   UNL     1      94.006  27.300   9.149  1.00  0.00     0.012 C 
ENDBRANCH  31  33
ENDBRANCH  30  31
ENDBRANCH   1  30
TORSDOF 7
ENDMDL
MODEL 7
REMARK VINA RESULT:    -1.265      1.752      7.593
REMARK INTER + INTRA:          -3.661
REMARK INTER:                  -2.022
REMARK INTRA:                  -1.639
REMARK UNBOUND:                -1.915
REMARK SMILES C=C(CC[C@@H](C(=O)[O-])[C@@H]1CC[C@]2(C)C3=C(CC[C@]12C)[C@]1(C)CC[C@H](O)C(C)(C)[C@H]1CC3)C(C)C
REMARK SMILES IDX 4 1 5 2 6 3 7 4 8 5 9 6 10 7 18 8 11 9 12 10 17 11 19 12
REMARK SMILES IDX 13 13 14 14 16 15 15 16 31 17 20 18 30 19 29 20 22 21 21 22
REMARK SMILES IDX 26 23 23 24 24 25 27 26 28 27 25 28 3 30 2 31 1 32 32 33
REMARK SMILES IDX 33 34 34 35
REMARK H PARENT 25 29
REMARK Flexibility Score: inf
ROOT
ATOM      1  C   UNL     1      91.479  27.889   8.906  1.00  0.00     0.014 C 
ENDROOT
BRANCH   1   2
ATOM      2  C   UNL     1      92.877  28.506   9.158  1.00  0.00     0.039 C 
BRANCH   2   3
ATOM      3  C   UNL     1      93.695  28.446   7.888  1.00  0.00     0.045 C 
ATOM      4  O   UNL     1      93.252  28.951   6.822  1.00  0.00    -0.550 OA
ATOM      5  O   UNL     1      94.934  27.815   7.881  1.00  0.00    -0.550 OA
ENDBRANCH   2   3
BRANCH   2   6
ATOM      6  C   UNL     1      92.803  29.995   9.652  1.00  0.00     0.004 C 
ATOM      7  C   UNL     1      94.185  30.675   9.593  1.00  0.00     0.006 C 
ATOM      8  C   UNL     1      92.263  30.297  11.093  1.00  0.00    -0.020 C 
ATOM      9  C   UNL     1      94.276  31.648  10.764  1.00  0.00     0.012 C 
ATOM     10  C   UNL     1      92.886  31.703  11.429  1.00  0.00    -0.006 C 
ATOM     11  C   UNL     1      92.796  29.259  12.110  1.00  0.00     0.012 C 
ATOM     12  C   UNL     1      90.704  30.330  11.138  1.00  0.00     0.012 C 
ATOM     13  C   UNL     1      92.071  32.857  10.762  1.00  0.00     0.017 C 
ATOM     14  C   UNL     1      93.066  32.002  12.942  1.00  0.00    -0.064 C 
ATOM     15  C   UNL     1      92.432  29.644  13.535  1.00  0.00     0.032 C 
ATOM     16  C   UNL     1      92.886  31.045  13.914  1.00  0.00    -0.064 C 
ATOM     17  C   UNL     1      93.491  33.428  13.294  1.00  0.00     0.032 C 
ATOM     18  C   UNL     1      93.230  31.303  15.406  1.00  0.00    -0.008 C 
ATOM     19  C   UNL     1      94.002  33.637  14.716  1.00  0.00     0.009 C 
ATOM     20  C   UNL     1      93.127  32.844  15.702  1.00  0.00     0.007 C 
ATOM     21  C   UNL     1      92.193  30.586  16.327  1.00  0.00     0.014 C 
ATOM     22  C   UNL     1      94.651  30.693  15.646  1.00  0.00     0.016 C 
ATOM     23  C   UNL     1      93.257  33.277  17.215  1.00  0.00    -0.006 C 
ATOM     24  C   UNL     1      92.328  30.947  17.817  1.00  0.00     0.033 C 
ATOM     25  C   UNL     1      92.233  32.458  18.067  1.00  0.00     0.120 C 
ATOM     26  C   UNL     1      94.689  33.099  17.780  1.00  0.00     0.014 C 
ATOM     27  C   UNL     1      92.907  34.784  17.373  1.00  0.00     0.014 C 
BRANCH  25  28
ATOM     28  O   UNL     1      90.914  32.864  17.783  1.00  0.00    -0.393 OA
ATOM     29  H   UNL     1      90.322  32.078  17.917  1.00  0.00     0.210 HD
ENDBRANCH  25  28
ENDBRANCH   2   6
ENDBRANCH   1   2
BRANCH   1  30
ATOM     30  C   UNL     1      91.366  26.419   9.354  1.00  0.00     0.031 C 
BRANCH  30  31
ATOM     31  C   UNL     1      91.113  26.197  10.842  1.00  0.00    -0.075 C 
ATOM     32  C   UNL     1      92.179  25.877  11.598  1.00  0.00     0.008 C 
BRANCH  31  33
ATOM     33  C   UNL     1      89.728  26.298  11.489  1.00  0.00     0.008 C 
ATOM     34  C   UNL     1      89.780  27.129  12.778  1.00  0.00     0.012 C 
ATOM     35  C   UNL     1      88.696  26.869  10.506  1.00  0.00     0.012 C 
ENDBRANCH  31  33
ENDBRANCH  30  31
ENDBRANCH   1  30
TORSDOF 7
ENDMDL
MODEL 8
REMARK VINA RESULT:    -1.218      2.975      7.780
REMARK INTER + INTRA:          -3.596
REMARK INTER:                  -1.997
REMARK INTRA:                  -1.599
REMARK UNBOUND:                -1.915
REMARK SMILES C=C(CC[C@@H](C(=O)[O-])[C@@H]1CC[C@]2(C)C3=C(CC[C@]12C)[C@]1(C)CC[C@H](O)C(C)(C)[C@H]1CC3)C(C)C
REMARK SMILES IDX 4 1 5 2 6 3 7 4 8 5 9 6 10 7 18 8 11 9 12 10 17 11 19 12
REMARK SMILES IDX 13 13 14 14 16 15 15 16 31 17 20 18 30 19 29 20 22 21 21 22
REMARK SMILES IDX 26 23 23 24 24 25 27 26 28 27 25 28 3 30 2 31 1 32 32 33
REMARK SMILES IDX 33 34 34 35
REMARK H PARENT 25 29
REMARK Flexibility Score: inf
ROOT
ATOM      1  C   UNL     1      93.021  32.390   6.839  1.00  0.00     0.014 C 
ENDROOT
BRANCH   1   2
ATOM      2  C   UNL     1      92.132  31.148   6.586  1.00  0.00     0.039 C 
BRANCH   2   3
ATOM      3  C   UNL     1      92.093  30.844   5.105  1.00  0.00     0.045 C 
ATOM      4  O   UNL     1      93.158  30.601   4.478  1.00  0.00    -0.550 OA
ATOM      5  O   UNL     1      90.883  30.850   4.420  1.00  0.00    -0.550 OA
ENDBRANCH   2   3
BRANCH   2   6
ATOM      6  C   UNL     1      92.634  29.876   7.358  1.00  0.00     0.004 C 
ATOM      7  C   UNL     1      91.773  28.642   7.027  1.00  0.00     0.006 C 
ATOM      8  C   UNL     1      92.707  29.911   8.925  1.00  0.00    -0.020 C 
ATOM      9  C   UNL     1      91.685  27.782   8.284  1.00  0.00     0.012 C 
ATOM     10  C   UNL     1      92.644  28.390   9.327  1.00  0.00    -0.006 C 
ATOM     11  C   UNL     1      91.475  30.636   9.518  1.00  0.00     0.012 C 
ATOM     12  C   UNL     1      94.016  30.590   9.434  1.00  0.00     0.012 C 
ATOM     13  C   UNL     1      94.039  27.705   9.167  1.00  0.00     0.017 C 
ATOM     14  C   UNL     1      92.084  28.106  10.747  1.00  0.00    -0.064 C 
ATOM     15  C   UNL     1      91.440  30.517  11.033  1.00  0.00     0.032 C 
ATOM     16  C   UNL     1      91.501  29.079  11.525  1.00  0.00    -0.064 C 
ATOM     17  C   UNL     1      92.190  26.658  11.227  1.00  0.00     0.032 C 
ATOM     18  C   UNL     1      90.794  28.755  12.868  1.00  0.00    -0.008 C 
ATOM     19  C   UNL     1      91.348  26.299  12.447  1.00  0.00     0.009 C 
ATOM     20  C   UNL     1      91.411  27.442  13.474  1.00  0.00     0.007 C 
ATOM     21  C   UNL     1      91.048  29.902  13.898  1.00  0.00     0.014 C 
ATOM     22  C   UNL     1      89.264  28.665  12.555  1.00  0.00     0.016 C 
ATOM     23  C   UNL     1      90.950  27.060  14.935  1.00  0.00    -0.006 C 
ATOM     24  C   UNL     1      90.561  29.581  15.321  1.00  0.00     0.033 C 
ATOM     25  C   UNL     1      91.174  28.289  15.876  1.00  0.00     0.120 C 
ATOM     26  C   UNL     1      89.474  26.594  15.006  1.00  0.00     0.014 C 
ATOM     27  C   UNL     1      91.809  25.884  15.479  1.00  0.00     0.014 C 
BRANCH  25  28
ATOM     28  O   UNL     1      92.551  28.514  16.079  1.00  0.00    -0.393 OA
ATOM     29  H   UNL     1      92.940  27.679  16.449  1.00  0.00     0.210 HD
ENDBRANCH  25  28
ENDBRANCH   2   6
ENDBRANCH   1   2
BRANCH   1  30
ATOM     30  C   UNL     1      92.244  33.720   6.802  1.00  0.00     0.031 C 
BRANCH  30  31
ATOM     31  C   UNL     1      91.638  34.170   8.128  1.00  0.00    -0.075 C 
ATOM     32  C   UNL     1      90.331  33.910   8.319  1.00  0.00     0.008 C 
BRANCH  31  33
ATOM     33  C   UNL     1      92.430  34.908   9.213  1.00  0.00     0.008 C 
ATOM     34  C   UNL     1      92.880  33.945  10.319  1.00  0.00     0.012 C 
ATOM     35  C   UNL     1      93.627  35.657   8.613  1.00  0.00     0.012 C 
ENDBRANCH  31  33
ENDBRANCH  30  31
ENDBRANCH   1  30
TORSDOF 7
ENDMDL
