MODEL 1
REMARK VINA RESULT:    -3.889      0.000      0.000
REMARK INTER + INTRA:          -4.614
REMARK INTER:                  -4.571
REMARK INTRA:                  -0.043
REMARK UNBOUND:                -0.043
REMARK SMILES CCCCC(=O)[O-]
REMARK SMILES IDX 4 1 5 2 6 3 7 4 3 5 2 6 1 7
REMARK H PARENT
REMARK Flexibility Score: inf
ROOT
ATOM      1  C   UNL     1      15.577   3.665  55.705  1.00  0.00     0.053 C 
ENDROOT
BRANCH   1   2
ATOM      2  C   UNL     1      14.084   3.544  55.704  1.00  0.00     0.041 C 
ATOM      3  O   UNL     1      13.499   2.901  56.614  1.00  0.00    -0.550 OA
ATOM      4  O   UNL     1      13.337   4.168  54.714  1.00  0.00    -0.550 OA
ENDBRANCH   1   2
BRANCH   1   5
ATOM      5  C   UNL     1      16.258   2.377  55.215  1.00  0.00     0.006 C 
BRANCH   5   6
ATOM      6  C   UNL     1      16.593   1.377  56.336  1.00  0.00    -0.003 C 
ATOM      7  C   UNL     1      16.461  -0.080  55.892  1.00  0.00     0.004 C 
ENDBRANCH   5   6
ENDBRANCH   1   5
TORSDOF 3
ENDMDL
MODEL 2
REMARK VINA RESULT:    -3.717     12.492     13.826
REMARK INTER + INTRA:          -4.412
REMARK INTER:                  -4.305
REMARK INTRA:                  -0.107
REMARK UNBOUND:                -0.043
REMARK SMILES CCCCC(=O)[O-]
REMARK SMILES IDX 4 1 5 2 6 3 7 4 3 5 2 6 1 7
REMARK H PARENT
REMARK Flexibility Score: inf
ROOT
ATOM      1  C   UNL     1      23.693  -8.529  54.837  1.00  0.00     0.053 C 
ENDROOT
BRANCH   1   2
ATOM      2  C   UNL     1      24.873  -8.086  55.646  1.00  0.00     0.041 C 
ATOM      3  O   UNL     1      26.011  -8.578  55.429  1.00  0.00    -0.550 OA
ATOM      4  O   UNL     1      24.720  -7.107  56.619  1.00  0.00    -0.550 OA
ENDBRANCH   1   2
BRANCH   1   5
ATOM      5  C   UNL     1      23.269  -7.467  53.810  1.00  0.00     0.006 C 
BRANCH   5   6
ATOM      6  C   UNL     1      22.063  -6.616  54.245  1.00  0.00    -0.003 C 
ATOM      7  C   UNL     1      21.249  -7.268  55.363  1.00  0.00     0.004 C 
ENDBRANCH   5   6
ENDBRANCH   1   5
TORSDOF 3
ENDMDL
MODEL 3
REMARK VINA RESULT:    -3.634      1.765      2.520
REMARK INTER + INTRA:          -4.314
REMARK INTER:                  -4.299
REMARK INTRA:                  -0.015
REMARK UNBOUND:                -0.043
REMARK SMILES CCCCC(=O)[O-]
REMARK SMILES IDX 4 1 5 2 6 3 7 4 3 5 2 6 1 7
REMARK H PARENT
REMARK Flexibility Score: inf
ROOT
ATOM      1  C   UNL     1      13.081   4.152  55.080  1.00  0.00     0.053 C 
ENDROOT
BRANCH   1   2
ATOM      2  C   UNL     1      11.673   3.668  55.242  1.00  0.00     0.041 C 
ATOM      3  O   UNL     1      11.073   3.819  56.339  1.00  0.00    -0.550 OA
ATOM      4  O   UNL     1      11.013   3.080  54.172  1.00  0.00    -0.550 OA
ENDBRANCH   1   2
BRANCH   1   5
ATOM      5  C   UNL     1      14.063   3.370  55.967  1.00  0.00     0.006 C 
BRANCH   5   6
ATOM      6  C   UNL     1      15.537   3.506  55.547  1.00  0.00    -0.003 C 
ATOM      7  C   UNL     1      16.283   2.173  55.558  1.00  0.00     0.004 C 
ENDBRANCH   5   6
ENDBRANCH   1   5
TORSDOF 3
ENDMDL
MODEL 4
REMARK VINA RESULT:    -3.599      4.216      5.808
REMARK INTER + INTRA:          -4.274
REMARK INTER:                  -4.137
REMARK INTRA:                  -0.136
REMARK UNBOUND:                -0.043
REMARK SMILES CCCCC(=O)[O-]
REMARK SMILES IDX 4 1 5 2 6 3 7 4 3 5 2 6 1 7
REMARK H PARENT
REMARK Flexibility Score: inf
ROOT
ATOM      1  C   UNL     1      11.038   3.241  54.421  1.00  0.00     0.053 C 
ENDROOT
BRANCH   1   2
ATOM      2  C   UNL     1      12.103   4.229  54.052  1.00  0.00     0.041 C 
ATOM      3  O   UNL     1      13.166   4.295  54.722  1.00  0.00    -0.550 OA
ATOM      4  O   UNL     1      11.932   5.055  52.949  1.00  0.00    -0.550 OA
ENDBRANCH   1   2
BRANCH   1   5
ATOM      5  C   UNL     1       9.726   3.934  54.821  1.00  0.00     0.006 C 
BRANCH   5   6
ATOM      6  C   UNL     1       9.889   5.008  55.911  1.00  0.00    -0.003 C 
ATOM      7  C   UNL     1       9.430   6.392  55.455  1.00  0.00     0.004 C 
ENDBRANCH   5   6
ENDBRANCH   1   5
TORSDOF 3
ENDMDL
MODEL 5
REMARK VINA RESULT:    -3.597      4.237      5.926
REMARK INTER + INTRA:          -4.271
REMARK INTER:                  -4.136
REMARK INTRA:                  -0.135
REMARK UNBOUND:                -0.043
REMARK SMILES CCCCC(=O)[O-]
REMARK SMILES IDX 4 1 5 2 6 3 7 4 3 5 2 6 1 7
REMARK H PARENT
REMARK Flexibility Score: inf
ROOT
ATOM      1  C   UNL     1      10.985   3.255  54.441  1.00  0.00     0.053 C 
ENDROOT
BRANCH   1   2
ATOM      2  C   UNL     1      12.069   4.190  54.001  1.00  0.00     0.041 C 
ATOM      3  O   UNL     1      11.923   4.887  52.963  1.00  0.00    -0.550 OA
ATOM      4  O   UNL     1      13.227   4.315  54.756  1.00  0.00    -0.550 OA
ENDBRANCH   1   2
BRANCH   1   5
ATOM      5  C   UNL     1       9.716   4.008  54.871  1.00  0.00     0.006 C 
BRANCH   5   6
ATOM      6  C   UNL     1       9.962   5.109  55.917  1.00  0.00    -0.003 C 
ATOM      7  C   UNL     1       9.469   6.482  55.461  1.00  0.00     0.004 C 
ENDBRANCH   5   6
ENDBRANCH   1   5
TORSDOF 3
ENDMDL
MODEL 6
REMARK VINA RESULT:    -3.540      4.153      5.069
REMARK INTER + INTRA:          -4.204
REMARK INTER:                  -4.096
REMARK INTRA:                  -0.108
REMARK UNBOUND:                -0.043
REMARK SMILES CCCCC(=O)[O-]
REMARK SMILES IDX 4 1 5 2 6 3 7 4 3 5 2 6 1 7
REMARK H PARENT
REMARK Flexibility Score: inf
ROOT
ATOM      1  C   UNL     1      11.817   3.389  55.455  1.00  0.00     0.053 C 
ENDROOT
BRANCH   1   2
ATOM      2  C   UNL     1      11.176   4.281  56.473  1.00  0.00     0.041 C 
ATOM      3  O   UNL     1      10.300   5.114  56.123  1.00  0.00    -0.550 OA
ATOM      4  O   UNL     1      11.525   4.169  57.812  1.00  0.00    -0.550 OA
ENDBRANCH   1   2
BRANCH   1   5
ATOM      5  C   UNL     1      11.128   3.492  54.085  1.00  0.00     0.006 C 
BRANCH   5   6
ATOM      6  C   UNL     1      12.038   4.020  52.961  1.00  0.00    -0.003 C 
ATOM      7  C   UNL     1      12.083   5.546  52.902  1.00  0.00     0.004 C 
ENDBRANCH   5   6
ENDBRANCH   1   5
TORSDOF 3
ENDMDL
MODEL 7
REMARK VINA RESULT:    -3.513     12.395     13.745
REMARK INTER + INTRA:          -4.172
REMARK INTER:                  -4.143
REMARK INTRA:                  -0.030
REMARK UNBOUND:                -0.043
REMARK SMILES CCCCC(=O)[O-]
REMARK SMILES IDX 4 1 5 2 6 3 7 4 3 5 2 6 1 7
REMARK H PARENT
REMARK Flexibility Score: inf
ROOT
ATOM      1  C   UNL     1      23.156  -7.830  55.374  1.00  0.00     0.053 C 
ENDROOT
BRANCH   1   2
ATOM      2  C   UNL     1      22.959  -7.211  54.024  1.00  0.00     0.041 C 
ATOM      3  O   UNL     1      23.728  -7.505  53.072  1.00  0.00    -0.550 OA
ATOM      4  O   UNL     1      21.905  -6.332  53.810  1.00  0.00    -0.550 OA
ENDBRANCH   1   2
BRANCH   1   5
ATOM      5  C   UNL     1      24.539  -7.503  55.959  1.00  0.00     0.006 C 
BRANCH   5   6
ATOM      6  C   UNL     1      25.581  -8.620  55.773  1.00  0.00    -0.003 C 
ATOM      7  C   UNL     1      26.604  -8.673  56.907  1.00  0.00     0.004 C 
ENDBRANCH   5   6
ENDBRANCH   1   5
TORSDOF 3
ENDMDL
MODEL 8
REMARK VINA RESULT:    -3.483      3.297      4.603
REMARK INTER + INTRA:          -4.137
REMARK INTER:                  -4.038
REMARK INTRA:                  -0.099
REMARK UNBOUND:                -0.043
REMARK SMILES CCCCC(=O)[O-]
REMARK SMILES IDX 4 1 5 2 6 3 7 4 3 5 2 6 1 7
REMARK H PARENT
REMARK Flexibility Score: inf
ROOT
ATOM      1  C   UNL     1      11.525   4.213  55.495  1.00  0.00     0.053 C 
ENDROOT
BRANCH   1   2
ATOM      2  C   UNL     1      12.685   3.533  56.155  1.00  0.00     0.041 C 
ATOM      3  O   UNL     1      12.493   2.564  56.934  1.00  0.00    -0.550 OA
ATOM      4  O   UNL     1      13.981   3.951  55.883  1.00  0.00    -0.550 OA
ENDBRANCH   1   2
BRANCH   1   5
ATOM      5  C   UNL     1      11.180   3.575  54.140  1.00  0.00     0.006 C 
BRANCH   5   6
ATOM      6  C   UNL     1      12.066   4.053  52.976  1.00  0.00    -0.003 C 
ATOM      7  C   UNL     1      12.195   5.575  52.914  1.00  0.00     0.004 C 
ENDBRANCH   5   6
ENDBRANCH   1   5
TORSDOF 3
ENDMDL
MODEL 9
REMARK VINA RESULT:    -3.454      4.402      6.442
REMARK INTER + INTRA:          -4.103
REMARK INTER:                  -4.019
REMARK INTRA:                  -0.084
REMARK UNBOUND:                -0.043
REMARK SMILES CCCCC(=O)[O-]
REMARK SMILES IDX 4 1 5 2 6 3 7 4 3 5 2 6 1 7
REMARK H PARENT
REMARK Flexibility Score: inf
ROOT
ATOM      1  C   UNL     1      10.855   4.476  56.143  1.00  0.00     0.053 C 
ENDROOT
BRANCH   1   2
ATOM      2  C   UNL     1      11.430   3.873  54.898  1.00  0.00     0.041 C 
ATOM      3  O   UNL     1      12.593   4.179  54.524  1.00  0.00    -0.550 OA
ATOM      4  O   UNL     1      10.693   2.950  54.169  1.00  0.00    -0.550 OA
ENDBRANCH   1   2
BRANCH   1   5
ATOM      5  C   UNL     1       9.512   5.173  55.876  1.00  0.00     0.006 C 
BRANCH   5   6
ATOM      6  C   UNL     1       9.585   6.303  54.834  1.00  0.00    -0.003 C 
ATOM      7  C   UNL     1       9.066   7.638  55.367  1.00  0.00     0.004 C 
ENDBRANCH   5   6
ENDBRANCH   1   5
TORSDOF 3
ENDMDL
