MODEL 1
REMARK VINA RESULT:    -8.499      0.000      0.000
REMARK INTER + INTRA:         -15.317
REMARK INTER:                 -13.964
REMARK INTRA:                  -1.353
REMARK UNBOUND:                -1.353
REMARK SMILES C[C@H]1O[C@@H](OC[C@@H]2O[C@H](Oc3c(-c4ccc(O)c(O)c4)oc4cc(O)cc(O)c4c3=O)[C@H](O)[C@H](O)[C@@H]2O)[C@@H](O)[C@H](O)[C@H]1O
REMARK SMILES IDX 7 1 36 2 34 3 32 4 9 5 8 6 6 7 5 8 4 9 1 10 2 11 42 12 3 13
REMARK SMILES IDX 40 14 38 15 43 16 41 18 39 20 37 22 35 24 10 26 11 27 12 28
REMARK SMILES IDX 30 29 21 30 29 31 31 32 22 33 27 34 23 35 26 36 24 37 13 38
REMARK SMILES IDX 20 39 14 40 18 41 15 42 16 43 19 44 17 46 28 48 25 50 33 52
REMARK H PARENT 43 17 41 19 39 21 37 23 35 25 19 45 17 47 28 49 25 51 33 53
REMARK Flexibility Score: inf
ROOT
ATOM      1  C   UNL     1      52.693  18.401  61.040  1.00  0.00     0.180 C 
ATOM      2  C   UNL     1      52.028  17.119  61.617  1.00  0.00     0.177 C 
ATOM      3  C   UNL     1      53.097  16.016  61.744  1.00  0.00     0.180 C 
ATOM      4  C   UNL     1      53.807  15.731  60.397  1.00  0.00     0.214 C 
ATOM      5  C   UNL     1      53.719  16.935  59.426  1.00  0.00     0.339 C 
ATOM      6  O   UNL     1      53.756  18.181  60.112  1.00  0.00    -0.332 OA
ENDROOT
BRANCH   1   7
ATOM      7  C   UNL     1      51.678  19.406  60.470  1.00  0.00     0.198 C 
BRANCH   7   8
ATOM      8  O   UNL     1      50.631  19.605  61.398  1.00  0.00    -0.347 OA
BRANCH   8   9
ATOM      9  C   UNL     1      51.151  19.921  62.680  1.00  0.00     0.281 C 
ATOM     10  C   UNL     1      48.446  18.399  62.808  1.00  0.00     0.041 C 
ATOM     11  C   UNL     1      49.277  19.090  63.907  1.00  0.00     0.150 C 
ATOM     12  C   UNL     1      48.806  20.528  64.251  1.00  0.00     0.174 C 
ATOM     13  O   UNL     1      50.678  19.008  63.662  1.00  0.00    -0.344 OA
ATOM     14  C   UNL     1      49.301  21.539  63.214  1.00  0.00     0.179 C 
ATOM     15  C   UNL     1      50.814  21.378  63.037  1.00  0.00     0.202 C 
BRANCH  12  16
ATOM     16  O   UNL     1      47.401  20.590  64.338  1.00  0.00    -0.388 OA
ATOM     17  H   UNL     1      47.179  21.399  64.865  1.00  0.00     0.211 HD
ENDBRANCH  12  16
BRANCH  14  18
ATOM     18  O   UNL     1      49.008  22.838  63.664  1.00  0.00    -0.387 OA
ATOM     19  H   UNL     1      48.596  23.326  62.906  1.00  0.00     0.211 HD
ENDBRANCH  14  18
BRANCH  15  20
ATOM     20  O   UNL     1      51.263  22.237  62.017  1.00  0.00    -0.385 OA
ATOM     21  H   UNL     1      51.119  21.759  61.159  1.00  0.00     0.211 HD
ENDBRANCH  15  20
ENDBRANCH   8   9
ENDBRANCH   7   8
ENDBRANCH   1   7
BRANCH   2  22
ATOM     22  O   UNL     1      50.969  16.687  60.796  1.00  0.00    -0.387 OA
ATOM     23  H   UNL     1      51.288  15.909  60.270  1.00  0.00     0.211 HD
ENDBRANCH   2  22
BRANCH   3  24
ATOM     24  O   UNL     1      52.591  14.840  62.331  1.00  0.00    -0.387 OA
ATOM     25  H   UNL     1      51.604  14.883  62.336  1.00  0.00     0.211 HD
ENDBRANCH   3  24
BRANCH   5  26
ATOM     26  O   UNL     1      52.568  16.817  58.587  1.00  0.00    -0.454 OA
BRANCH  26  27
ATOM     27  C   UNL     1      52.527  16.427  57.238  1.00  0.00     0.214 A 
ATOM     28  C   UNL     1      52.701  17.426  56.269  1.00  0.00     0.180 A 
ATOM     29  C   UNL     1      52.420  15.087  56.801  1.00  0.00     0.239 A 
ATOM     30  O   UNL     1      52.901  17.106  54.998  1.00  0.00    -0.452 OA
ATOM     31  C   UNL     1      52.672  14.781  55.447  1.00  0.00     0.111 A 
ATOM     32  O   UNL     1      52.113  14.179  57.615  1.00  0.00    -0.285 OA
ATOM     33  C   UNL     1      52.923  15.853  54.561  1.00  0.00     0.146 A 
ATOM     34  C   UNL     1      52.730  13.455  54.959  1.00  0.00     0.134 A 
ATOM     35  C   UNL     1      53.207  15.600  53.213  1.00  0.00     0.094 A 
ATOM     36  C   UNL     1      53.032  13.224  53.610  1.00  0.00     0.093 A 
ATOM     37  C   UNL     1      53.282  14.291  52.739  1.00  0.00     0.123 A 
BRANCH  28  38
ATOM     38  C   UNL     1      52.709  18.843  56.662  1.00  0.00     0.025 A 
ATOM     39  C   UNL     1      53.908  19.464  57.035  1.00  0.00     0.062 A 
ATOM     40  C   UNL     1      51.512  19.574  56.689  1.00  0.00     0.016 A 
ATOM     41  C   UNL     1      53.907  20.789  57.493  1.00  0.00     0.158 A 
ATOM     42  C   UNL     1      51.516  20.910  57.094  1.00  0.00     0.051 A 
ATOM     43  C   UNL     1      52.706  21.523  57.510  1.00  0.00     0.157 A 
BRANCH  41  44
ATOM     44  O   UNL     1      55.093  21.388  57.925  1.00  0.00    -0.504 OA
ATOM     45  H   UNL     1      55.253  22.384  57.815  1.00  0.00     0.293 HD
ENDBRANCH  41  44
BRANCH  43  46
ATOM     46  O   UNL     1      52.674  22.855  57.918  1.00  0.00    -0.504 OA
ATOM     47  H   UNL     1      53.406  23.243  58.506  1.00  0.00     0.293 HD
ENDBRANCH  43  46
ENDBRANCH  28  38
BRANCH  34  48
ATOM     48  O   UNL     1      52.514  12.368  55.806  1.00  0.00    -0.507 OA
ATOM     49  H   UNL     1      53.258  11.978  56.372  1.00  0.00     0.293 HD
ENDBRANCH  34  48
BRANCH  37  50
ATOM     50  O   UNL     1      53.617  14.053  51.407  1.00  0.00    -0.508 OA
ATOM     51  H   UNL     1      54.020  14.784  50.838  1.00  0.00     0.293 HD
ENDBRANCH  37  50
ENDBRANCH  26  27
ENDBRANCH   5  26
BRANCH   4  52
ATOM     52  O   UNL     1      53.282  14.582  59.772  1.00  0.00    -0.384 OA
ATOM     53  H   UNL     1      53.816  13.811  60.094  1.00  0.00     0.211 HD
ENDBRANCH   4  52
TORSDOF 16
ENDMDL
MODEL 2
REMARK VINA RESULT:    -7.694      2.265      8.565
REMARK INTER + INTRA:         -13.995
REMARK INTER:                 -11.649
REMARK INTRA:                  -2.346
REMARK UNBOUND:                -1.353
REMARK SMILES C[C@H]1O[C@@H](OC[C@@H]2O[C@H](Oc3c(-c4ccc(O)c(O)c4)oc4cc(O)cc(O)c4c3=O)[C@H](O)[C@H](O)[C@@H]2O)[C@@H](O)[C@H](O)[C@H]1O
REMARK SMILES IDX 7 1 36 2 34 3 32 4 9 5 8 6 6 7 5 8 4 9 1 10 2 11 42 12 3 13
REMARK SMILES IDX 40 14 38 15 43 16 41 18 39 20 37 22 35 24 10 26 11 27 12 28
REMARK SMILES IDX 30 29 21 30 29 31 31 32 22 33 27 34 23 35 26 36 24 37 13 38
REMARK SMILES IDX 20 39 14 40 18 41 15 42 16 43 19 44 17 46 28 48 25 50 33 52
REMARK H PARENT 43 17 41 19 39 21 37 23 35 25 19 45 17 47 28 49 25 51 33 53
REMARK Flexibility Score: inf
ROOT
ATOM      1  C   UNL     1      50.603  17.309  59.451  1.00  0.00     0.180 C 
ATOM      2  C   UNL     1      52.149  17.157  59.385  1.00  0.00     0.177 C 
ATOM      3  C   UNL     1      52.661  16.663  60.753  1.00  0.00     0.180 C 
ATOM      4  C   UNL     1      52.231  17.596  61.911  1.00  0.00     0.214 C 
ATOM      5  C   UNL     1      50.974  18.429  61.552  1.00  0.00     0.339 C 
ATOM      6  O   UNL     1      50.075  17.710  60.716  1.00  0.00    -0.332 OA
ENDROOT
BRANCH   1   7
ATOM      7  C   UNL     1      50.032  18.187  58.325  1.00  0.00     0.198 C 
BRANCH   7   8
ATOM      8  O   UNL     1      50.749  17.956  57.129  1.00  0.00    -0.347 OA
BRANCH   8   9
ATOM      9  C   UNL     1      50.064  17.024  56.306  1.00  0.00     0.281 C 
ATOM     10  C   UNL     1      53.153  16.722  56.172  1.00  0.00     0.041 C 
ATOM     11  C   UNL     1      52.031  16.071  55.340  1.00  0.00     0.150 C 
ATOM     12  C   UNL     1      51.758  16.772  53.982  1.00  0.00     0.174 C 
ATOM     13  O   UNL     1      50.845  15.854  56.100  1.00  0.00    -0.344 OA
ATOM     14  C   UNL     1      50.915  18.037  54.167  1.00  0.00     0.179 C 
ATOM     15  C   UNL     1      49.664  17.693  54.980  1.00  0.00     0.202 C 
BRANCH  12  16
ATOM     16  O   UNL     1      52.966  17.100  53.334  1.00  0.00    -0.388 OA
ATOM     17  H   UNL     1      52.737  17.347  52.402  1.00  0.00     0.211 HD
ENDBRANCH  12  16
BRANCH  14  18
ATOM     18  O   UNL     1      50.544  18.530  52.904  1.00  0.00    -0.387 OA
ATOM     19  H   UNL     1      51.235  19.184  52.629  1.00  0.00     0.211 HD
ENDBRANCH  14  18
BRANCH  15  20
ATOM     20  O   UNL     1      48.932  18.866  55.237  1.00  0.00    -0.385 OA
ATOM     21  H   UNL     1      48.180  18.608  55.832  1.00  0.00     0.211 HD
ENDBRANCH  15  20
ENDBRANCH   8   9
ENDBRANCH   7   8
ENDBRANCH   1   7
BRANCH   2  22
ATOM     22  O   UNL     1      52.762  18.377  59.041  1.00  0.00    -0.387 OA
ATOM     23  H   UNL     1      53.369  18.634  59.782  1.00  0.00     0.211 HD
ENDBRANCH   2  22
BRANCH   3  24
ATOM     24  O   UNL     1      54.050  16.427  60.755  1.00  0.00    -0.387 OA
ATOM     25  H   UNL     1      54.353  16.287  59.826  1.00  0.00     0.211 HD
ENDBRANCH   3  24
BRANCH   5  26
ATOM     26  O   UNL     1      51.353  19.683  60.981  1.00  0.00    -0.454 OA
BRANCH  26  27
ATOM     27  C   UNL     1      51.346  20.944  61.601  1.00  0.00     0.214 A 
ATOM     28  C   UNL     1      51.630  22.060  60.802  1.00  0.00     0.180 A 
ATOM     29  C   UNL     1      50.977  21.165  62.947  1.00  0.00     0.239 A 
ATOM     30  O   UNL     1      51.420  23.288  61.257  1.00  0.00    -0.452 OA
ATOM     31  C   UNL     1      50.730  22.484  63.387  1.00  0.00     0.111 A 
ATOM     32  O   UNL     1      50.860  20.195  63.739  1.00  0.00    -0.285 OA
ATOM     33  C   UNL     1      50.964  23.540  62.479  1.00  0.00     0.146 A 
ATOM     34  C   UNL     1      50.217  22.779  64.671  1.00  0.00     0.134 A 
ATOM     35  C   UNL     1      50.708  24.863  62.857  1.00  0.00     0.094 A 
ATOM     36  C   UNL     1      49.951  24.110  65.024  1.00  0.00     0.093 A 
ATOM     37  C   UNL     1      50.184  25.150  64.117  1.00  0.00     0.123 A 
BRANCH  28  38
ATOM     38  C   UNL     1      52.123  21.880  59.428  1.00  0.00     0.025 A 
ATOM     39  C   UNL     1      51.230  21.574  58.394  1.00  0.00     0.062 A 
ATOM     40  C   UNL     1      53.494  21.988  59.151  1.00  0.00     0.016 A 
ATOM     41  C   UNL     1      51.705  21.316  57.100  1.00  0.00     0.158 A 
ATOM     42  C   UNL     1      53.964  21.783  57.853  1.00  0.00     0.051 A 
ATOM     43  C   UNL     1      53.080  21.434  56.823  1.00  0.00     0.157 A 
BRANCH  41  44
ATOM     44  O   UNL     1      50.820  20.949  56.083  1.00  0.00    -0.504 OA
ATOM     45  H   UNL     1      50.049  20.312  56.257  1.00  0.00     0.293 HD
ENDBRANCH  41  44
BRANCH  43  46
ATOM     46  O   UNL     1      53.583  21.227  55.540  1.00  0.00    -0.504 OA
ATOM     47  H   UNL     1      54.333  20.563  55.370  1.00  0.00     0.293 HD
ENDBRANCH  43  46
ENDBRANCH  28  38
BRANCH  34  48
ATOM     48  O   UNL     1      49.947  21.764  65.589  1.00  0.00    -0.507 OA
ATOM     49  H   UNL     1      49.177  21.828  66.242  1.00  0.00     0.293 HD
ENDBRANCH  34  48
BRANCH  37  50
ATOM     50  O   UNL     1      49.885  26.467  64.461  1.00  0.00    -0.508 OA
ATOM     51  H   UNL     1      49.064  26.684  65.010  1.00  0.00     0.293 HD
ENDBRANCH  37  50
ENDBRANCH  26  27
ENDBRANCH   5  26
BRANCH   4  52
ATOM     52  O   UNL     1      53.277  18.461  62.291  1.00  0.00    -0.384 OA
ATOM     53  H   UNL     1      54.126  17.990  62.086  1.00  0.00     0.211 HD
ENDBRANCH   4  52
TORSDOF 16
ENDMDL
MODEL 3
REMARK VINA RESULT:    -7.515      2.045      4.787
REMARK INTER + INTRA:         -13.701
REMARK INTER:                 -12.935
REMARK INTRA:                  -0.765
REMARK UNBOUND:                -1.353
REMARK SMILES C[C@H]1O[C@@H](OC[C@@H]2O[C@H](Oc3c(-c4ccc(O)c(O)c4)oc4cc(O)cc(O)c4c3=O)[C@H](O)[C@H](O)[C@@H]2O)[C@@H](O)[C@H](O)[C@H]1O
REMARK SMILES IDX 7 1 36 2 34 3 32 4 9 5 8 6 6 7 5 8 4 9 1 10 2 11 42 12 3 13
REMARK SMILES IDX 40 14 38 15 43 16 41 18 39 20 37 22 35 24 10 26 11 27 12 28
REMARK SMILES IDX 30 29 21 30 29 31 31 32 22 33 27 34 23 35 26 36 24 37 13 38
REMARK SMILES IDX 20 39 14 40 18 41 15 42 16 43 19 44 17 46 28 48 25 50 33 52
REMARK H PARENT 43 17 41 19 39 21 37 23 35 25 19 45 17 47 28 49 25 51 33 53
REMARK Flexibility Score: inf
ROOT
ATOM      1  C   UNL     1      51.636  21.165  59.759  1.00  0.00     0.180 C 
ATOM      2  C   UNL     1      52.797  21.907  59.037  1.00  0.00     0.177 C 
ATOM      3  C   UNL     1      52.366  22.217  57.589  1.00  0.00     0.180 C 
ATOM      4  C   UNL     1      51.939  20.943  56.820  1.00  0.00     0.214 C 
ATOM      5  C   UNL     1      51.497  19.806  57.775  1.00  0.00     0.339 C 
ATOM      6  O   UNL     1      50.846  20.305  58.938  1.00  0.00    -0.332 OA
ENDROOT
BRANCH   1   7
ATOM      7  C   UNL     1      52.086  20.432  61.034  1.00  0.00     0.198 C 
BRANCH   7   8
ATOM      8  O   UNL     1      50.954  19.989  61.755  1.00  0.00    -0.347 OA
BRANCH   8   9
ATOM      9  C   UNL     1      51.191  20.059  63.153  1.00  0.00     0.281 C 
ATOM     10  C   UNL     1      48.586  18.525  62.438  1.00  0.00     0.041 C 
ATOM     11  C   UNL     1      49.147  18.999  63.793  1.00  0.00     0.150 C 
ATOM     12  C   UNL     1      48.553  20.344  64.291  1.00  0.00     0.174 C 
ATOM     13  O   UNL     1      50.571  18.973  63.831  1.00  0.00    -0.344 OA
ATOM     14  C   UNL     1      49.201  21.536  63.583  1.00  0.00     0.179 C 
ATOM     15  C   UNL     1      50.724  21.420  63.694  1.00  0.00     0.202 C 
BRANCH  12  16
ATOM     16  O   UNL     1      47.158  20.380  64.097  1.00  0.00    -0.388 OA
ATOM     17  H   UNL     1      46.831  19.447  64.167  1.00  0.00     0.211 HD
ENDBRANCH  12  16
BRANCH  14  18
ATOM     18  O   UNL     1      48.766  22.725  64.194  1.00  0.00    -0.387 OA
ATOM     19  H   UNL     1      49.561  23.305  64.308  1.00  0.00     0.211 HD
ENDBRANCH  14  18
BRANCH  15  20
ATOM     20  O   UNL     1      51.330  22.459  62.965  1.00  0.00    -0.385 OA
ATOM     21  H   UNL     1      50.646  23.170  62.859  1.00  0.00     0.211 HD
ENDBRANCH  15  20
ENDBRANCH   8   9
ENDBRANCH   7   8
ENDBRANCH   1   7
BRANCH   2  22
ATOM     22  O   UNL     1      53.973  21.133  59.046  1.00  0.00    -0.387 OA
ATOM     23  H   UNL     1      53.712  20.183  59.162  1.00  0.00     0.211 HD
ENDBRANCH   2  22
BRANCH   3  24
ATOM     24  O   UNL     1      53.337  22.957  56.885  1.00  0.00    -0.387 OA
ATOM     25  H   UNL     1      54.162  23.000  57.427  1.00  0.00     0.211 HD
ENDBRANCH   3  24
BRANCH   5  26
ATOM     26  O   UNL     1      52.607  18.966  58.099  1.00  0.00    -0.454 OA
BRANCH  26  27
ATOM     27  C   UNL     1      52.586  17.592  58.390  1.00  0.00     0.214 A 
ATOM     28  C   UNL     1      52.284  16.712  57.342  1.00  0.00     0.180 A 
ATOM     29  C   UNL     1      52.944  17.040  59.641  1.00  0.00     0.239 A 
ATOM     30  O   UNL     1      52.467  15.406  57.482  1.00  0.00    -0.452 OA
ATOM     31  C   UNL     1      53.161  15.649  59.745  1.00  0.00     0.111 A 
ATOM     32  O   UNL     1      53.075  17.783  60.647  1.00  0.00    -0.285 OA
ATOM     33  C   UNL     1      52.911  14.853  58.605  1.00  0.00     0.146 A 
ATOM     34  C   UNL     1      53.661  15.037  60.917  1.00  0.00     0.134 A 
ATOM     35  C   UNL     1      53.139  13.472  58.647  1.00  0.00     0.094 A 
ATOM     36  C   UNL     1      53.899  13.656  60.933  1.00  0.00     0.093 A 
ATOM     37  C   UNL     1      53.650  12.874  59.798  1.00  0.00     0.123 A 
BRANCH  28  38
ATOM     38  C   UNL     1      51.802  17.234  56.054  1.00  0.00     0.025 A 
ATOM     39  C   UNL     1      50.439  17.498  55.868  1.00  0.00     0.062 A 
ATOM     40  C   UNL     1      52.700  17.446  54.998  1.00  0.00     0.016 A 
ATOM     41  C   UNL     1      49.962  17.914  54.616  1.00  0.00     0.158 A 
ATOM     42  C   UNL     1      52.235  17.910  53.766  1.00  0.00     0.051 A 
ATOM     43  C   UNL     1      50.867  18.135  53.561  1.00  0.00     0.157 A 
BRANCH  41  44
ATOM     44  O   UNL     1      48.595  18.117  54.413  1.00  0.00    -0.504 OA
ATOM     45  H   UNL     1      48.002  17.383  54.039  1.00  0.00     0.293 HD
ENDBRANCH  41  44
BRANCH  43  46
ATOM     46  O   UNL     1      50.435  18.588  52.316  1.00  0.00    -0.504 OA
ATOM     47  H   UNL     1      50.582  18.037  51.475  1.00  0.00     0.293 HD
ENDBRANCH  43  46
ENDBRANCH  28  38
BRANCH  34  48
ATOM     48  O   UNL     1      53.947  15.791  62.056  1.00  0.00    -0.507 OA
ATOM     49  H   UNL     1      53.416  15.684  62.911  1.00  0.00     0.293 HD
ENDBRANCH  34  48
BRANCH  37  50
ATOM     50  O   UNL     1      53.921  11.507  59.809  1.00  0.00    -0.508 OA
ATOM     51  H   UNL     1      53.805  10.951  58.973  1.00  0.00     0.293 HD
ENDBRANCH  37  50
ENDBRANCH  26  27
ENDBRANCH   5  26
BRANCH   4  52
ATOM     52  O   UNL     1      52.972  20.479  55.980  1.00  0.00    -0.384 OA
ATOM     53  H   UNL     1      52.772  20.815  55.068  1.00  0.00     0.211 HD
ENDBRANCH   4  52
TORSDOF 16
ENDMDL
MODEL 4
REMARK VINA RESULT:    -7.447      1.664      4.193
REMARK INTER + INTRA:         -13.588
REMARK INTER:                 -12.243
REMARK INTRA:                  -1.346
REMARK UNBOUND:                -1.353
REMARK SMILES C[C@H]1O[C@@H](OC[C@@H]2O[C@H](Oc3c(-c4ccc(O)c(O)c4)oc4cc(O)cc(O)c4c3=O)[C@H](O)[C@H](O)[C@@H]2O)[C@@H](O)[C@H](O)[C@H]1O
REMARK SMILES IDX 7 1 36 2 34 3 32 4 9 5 8 6 6 7 5 8 4 9 1 10 2 11 42 12 3 13
REMARK SMILES IDX 40 14 38 15 43 16 41 18 39 20 37 22 35 24 10 26 11 27 12 28
REMARK SMILES IDX 30 29 21 30 29 31 31 32 22 33 27 34 23 35 26 36 24 37 13 38
REMARK SMILES IDX 20 39 14 40 18 41 15 42 16 43 19 44 17 46 28 48 25 50 33 52
REMARK H PARENT 43 17 41 19 39 21 37 23 35 25 19 45 17 47 28 49 25 51 33 53
REMARK Flexibility Score: inf
ROOT
ATOM      1  C   UNL     1      50.239  19.453  58.112  1.00  0.00     0.180 C 
ATOM      2  C   UNL     1      51.341  20.498  57.776  1.00  0.00     0.177 C 
ATOM      3  C   UNL     1      51.074  21.072  56.370  1.00  0.00     0.180 C 
ATOM      4  C   UNL     1      50.993  19.964  55.292  1.00  0.00     0.214 C 
ATOM      5  C   UNL     1      50.627  18.586  55.898  1.00  0.00     0.339 C 
ATOM      6  O   UNL     1      49.739  18.704  57.004  1.00  0.00    -0.332 OA
ENDROOT
BRANCH   1   7
ATOM      7  C   UNL     1      50.625  18.515  59.268  1.00  0.00     0.198 C 
BRANCH   7   8
ATOM      8  O   UNL     1      50.307  19.124  60.503  1.00  0.00    -0.347 OA
BRANCH   8   9
ATOM      9  C   UNL     1      51.258  18.770  61.496  1.00  0.00     0.281 C 
ATOM     10  C   UNL     1      48.324  18.307  62.406  1.00  0.00     0.041 C 
ATOM     11  C   UNL     1      49.652  18.241  63.185  1.00  0.00     0.150 C 
ATOM     12  C   UNL     1      49.991  19.532  63.976  1.00  0.00     0.174 C 
ATOM     13  O   UNL     1      50.734  17.784  62.377  1.00  0.00    -0.344 OA
ATOM     14  C   UNL     1      50.561  20.616  63.056  1.00  0.00     0.179 C 
ATOM     15  C   UNL     1      51.722  20.029  62.247  1.00  0.00     0.202 C 
BRANCH  12  16
ATOM     16  O   UNL     1      48.852  20.028  64.640  1.00  0.00    -0.388 OA
ATOM     17  H   UNL     1      48.368  20.604  63.996  1.00  0.00     0.211 HD
ENDBRANCH  12  16
BRANCH  14  18
ATOM     18  O   UNL     1      51.019  21.688  63.840  1.00  0.00    -0.387 OA
ATOM     19  H   UNL     1      51.017  21.385  64.784  1.00  0.00     0.211 HD
ENDBRANCH  14  18
BRANCH  15  20
ATOM     20  O   UNL     1      52.190  20.988  61.331  1.00  0.00    -0.385 OA
ATOM     21  H   UNL     1      51.464  21.656  61.222  1.00  0.00     0.211 HD
ENDBRANCH  15  20
ENDBRANCH   8   9
ENDBRANCH   7   8
ENDBRANCH   1   7
BRANCH   2  22
ATOM     22  O   UNL     1      52.622  19.916  57.835  1.00  0.00    -0.387 OA
ATOM     23  H   UNL     1      52.867  19.815  58.791  1.00  0.00     0.211 HD
ENDBRANCH   2  22
BRANCH   3  24
ATOM     24  O   UNL     1      51.989  22.083  56.018  1.00  0.00    -0.387 OA
ATOM     25  H   UNL     1      52.309  22.526  56.841  1.00  0.00     0.211 HD
ENDBRANCH   3  24
BRANCH   5  26
ATOM     26  O   UNL     1      51.810  17.858  56.234  1.00  0.00    -0.454 OA
BRANCH  26  27
ATOM     27  C   UNL     1      52.193  16.586  55.777  1.00  0.00     0.214 A 
ATOM     28  C   UNL     1      52.814  15.728  56.695  1.00  0.00     0.180 A 
ATOM     29  C   UNL     1      51.906  16.086  54.487  1.00  0.00     0.239 A 
ATOM     30  O   UNL     1      52.996  14.447  56.406  1.00  0.00    -0.452 OA
ATOM     31  C   UNL     1      52.081  14.710  54.226  1.00  0.00     0.111 A 
ATOM     32  O   UNL     1      51.491  16.859  53.586  1.00  0.00    -0.285 OA
ATOM     33  C   UNL     1      52.636  13.908  55.247  1.00  0.00     0.146 A 
ATOM     34  C   UNL     1      51.681  14.104  53.013  1.00  0.00     0.134 A 
ATOM     35  C   UNL     1      52.803  12.532  55.049  1.00  0.00     0.094 A 
ATOM     36  C   UNL     1      51.841  12.722  52.841  1.00  0.00     0.093 A 
ATOM     37  C   UNL     1      52.390  11.933  53.859  1.00  0.00     0.123 A 
BRANCH  28  38
ATOM     38  C   UNL     1      53.232  16.232  58.012  1.00  0.00     0.025 A 
ATOM     39  C   UNL     1      52.830  15.570  59.179  1.00  0.00     0.062 A 
ATOM     40  C   UNL     1      54.015  17.392  58.108  1.00  0.00     0.016 A 
ATOM     41  C   UNL     1      53.153  16.095  60.439  1.00  0.00     0.158 A 
ATOM     42  C   UNL     1      54.383  17.887  59.360  1.00  0.00     0.051 A 
ATOM     43  C   UNL     1      53.946  17.254  60.531  1.00  0.00     0.157 A 
BRANCH  41  44
ATOM     44  O   UNL     1      52.698  15.470  61.603  1.00  0.00    -0.504 OA
ATOM     45  H   UNL     1      53.331  14.955  62.207  1.00  0.00     0.293 HD
ENDBRANCH  41  44
BRANCH  43  46
ATOM     46  O   UNL     1      54.323  17.780  61.766  1.00  0.00    -0.504 OA
ATOM     47  H   UNL     1      54.614  18.749  61.858  1.00  0.00     0.293 HD
ENDBRANCH  43  46
ENDBRANCH  28  38
BRANCH  34  48
ATOM     48  O   UNL     1      51.105  14.856  51.989  1.00  0.00    -0.507 OA
ATOM     49  H   UNL     1      51.051  15.865  52.036  1.00  0.00     0.293 HD
ENDBRANCH  34  48
BRANCH  37  50
ATOM     50  O   UNL     1      52.515  10.554  53.695  1.00  0.00    -0.508 OA
ATOM     51  H   UNL     1      51.814   9.926  54.064  1.00  0.00     0.293 HD
ENDBRANCH  37  50
ENDBRANCH  26  27
ENDBRANCH   5  26
BRANCH   4  52
ATOM     52  O   UNL     1      52.200  19.857  54.572  1.00  0.00    -0.384 OA
ATOM     53  H   UNL     1      52.103  19.079  53.964  1.00  0.00     0.211 HD
ENDBRANCH   4  52
TORSDOF 16
ENDMDL
MODEL 5
REMARK VINA RESULT:    -7.364      2.366      3.764
REMARK INTER + INTRA:         -13.453
REMARK INTER:                 -11.509
REMARK INTRA:                  -1.944
REMARK UNBOUND:                -1.353
REMARK SMILES C[C@H]1O[C@@H](OC[C@@H]2O[C@H](Oc3c(-c4ccc(O)c(O)c4)oc4cc(O)cc(O)c4c3=O)[C@H](O)[C@H](O)[C@@H]2O)[C@@H](O)[C@H](O)[C@H]1O
REMARK SMILES IDX 7 1 36 2 34 3 32 4 9 5 8 6 6 7 5 8 4 9 1 10 2 11 42 12 3 13
REMARK SMILES IDX 40 14 38 15 43 16 41 18 39 20 37 22 35 24 10 26 11 27 12 28
REMARK SMILES IDX 30 29 21 30 29 31 31 32 22 33 27 34 23 35 26 36 24 37 13 38
REMARK SMILES IDX 20 39 14 40 18 41 15 42 16 43 19 44 17 46 28 48 25 50 33 52
REMARK H PARENT 43 17 41 19 39 21 37 23 35 25 19 45 17 47 28 49 25 51 33 53
REMARK Flexibility Score: inf
ROOT
ATOM      1  C   UNL     1      49.844  17.770  58.024  1.00  0.00     0.180 C 
ATOM      2  C   UNL     1      49.112  19.029  57.477  1.00  0.00     0.177 C 
ATOM      3  C   UNL     1      47.956  18.576  56.563  1.00  0.00     0.180 C 
ATOM      4  C   UNL     1      48.442  17.658  55.415  1.00  0.00     0.214 C 
ATOM      5  C   UNL     1      49.783  16.959  55.756  1.00  0.00     0.339 C 
ATOM      6  O   UNL     1      49.890  16.649  57.141  1.00  0.00    -0.332 OA
ENDROOT
BRANCH   1   7
ATOM      7  C   UNL     1      51.245  18.078  58.580  1.00  0.00     0.198 C 
BRANCH   7   8
ATOM      8  O   UNL     1      51.140  18.970  59.671  1.00  0.00    -0.347 OA
BRANCH   8   9
ATOM      9  C   UNL     1      52.047  18.609  60.702  1.00  0.00     0.281 C 
ATOM     10  C   UNL     1      49.125  17.730  61.290  1.00  0.00     0.041 C 
ATOM     11  C   UNL     1      50.388  17.718  62.174  1.00  0.00     0.150 C 
ATOM     12  C   UNL     1      50.511  18.939  63.125  1.00  0.00     0.174 C 
ATOM     13  O   UNL     1      51.575  17.477  61.424  1.00  0.00    -0.344 OA
ATOM     14  C   UNL     1      51.020  20.176  62.380  1.00  0.00     0.179 C 
ATOM     15  C   UNL     1      52.300  19.816  61.621  1.00  0.00     0.202 C 
BRANCH  12  16
ATOM     16  O   UNL     1      49.273  19.229  63.733  1.00  0.00    -0.388 OA
ATOM     17  H   UNL     1      48.913  20.037  63.287  1.00  0.00     0.211 HD
ENDBRANCH  12  16
BRANCH  14  18
ATOM     18  O   UNL     1      51.286  21.194  63.312  1.00  0.00    -0.387 OA
ATOM     19  H   UNL     1      52.158  20.985  63.734  1.00  0.00     0.211 HD
ENDBRANCH  14  18
BRANCH  15  20
ATOM     20  O   UNL     1      52.722  20.919  60.858  1.00  0.00    -0.385 OA
ATOM     21  H   UNL     1      52.670  20.643  59.906  1.00  0.00     0.211 HD
ENDBRANCH  15  20
ENDBRANCH   8   9
ENDBRANCH   7   8
ENDBRANCH   1   7
BRANCH   2  22
ATOM     22  O   UNL     1      50.001  19.862  56.771  1.00  0.00    -0.387 OA
ATOM     23  H   UNL     1      50.660  19.284  56.309  1.00  0.00     0.211 HD
ENDBRANCH   2  22
BRANCH   3  24
ATOM     24  O   UNL     1      47.193  19.659  56.084  1.00  0.00    -0.387 OA
ATOM     25  H   UNL     1      46.634  20.008  56.819  1.00  0.00     0.211 HD
ENDBRANCH   3  24
BRANCH   5  26
ATOM     26  O   UNL     1      50.885  17.743  55.294  1.00  0.00    -0.454 OA
BRANCH  26  27
ATOM     27  C   UNL     1      51.997  17.306  54.553  1.00  0.00     0.214 A 
ATOM     28  C   UNL     1      53.191  18.027  54.692  1.00  0.00     0.180 A 
ATOM     29  C   UNL     1      52.012  16.138  53.759  1.00  0.00     0.239 A 
ATOM     30  O   UNL     1      54.329  17.548  54.210  1.00  0.00    -0.452 OA
ATOM     31  C   UNL     1      53.246  15.639  53.290  1.00  0.00     0.111 A 
ATOM     32  O   UNL     1      50.937  15.546  53.483  1.00  0.00    -0.285 OA
ATOM     33  C   UNL     1      54.410  16.395  53.555  1.00  0.00     0.146 A 
ATOM     34  C   UNL     1      53.366  14.402  52.616  1.00  0.00     0.134 A 
ATOM     35  C   UNL     1      55.662  15.929  53.136  1.00  0.00     0.094 A 
ATOM     36  C   UNL     1      54.631  13.946  52.220  1.00  0.00     0.093 A 
ATOM     37  C   UNL     1      55.780  14.700  52.489  1.00  0.00     0.123 A 
BRANCH  28  38
ATOM     38  C   UNL     1      53.202  19.306  55.418  1.00  0.00     0.025 A 
ATOM     39  C   UNL     1      53.818  19.399  56.672  1.00  0.00     0.062 A 
ATOM     40  C   UNL     1      52.576  20.434  54.868  1.00  0.00     0.016 A 
ATOM     41  C   UNL     1      53.756  20.593  57.406  1.00  0.00     0.158 A 
ATOM     42  C   UNL     1      52.559  21.639  55.573  1.00  0.00     0.051 A 
ATOM     43  C   UNL     1      53.135  21.725  56.847  1.00  0.00     0.157 A 
BRANCH  41  44
ATOM     44  O   UNL     1      54.316  20.666  58.684  1.00  0.00    -0.504 OA
ATOM     45  H   UNL     1      55.006  19.992  58.998  1.00  0.00     0.293 HD
ENDBRANCH  41  44
BRANCH  43  46
ATOM     46  O   UNL     1      53.092  22.940  57.529  1.00  0.00    -0.504 OA
ATOM     47  H   UNL     1      52.351  23.615  57.357  1.00  0.00     0.293 HD
ENDBRANCH  43  46
ENDBRANCH  28  38
BRANCH  34  48
ATOM     48  O   UNL     1      52.245  13.613  52.357  1.00  0.00    -0.507 OA
ATOM     49  H   UNL     1      51.566  13.868  51.652  1.00  0.00     0.293 HD
ENDBRANCH  34  48
BRANCH  37  50
ATOM     50  O   UNL     1      57.038  14.225  52.124  1.00  0.00    -0.508 OA
ATOM     51  H   UNL     1      57.144  13.308  51.712  1.00  0.00     0.293 HD
ENDBRANCH  37  50
ENDBRANCH  26  27
ENDBRANCH   5  26
BRANCH   4  52
ATOM     52  O   UNL     1      48.575  18.371  54.207  1.00  0.00    -0.384 OA
ATOM     53  H   UNL     1      47.660  18.627  53.923  1.00  0.00     0.211 HD
ENDBRANCH   4  52
TORSDOF 16
ENDMDL
MODEL 6
REMARK VINA RESULT:    -7.141      2.210      8.647
REMARK INTER + INTRA:         -13.087
REMARK INTER:                 -11.047
REMARK INTRA:                  -2.040
REMARK UNBOUND:                -1.353
REMARK SMILES C[C@H]1O[C@@H](OC[C@@H]2O[C@H](Oc3c(-c4ccc(O)c(O)c4)oc4cc(O)cc(O)c4c3=O)[C@H](O)[C@H](O)[C@@H]2O)[C@@H](O)[C@H](O)[C@H]1O
REMARK SMILES IDX 7 1 36 2 34 3 32 4 9 5 8 6 6 7 5 8 4 9 1 10 2 11 42 12 3 13
REMARK SMILES IDX 40 14 38 15 43 16 41 18 39 20 37 22 35 24 10 26 11 27 12 28
REMARK SMILES IDX 30 29 21 30 29 31 31 32 22 33 27 34 23 35 26 36 24 37 13 38
REMARK SMILES IDX 20 39 14 40 18 41 15 42 16 43 19 44 17 46 28 48 25 50 33 52
REMARK H PARENT 43 17 41 19 39 21 37 23 35 25 19 45 17 47 28 49 25 51 33 53
REMARK Flexibility Score: inf
ROOT
ATOM      1  C   UNL     1      50.840  17.343  59.140  1.00  0.00     0.180 C 
ATOM      2  C   UNL     1      52.377  17.152  59.284  1.00  0.00     0.177 C 
ATOM      3  C   UNL     1      52.683  16.617  60.697  1.00  0.00     0.180 C 
ATOM      4  C   UNL     1      52.119  17.539  61.806  1.00  0.00     0.214 C 
ATOM      5  C   UNL     1      50.943  18.410  61.297  1.00  0.00     0.339 C 
ATOM      6  O   UNL     1      50.152  17.732  60.329  1.00  0.00    -0.332 OA
ENDROOT
BRANCH   1   7
ATOM      7  C   UNL     1      50.451  18.258  57.966  1.00  0.00     0.198 C 
BRANCH   7   8
ATOM      8  O   UNL     1      50.524  17.536  56.753  1.00  0.00    -0.347 OA
BRANCH   8   9
ATOM      9  C   UNL     1      51.633  17.968  55.979  1.00  0.00     0.281 C 
ATOM     10  C   UNL     1      48.958  18.005  54.398  1.00  0.00     0.041 C 
ATOM     11  C   UNL     1      50.414  18.212  53.938  1.00  0.00     0.150 C 
ATOM     12  C   UNL     1      51.077  16.943  53.338  1.00  0.00     0.174 C 
ATOM     13  O   UNL     1      51.217  18.839  54.934  1.00  0.00    -0.344 OA
ATOM     14  C   UNL     1      51.540  15.983  54.437  1.00  0.00     0.179 C 
ATOM     15  C   UNL     1      52.403  16.750  55.444  1.00  0.00     0.202 C 
BRANCH  12  16
ATOM     16  O   UNL     1      50.191  16.275  52.470  1.00  0.00    -0.388 OA
ATOM     17  H   UNL     1      49.473  16.917  52.238  1.00  0.00     0.211 HD
ENDBRANCH  12  16
BRANCH  14  18
ATOM     18  O   UNL     1      52.291  14.947  53.855  1.00  0.00    -0.387 OA
ATOM     19  H   UNL     1      51.759  14.115  53.940  1.00  0.00     0.211 HD
ENDBRANCH  14  18
BRANCH  15  20
ATOM     20  O   UNL     1      52.753  15.900  56.508  1.00  0.00    -0.385 OA
ATOM     21  H   UNL     1      52.156  16.131  57.266  1.00  0.00     0.211 HD
ENDBRANCH  15  20
ENDBRANCH   8   9
ENDBRANCH   7   8
ENDBRANCH   1   7
BRANCH   2  22
ATOM     22  O   UNL     1      53.060  18.362  59.056  1.00  0.00    -0.387 OA
ATOM     23  H   UNL     1      52.899  18.955  59.835  1.00  0.00     0.211 HD
ENDBRANCH   2  22
BRANCH   3  24
ATOM     24  O   UNL     1      54.053  16.346  60.885  1.00  0.00    -0.387 OA
ATOM     25  H   UNL     1      54.495  16.303  60.003  1.00  0.00     0.211 HD
ENDBRANCH   3  24
BRANCH   5  26
ATOM     26  O   UNL     1      51.426  19.666  60.813  1.00  0.00    -0.454 OA
BRANCH  26  27
ATOM     27  C   UNL     1      51.396  20.907  61.472  1.00  0.00     0.214 A 
ATOM     28  C   UNL     1      51.674  22.050  60.710  1.00  0.00     0.180 A 
ATOM     29  C   UNL     1      51.012  21.081  62.820  1.00  0.00     0.239 A 
ATOM     30  O   UNL     1      51.444  23.260  61.201  1.00  0.00    -0.452 OA
ATOM     31  C   UNL     1      50.745  22.382  63.299  1.00  0.00     0.111 A 
ATOM     32  O   UNL     1      50.901  20.086  63.581  1.00  0.00    -0.285 OA
ATOM     33  C   UNL     1      50.974  23.469  62.425  1.00  0.00     0.146 A 
ATOM     34  C   UNL     1      50.216  22.631  64.585  1.00  0.00     0.134 A 
ATOM     35  C   UNL     1      50.696  24.776  62.841  1.00  0.00     0.094 A 
ATOM     36  C   UNL     1      49.930  23.947  64.976  1.00  0.00     0.093 A 
ATOM     37  C   UNL     1      50.158  25.018  64.104  1.00  0.00     0.123 A 
BRANCH  28  38
ATOM     38  C   UNL     1      52.182  21.918  59.336  1.00  0.00     0.025 A 
ATOM     39  C   UNL     1      51.290  21.856  58.259  1.00  0.00     0.062 A 
ATOM     40  C   UNL     1      53.562  21.830  59.101  1.00  0.00     0.016 A 
ATOM     41  C   UNL     1      51.765  21.643  56.956  1.00  0.00     0.158 A 
ATOM     42  C   UNL     1      54.041  21.671  57.799  1.00  0.00     0.051 A 
ATOM     43  C   UNL     1      53.151  21.564  56.722  1.00  0.00     0.157 A 
BRANCH  41  44
ATOM     44  O   UNL     1      50.872  21.518  55.890  1.00  0.00    -0.504 OA
ATOM     45  H   UNL     1      50.211  20.748  55.842  1.00  0.00     0.293 HD
ENDBRANCH  41  44
BRANCH  43  46
ATOM     46  O   UNL     1      53.662  21.396  55.436  1.00  0.00    -0.504 OA
ATOM     47  H   UNL     1      54.187  22.135  54.978  1.00  0.00     0.293 HD
ENDBRANCH  43  46
ENDBRANCH  28  38
BRANCH  34  48
ATOM     48  O   UNL     1      49.951  21.585  65.469  1.00  0.00    -0.507 OA
ATOM     49  H   UNL     1      49.933  21.726  66.471  1.00  0.00     0.293 HD
ENDBRANCH  34  48
BRANCH  37  50
ATOM     50  O   UNL     1      49.838  26.320  64.486  1.00  0.00    -0.508 OA
ATOM     51  H   UNL     1      49.273  26.909  63.889  1.00  0.00     0.293 HD
ENDBRANCH  37  50
ENDBRANCH  26  27
ENDBRANCH   5  26
BRANCH   4  52
ATOM     52  O   UNL     1      53.122  18.368  62.346  1.00  0.00    -0.384 OA
ATOM     53  H   UNL     1      53.636  18.732  61.580  1.00  0.00     0.211 HD
ENDBRANCH   4  52
TORSDOF 16
ENDMDL
MODEL 7
REMARK VINA RESULT:    -6.876      2.041      9.081
REMARK INTER + INTRA:         -12.650
REMARK INTER:                 -10.298
REMARK INTRA:                  -2.352
REMARK UNBOUND:                -1.353
REMARK SMILES C[C@H]1O[C@@H](OC[C@@H]2O[C@H](Oc3c(-c4ccc(O)c(O)c4)oc4cc(O)cc(O)c4c3=O)[C@H](O)[C@H](O)[C@@H]2O)[C@@H](O)[C@H](O)[C@H]1O
REMARK SMILES IDX 7 1 36 2 34 3 32 4 9 5 8 6 6 7 5 8 4 9 1 10 2 11 42 12 3 13
REMARK SMILES IDX 40 14 38 15 43 16 41 18 39 20 37 22 35 24 10 26 11 27 12 28
REMARK SMILES IDX 30 29 21 30 29 31 31 32 22 33 27 34 23 35 26 36 24 37 13 38
REMARK SMILES IDX 20 39 14 40 18 41 15 42 16 43 19 44 17 46 28 48 25 50 33 52
REMARK H PARENT 43 17 41 19 39 21 37 23 35 25 19 45 17 47 28 49 25 51 33 53
REMARK Flexibility Score: inf
ROOT
ATOM      1  C   UNL     1      53.121  20.862  56.649  1.00  0.00     0.180 C 
ATOM      2  C   UNL     1      53.201  22.407  56.806  1.00  0.00     0.177 C 
ATOM      3  C   UNL     1      54.416  22.757  57.688  1.00  0.00     0.180 C 
ATOM      4  C   UNL     1      54.363  22.048  59.064  1.00  0.00     0.214 C 
ATOM      5  C   UNL     1      53.484  20.773  59.029  1.00  0.00     0.339 C 
ATOM      6  O   UNL     1      53.559  20.103  57.776  1.00  0.00    -0.332 OA
ENDROOT
BRANCH   1   7
ATOM      7  C   UNL     1      51.744  20.372  56.170  1.00  0.00     0.198 C 
BRANCH   7   8
ATOM      8  O   UNL     1      51.840  19.032  55.731  1.00  0.00    -0.347 OA
BRANCH   8   9
ATOM      9  C   UNL     1      52.585  18.951  54.525  1.00  0.00     0.281 C 
ATOM     10  C   UNL     1      49.701  17.830  54.249  1.00  0.00     0.041 C 
ATOM     11  C   UNL     1      50.903  17.791  53.286  1.00  0.00     0.150 C 
ATOM     12  C   UNL     1      51.715  16.469  53.335  1.00  0.00     0.174 C 
ATOM     13  O   UNL     1      51.724  18.951  53.393  1.00  0.00    -0.344 OA
ATOM     14  C   UNL     1      52.656  16.438  54.543  1.00  0.00     0.179 C 
ATOM     15  C   UNL     1      53.499  17.715  54.557  1.00  0.00     0.202 C 
BRANCH  12  16
ATOM     16  O   UNL     1      50.856  15.353  53.376  1.00  0.00    -0.388 OA
ATOM     17  H   UNL     1      49.952  15.690  53.603  1.00  0.00     0.211 HD
ENDBRANCH  12  16
BRANCH  14  18
ATOM     18  O   UNL     1      53.493  15.313  54.443  1.00  0.00    -0.387 OA
ATOM     19  H   UNL     1      53.738  15.213  53.488  1.00  0.00     0.211 HD
ENDBRANCH  14  18
BRANCH  15  20
ATOM     20  O   UNL     1      54.298  17.741  55.714  1.00  0.00    -0.385 OA
ATOM     21  H   UNL     1      55.094  17.181  55.523  1.00  0.00     0.211 HD
ENDBRANCH  15  20
ENDBRANCH   8   9
ENDBRANCH   7   8
ENDBRANCH   1   7
BRANCH   2  22
ATOM     22  O   UNL     1      52.017  22.919  57.371  1.00  0.00    -0.387 OA
ATOM     23  H   UNL     1      51.541  22.169  57.812  1.00  0.00     0.211 HD
ENDBRANCH   2  22
BRANCH   3  24
ATOM     24  O   UNL     1      54.604  24.147  57.819  1.00  0.00    -0.387 OA
ATOM     25  H   UNL     1      55.528  24.372  57.555  1.00  0.00     0.211 HD
ENDBRANCH   3  24
BRANCH   5  26
ATOM     26  O   UNL     1      52.137  21.086  59.391  1.00  0.00    -0.454 OA
BRANCH  26  27
ATOM     27  C   UNL     1      51.489  20.806  60.606  1.00  0.00     0.214 A 
ATOM     28  C   UNL     1      51.371  19.462  60.983  1.00  0.00     0.180 A 
ATOM     29  C   UNL     1      51.040  21.794  61.511  1.00  0.00     0.239 A 
ATOM     30  O   UNL     1      50.981  19.135  62.208  1.00  0.00    -0.452 OA
ATOM     31  C   UNL     1      50.664  21.413  62.818  1.00  0.00     0.111 A 
ATOM     32  O   UNL     1      50.986  23.000  61.158  1.00  0.00    -0.285 OA
ATOM     33  C   UNL     1      50.659  20.035  63.129  1.00  0.00     0.146 A 
ATOM     34  C   UNL     1      50.344  22.350  63.827  1.00  0.00     0.134 A 
ATOM     35  C   UNL     1      50.322  19.607  64.419  1.00  0.00     0.094 A 
ATOM     36  C   UNL     1      50.026  21.901  65.116  1.00  0.00     0.093 A 
ATOM     37  C   UNL     1      50.025  20.534  65.418  1.00  0.00     0.123 A 
BRANCH  28  38
ATOM     38  C   UNL     1      51.722  18.394  60.034  1.00  0.00     0.025 A 
ATOM     39  C   UNL     1      50.864  18.087  58.971  1.00  0.00     0.062 A 
ATOM     40  C   UNL     1      52.906  17.662  60.204  1.00  0.00     0.016 A 
ATOM     41  C   UNL     1      51.152  17.014  58.115  1.00  0.00     0.158 A 
ATOM     42  C   UNL     1      53.221  16.627  59.321  1.00  0.00     0.051 A 
ATOM     43  C   UNL     1      52.345  16.287  58.282  1.00  0.00     0.157 A 
BRANCH  41  44
ATOM     44  O   UNL     1      50.264  16.668  57.093  1.00  0.00    -0.504 OA
ATOM     45  H   UNL     1      50.144  17.258  56.276  1.00  0.00     0.293 HD
ENDBRANCH  41  44
BRANCH  43  46
ATOM     46  O   UNL     1      52.685  15.242  57.424  1.00  0.00    -0.504 OA
ATOM     47  H   UNL     1      53.633  14.877  57.388  1.00  0.00     0.293 HD
ENDBRANCH  43  46
ENDBRANCH  28  38
BRANCH  34  48
ATOM     48  O   UNL     1      50.363  23.720  63.568  1.00  0.00    -0.507 OA
ATOM     49  H   UNL     1      49.527  24.287  63.642  1.00  0.00     0.293 HD
ENDBRANCH  34  48
BRANCH  37  50
ATOM     50  O   UNL     1      49.742  20.096  66.710  1.00  0.00    -0.508 OA
ATOM     51  H   UNL     1      49.197  20.667  67.341  1.00  0.00     0.293 HD
ENDBRANCH  37  50
ENDBRANCH  26  27
ENDBRANCH   5  26
BRANCH   4  52
ATOM     52  O   UNL     1      53.897  22.915  60.072  1.00  0.00    -0.384 OA
ATOM     53  H   UNL     1      53.002  23.233  59.786  1.00  0.00     0.211 HD
ENDBRANCH   4  52
TORSDOF 16
ENDMDL
MODEL 8
REMARK VINA RESULT:    -6.871      2.185      9.446
REMARK INTER + INTRA:         -12.643
REMARK INTER:                 -12.006
REMARK INTRA:                  -0.637
REMARK UNBOUND:                -1.353
REMARK SMILES C[C@H]1O[C@@H](OC[C@@H]2O[C@H](Oc3c(-c4ccc(O)c(O)c4)oc4cc(O)cc(O)c4c3=O)[C@H](O)[C@H](O)[C@@H]2O)[C@@H](O)[C@H](O)[C@H]1O
REMARK SMILES IDX 7 1 36 2 34 3 32 4 9 5 8 6 6 7 5 8 4 9 1 10 2 11 42 12 3 13
REMARK SMILES IDX 40 14 38 15 43 16 41 18 39 20 37 22 35 24 10 26 11 27 12 28
REMARK SMILES IDX 30 29 21 30 29 31 31 32 22 33 27 34 23 35 26 36 24 37 13 38
REMARK SMILES IDX 20 39 14 40 18 41 15 42 16 43 19 44 17 46 28 48 25 50 33 52
REMARK H PARENT 43 17 41 19 39 21 37 23 35 25 19 45 17 47 28 49 25 51 33 53
REMARK Flexibility Score: inf
ROOT
ATOM      1  C   UNL     1      53.052  20.711  57.151  1.00  0.00     0.180 C 
ATOM      2  C   UNL     1      53.141  22.257  57.011  1.00  0.00     0.177 C 
ATOM      3  C   UNL     1      54.340  22.765  57.837  1.00  0.00     0.180 C 
ATOM      4  C   UNL     1      54.252  22.333  59.322  1.00  0.00     0.214 C 
ATOM      5  C   UNL     1      53.362  21.079  59.512  1.00  0.00     0.339 C 
ATOM      6  O   UNL     1      53.459  20.180  58.413  1.00  0.00    -0.332 OA
ENDROOT
BRANCH   1   7
ATOM      7  C   UNL     1      51.681  20.144  56.744  1.00  0.00     0.198 C 
BRANCH   7   8
ATOM      8  O   UNL     1      51.854  19.118  55.788  1.00  0.00    -0.347 OA
BRANCH   8   9
ATOM      9  C   UNL     1      50.630  18.435  55.559  1.00  0.00     0.281 C 
ATOM     10  C   UNL     1      52.624  16.808  57.301  1.00  0.00     0.041 C 
ATOM     11  C   UNL     1      51.279  16.414  56.657  1.00  0.00     0.150 C 
ATOM     12  C   UNL     1      51.417  15.669  55.303  1.00  0.00     0.174 C 
ATOM     13  O   UNL     1      50.363  17.504  56.601  1.00  0.00    -0.344 OA
ATOM     14  C   UNL     1      51.702  16.643  54.157  1.00  0.00     0.179 C 
ATOM     15  C   UNL     1      50.658  17.763  54.176  1.00  0.00     0.202 C 
BRANCH  12  16
ATOM     16  O   UNL     1      52.437  14.699  55.364  1.00  0.00    -0.388 OA
ATOM     17  H   UNL     1      53.295  15.171  55.215  1.00  0.00     0.211 HD
ENDBRANCH  12  16
BRANCH  14  18
ATOM     18  O   UNL     1      51.636  15.948  52.937  1.00  0.00    -0.387 OA
ATOM     19  H   UNL     1      51.922  16.576  52.225  1.00  0.00     0.211 HD
ENDBRANCH  14  18
BRANCH  15  20
ATOM     20  O   UNL     1      50.968  18.714  53.188  1.00  0.00    -0.385 OA
ATOM     21  H   UNL     1      51.855  19.091  53.424  1.00  0.00     0.211 HD
ENDBRANCH  15  20
ENDBRANCH   8   9
ENDBRANCH   7   8
ENDBRANCH   1   7
BRANCH   2  22
ATOM     22  O   UNL     1      51.950  22.873  57.441  1.00  0.00    -0.387 OA
ATOM     23  H   UNL     1      52.189  23.734  57.871  1.00  0.00     0.211 HD
ENDBRANCH   2  22
BRANCH   3  24
ATOM     24  O   UNL     1      54.537  24.154  57.704  1.00  0.00    -0.387 OA
ATOM     25  H   UNL     1      54.778  24.354  56.767  1.00  0.00     0.211 HD
ENDBRANCH   3  24
BRANCH   5  26
ATOM     26  O   UNL     1      52.011  21.461  59.777  1.00  0.00    -0.454 OA
BRANCH  26  27
ATOM     27  C   UNL     1      51.453  21.840  61.010  1.00  0.00     0.214 A 
ATOM     28  C   UNL     1      51.379  20.865  62.015  1.00  0.00     0.180 A 
ATOM     29  C   UNL     1      51.054  23.158  61.329  1.00  0.00     0.239 A 
ATOM     30  O   UNL     1      51.081  21.202  63.261  1.00  0.00    -0.452 OA
ATOM     31  C   UNL     1      50.775  23.487  62.673  1.00  0.00     0.111 A 
ATOM     32  O   UNL     1      50.959  24.027  60.426  1.00  0.00    -0.285 OA
ATOM     33  C   UNL     1      50.811  22.449  63.630  1.00  0.00     0.146 A 
ATOM     34  C   UNL     1      50.514  24.809  63.099  1.00  0.00     0.134 A 
ATOM     35  C   UNL     1      50.570  22.729  64.981  1.00  0.00     0.094 A 
ATOM     36  C   UNL     1      50.292  25.071  64.458  1.00  0.00     0.093 A 
ATOM     37  C   UNL     1      50.331  24.037  65.401  1.00  0.00     0.123 A 
BRANCH  28  38
ATOM     38  C   UNL     1      51.678  19.459  61.704  1.00  0.00     0.025 A 
ATOM     39  C   UNL     1      53.000  19.053  61.482  1.00  0.00     0.062 A 
ATOM     40  C   UNL     1      50.639  18.523  61.603  1.00  0.00     0.016 A 
ATOM     41  C   UNL     1      53.282  17.733  61.100  1.00  0.00     0.158 A 
ATOM     42  C   UNL     1      50.922  17.196  61.276  1.00  0.00     0.051 A 
ATOM     43  C   UNL     1      52.238  16.794  61.010  1.00  0.00     0.157 A 
BRANCH  41  44
ATOM     44  O   UNL     1      54.594  17.344  60.818  1.00  0.00    -0.504 OA
ATOM     45  H   UNL     1      55.005  16.521  61.246  1.00  0.00     0.293 HD
ENDBRANCH  41  44
BRANCH  43  46
ATOM     46  O   UNL     1      52.485  15.464  60.675  1.00  0.00    -0.504 OA
ATOM     47  H   UNL     1      52.880  14.815  61.350  1.00  0.00     0.293 HD
ENDBRANCH  43  46
ENDBRANCH  28  38
BRANCH  34  48
ATOM     48  O   UNL     1      50.496  25.867  62.190  1.00  0.00    -0.507 OA
ATOM     49  H   UNL     1      50.655  25.722  61.201  1.00  0.00     0.293 HD
ENDBRANCH  34  48
BRANCH  37  50
ATOM     50  O   UNL     1      50.144  24.308  66.756  1.00  0.00    -0.508 OA
ATOM     51  H   UNL     1      50.913  24.234  67.407  1.00  0.00     0.293 HD
ENDBRANCH  37  50
ENDBRANCH  26  27
ENDBRANCH   5  26
BRANCH   4  52
ATOM     52  O   UNL     1      53.771  23.380  60.135  1.00  0.00    -0.384 OA
ATOM     53  H   UNL     1      52.856  23.594  59.816  1.00  0.00     0.211 HD
ENDBRANCH   4  52
TORSDOF 16
ENDMDL
MODEL 9
REMARK VINA RESULT:    -6.712      2.891      8.917
REMARK INTER + INTRA:         -12.381
REMARK INTER:                 -10.996
REMARK INTRA:                  -1.384
REMARK UNBOUND:                -1.353
REMARK SMILES C[C@H]1O[C@@H](OC[C@@H]2O[C@H](Oc3c(-c4ccc(O)c(O)c4)oc4cc(O)cc(O)c4c3=O)[C@H](O)[C@H](O)[C@@H]2O)[C@@H](O)[C@H](O)[C@H]1O
REMARK SMILES IDX 7 1 36 2 34 3 32 4 9 5 8 6 6 7 5 8 4 9 1 10 2 11 42 12 3 13
REMARK SMILES IDX 40 14 38 15 43 16 41 18 39 20 37 22 35 24 10 26 11 27 12 28
REMARK SMILES IDX 30 29 21 30 29 31 31 32 22 33 27 34 23 35 26 36 24 37 13 38
REMARK SMILES IDX 20 39 14 40 18 41 15 42 16 43 19 44 17 46 28 48 25 50 33 52
REMARK H PARENT 43 17 41 19 39 21 37 23 35 25 19 45 17 47 28 49 25 51 33 53
REMARK Flexibility Score: inf
ROOT
ATOM      1  C   UNL     1      52.711  16.641  53.378  1.00  0.00     0.180 C 
ATOM      2  C   UNL     1      51.183  16.787  53.131  1.00  0.00     0.177 C 
ATOM      3  C   UNL     1      50.771  18.249  53.396  1.00  0.00     0.180 C 
ATOM      4  C   UNL     1      51.165  18.719  54.818  1.00  0.00     0.214 C 
ATOM      5  C   UNL     1      52.329  17.883  55.407  1.00  0.00     0.339 C 
ATOM      6  O   UNL     1      53.253  17.470  54.406  1.00  0.00    -0.332 OA
ENDROOT
BRANCH   1   7
ATOM      7  C   UNL     1      53.158  15.182  53.569  1.00  0.00     0.198 C 
BRANCH   7   8
ATOM      8  O   UNL     1      52.812  14.423  52.427  1.00  0.00    -0.347 OA
BRANCH   8   9
ATOM      9  C   UNL     1      52.421  13.110  52.798  1.00  0.00     0.281 C 
ATOM     10  C   UNL     1      54.905  13.157  50.933  1.00  0.00     0.041 C 
ATOM     11  C   UNL     1      54.033  11.990  51.435  1.00  0.00     0.150 C 
ATOM     12  C   UNL     1      52.938  11.537  50.433  1.00  0.00     0.174 C 
ATOM     13  O   UNL     1      53.525  12.215  52.747  1.00  0.00    -0.344 OA
ATOM     14  C   UNL     1      51.731  12.478  50.464  1.00  0.00     0.179 C 
ATOM     15  C   UNL     1      51.256  12.641  51.911  1.00  0.00     0.202 C 
BRANCH  12  16
ATOM     16  O   UNL     1      53.452  11.470  49.123  1.00  0.00    -0.388 OA
ATOM     17  H   UNL     1      54.426  11.310  49.201  1.00  0.00     0.211 HD
ENDBRANCH  12  16
BRANCH  14  18
ATOM     18  O   UNL     1      50.700  11.928  49.682  1.00  0.00    -0.387 OA
ATOM     19  H   UNL     1      49.888  11.892  50.248  1.00  0.00     0.211 HD
ENDBRANCH  14  18
BRANCH  15  20
ATOM     20  O   UNL     1      50.209  13.578  51.961  1.00  0.00    -0.385 OA
ATOM     21  H   UNL     1      50.515  14.374  51.453  1.00  0.00     0.211 HD
ENDBRANCH  15  20
ENDBRANCH   8   9
ENDBRANCH   7   8
ENDBRANCH   1   7
BRANCH   2  22
ATOM     22  O   UNL     1      50.453  15.912  53.958  1.00  0.00    -0.387 OA
ATOM     23  H   UNL     1      50.392  15.035  53.497  1.00  0.00     0.211 HD
ENDBRANCH   2  22
BRANCH   3  24
ATOM     24  O   UNL     1      49.409  18.483  53.122  1.00  0.00    -0.387 OA
ATOM     25  H   UNL     1      48.878  17.725  53.467  1.00  0.00     0.211 HD
ENDBRANCH   3  24
BRANCH   5  26
ATOM     26  O   UNL     1      51.820  16.778  56.157  1.00  0.00    -0.454 OA
BRANCH  26  27
ATOM     27  C   UNL     1      52.475  16.052  57.166  1.00  0.00     0.214 A 
ATOM     28  C   UNL     1      52.662  16.686  58.403  1.00  0.00     0.180 A 
ATOM     29  C   UNL     1      52.868  14.701  57.045  1.00  0.00     0.239 A 
ATOM     30  O   UNL     1      53.061  15.996  59.462  1.00  0.00    -0.452 OA
ATOM     31  C   UNL     1      53.257  13.989  58.200  1.00  0.00     0.111 A 
ATOM     32  O   UNL     1      52.861  14.138  55.920  1.00  0.00    -0.285 OA
ATOM     33  C   UNL     1      53.332  14.697  59.420  1.00  0.00     0.146 A 
ATOM     34  C   UNL     1      53.522  12.600  58.191  1.00  0.00     0.134 A 
ATOM     35  C   UNL     1      53.685  14.030  60.600  1.00  0.00     0.094 A 
ATOM     36  C   UNL     1      53.857  11.949  59.386  1.00  0.00     0.093 A 
ATOM     37  C   UNL     1      53.928  12.657  60.591  1.00  0.00     0.123 A 
BRANCH  28  38
ATOM     38  C   UNL     1      52.371  18.121  58.549  1.00  0.00     0.025 A 
ATOM     39  C   UNL     1      53.388  19.066  58.370  1.00  0.00     0.062 A 
ATOM     40  C   UNL     1      51.080  18.547  58.894  1.00  0.00     0.016 A 
ATOM     41  C   UNL     1      53.137  20.428  58.594  1.00  0.00     0.158 A 
ATOM     42  C   UNL     1      50.814  19.907  59.065  1.00  0.00     0.051 A 
ATOM     43  C   UNL     1      51.838  20.854  58.930  1.00  0.00     0.157 A 
BRANCH  41  44
ATOM     44  O   UNL     1      54.167  21.365  58.476  1.00  0.00    -0.504 OA
ATOM     45  H   UNL     1      54.792  21.366  57.677  1.00  0.00     0.293 HD
ENDBRANCH  41  44
BRANCH  43  46
ATOM     46  O   UNL     1      51.542  22.203  59.118  1.00  0.00    -0.504 OA
ATOM     47  H   UNL     1      50.620  22.574  58.906  1.00  0.00     0.293 HD
ENDBRANCH  43  46
ENDBRANCH  28  38
BRANCH  34  48
ATOM     48  O   UNL     1      53.434  11.859  57.012  1.00  0.00    -0.507 OA
ATOM     49  H   UNL     1      52.560  11.451  56.705  1.00  0.00     0.293 HD
ENDBRANCH  34  48
BRANCH  37  50
ATOM     50  O   UNL     1      54.227  11.998  61.782  1.00  0.00    -0.508 OA
ATOM     51  H   UNL     1      55.040  12.254  62.324  1.00  0.00     0.293 HD
ENDBRANCH  37  50
ENDBRANCH  26  27
ENDBRANCH   5  26
BRANCH   4  52
ATOM     52  O   UNL     1      50.064  18.679  55.696  1.00  0.00    -0.384 OA
ATOM     53  H   UNL     1      49.364  19.264  55.306  1.00  0.00     0.211 HD
ENDBRANCH   4  52
TORSDOF 16
ENDMDL
