MODEL 1
REMARK VINA RESULT:    -3.881      0.000      0.000
REMARK INTER + INTRA:          -4.732
REMARK INTER:                  -4.449
REMARK INTRA:                  -0.283
REMARK UNBOUND:                -0.283
REMARK SMILES COC(=O)c1ccccc1O
REMARK SMILES IDX 5 1 6 2 7 3 8 4 9 5 10 6 3 7 4 8 2 9 1 10 11 11
REMARK H PARENT 11 12
REMARK Flexibility Score: inf
ROOT
ATOM      1  C   UNL     1     159.351 164.916 168.979  1.00  0.00     0.101 A 
ATOM      2  C   UNL     1     160.678 164.503 169.201  1.00  0.00     0.019 A 
ATOM      3  C   UNL     1     161.551 164.303 168.130  1.00  0.00     0.001 A 
ATOM      4  C   UNL     1     161.114 164.513 166.823  1.00  0.00     0.004 A 
ATOM      5  C   UNL     1     159.809 164.943 166.584  1.00  0.00     0.047 A 
ATOM      6  C   UNL     1     158.926 165.169 167.648  1.00  0.00     0.130 A 
ENDROOT
BRANCH   1   7
ATOM      7  C   UNL     1     158.450 165.036 170.146  1.00  0.00     0.341 C 
ATOM      8  O   UNL     1     158.680 165.892 171.044  1.00  0.00    -0.246 OA
BRANCH   7   9
ATOM      9  O   UNL     1     157.306 164.235 170.216  1.00  0.00    -0.465 OA
ATOM     10  C   UNL     1     157.348 162.822 170.063  1.00  0.00     0.282 C 
ENDBRANCH   7   9
ENDBRANCH   1   7
BRANCH   6  11
ATOM     11  O   UNL     1     157.659 165.672 167.346  1.00  0.00    -0.507 OA
ATOM     12  H   UNL     1     157.350 165.883 166.407  1.00  0.00     0.293 HD
ENDBRANCH   6  11
TORSDOF 3
ENDMDL
MODEL 2
REMARK VINA RESULT:    -3.849      8.982      9.794
REMARK INTER + INTRA:          -4.695
REMARK INTER:                  -4.405
REMARK INTRA:                  -0.290
REMARK UNBOUND:                -0.283
REMARK SMILES COC(=O)c1ccccc1O
REMARK SMILES IDX 5 1 6 2 7 3 8 4 9 5 10 6 3 7 4 8 2 9 1 10 11 11
REMARK H PARENT 11 12
REMARK Flexibility Score: inf
ROOT
ATOM      1  C   UNL     1     166.540 159.143 168.644  1.00  0.00     0.101 A 
ATOM      2  C   UNL     1     167.002 160.463 168.797  1.00  0.00     0.019 A 
ATOM      3  C   UNL     1     166.990 161.353 167.721  1.00  0.00     0.001 A 
ATOM      4  C   UNL     1     166.516 160.938 166.477  1.00  0.00     0.004 A 
ATOM      5  C   UNL     1     166.034 159.639 166.311  1.00  0.00     0.047 A 
ATOM      6  C   UNL     1     166.020 158.741 167.386  1.00  0.00     0.130 A 
ENDROOT
BRANCH   1   7
ATOM      7  C   UNL     1     166.649 158.225 169.798  1.00  0.00     0.341 C 
ATOM      8  O   UNL     1     165.611 157.775 170.357  1.00  0.00    -0.246 OA
BRANCH   7   9
ATOM      9  O   UNL     1     167.912 157.809 170.229  1.00  0.00    -0.465 OA
ATOM     10  C   UNL     1     168.877 157.246 169.348  1.00  0.00     0.282 C 
ENDBRANCH   7   9
ENDBRANCH   1   7
BRANCH   6  11
ATOM     11  O   UNL     1     165.454 157.482 167.173  1.00  0.00    -0.507 OA
ATOM     12  H   UNL     1     165.953 156.614 167.309  1.00  0.00     0.293 HD
ENDBRANCH   6  11
TORSDOF 3
ENDMDL
MODEL 3
REMARK VINA RESULT:    -3.847      8.754      9.496
REMARK INTER + INTRA:          -4.693
REMARK INTER:                  -4.393
REMARK INTRA:                  -0.300
REMARK UNBOUND:                -0.283
REMARK SMILES COC(=O)c1ccccc1O
REMARK SMILES IDX 5 1 6 2 7 3 8 4 9 5 10 6 3 7 4 8 2 9 1 10 11 11
REMARK H PARENT 11 12
REMARK Flexibility Score: inf
ROOT
ATOM      1  C   UNL     1     164.671 172.071 168.524  1.00  0.00     0.101 A 
ATOM      2  C   UNL     1     164.174 170.757 168.591  1.00  0.00     0.019 A 
ATOM      3  C   UNL     1     164.185 169.932 167.465  1.00  0.00     0.001 A 
ATOM      4  C   UNL     1     164.695 170.406 166.256  1.00  0.00     0.004 A 
ATOM      5  C   UNL     1     165.212 171.699 166.176  1.00  0.00     0.047 A 
ATOM      6  C   UNL     1     165.227 172.532 167.301  1.00  0.00     0.130 A 
ENDROOT
BRANCH   1   7
ATOM      7  C   UNL     1     164.562 172.923 169.728  1.00  0.00     0.341 C 
ATOM      8  O   UNL     1     165.600 173.351 170.305  1.00  0.00    -0.246 OA
BRANCH   7   9
ATOM      9  O   UNL     1     163.298 173.304 170.188  1.00  0.00    -0.465 OA
ATOM     10  C   UNL     1     162.353 173.979 169.367  1.00  0.00     0.282 C 
ENDBRANCH   7   9
ENDBRANCH   1   7
BRANCH   6  11
ATOM     11  O   UNL     1     165.828 173.786 167.174  1.00  0.00    -0.507 OA
ATOM     12  H   UNL     1     165.318 174.633 166.964  1.00  0.00     0.293 HD
ENDBRANCH   6  11
TORSDOF 3
ENDMDL
MODEL 4
REMARK VINA RESULT:    -3.821     12.181     13.541
REMARK INTER + INTRA:          -4.663
REMARK INTER:                  -4.359
REMARK INTRA:                  -0.304
REMARK UNBOUND:                -0.283
REMARK SMILES COC(=O)c1ccccc1O
REMARK SMILES IDX 5 1 6 2 7 3 8 4 9 5 10 6 3 7 4 8 2 9 1 10 11 11
REMARK H PARENT 11 12
REMARK Flexibility Score: inf
ROOT
ATOM      1  C   UNL     1     171.973 166.533 168.502  1.00  0.00     0.101 A 
ATOM      2  C   UNL     1     170.643 166.980 168.599  1.00  0.00     0.019 A 
ATOM      3  C   UNL     1     169.799 166.953 167.486  1.00  0.00     0.001 A 
ATOM      4  C   UNL     1     170.271 166.479 166.263  1.00  0.00     0.004 A 
ATOM      5  C   UNL     1     171.581 166.012 166.153  1.00  0.00     0.047 A 
ATOM      6  C   UNL     1     172.434 166.013 167.264  1.00  0.00     0.130 A 
ENDROOT
BRANCH   1   7
ATOM      7  C   UNL     1     172.842 166.658 169.693  1.00  0.00     0.341 C 
ATOM      8  O   UNL     1     173.438 165.648 170.157  1.00  0.00    -0.246 OA
BRANCH   7   9
ATOM      9  O   UNL     1     173.046 167.917 170.266  1.00  0.00    -0.465 OA
ATOM     10  C   UNL     1     174.041 168.820 169.801  1.00  0.00     0.282 C 
ENDBRANCH   7   9
ENDBRANCH   1   7
BRANCH   6  11
ATOM     11  O   UNL     1     173.707 165.460 167.107  1.00  0.00    -0.507 OA
ATOM     12  H   UNL     1     174.186 165.403 166.219  1.00  0.00     0.293 HD
ENDBRANCH   6  11
TORSDOF 3
ENDMDL
MODEL 5
REMARK VINA RESULT:    -3.711      7.808      8.585
REMARK INTER + INTRA:          -4.537
REMARK INTER:                  -4.228
REMARK INTRA:                  -0.309
REMARK UNBOUND:                -0.283
REMARK SMILES COC(=O)c1ccccc1O
REMARK SMILES IDX 5 1 6 2 7 3 8 4 9 5 10 6 3 7 4 8 2 9 1 10 11 11
REMARK H PARENT 11 12
REMARK Flexibility Score: inf
ROOT
ATOM      1  C   UNL     1     164.420 171.083 169.020  1.00  0.00     0.101 A 
ATOM      2  C   UNL     1     164.222 170.108 168.025  1.00  0.00     0.019 A 
ATOM      3  C   UNL     1     164.515 170.384 166.688  1.00  0.00     0.001 A 
ATOM      4  C   UNL     1     165.010 171.637 166.325  1.00  0.00     0.004 A 
ATOM      5  C   UNL     1     165.232 172.609 167.301  1.00  0.00     0.047 A 
ATOM      6  C   UNL     1     164.964 172.341 168.650  1.00  0.00     0.130 A 
ENDROOT
BRANCH   1   7
ATOM      7  C   UNL     1     164.020 170.759 170.407  1.00  0.00     0.341 C 
ATOM      8  O   UNL     1     164.874 170.759 171.335  1.00  0.00    -0.246 OA
BRANCH   7   9
ATOM      9  O   UNL     1     162.674 170.512 170.694  1.00  0.00    -0.465 OA
ATOM     10  C   UNL     1     161.658 171.491 170.516  1.00  0.00     0.282 C 
ENDBRANCH   7   9
ENDBRANCH   1   7
BRANCH   6  11
ATOM     11  O   UNL     1     165.281 173.329 169.584  1.00  0.00    -0.507 OA
ATOM     12  H   UNL     1     165.536 173.131 170.542  1.00  0.00     0.293 HD
ENDBRANCH   6  11
TORSDOF 3
ENDMDL
MODEL 6
REMARK VINA RESULT:    -3.701      1.745      2.160
REMARK INTER + INTRA:          -4.525
REMARK INTER:                  -4.206
REMARK INTRA:                  -0.319
REMARK UNBOUND:                -0.283
REMARK SMILES COC(=O)c1ccccc1O
REMARK SMILES IDX 5 1 6 2 7 3 8 4 9 5 10 6 3 7 4 8 2 9 1 10 11 11
REMARK H PARENT 11 12
REMARK Flexibility Score: inf
ROOT
ATOM      1  C   UNL     1     160.163 164.463 169.199  1.00  0.00     0.101 A 
ATOM      2  C   UNL     1     161.160 164.264 168.226  1.00  0.00     0.019 A 
ATOM      3  C   UNL     1     160.899 164.512 166.877  1.00  0.00     0.001 A 
ATOM      4  C   UNL     1     159.640 164.963 166.480  1.00  0.00     0.004 A 
ATOM      5  C   UNL     1     158.646 165.186 167.433  1.00  0.00     0.047 A 
ATOM      6  C   UNL     1     158.898 164.962 168.793  1.00  0.00     0.130 A 
ENDROOT
BRANCH   1   7
ATOM      7  C   UNL     1     160.473 164.109 170.602  1.00  0.00     0.341 C 
ATOM      8  O   UNL     1     160.191 164.906 171.538  1.00  0.00    -0.246 OA
BRANCH   7   9
ATOM      9  O   UNL     1     161.028 162.859 170.889  1.00  0.00    -0.465 OA
ATOM     10  C   UNL     1     160.260 161.661 170.895  1.00  0.00     0.282 C 
ENDBRANCH   7   9
ENDBRANCH   1   7
BRANCH   6  11
ATOM     11  O   UNL     1     157.886 165.278 169.702  1.00  0.00    -0.507 OA
ATOM     12  H   UNL     1     156.983 164.825 169.713  1.00  0.00     0.293 HD
ENDBRANCH   6  11
TORSDOF 3
ENDMDL
MODEL 7
REMARK VINA RESULT:    -3.696     11.583     12.706
REMARK INTER + INTRA:          -4.519
REMARK INTER:                  -4.199
REMARK INTRA:                  -0.320
REMARK UNBOUND:                -0.283
REMARK SMILES COC(=O)c1ccccc1O
REMARK SMILES IDX 5 1 6 2 7 3 8 4 9 5 10 6 3 7 4 8 2 9 1 10 11 11
REMARK H PARENT 11 12
REMARK Flexibility Score: inf
ROOT
ATOM      1  C   UNL     1     171.101 166.820 169.100  1.00  0.00     0.101 A 
ATOM      2  C   UNL     1     170.151 167.018 168.082  1.00  0.00     0.019 A 
ATOM      3  C   UNL     1     170.452 166.704 166.755  1.00  0.00     0.001 A 
ATOM      4  C   UNL     1     171.705 166.187 166.426  1.00  0.00     0.004 A 
ATOM      5  C   UNL     1     172.652 165.964 167.426  1.00  0.00     0.047 A 
ATOM      6  C   UNL     1     172.359 166.254 168.764  1.00  0.00     0.130 A 
ENDROOT
BRANCH   1   7
ATOM      7  C   UNL     1     170.753 167.244 170.474  1.00  0.00     0.341 C 
ATOM      8  O   UNL     1     170.884 166.445 171.441  1.00  0.00    -0.246 OA
BRANCH   7   9
ATOM      9  O   UNL     1     170.335 168.558 170.703  1.00  0.00    -0.465 OA
ATOM     10  C   UNL     1     171.222 169.668 170.639  1.00  0.00     0.282 C 
ENDBRANCH   7   9
ENDBRANCH   1   7
BRANCH   6  11
ATOM     11  O   UNL     1     173.322 165.936 169.724  1.00  0.00    -0.507 OA
ATOM     12  H   UNL     1     174.311 165.874 169.525  1.00  0.00     0.293 HD
ENDBRANCH   6  11
TORSDOF 3
ENDMDL
MODEL 8
REMARK VINA RESULT:    -3.687      8.827      9.576
REMARK INTER + INTRA:          -4.509
REMARK INTER:                  -4.192
REMARK INTRA:                  -0.317
REMARK UNBOUND:                -0.283
REMARK SMILES COC(=O)c1ccccc1O
REMARK SMILES IDX 5 1 6 2 7 3 8 4 9 5 10 6 3 7 4 8 2 9 1 10 11 11
REMARK H PARENT 11 12
REMARK Flexibility Score: inf
ROOT
ATOM      1  C   UNL     1     166.767 160.136 169.229  1.00  0.00     0.101 A 
ATOM      2  C   UNL     1     166.955 161.137 168.258  1.00  0.00     0.019 A 
ATOM      3  C   UNL     1     166.689 160.883 166.911  1.00  0.00     0.001 A 
ATOM      4  C   UNL     1     166.231 159.627 166.514  1.00  0.00     0.004 A 
ATOM      5  C   UNL     1     166.018 158.629 167.465  1.00  0.00     0.047 A 
ATOM      6  C   UNL     1     166.260 158.874 168.823  1.00  0.00     0.130 A 
ENDROOT
BRANCH   1   7
ATOM      7  C   UNL     1     167.139 160.439 170.628  1.00  0.00     0.341 C 
ATOM      8  O   UNL     1     166.372 160.116 171.577  1.00  0.00    -0.246 OA
BRANCH   7   9
ATOM      9  O   UNL     1     168.375 161.032 170.898  1.00  0.00    -0.465 OA
ATOM     10  C   UNL     1     169.590 160.293 170.936  1.00  0.00     0.282 C 
ENDBRANCH   7   9
ENDBRANCH   1   7
BRANCH   6  11
ATOM     11  O   UNL     1     165.954 157.858 169.731  1.00  0.00    -0.507 OA
ATOM     12  H   UNL     1     165.731 156.911 169.457  1.00  0.00     0.293 HD
ENDBRANCH   6  11
TORSDOF 3
ENDMDL
MODEL 9
REMARK VINA RESULT:    -3.598      8.748      9.534
REMARK INTER + INTRA:          -4.407
REMARK INTER:                  -4.147
REMARK INTRA:                  -0.261
REMARK UNBOUND:                -0.283
REMARK SMILES COC(=O)c1ccccc1O
REMARK SMILES IDX 5 1 6 2 7 3 8 4 9 5 10 6 3 7 4 8 2 9 1 10 11 11
REMARK H PARENT 11 12
REMARK Flexibility Score: inf
ROOT
ATOM      1  C   UNL     1     166.355 159.197 168.870  1.00  0.00     0.101 A 
ATOM      2  C   UNL     1     166.050 158.553 167.657  1.00  0.00     0.019 A 
ATOM      3  C   UNL     1     166.138 159.239 166.444  1.00  0.00     0.001 A 
ATOM      4  C   UNL     1     166.534 160.576 166.424  1.00  0.00     0.004 A 
ATOM      5  C   UNL     1     166.861 161.225 167.615  1.00  0.00     0.047 A 
ATOM      6  C   UNL     1     166.797 160.546 168.838  1.00  0.00     0.130 A 
ENDROOT
BRANCH   1   7
ATOM      7  C   UNL     1     166.169 158.443 170.129  1.00  0.00     0.341 C 
ATOM      8  O   UNL     1     165.290 158.798 170.962  1.00  0.00    -0.246 OA
BRANCH   7   9
ATOM      9  O   UNL     1     166.934 157.296 170.363  1.00  0.00    -0.465 OA
ATOM     10  C   UNL     1     168.355 157.313 170.385  1.00  0.00     0.282 C 
ENDBRANCH   7   9
ENDBRANCH   1   7
BRANCH   6  11
ATOM     11  O   UNL     1     167.212 161.229 169.983  1.00  0.00    -0.507 OA
ATOM     12  H   UNL     1     166.648 161.922 170.455  1.00  0.00     0.293 HD
ENDBRANCH   6  11
TORSDOF 3
ENDMDL
