MODEL 1
REMARK VINA RESULT:    -3.649      0.000      0.000
REMARK INTER + INTRA:          -4.431
REMARK INTER:                  -4.395
REMARK INTRA:                  -0.036
REMARK UNBOUND:                -0.036
REMARK SMILES CC[C@@H](C)[C@@H]([NH3+])C(=O)[O-]
REMARK SMILES IDX 3 1 4 2 5 3 6 4 7 8 8 9 9 10 2 11 1 12
REMARK H PARENT 6 5 6 6 6 7
REMARK Flexibility Score: inf
ROOT
ATOM      1  C   UNL     1      -1.665 -15.889  20.254  1.00  0.00     0.050 C 
ATOM      2  C   UNL     1      -0.623 -16.638  19.402  1.00  0.00     0.014 C 
ENDROOT
BRANCH   1   3
ATOM      3  C   UNL     1      -1.721 -14.378  19.868  1.00  0.00     0.230 C 
BRANCH   3   4
ATOM      4  N   UNL     1      -1.860 -14.162  18.418  1.00  0.00    -0.350 N 
ATOM      5  H   UNL     1      -2.806 -14.482  18.107  1.00  0.00     0.345 HD
ATOM      6  H   UNL     1      -1.779 -13.146  18.192  1.00  0.00     0.345 HD
ATOM      7  H   UNL     1      -1.136 -14.694  17.882  1.00  0.00     0.345 HD
ENDBRANCH   3   4
BRANCH   3   8
ATOM      8  C   UNL     1      -2.811 -13.664  20.631  1.00  0.00     0.099 C 
ATOM      9  O   UNL     1      -3.670 -12.963  20.031  1.00  0.00    -0.544 OA
ATOM     10  O   UNL     1      -2.897 -13.815  22.008  1.00  0.00    -0.544 OA
ENDBRANCH   3   8
ENDBRANCH   1   3
BRANCH   1  11
ATOM     11  C   UNL     1      -3.050 -16.581  20.185  1.00  0.00     0.006 C 
ATOM     12  C   UNL     1      -3.129 -17.834  21.059  1.00  0.00     0.004 C 
ENDBRANCH   1  11
TORSDOF 4
ENDMDL
MODEL 2
REMARK VINA RESULT:    -3.622      8.053      9.008
REMARK INTER + INTRA:          -4.398
REMARK INTER:                  -4.277
REMARK INTRA:                  -0.121
REMARK UNBOUND:                -0.036
REMARK SMILES CC[C@@H](C)[C@@H]([NH3+])C(=O)[O-]
REMARK SMILES IDX 3 1 4 2 5 3 6 4 7 8 8 9 9 10 2 11 1 12
REMARK H PARENT 6 5 6 6 6 7
REMARK Flexibility Score: inf
ROOT
ATOM      1  C   UNL     1       5.575 -12.485  16.329  1.00  0.00     0.050 C 
ATOM      2  C   UNL     1       5.408 -13.417  15.113  1.00  0.00     0.014 C 
ENDROOT
BRANCH   1   3
ATOM      3  C   UNL     1       4.190 -11.979  16.840  1.00  0.00     0.230 C 
BRANCH   3   4
ATOM      4  N   UNL     1       3.533 -12.930  17.750  1.00  0.00    -0.350 N 
ATOM      5  H   UNL     1       3.747 -12.670  18.740  1.00  0.00     0.345 HD
ATOM      6  H   UNL     1       2.496 -12.892  17.630  1.00  0.00     0.345 HD
ATOM      7  H   UNL     1       3.865 -13.908  17.585  1.00  0.00     0.345 HD
ENDBRANCH   3   4
BRANCH   3   8
ATOM      8  C   UNL     1       4.314 -10.614  17.475  1.00  0.00     0.099 C 
ATOM      9  O   UNL     1       3.498 -10.234  18.357  1.00  0.00    -0.544 OA
ATOM     10  O   UNL     1       5.365  -9.781  17.115  1.00  0.00    -0.544 OA
ENDBRANCH   3   8
ENDBRANCH   1   3
BRANCH   1  11
ATOM     11  C   UNL     1       6.419 -13.158  17.441  1.00  0.00     0.006 C 
ATOM     12  C   UNL     1       7.599 -12.294  17.892  1.00  0.00     0.004 C 
ENDBRANCH   1  11
TORSDOF 4
ENDMDL
MODEL 3
REMARK VINA RESULT:    -3.613      2.679      3.801
REMARK INTER + INTRA:          -4.388
REMARK INTER:                  -4.382
REMARK INTRA:                  -0.006
REMARK UNBOUND:                -0.036
REMARK SMILES CC[C@@H](C)[C@@H]([NH3+])C(=O)[O-]
REMARK SMILES IDX 3 1 4 2 5 3 6 4 7 8 8 9 9 10 2 11 1 12
REMARK H PARENT 6 5 6 6 6 7
REMARK Flexibility Score: inf
ROOT
ATOM      1  C   UNL     1      -2.420 -14.081  20.303  1.00  0.00     0.050 C 
ATOM      2  C   UNL     1      -1.109 -13.462  19.782  1.00  0.00     0.014 C 
ENDROOT
BRANCH   1   3
ATOM      3  C   UNL     1      -2.137 -15.367  21.140  1.00  0.00     0.230 C 
BRANCH   3   4
ATOM      4  N   UNL     1      -3.059 -15.524  22.277  1.00  0.00    -0.350 N 
ATOM      5  H   UNL     1      -2.713 -16.287  22.903  1.00  0.00     0.345 HD
ATOM      6  H   UNL     1      -3.097 -14.645  22.840  1.00  0.00     0.345 HD
ATOM      7  H   UNL     1      -4.023 -15.770  21.955  1.00  0.00     0.345 HD
ENDBRANCH   3   4
BRANCH   3   8
ATOM      8  C   UNL     1      -2.140 -16.596  20.263  1.00  0.00     0.099 C 
ATOM      9  O   UNL     1      -1.237 -16.781  19.404  1.00  0.00    -0.544 OA
ATOM     10  O   UNL     1      -3.126 -17.559  20.432  1.00  0.00    -0.544 OA
ENDBRANCH   3   8
ENDBRANCH   1   3
BRANCH   1  11
ATOM     11  C   UNL     1      -3.269 -13.036  21.070  1.00  0.00     0.006 C 
ATOM     12  C   UNL     1      -4.016 -12.081  20.135  1.00  0.00     0.004 C 
ENDBRANCH   1  11
TORSDOF 4
ENDMDL
MODEL 4
REMARK VINA RESULT:    -3.549      2.162      3.937
REMARK INTER + INTRA:          -4.311
REMARK INTER:                  -4.237
REMARK INTRA:                  -0.074
REMARK UNBOUND:                -0.036
REMARK SMILES CC[C@@H](C)[C@@H]([NH3+])C(=O)[O-]
REMARK SMILES IDX 3 1 4 2 5 3 6 4 7 8 8 9 9 10 2 11 1 12
REMARK H PARENT 6 5 6 6 6 7
REMARK Flexibility Score: inf
ROOT
ATOM      1  C   UNL     1      -2.423 -13.513  20.612  1.00  0.00     0.050 C 
ATOM      2  C   UNL     1      -3.725 -12.690  20.656  1.00  0.00     0.014 C 
ENDROOT
BRANCH   1   3
ATOM      3  C   UNL     1      -2.491 -14.607  19.502  1.00  0.00     0.230 C 
BRANCH   3   4
ATOM      4  N   UNL     1      -1.861 -14.184  18.241  1.00  0.00    -0.350 N 
ATOM      5  H   UNL     1      -2.549 -14.279  17.458  1.00  0.00     0.345 HD
ATOM      6  H   UNL     1      -1.580 -13.179  18.294  1.00  0.00     0.345 HD
ATOM      7  H   UNL     1      -1.022 -14.766  18.018  1.00  0.00     0.345 HD
ENDBRANCH   3   4
BRANCH   3   8
ATOM      8  C   UNL     1      -1.907 -15.911  19.991  1.00  0.00     0.099 C 
ATOM      9  O   UNL     1      -2.523 -16.625  20.827  1.00  0.00    -0.544 OA
ATOM     10  O   UNL     1      -0.693 -16.354  19.482  1.00  0.00    -0.544 OA
ENDBRANCH   3   8
ENDBRANCH   1   3
BRANCH   1  11
ATOM     11  C   UNL     1      -1.182 -12.595  20.479  1.00  0.00     0.006 C 
ATOM     12  C   UNL     1      -1.392 -11.222  21.121  1.00  0.00     0.004 C 
ENDBRANCH   1  11
TORSDOF 4
ENDMDL
MODEL 5
REMARK VINA RESULT:    -3.533      8.331      9.279
REMARK INTER + INTRA:          -4.291
REMARK INTER:                  -4.221
REMARK INTRA:                  -0.071
REMARK UNBOUND:                -0.036
REMARK SMILES CC[C@@H](C)[C@@H]([NH3+])C(=O)[O-]
REMARK SMILES IDX 3 1 4 2 5 3 6 4 7 8 8 9 9 10 2 11 1 12
REMARK H PARENT 6 5 6 6 6 7
REMARK Flexibility Score: inf
ROOT
ATOM      1  C   UNL     1       6.128 -11.273  17.187  1.00  0.00     0.050 C 
ATOM      2  C   UNL     1       6.741 -10.538  15.979  1.00  0.00     0.014 C 
ENDROOT
BRANCH   1   3
ATOM      3  C   UNL     1       4.674 -11.745  16.875  1.00  0.00     0.230 C 
BRANCH   3   4
ATOM      4  N   UNL     1       4.453 -13.164  17.195  1.00  0.00    -0.350 N 
ATOM      5  H   UNL     1       3.722 -13.244  17.940  1.00  0.00     0.345 HD
ATOM      6  H   UNL     1       4.105 -13.677  16.355  1.00  0.00     0.345 HD
ATOM      7  H   UNL     1       5.329 -13.620  17.539  1.00  0.00     0.345 HD
ENDBRANCH   3   4
BRANCH   3   8
ATOM      8  C   UNL     1       3.660 -10.866  17.567  1.00  0.00     0.099 C 
ATOM      9  O   UNL     1       3.968  -9.712  17.967  1.00  0.00    -0.544 OA
ATOM     10  O   UNL     1       2.356 -11.317  17.728  1.00  0.00    -0.544 OA
ENDBRANCH   3   8
ENDBRANCH   1   3
BRANCH   1  11
ATOM     11  C   UNL     1       7.047 -12.424  17.669  1.00  0.00     0.006 C 
ATOM     12  C   UNL     1       8.254 -11.923  18.466  1.00  0.00     0.004 C 
ENDBRANCH   1  11
TORSDOF 4
ENDMDL
MODEL 6
REMARK VINA RESULT:    -3.515      2.952      3.872
REMARK INTER + INTRA:          -4.270
REMARK INTER:                  -4.170
REMARK INTRA:                  -0.100
REMARK UNBOUND:                -0.036
REMARK SMILES CC[C@@H](C)[C@@H]([NH3+])C(=O)[O-]
REMARK SMILES IDX 3 1 4 2 5 3 6 4 7 8 8 9 9 10 2 11 1 12
REMARK H PARENT 6 5 6 6 6 7
REMARK Flexibility Score: inf
ROOT
ATOM      1  C   UNL     1      -2.303 -16.302  20.024  1.00  0.00     0.050 C 
ATOM      2  C   UNL     1      -0.934 -16.731  19.464  1.00  0.00     0.014 C 
ENDROOT
BRANCH   1   3
ATOM      3  C   UNL     1      -2.543 -16.908  21.441  1.00  0.00     0.230 C 
BRANCH   3   4
ATOM      4  N   UNL     1      -3.164 -15.954  22.374  1.00  0.00    -0.350 N 
ATOM      5  H   UNL     1      -2.811 -14.990  22.174  1.00  0.00     0.345 HD
ATOM      6  H   UNL     1      -4.201 -15.945  22.248  1.00  0.00     0.345 HD
ATOM      7  H   UNL     1      -2.939 -16.190  23.368  1.00  0.00     0.345 HD
ENDBRANCH   3   4
BRANCH   3   8
ATOM      8  C   UNL     1      -3.343 -18.186  21.356  1.00  0.00     0.099 C 
ATOM      9  O   UNL     1      -4.231 -18.337  20.474  1.00  0.00    -0.544 OA
ATOM     10  O   UNL     1      -3.070 -19.227  22.233  1.00  0.00    -0.544 OA
ENDBRANCH   3   8
ENDBRANCH   1   3
BRANCH   1  11
ATOM     11  C   UNL     1      -2.466 -14.761  19.991  1.00  0.00     0.006 C 
ATOM     12  C   UNL     1      -1.170 -14.038  19.614  1.00  0.00     0.004 C 
ENDBRANCH   1  11
TORSDOF 4
ENDMDL
MODEL 7
REMARK VINA RESULT:    -3.508      2.037      2.583
REMARK INTER + INTRA:          -4.262
REMARK INTER:                  -4.177
REMARK INTRA:                  -0.085
REMARK UNBOUND:                -0.036
REMARK SMILES CC[C@@H](C)[C@@H]([NH3+])C(=O)[O-]
REMARK SMILES IDX 3 1 4 2 5 3 6 4 7 8 8 9 9 10 2 11 1 12
REMARK H PARENT 6 5 6 6 6 7
REMARK Flexibility Score: inf
ROOT
ATOM      1  C   UNL     1      -2.381 -16.157  20.418  1.00  0.00     0.050 C 
ATOM      2  C   UNL     1      -2.792 -15.273  21.610  1.00  0.00     0.014 C 
ENDROOT
BRANCH   1   3
ATOM      3  C   UNL     1      -0.970 -15.756  19.885  1.00  0.00     0.230 C 
BRANCH   3   4
ATOM      4  N   UNL     1      -0.379 -16.776  19.004  1.00  0.00    -0.350 N 
ATOM      5  H   UNL     1       0.319 -16.326  18.369  1.00  0.00     0.345 HD
ATOM      6  H   UNL     1       0.124 -17.496  19.569  1.00  0.00     0.345 HD
ATOM      7  H   UNL     1      -1.108 -17.244  18.419  1.00  0.00     0.345 HD
ENDBRANCH   3   4
BRANCH   3   8
ATOM      8  C   UNL     1      -1.012 -14.408  19.204  1.00  0.00     0.099 C 
ATOM      9  O   UNL     1      -0.074 -13.579  19.349  1.00  0.00    -0.544 OA
ATOM     10  O   UNL     1      -2.078 -14.091  18.373  1.00  0.00    -0.544 OA
ENDBRANCH   3   8
ENDBRANCH   1   3
BRANCH   1  11
ATOM     11  C   UNL     1      -2.486 -17.662  20.772  1.00  0.00     0.006 C 
ATOM     12  C   UNL     1      -3.934 -18.140  20.895  1.00  0.00     0.004 C 
ENDBRANCH   1  11
TORSDOF 4
ENDMDL
MODEL 8
REMARK VINA RESULT:    -3.420      8.762      9.889
REMARK INTER + INTRA:          -4.156
REMARK INTER:                  -4.057
REMARK INTRA:                  -0.099
REMARK UNBOUND:                -0.036
REMARK SMILES CC[C@@H](C)[C@@H]([NH3+])C(=O)[O-]
REMARK SMILES IDX 3 1 4 2 5 3 6 4 7 8 8 9 9 10 2 11 1 12
REMARK H PARENT 6 5 6 6 6 7
REMARK Flexibility Score: inf
ROOT
ATOM      1  C   UNL     1       5.334 -11.025  17.458  1.00  0.00     0.050 C 
ATOM      2  C   UNL     1       4.319  -9.911  17.774  1.00  0.00     0.014 C 
ENDROOT
BRANCH   1   3
ATOM      3  C   UNL     1       4.612 -12.385  17.205  1.00  0.00     0.230 C 
BRANCH   3   4
ATOM      4  N   UNL     1       3.396 -12.243  16.389  1.00  0.00    -0.350 N 
ATOM      5  H   UNL     1       3.059 -11.253  16.433  1.00  0.00     0.345 HD
ATOM      6  H   UNL     1       3.600 -12.464  15.389  1.00  0.00     0.345 HD
ATOM      7  H   UNL     1       2.631 -12.869  16.731  1.00  0.00     0.345 HD
ENDBRANCH   3   4
BRANCH   3   8
ATOM      8  C   UNL     1       5.558 -13.396  16.602  1.00  0.00     0.099 C 
ATOM      9  O   UNL     1       6.509 -13.876  17.275  1.00  0.00    -0.544 OA
ATOM     10  O   UNL     1       5.354 -13.837  15.301  1.00  0.00    -0.544 OA
ENDBRANCH   3   8
ENDBRANCH   1   3
BRANCH   1  11
ATOM     11  C   UNL     1       6.275 -10.615  16.297  1.00  0.00     0.006 C 
ATOM     12  C   UNL     1       7.717 -10.388  16.756  1.00  0.00     0.004 C 
ENDBRANCH   1  11
TORSDOF 4
ENDMDL
MODEL 9
REMARK VINA RESULT:    -3.360      2.178      2.653
REMARK INTER + INTRA:          -4.083
REMARK INTER:                  -4.001
REMARK INTRA:                  -0.082
REMARK UNBOUND:                -0.036
REMARK SMILES CC[C@@H](C)[C@@H]([NH3+])C(=O)[O-]
REMARK SMILES IDX 3 1 4 2 5 3 6 4 7 8 8 9 9 10 2 11 1 12
REMARK H PARENT 6 5 6 6 6 7
REMARK Flexibility Score: inf
ROOT
ATOM      1  C   UNL     1      -1.918 -14.193  20.189  1.00  0.00     0.050 C 
ATOM      2  C   UNL     1      -2.045 -14.321  18.659  1.00  0.00     0.014 C 
ENDROOT
BRANCH   1   3
ATOM      3  C   UNL     1      -2.837 -13.055  20.733  1.00  0.00     0.230 C 
BRANCH   3   4
ATOM      4  N   UNL     1      -3.532 -13.426  21.976  1.00  0.00    -0.350 N 
ATOM      5  H   UNL     1      -4.565 -13.420  21.813  1.00  0.00     0.345 HD
ATOM      6  H   UNL     1      -3.263 -14.391  22.270  1.00  0.00     0.345 HD
ATOM      7  H   UNL     1      -3.315 -12.756  22.750  1.00  0.00     0.345 HD
ENDBRANCH   3   4
BRANCH   3   8
ATOM      8  C   UNL     1      -2.062 -11.770  20.905  1.00  0.00     0.099 C 
ATOM      9  O   UNL     1      -0.802 -11.763  20.873  1.00  0.00    -0.544 OA
ATOM     10  O   UNL     1      -2.746 -10.571  21.058  1.00  0.00    -0.544 OA
ENDBRANCH   3   8
ENDBRANCH   1   3
BRANCH   1  11
ATOM     11  C   UNL     1      -2.165 -15.554  20.889  1.00  0.00     0.006 C 
ATOM     12  C   UNL     1      -1.657 -16.741  20.068  1.00  0.00     0.004 C 
ENDBRANCH   1  11
TORSDOF 4
ENDMDL
