MODEL 1
REMARK VINA RESULT:    -3.770      0.000      0.000
REMARK INTER + INTRA:          -5.567
REMARK INTER:                  -5.093
REMARK INTRA:                  -0.474
REMARK UNBOUND:                -0.474
REMARK SMILES COc1ccc(-c2cc(=O)c3c(OC)c(OC)c(OC)cc3o2)cc1OC
REMARK SMILES IDX 7 1 8 2 9 3 10 4 11 5 12 6 15 7 18 8 21 9 22 10 23 11 6 12
REMARK SMILES IDX 3 13 25 14 4 15 24 16 5 17 2 18 1 19 26 20 27 21 13 22 14 23
REMARK SMILES IDX 19 24 20 25 16 26 17 27
REMARK H PARENT
REMARK Flexibility Score: inf
ROOT
ATOM      1  C   UNL     1      18.144  35.154  39.384  1.00  0.00     0.138 A 
ATOM      2  C   UNL     1      18.415  35.131  38.006  1.00  0.00     0.100 A 
ATOM      3  C   UNL     1      19.674  34.727  37.562  1.00  0.00     0.197 A 
ATOM      4  O   UNL     1      19.912  34.731  36.322  1.00  0.00    -0.289 OA
ATOM      5  C   UNL     1      20.655  34.339  38.502  1.00  0.00     0.111 A 
ATOM      6  C   UNL     1      21.951  33.900  38.136  1.00  0.00     0.179 A 
ATOM      7  C   UNL     1      22.904  33.604  39.142  1.00  0.00     0.204 A 
ATOM      8  C   UNL     1      22.530  33.641  40.494  1.00  0.00     0.168 A 
ATOM      9  C   UNL     1      21.230  34.037  40.850  1.00  0.00     0.098 A 
ATOM     10  C   UNL     1      20.306  34.399  39.871  1.00  0.00     0.146 A 
ATOM     11  O   UNL     1      19.093  34.797  40.246  1.00  0.00    -0.456 OA
ENDROOT
BRANCH   1  12
ATOM     12  C   UNL     1      16.825  35.580  39.913  1.00  0.00     0.021 A 
ATOM     13  C   UNL     1      14.328  36.456  40.897  1.00  0.00     0.160 A 
ATOM     14  C   UNL     1      14.784  36.904  39.649  1.00  0.00     0.161 A 
ATOM     15  C   UNL     1      15.124  35.574  41.650  1.00  0.00     0.051 A 
ATOM     16  C   UNL     1      16.033  36.468  39.165  1.00  0.00     0.062 A 
ATOM     17  C   UNL     1      16.359  35.142  41.163  1.00  0.00     0.016 A 
BRANCH  13  18
ATOM     18  O   UNL     1      13.080  36.910  41.353  1.00  0.00    -0.493 OA
ATOM     19  C   UNL     1      12.826  37.381  42.673  1.00  0.00     0.278 C 
ENDBRANCH  13  18
BRANCH  14  20
ATOM     20  O   UNL     1      13.968  37.782  38.918  1.00  0.00    -0.493 OA
ATOM     21  C   UNL     1      14.132  38.075  37.535  1.00  0.00     0.278 C 
ENDBRANCH  14  20
ENDBRANCH   1  12
BRANCH   6  22
ATOM     22  O   UNL     1      22.276  33.719  36.791  1.00  0.00    -0.492 OA
ATOM     23  C   UNL     1      23.175  34.602  36.129  1.00  0.00     0.278 C 
ENDBRANCH   6  22
BRANCH   8  24
ATOM     24  O   UNL     1      23.488  33.286  41.459  1.00  0.00    -0.493 OA
ATOM     25  C   UNL     1      23.474  33.726  42.812  1.00  0.00     0.278 C 
ENDBRANCH   8  24
BRANCH   7  26
ATOM     26  O   UNL     1      24.238  33.267  38.853  1.00  0.00    -0.490 OA
ATOM     27  C   UNL     1      24.690  31.963  38.486  1.00  0.00     0.278 C 
ENDBRANCH   7  26
TORSDOF 6
ENDMDL
MODEL 2
REMARK VINA RESULT:    -3.735      2.699      4.777
REMARK INTER + INTRA:          -5.518
REMARK INTER:                  -4.822
REMARK INTRA:                  -0.696
REMARK UNBOUND:                -0.474
REMARK SMILES COc1ccc(-c2cc(=O)c3c(OC)c(OC)c(OC)cc3o2)cc1OC
REMARK SMILES IDX 7 1 8 2 9 3 10 4 11 5 12 6 15 7 18 8 21 9 22 10 23 11 6 12
REMARK SMILES IDX 3 13 25 14 4 15 24 16 5 17 2 18 1 19 26 20 27 21 13 22 14 23
REMARK SMILES IDX 19 24 20 25 16 26 17 27
REMARK H PARENT
REMARK Flexibility Score: inf
ROOT
ATOM      1  C   UNL     1      18.250  34.864  42.841  1.00  0.00     0.138 A 
ATOM      2  C   UNL     1      18.434  35.222  44.187  1.00  0.00     0.100 A 
ATOM      3  C   UNL     1      19.649  34.938  44.812  1.00  0.00     0.197 A 
ATOM      4  O   UNL     1      19.795  35.247  46.027  1.00  0.00    -0.289 OA
ATOM      5  C   UNL     1      20.678  34.304  44.080  1.00  0.00     0.111 A 
ATOM      6  C   UNL     1      21.946  33.996  44.632  1.00  0.00     0.179 A 
ATOM      7  C   UNL     1      22.898  33.286  43.857  1.00  0.00     0.204 A 
ATOM      8  C   UNL     1      22.624  32.988  42.514  1.00  0.00     0.168 A 
ATOM      9  C   UNL     1      21.380  33.333  41.959  1.00  0.00     0.098 A 
ATOM     10  C   UNL     1      20.410  33.967  42.733  1.00  0.00     0.146 A 
ATOM     11  O   UNL     1      19.233  34.253  42.184  1.00  0.00    -0.456 OA
ENDROOT
BRANCH   1  12
ATOM     12  C   UNL     1      16.977  35.135  42.129  1.00  0.00     0.021 A 
ATOM     13  C   UNL     1      14.586  35.706  40.742  1.00  0.00     0.160 A 
ATOM     14  C   UNL     1      15.816  35.768  40.071  1.00  0.00     0.161 A 
ATOM     15  C   UNL     1      14.556  35.363  42.106  1.00  0.00     0.051 A 
ATOM     16  C   UNL     1      17.006  35.488  40.770  1.00  0.00     0.062 A 
ATOM     17  C   UNL     1      15.739  35.081  42.791  1.00  0.00     0.016 A 
BRANCH  13  18
ATOM     18  O   UNL     1      13.417  35.993  40.019  1.00  0.00    -0.493 OA
ATOM     19  C   UNL     1      12.707  37.226  40.089  1.00  0.00     0.278 C 
ENDBRANCH  13  18
BRANCH  14  20
ATOM     20  O   UNL     1      15.814  36.111  38.710  1.00  0.00    -0.493 OA
ATOM     21  C   UNL     1      16.176  37.389  38.199  1.00  0.00     0.278 C 
ENDBRANCH  14  20
ENDBRANCH   1  12
BRANCH   6  22
ATOM     22  O   UNL     1      22.274  34.424  45.919  1.00  0.00    -0.492 OA
ATOM     23  C   UNL     1      23.195  35.490  46.125  1.00  0.00     0.278 C 
ENDBRANCH   6  22
BRANCH   8  24
ATOM     24  O   UNL     1      23.615  32.334  41.763  1.00  0.00    -0.493 OA
ATOM     25  C   UNL     1      24.193  32.845  40.566  1.00  0.00     0.278 C 
ENDBRANCH   8  24
BRANCH   7  26
ATOM     26  O   UNL     1      24.131  32.854  44.373  1.00  0.00    -0.490 OA
ATOM     27  C   UNL     1      24.322  31.677  45.159  1.00  0.00     0.278 C 
ENDBRANCH   7  26
TORSDOF 6
ENDMDL
MODEL 3
REMARK VINA RESULT:    -3.707      2.634      5.713
REMARK INTER + INTRA:          -5.481
REMARK INTER:                  -4.788
REMARK INTRA:                  -0.693
REMARK UNBOUND:                -0.474
REMARK SMILES COc1ccc(-c2cc(=O)c3c(OC)c(OC)c(OC)cc3o2)cc1OC
REMARK SMILES IDX 7 1 8 2 9 3 10 4 11 5 12 6 15 7 18 8 21 9 22 10 23 11 6 12
REMARK SMILES IDX 3 13 25 14 4 15 24 16 5 17 2 18 1 19 26 20 27 21 13 22 14 23
REMARK SMILES IDX 19 24 20 25 16 26 17 27
REMARK H PARENT
REMARK Flexibility Score: inf
ROOT
ATOM      1  C   UNL     1      21.404  34.018  40.029  1.00  0.00     0.138 A 
ATOM      2  C   UNL     1      22.476  33.119  39.899  1.00  0.00     0.100 A 
ATOM      3  C   UNL     1      23.236  32.791  41.022  1.00  0.00     0.197 A 
ATOM      4  O   UNL     1      24.208  31.997  40.888  1.00  0.00    -0.289 OA
ATOM      5  C   UNL     1      22.913  33.361  42.274  1.00  0.00     0.111 A 
ATOM      6  C   UNL     1      23.621  33.069  43.466  1.00  0.00     0.179 A 
ATOM      7  C   UNL     1      23.286  33.742  44.667  1.00  0.00     0.204 A 
ATOM      8  C   UNL     1      22.186  34.613  44.698  1.00  0.00     0.168 A 
ATOM      9  C   UNL     1      21.461  34.867  43.522  1.00  0.00     0.098 A 
ATOM     10  C   UNL     1      21.826  34.264  42.319  1.00  0.00     0.146 A 
ATOM     11  O   UNL     1      21.135  34.550  41.219  1.00  0.00    -0.456 OA
ENDROOT
BRANCH   1  12
ATOM     12  C   UNL     1      20.567  34.407  38.869  1.00  0.00     0.021 A 
ATOM     13  C   UNL     1      18.919  35.110  36.686  1.00  0.00     0.160 A 
ATOM     14  C   UNL     1      18.397  35.114  37.988  1.00  0.00     0.161 A 
ATOM     15  C   UNL     1      20.264  34.751  36.481  1.00  0.00     0.051 A 
ATOM     16  C   UNL     1      19.222  34.757  39.072  1.00  0.00     0.062 A 
ATOM     17  C   UNL     1      21.078  34.403  37.560  1.00  0.00     0.016 A 
BRANCH  13  18
ATOM     18  O   UNL     1      18.072  35.468  35.626  1.00  0.00    -0.493 OA
ATOM     19  C   UNL     1      18.198  36.664  34.862  1.00  0.00     0.278 C 
ENDBRANCH  13  18
BRANCH  14  20
ATOM     20  O   UNL     1      17.052  35.479  38.163  1.00  0.00    -0.493 OA
ATOM     21  C   UNL     1      16.615  36.758  38.609  1.00  0.00     0.278 C 
ENDBRANCH  14  20
ENDBRANCH   1  12
BRANCH   6  22
ATOM     22  O   UNL     1      24.618  32.092  43.468  1.00  0.00    -0.492 OA
ATOM     23  C   UNL     1      24.395  30.817  44.059  1.00  0.00     0.278 C 
ENDBRANCH   6  22
BRANCH   8  24
ATOM     24  O   UNL     1      21.851  35.218  45.922  1.00  0.00    -0.493 OA
ATOM     25  C   UNL     1      21.677  36.618  46.110  1.00  0.00     0.278 C 
ENDBRANCH   8  24
BRANCH   7  26
ATOM     26  O   UNL     1      24.013  33.583  45.859  1.00  0.00    -0.490 OA
ATOM     27  C   UNL     1      25.287  34.173  46.125  1.00  0.00     0.278 C 
ENDBRANCH   7  26
TORSDOF 6
ENDMDL
MODEL 4
REMARK VINA RESULT:    -3.678      1.705      3.524
REMARK INTER + INTRA:          -5.442
REMARK INTER:                  -4.796
REMARK INTRA:                  -0.646
REMARK UNBOUND:                -0.474
REMARK SMILES COc1ccc(-c2cc(=O)c3c(OC)c(OC)c(OC)cc3o2)cc1OC
REMARK SMILES IDX 7 1 8 2 9 3 10 4 11 5 12 6 15 7 18 8 21 9 22 10 23 11 6 12
REMARK SMILES IDX 3 13 25 14 4 15 24 16 5 17 2 18 1 19 26 20 27 21 13 22 14 23
REMARK SMILES IDX 19 24 20 25 16 26 17 27
REMARK H PARENT
REMARK Flexibility Score: inf
ROOT
ATOM      1  C   UNL     1      17.720  35.135  40.619  1.00  0.00     0.138 A 
ATOM      2  C   UNL     1      17.766  34.609  41.921  1.00  0.00     0.100 A 
ATOM      3  C   UNL     1      18.928  33.974  42.363  1.00  0.00     0.197 A 
ATOM      4  O   UNL     1      18.949  33.488  43.528  1.00  0.00    -0.289 OA
ATOM      5  C   UNL     1      20.042  33.877  41.500  1.00  0.00     0.111 A 
ATOM      6  C   UNL     1      21.264  33.265  41.875  1.00  0.00     0.179 A 
ATOM      7  C   UNL     1      22.307  33.136  40.925  1.00  0.00     0.204 A 
ATOM      8  C   UNL     1      22.170  33.711  39.652  1.00  0.00     0.168 A 
ATOM      9  C   UNL     1      20.972  34.354  39.299  1.00  0.00     0.098 A 
ATOM     10  C   UNL     1      19.912  34.423  40.202  1.00  0.00     0.146 A 
ATOM     11  O   UNL     1      18.781  35.014  39.825  1.00  0.00    -0.456 OA
ENDROOT
BRANCH   1  12
ATOM     12  C   UNL     1      16.511  35.814  40.095  1.00  0.00     0.021 A 
ATOM     13  C   UNL     1      14.246  37.164  39.085  1.00  0.00     0.160 A 
ATOM     14  C   UNL     1      15.488  37.307  38.448  1.00  0.00     0.161 A 
ATOM     15  C   UNL     1      14.142  36.349  40.227  1.00  0.00     0.051 A 
ATOM     16  C   UNL     1      16.615  36.635  38.960  1.00  0.00     0.062 A 
ATOM     17  C   UNL     1      15.263  35.682  40.726  1.00  0.00     0.016 A 
BRANCH  13  18
ATOM     18  O   UNL     1      13.141  37.848  38.553  1.00  0.00    -0.493 OA
ATOM     19  C   UNL     1      11.847  37.876  39.148  1.00  0.00     0.278 C 
ENDBRANCH  13  18
BRANCH  14  20
ATOM     20  O   UNL     1      15.561  38.125  37.310  1.00  0.00    -0.493 OA
ATOM     21  C   UNL     1      16.426  37.894  36.204  1.00  0.00     0.278 C 
ENDBRANCH  14  20
ENDBRANCH   1  12
BRANCH   6  22
ATOM     22  O   UNL     1      21.455  32.827  43.186  1.00  0.00    -0.492 OA
ATOM     23  C   UNL     1      22.277  33.557  44.091  1.00  0.00     0.278 C 
ENDBRANCH   6  22
BRANCH   8  24
ATOM     24  O   UNL     1      23.249  33.611  38.758  1.00  0.00    -0.493 OA
ATOM     25  C   UNL     1      23.207  34.008  37.391  1.00  0.00     0.278 C 
ENDBRANCH   8  24
BRANCH   7  26
ATOM     26  O   UNL     1      23.502  32.448  41.194  1.00  0.00    -0.490 OA
ATOM     27  C   UNL     1      23.653  31.027  41.161  1.00  0.00     0.278 C 
ENDBRANCH   7  26
TORSDOF 6
ENDMDL
MODEL 5
REMARK VINA RESULT:    -3.674      1.745      3.649
REMARK INTER + INTRA:          -5.436
REMARK INTER:                  -4.779
REMARK INTRA:                  -0.657
REMARK UNBOUND:                -0.474
REMARK SMILES COc1ccc(-c2cc(=O)c3c(OC)c(OC)c(OC)cc3o2)cc1OC
REMARK SMILES IDX 7 1 8 2 9 3 10 4 11 5 12 6 15 7 18 8 21 9 22 10 23 11 6 12
REMARK SMILES IDX 3 13 25 14 4 15 24 16 5 17 2 18 1 19 26 20 27 21 13 22 14 23
REMARK SMILES IDX 19 24 20 25 16 26 17 27
REMARK H PARENT
REMARK Flexibility Score: inf
ROOT
ATOM      1  C   UNL     1      18.830  34.392  41.920  1.00  0.00     0.138 A 
ATOM      2  C   UNL     1      19.371  34.041  43.168  1.00  0.00     0.100 A 
ATOM      3  C   UNL     1      20.703  33.633  43.248  1.00  0.00     0.197 A 
ATOM      4  O   UNL     1      21.171  33.301  44.372  1.00  0.00    -0.289 OA
ATOM      5  C   UNL     1      21.490  33.586  42.075  1.00  0.00     0.111 A 
ATOM      6  C   UNL     1      22.853  33.201  42.070  1.00  0.00     0.179 A 
ATOM      7  C   UNL     1      23.553  33.102  40.841  1.00  0.00     0.204 A 
ATOM      8  C   UNL     1      22.928  33.492  39.647  1.00  0.00     0.168 A 
ATOM      9  C   UNL     1      21.588  33.914  39.663  1.00  0.00     0.098 A 
ATOM     10  C   UNL     1      20.868  33.946  40.857  1.00  0.00     0.146 A 
ATOM     11  O   UNL     1      19.593  34.323  40.831  1.00  0.00    -0.456 OA
ENDROOT
BRANCH   1  12
ATOM     12  C   UNL     1      17.420  34.828  41.775  1.00  0.00     0.021 A 
ATOM     13  C   UNL     1      14.757  35.716  41.472  1.00  0.00     0.160 A 
ATOM     14  C   UNL     1      15.688  35.930  40.445  1.00  0.00     0.161 A 
ATOM     15  C   UNL     1      15.163  35.061  42.649  1.00  0.00     0.051 A 
ATOM     16  C   UNL     1      17.016  35.490  40.604  1.00  0.00     0.062 A 
ATOM     17  C   UNL     1      16.480  34.623  42.799  1.00  0.00     0.016 A 
BRANCH  13  18
ATOM     18  O   UNL     1      13.442  36.169  41.285  1.00  0.00    -0.493 OA
ATOM     19  C   UNL     1      12.916  37.372  41.837  1.00  0.00     0.278 C 
ENDBRANCH  13  18
BRANCH  14  20
ATOM     20  O   UNL     1      15.254  36.584  39.281  1.00  0.00    -0.493 OA
ATOM     21  C   UNL     1      16.070  37.431  38.479  1.00  0.00     0.278 C 
ENDBRANCH  14  20
ENDBRANCH   1  12
BRANCH   6  22
ATOM     22  O   UNL     1      23.518  32.957  43.273  1.00  0.00    -0.492 OA
ATOM     23  C   UNL     1      24.483  33.875  43.776  1.00  0.00     0.278 C 
ENDBRANCH   6  22
BRANCH   8  24
ATOM     24  O   UNL     1      23.673  33.434  38.457  1.00  0.00    -0.493 OA
ATOM     25  C   UNL     1      23.308  34.079  37.242  1.00  0.00     0.278 C 
ENDBRANCH   8  24
BRANCH   7  26
ATOM     26  O   UNL     1      24.871  32.625  40.750  1.00  0.00    -0.490 OA
ATOM     27  C   UNL     1      25.241  31.245  40.741  1.00  0.00     0.278 C 
ENDBRANCH   7  26
TORSDOF 6
ENDMDL
MODEL 6
REMARK VINA RESULT:    -3.671      1.045      2.138
REMARK INTER + INTRA:          -5.432
REMARK INTER:                  -4.922
REMARK INTRA:                  -0.510
REMARK UNBOUND:                -0.474
REMARK SMILES COc1ccc(-c2cc(=O)c3c(OC)c(OC)c(OC)cc3o2)cc1OC
REMARK SMILES IDX 7 1 8 2 9 3 10 4 11 5 12 6 15 7 18 8 21 9 22 10 23 11 6 12
REMARK SMILES IDX 3 13 25 14 4 15 24 16 5 17 2 18 1 19 26 20 27 21 13 22 14 23
REMARK SMILES IDX 19 24 20 25 16 26 17 27
REMARK H PARENT
REMARK Flexibility Score: inf
ROOT
ATOM      1  C   UNL     1      17.852  35.160  39.778  1.00  0.00     0.138 A 
ATOM      2  C   UNL     1      18.064  35.217  38.391  1.00  0.00     0.100 A 
ATOM      3  C   UNL     1      19.305  34.846  37.871  1.00  0.00     0.197 A 
ATOM      4  O   UNL     1      19.489  34.921  36.625  1.00  0.00    -0.289 OA
ATOM      5  C   UNL     1      20.326  34.413  38.746  1.00  0.00     0.111 A 
ATOM      6  C   UNL     1      21.607  34.003  38.300  1.00  0.00     0.179 A 
ATOM      7  C   UNL     1      22.604  33.657  39.246  1.00  0.00     0.204 A 
ATOM      8  C   UNL     1      22.288  33.615  40.613  1.00  0.00     0.168 A 
ATOM      9  C   UNL     1      21.003  33.983  41.046  1.00  0.00     0.098 A 
ATOM     10  C   UNL     1      20.036  34.393  40.130  1.00  0.00     0.146 A 
ATOM     11  O   UNL     1      18.839  34.762  40.577  1.00  0.00    -0.456 OA
ENDROOT
BRANCH   1  12
ATOM     12  C   UNL     1      16.556  35.547  40.386  1.00  0.00     0.021 A 
ATOM     13  C   UNL     1      14.082  36.221  41.570  1.00  0.00     0.160 A 
ATOM     14  C   UNL     1      15.025  35.475  42.293  1.00  0.00     0.161 A 
ATOM     15  C   UNL     1      14.379  36.624  40.255  1.00  0.00     0.051 A 
ATOM     16  C   UNL     1      16.254  35.137  41.695  1.00  0.00     0.062 A 
ATOM     17  C   UNL     1      15.602  36.290  39.670  1.00  0.00     0.016 A 
BRANCH  13  18
ATOM     18  O   UNL     1      12.865  36.540  42.192  1.00  0.00    -0.493 OA
ATOM     19  C   UNL     1      12.546  37.819  42.732  1.00  0.00     0.278 C 
ENDBRANCH  13  18
BRANCH  14  20
ATOM     20  O   UNL     1      14.702  35.088  43.604  1.00  0.00    -0.493 OA
ATOM     21  C   UNL     1      15.561  34.343  44.460  1.00  0.00     0.278 C 
ENDBRANCH  14  20
ENDBRANCH   1  12
BRANCH   6  22
ATOM     22  O   UNL     1      21.875  33.900  36.935  1.00  0.00    -0.492 OA
ATOM     23  C   UNL     1      22.742  34.824  36.286  1.00  0.00     0.278 C 
ENDBRANCH   6  22
BRANCH   8  24
ATOM     24  O   UNL     1      23.288  33.213  41.515  1.00  0.00    -0.493 OA
ATOM     25  C   UNL     1      23.421  33.701  42.845  1.00  0.00     0.278 C 
ENDBRANCH   8  24
BRANCH   7  26
ATOM     26  O   UNL     1      23.925  33.346  38.883  1.00  0.00    -0.490 OA
ATOM     27  C   UNL     1      24.369  32.065  38.432  1.00  0.00     0.278 C 
ENDBRANCH   7  26
TORSDOF 6
ENDMDL
MODEL 7
REMARK VINA RESULT:    -3.578      1.712      3.038
REMARK INTER + INTRA:          -5.307
REMARK INTER:                  -4.659
REMARK INTRA:                  -0.648
REMARK UNBOUND:                -0.474
REMARK SMILES COc1ccc(-c2cc(=O)c3c(OC)c(OC)c(OC)cc3o2)cc1OC
REMARK SMILES IDX 7 1 8 2 9 3 10 4 11 5 12 6 15 7 18 8 21 9 22 10 23 11 6 12
REMARK SMILES IDX 3 13 25 14 4 15 24 16 5 17 2 18 1 19 26 20 27 21 13 22 14 23
REMARK SMILES IDX 19 24 20 25 16 26 17 27
REMARK H PARENT
REMARK Flexibility Score: inf
ROOT
ATOM      1  C   UNL     1      16.304  36.076  39.206  1.00  0.00     0.138 A 
ATOM      2  C   UNL     1      16.272  36.168  37.804  1.00  0.00     0.100 A 
ATOM      3  C   UNL     1      17.364  35.716  37.063  1.00  0.00     0.197 A 
ATOM      4  O   UNL     1      17.332  35.822  35.806  1.00  0.00    -0.289 OA
ATOM      5  C   UNL     1      18.481  35.166  37.731  1.00  0.00     0.111 A 
ATOM      6  C   UNL     1      19.623  34.668  37.055  1.00  0.00     0.179 A 
ATOM      7  C   UNL     1      20.736  34.206  37.799  1.00  0.00     0.204 A 
ATOM      8  C   UNL     1      20.663  34.139  39.199  1.00  0.00     0.168 A 
ATOM      9  C   UNL     1      19.512  34.594  39.863  1.00  0.00     0.098 A 
ATOM     10  C   UNL     1      18.439  35.118  39.143  1.00  0.00     0.146 A 
ATOM     11  O   UNL     1      17.377  35.567  39.806  1.00  0.00    -0.456 OA
ENDROOT
BRANCH   1  12
ATOM     12  C   UNL     1      15.174  36.547  40.044  1.00  0.00     0.021 A 
ATOM     13  C   UNL     1      13.007  37.375  41.653  1.00  0.00     0.160 A 
ATOM     14  C   UNL     1      13.835  36.326  42.080  1.00  0.00     0.161 A 
ATOM     15  C   UNL     1      13.265  38.004  40.421  1.00  0.00     0.051 A 
ATOM     16  C   UNL     1      14.911  35.913  41.270  1.00  0.00     0.062 A 
ATOM     17  C   UNL     1      14.335  37.593  39.626  1.00  0.00     0.016 A 
BRANCH  13  18
ATOM     18  O   UNL     1      11.942  37.762  42.481  1.00  0.00    -0.493 OA
ATOM     19  C   UNL     1      10.565  37.580  42.163  1.00  0.00     0.278 C 
ENDBRANCH  13  18
BRANCH  14  20
ATOM     20  O   UNL     1      13.556  35.719  43.314  1.00  0.00    -0.493 OA
ATOM     21  C   UNL     1      14.446  34.852  44.007  1.00  0.00     0.278 C 
ENDBRANCH  14  20
ENDBRANCH   1  12
BRANCH   6  22
ATOM     22  O   UNL     1      19.636  34.596  35.661  1.00  0.00    -0.492 OA
ATOM     23  C   UNL     1      19.470  33.352  34.990  1.00  0.00     0.278 C 
ENDBRANCH   6  22
BRANCH   8  24
ATOM     24  O   UNL     1      21.767  33.621  39.898  1.00  0.00    -0.493 OA
ATOM     25  C   UNL     1      21.763  33.286  41.282  1.00  0.00     0.278 C 
ENDBRANCH   8  24
BRANCH   7  26
ATOM     26  O   UNL     1      21.940  33.800  37.198  1.00  0.00    -0.490 OA
ATOM     27  C   UNL     1      22.947  34.685  36.705  1.00  0.00     0.278 C 
ENDBRANCH   7  26
TORSDOF 6
ENDMDL
MODEL 8
REMARK VINA RESULT:    -3.577      1.777      7.711
REMARK INTER + INTRA:          -5.305
REMARK INTER:                  -4.643
REMARK INTRA:                  -0.661
REMARK UNBOUND:                -0.474
REMARK SMILES COc1ccc(-c2cc(=O)c3c(OC)c(OC)c(OC)cc3o2)cc1OC
REMARK SMILES IDX 7 1 8 2 9 3 10 4 11 5 12 6 15 7 18 8 21 9 22 10 23 11 6 12
REMARK SMILES IDX 3 13 25 14 4 15 24 16 5 17 2 18 1 19 26 20 27 21 13 22 14 23
REMARK SMILES IDX 19 24 20 25 16 26 17 27
REMARK H PARENT
REMARK Flexibility Score: inf
ROOT
ATOM      1  C   UNL     1      20.397  34.420  39.744  1.00  0.00     0.138 A 
ATOM      2  C   UNL     1      20.492  34.407  38.343  1.00  0.00     0.100 A 
ATOM      3  C   UNL     1      19.391  34.791  37.577  1.00  0.00     0.197 A 
ATOM      4  O   UNL     1      19.483  34.756  36.319  1.00  0.00    -0.289 OA
ATOM      5  C   UNL     1      18.200  35.194  38.221  1.00  0.00     0.111 A 
ATOM      6  C   UNL     1      17.042  35.615  37.520  1.00  0.00     0.179 A 
ATOM      7  C   UNL     1      15.860  35.928  38.236  1.00  0.00     0.204 A 
ATOM      8  C   UNL     1      15.871  35.927  39.640  1.00  0.00     0.168 A 
ATOM      9  C   UNL     1      17.034  35.549  40.331  1.00  0.00     0.098 A 
ATOM     10  C   UNL     1      18.181  35.170  39.635  1.00  0.00     0.146 A 
ATOM     11  O   UNL     1      19.256  34.791  40.321  1.00  0.00    -0.456 OA
ENDROOT
BRANCH   1  12
ATOM     12  C   UNL     1      21.533  34.017  40.607  1.00  0.00     0.021 A 
ATOM     13  C   UNL     1      23.696  33.313  42.280  1.00  0.00     0.160 A 
ATOM     14  C   UNL     1      22.617  34.042  42.801  1.00  0.00     0.161 A 
ATOM     15  C   UNL     1      23.691  32.941  40.923  1.00  0.00     0.051 A 
ATOM     16  C   UNL     1      21.544  34.395  41.960  1.00  0.00     0.062 A 
ATOM     17  C   UNL     1      22.622  33.291  40.096  1.00  0.00     0.016 A 
BRANCH  13  18
ATOM     18  O   UNL     1      24.752  32.977  43.142  1.00  0.00    -0.493 OA
ATOM     19  C   UNL     1      25.058  31.652  43.566  1.00  0.00     0.278 C 
ENDBRANCH  13  18
BRANCH  14  20
ATOM     20  O   UNL     1      22.648  34.396  44.159  1.00  0.00    -0.493 OA
ATOM     21  C   UNL     1      21.594  35.063  44.843  1.00  0.00     0.278 C 
ENDBRANCH  14  20
ENDBRANCH   1  12
BRANCH   6  22
ATOM     22  O   UNL     1      17.077  35.760  36.133  1.00  0.00    -0.492 OA
ATOM     23  C   UNL     1      17.104  37.050  35.531  1.00  0.00     0.278 C 
ENDBRANCH   6  22
BRANCH   8  24
ATOM     24  O   UNL     1      14.695  36.297  40.314  1.00  0.00    -0.493 OA
ATOM     25  C   UNL     1      14.413  35.992  41.675  1.00  0.00     0.278 C 
ENDBRANCH   8  24
BRANCH   7  26
ATOM     26  O   UNL     1      14.647  36.248  37.603  1.00  0.00    -0.490 OA
ATOM     27  C   UNL     1      13.722  35.293  37.079  1.00  0.00     0.278 C 
ENDBRANCH   7  26
TORSDOF 6
ENDMDL
