MODEL 1
REMARK VINA RESULT:    -4.702      0.000      0.000
REMARK INTER + INTRA:          -7.937
REMARK INTER:                  -6.489
REMARK INTRA:                  -1.448
REMARK UNBOUND:                -1.448
REMARK SMILES CC[C@@H](CC[C@@H](C)[C@@H]1CC[C@H]2C3=CC[C@@H]4C[C@@H](O)CC[C@]4(C)[C@@H]3CC[C@]21C)C(C)C
REMARK SMILES IDX 5 1 4 2 3 3 2 4 1 5 28 6 29 7 30 8 6 9 7 10 8 11 9 12 26 13
REMARK SMILES IDX 10 14 11 15 25 16 27 17 12 18 24 19 23 20 13 21 21 22 14 23
REMARK SMILES IDX 15 24 20 25 22 26 16 27 19 28 17 29 18 30
REMARK H PARENT 18 31
REMARK Flexibility Score: inf
ROOT
ATOM      1  C   UNL     1       5.939   2.534  -4.305  1.00  0.00     0.004 C 
ENDROOT
BRANCH   1   2
ATOM      2  C   UNL     1       6.210   1.313  -3.386  1.00  0.00     0.004 C 
BRANCH   2   3
ATOM      3  C   UNL     1       5.368   0.066  -3.777  1.00  0.00    -0.009 C 
BRANCH   3   4
ATOM      4  C   UNL     1       4.399  -0.340  -2.628  1.00  0.00     0.000 C 
ATOM      5  C   UNL     1       4.618   0.488  -1.360  1.00  0.00     0.004 C 
ENDBRANCH   3   4
BRANCH   3   6
ATOM      6  C   UNL     1       6.253  -1.147  -4.224  1.00  0.00    -0.014 C 
ATOM      7  C   UNL     1       7.622  -0.689  -4.753  1.00  0.00     0.007 C 
ATOM      8  C   UNL     1       6.439  -2.215  -3.128  1.00  0.00     0.007 C 
ENDBRANCH   3   6
ENDBRANCH   2   3
ENDBRANCH   1   2
BRANCH   1   9
ATOM      9  C   UNL     1       4.818   3.486  -3.794  1.00  0.00    -0.011 C 
ATOM     10  C   UNL     1       5.426   4.635  -2.955  1.00  0.00     0.008 C 
BRANCH   9  11
ATOM     11  C   UNL     1       3.925   3.960  -5.005  1.00  0.00    -0.002 C 
ATOM     12  C   UNL     1       3.714   5.490  -5.039  1.00  0.00     0.005 C 
ATOM     13  C   UNL     1       2.485   3.361  -5.161  1.00  0.00    -0.023 C 
ATOM     14  C   UNL     1       2.271   5.771  -4.621  1.00  0.00     0.009 C 
ATOM     15  C   UNL     1       1.576   4.414  -4.464  1.00  0.00     0.021 C 
ATOM     16  C   UNL     1       2.174   3.232  -6.703  1.00  0.00     0.008 C 
ATOM     17  C   UNL     1       2.310   1.961  -4.520  1.00  0.00     0.012 C 
ATOM     18  C   UNL     1       0.157   4.377  -5.008  1.00  0.00    -0.067 C 
ATOM     19  C   UNL     1       0.676   3.206  -7.081  1.00  0.00     0.009 C 
ATOM     20  C   UNL     1      -0.019   4.460  -6.507  1.00  0.00     0.021 C 
ATOM     21  C   UNL     1      -0.817   3.835  -4.250  1.00  0.00    -0.027 C 
ATOM     22  C   UNL     1      -1.520   4.757  -6.917  1.00  0.00    -0.023 C 
ATOM     23  C   UNL     1      -1.982   3.142  -4.888  1.00  0.00     0.031 C 
ATOM     24  C   UNL     1      -2.582   3.937  -6.065  1.00  0.00     0.002 C 
ATOM     25  C   UNL     1      -1.730   4.526  -8.448  1.00  0.00     0.010 C 
ATOM     26  C   UNL     1      -1.760   6.275  -6.636  1.00  0.00     0.012 C 
ATOM     27  C   UNL     1      -3.453   2.995  -6.926  1.00  0.00     0.036 C 
ATOM     28  C   UNL     1      -3.199   4.666  -8.875  1.00  0.00     0.032 C 
ATOM     29  C   UNL     1      -4.155   3.745  -8.072  1.00  0.00     0.114 C 
BRANCH  29  30
ATOM     30  O   UNL     1      -5.223   4.495  -7.547  1.00  0.00    -0.393 OA
ATOM     31  H   UNL     1      -5.170   5.396  -7.960  1.00  0.00     0.210 HD
ENDBRANCH  29  30
ENDBRANCH   9  11
ENDBRANCH   1   9
TORSDOF 7
ENDMDL
MODEL 2
REMARK VINA RESULT:    -4.684      4.003      9.899
REMARK INTER + INTRA:          -7.912
REMARK INTER:                  -6.746
REMARK INTRA:                  -1.165
REMARK UNBOUND:                -1.448
REMARK SMILES CC[C@@H](CC[C@@H](C)[C@@H]1CC[C@H]2C3=CC[C@@H]4C[C@@H](O)CC[C@]4(C)[C@@H]3CC[C@]21C)C(C)C
REMARK SMILES IDX 5 1 4 2 3 3 2 4 1 5 28 6 29 7 30 8 6 9 7 10 8 11 9 12 26 13
REMARK SMILES IDX 10 14 11 15 25 16 27 17 12 18 24 19 23 20 13 21 21 22 14 23
REMARK SMILES IDX 15 24 20 25 22 26 16 27 19 28 17 29 18 30
REMARK H PARENT 18 31
REMARK Flexibility Score: inf
ROOT
ATOM      1  C   UNL     1       1.939   3.400  -4.474  1.00  0.00     0.004 C 
ENDROOT
BRANCH   1   2
ATOM      2  C   UNL     1       0.755   2.418  -4.257  1.00  0.00     0.004 C 
BRANCH   2   3
ATOM      3  C   UNL     1      -0.272   2.447  -5.423  1.00  0.00    -0.009 C 
BRANCH   3   4
ATOM      4  C   UNL     1       0.182   3.426  -6.547  1.00  0.00     0.000 C 
ATOM      5  C   UNL     1       0.528   2.698  -7.848  1.00  0.00     0.004 C 
ENDBRANCH   3   4
BRANCH   3   6
ATOM      6  C   UNL     1      -1.726   2.776  -4.942  1.00  0.00    -0.014 C 
ATOM      7  C   UNL     1      -1.807   4.160  -4.277  1.00  0.00     0.007 C 
ATOM      8  C   UNL     1      -2.788   2.659  -6.054  1.00  0.00     0.007 C 
ENDBRANCH   3   6
ENDBRANCH   2   3
ENDBRANCH   1   2
BRANCH   1   9
ATOM      9  C   UNL     1       3.253   2.722  -4.961  1.00  0.00    -0.011 C 
ATOM     10  C   UNL     1       3.858   3.506  -6.149  1.00  0.00     0.008 C 
BRANCH   9  11
ATOM     11  C   UNL     1       4.235   2.520  -3.742  1.00  0.00    -0.002 C 
ATOM     12  C   UNL     1       5.676   2.989  -4.041  1.00  0.00     0.005 C 
ATOM     13  C   UNL     1       4.406   1.083  -3.139  1.00  0.00    -0.023 C 
ATOM     14  C   UNL     1       6.548   1.744  -4.198  1.00  0.00     0.009 C 
ATOM     15  C   UNL     1       5.668   0.534  -3.864  1.00  0.00     0.021 C 
ATOM     16  C   UNL     1       4.627   1.229  -1.584  1.00  0.00     0.008 C 
ATOM     17  C   UNL     1       3.185   0.155  -3.363  1.00  0.00     0.012 C 
ATOM     18  C   UNL     1       6.368  -0.533  -3.038  1.00  0.00    -0.067 C 
ATOM     19  C   UNL     1       5.353   0.048  -0.900  1.00  0.00     0.009 C 
ATOM     20  C   UNL     1       6.706  -0.196  -1.604  1.00  0.00     0.021 C 
ATOM     21  C   UNL     1       6.259  -1.823  -3.414  1.00  0.00    -0.027 C 
ATOM     22  C   UNL     1       7.721  -1.235  -0.969  1.00  0.00    -0.023 C 
ATOM     23  C   UNL     1       6.278  -2.918  -2.391  1.00  0.00     0.031 C 
ATOM     24  C   UNL     1       7.398  -2.744  -1.346  1.00  0.00     0.002 C 
ATOM     25  C   UNL     1       7.804  -1.048   0.580  1.00  0.00     0.010 C 
ATOM     26  C   UNL     1       9.127  -0.890  -1.558  1.00  0.00     0.012 C 
ATOM     27  C   UNL     1       7.088  -3.624  -0.115  1.00  0.00     0.036 C 
ATOM     28  C   UNL     1       8.668  -2.119   1.263  1.00  0.00     0.032 C 
ATOM     29  C   UNL     1       8.214  -3.566   0.934  1.00  0.00     0.114 C 
BRANCH  29  30
ATOM     30  O   UNL     1       9.307  -4.326   0.480  1.00  0.00    -0.393 OA
ATOM     31  H   UNL     1       9.108  -4.580  -0.458  1.00  0.00     0.210 HD
ENDBRANCH  29  30
ENDBRANCH   9  11
ENDBRANCH   1   9
TORSDOF 7
ENDMDL
MODEL 3
REMARK VINA RESULT:    -4.642      4.126      9.955
REMARK INTER + INTRA:          -7.854
REMARK INTER:                  -6.438
REMARK INTRA:                  -1.417
REMARK UNBOUND:                -1.448
REMARK SMILES CC[C@@H](CC[C@@H](C)[C@@H]1CC[C@H]2C3=CC[C@@H]4C[C@@H](O)CC[C@]4(C)[C@@H]3CC[C@]21C)C(C)C
REMARK SMILES IDX 5 1 4 2 3 3 2 4 1 5 28 6 29 7 30 8 6 9 7 10 8 11 9 12 26 13
REMARK SMILES IDX 10 14 11 15 25 16 27 17 12 18 24 19 23 20 13 21 21 22 14 23
REMARK SMILES IDX 15 24 20 25 22 26 16 27 19 28 17 29 18 30
REMARK H PARENT 18 31
REMARK Flexibility Score: inf
ROOT
ATOM      1  C   UNL     1       4.483   3.253  -5.849  1.00  0.00     0.004 C 
ENDROOT
BRANCH   1   2
ATOM      2  C   UNL     1       3.202   4.063  -5.510  1.00  0.00     0.004 C 
BRANCH   2   3
ATOM      3  C   UNL     1       1.901   3.229  -5.675  1.00  0.00    -0.009 C 
BRANCH   3   4
ATOM      4  C   UNL     1       1.065   3.727  -6.890  1.00  0.00     0.000 C 
ATOM      5  C   UNL     1       0.540   2.574  -7.749  1.00  0.00     0.004 C 
ENDBRANCH   3   4
BRANCH   3   6
ATOM      6  C   UNL     1       1.034   3.193  -4.370  1.00  0.00    -0.014 C 
ATOM      7  C   UNL     1      -0.078   4.255  -4.396  1.00  0.00     0.007 C 
ATOM      8  C   UNL     1       0.436   1.807  -4.061  1.00  0.00     0.007 C 
ENDBRANCH   3   6
ENDBRANCH   2   3
ENDBRANCH   1   2
BRANCH   1   9
ATOM      9  C   UNL     1       5.340   2.859  -4.610  1.00  0.00    -0.011 C 
ATOM     10  C   UNL     1       5.265   3.962  -3.528  1.00  0.00     0.008 C 
BRANCH   9  11
ATOM     11  C   UNL     1       4.928   1.421  -4.109  1.00  0.00    -0.002 C 
ATOM     12  C   UNL     1       3.973   1.453  -2.895  1.00  0.00     0.005 C 
ATOM     13  C   UNL     1       6.055   0.413  -3.696  1.00  0.00    -0.023 C 
ATOM     14  C   UNL     1       4.769   1.017  -1.665  1.00  0.00     0.009 C 
ATOM     15  C   UNL     1       6.159   0.595  -2.155  1.00  0.00     0.021 C 
ATOM     16  C   UNL     1       5.582  -1.039  -4.095  1.00  0.00     0.008 C 
ATOM     17  C   UNL     1       7.419   0.675  -4.383  1.00  0.00     0.012 C 
ATOM     18  C   UNL     1       6.703  -0.652  -1.479  1.00  0.00    -0.067 C 
ATOM     19  C   UNL     1       6.241  -2.194  -3.308  1.00  0.00     0.009 C 
ATOM     20  C   UNL     1       6.031  -1.968  -1.795  1.00  0.00     0.021 C 
ATOM     21  C   UNL     1       7.970  -0.643  -1.018  1.00  0.00    -0.027 C 
ATOM     22  C   UNL     1       6.454  -3.113  -0.784  1.00  0.00    -0.023 C 
ATOM     23  C   UNL     1       8.782  -1.901  -0.998  1.00  0.00     0.031 C 
ATOM     24  C   UNL     1       8.005  -3.109  -0.439  1.00  0.00     0.002 C 
ATOM     25  C   UNL     1       6.001  -4.511  -1.315  1.00  0.00     0.010 C 
ATOM     26  C   UNL     1       5.673  -2.840   0.541  1.00  0.00     0.012 C 
ATOM     27  C   UNL     1       8.722  -4.414  -0.851  1.00  0.00     0.036 C 
ATOM     28  C   UNL     1       6.506  -5.671  -0.443  1.00  0.00     0.032 C 
ATOM     29  C   UNL     1       8.046  -5.659  -0.250  1.00  0.00     0.114 C 
BRANCH  29  30
ATOM     30  O   UNL     1       8.363  -5.742   1.118  1.00  0.00    -0.393 OA
ATOM     31  H   UNL     1       7.512  -5.907   1.600  1.00  0.00     0.210 HD
ENDBRANCH  29  30
ENDBRANCH   9  11
ENDBRANCH   1   9
TORSDOF 7
ENDMDL
MODEL 4
REMARK VINA RESULT:    -4.568      3.497      6.416
REMARK INTER + INTRA:          -7.751
REMARK INTER:                  -6.027
REMARK INTRA:                  -1.725
REMARK UNBOUND:                -1.448
REMARK SMILES CC[C@@H](CC[C@@H](C)[C@@H]1CC[C@H]2C3=CC[C@@H]4C[C@@H](O)CC[C@]4(C)[C@@H]3CC[C@]21C)C(C)C
REMARK SMILES IDX 5 1 4 2 3 3 2 4 1 5 28 6 29 7 30 8 6 9 7 10 8 11 9 12 26 13
REMARK SMILES IDX 10 14 11 15 25 16 27 17 12 18 24 19 23 20 13 21 21 22 14 23
REMARK SMILES IDX 15 24 20 25 22 26 16 27 19 28 17 29 18 30
REMARK H PARENT 18 31
REMARK Flexibility Score: inf
ROOT
ATOM      1  C   UNL     1       0.347   2.577  -7.618  1.00  0.00     0.004 C 
ENDROOT
BRANCH   1   2
ATOM      2  C   UNL     1       1.471   3.392  -6.925  1.00  0.00     0.004 C 
BRANCH   2   3
ATOM      3  C   UNL     1       1.847   2.831  -5.525  1.00  0.00    -0.009 C 
BRANCH   3   4
ATOM      4  C   UNL     1       0.744   3.158  -4.475  1.00  0.00     0.000 C 
ATOM      5  C   UNL     1      -0.073   1.925  -4.085  1.00  0.00     0.004 C 
ENDBRANCH   3   4
BRANCH   3   6
ATOM      6  C   UNL     1       3.254   3.316  -5.035  1.00  0.00    -0.014 C 
ATOM      7  C   UNL     1       3.905   2.303  -4.079  1.00  0.00     0.007 C 
ATOM      8  C   UNL     1       4.224   3.661  -6.182  1.00  0.00     0.007 C 
ENDBRANCH   3   6
ENDBRANCH   2   3
ENDBRANCH   1   2
BRANCH   1   9
ATOM      9  C   UNL     1      -0.852   3.434  -8.119  1.00  0.00    -0.011 C 
ATOM     10  C   UNL     1      -1.318   2.950  -9.513  1.00  0.00     0.008 C 
BRANCH   9  11
ATOM     11  C   UNL     1      -1.987   3.462  -7.023  1.00  0.00    -0.002 C 
ATOM     12  C   UNL     1      -3.348   2.956  -7.547  1.00  0.00     0.005 C 
ATOM     13  C   UNL     1      -2.318   4.819  -6.312  1.00  0.00    -0.023 C 
ATOM     14  C   UNL     1      -4.269   4.167  -7.695  1.00  0.00     0.009 C 
ATOM     15  C   UNL     1      -3.513   5.378  -7.136  1.00  0.00     0.021 C 
ATOM     16  C   UNL     1      -2.718   4.505  -4.819  1.00  0.00     0.008 C 
ATOM     17  C   UNL     1      -1.138   5.824  -6.288  1.00  0.00     0.012 C 
ATOM     18  C   UNL     1      -4.373   6.319  -6.309  1.00  0.00    -0.067 C 
ATOM     19  C   UNL     1      -3.594   5.572  -4.124  1.00  0.00     0.009 C 
ATOM     20  C   UNL     1      -4.863   5.821  -4.968  1.00  0.00     0.021 C 
ATOM     21  C   UNL     1      -4.298   7.644  -6.542  1.00  0.00    -0.027 C 
ATOM     22  C   UNL     1      -6.009   6.738  -4.373  1.00  0.00    -0.023 C 
ATOM     23  C   UNL     1      -4.509   8.626  -5.431  1.00  0.00     0.031 C 
ATOM     24  C   UNL     1      -5.736   8.292  -4.559  1.00  0.00     0.002 C 
ATOM     25  C   UNL     1      -6.270   6.390  -2.873  1.00  0.00     0.010 C 
ATOM     26  C   UNL     1      -7.309   6.388  -5.167  1.00  0.00     0.012 C 
ATOM     27  C   UNL     1      -5.634   9.055  -3.220  1.00  0.00     0.036 C 
ATOM     28  C   UNL     1      -7.276   7.342  -2.206  1.00  0.00     0.032 C 
ATOM     29  C   UNL     1      -6.874   8.835  -2.334  1.00  0.00     0.114 C 
BRANCH  29  30
ATOM     30  O   UNL     1      -7.947   9.583  -2.850  1.00  0.00    -0.393 OA
ATOM     31  H   UNL     1      -8.615   9.665  -2.120  1.00  0.00     0.210 HD
ENDBRANCH  29  30
ENDBRANCH   9  11
ENDBRANCH   1   9
TORSDOF 7
ENDMDL
MODEL 5
REMARK VINA RESULT:    -4.529      3.725      9.081
REMARK INTER + INTRA:          -7.698
REMARK INTER:                  -5.770
REMARK INTRA:                  -1.928
REMARK UNBOUND:                -1.448
REMARK SMILES CC[C@@H](CC[C@@H](C)[C@@H]1CC[C@H]2C3=CC[C@@H]4C[C@@H](O)CC[C@]4(C)[C@@H]3CC[C@]21C)C(C)C
REMARK SMILES IDX 5 1 4 2 3 3 2 4 1 5 28 6 29 7 30 8 6 9 7 10 8 11 9 12 26 13
REMARK SMILES IDX 10 14 11 15 25 16 27 17 12 18 24 19 23 20 13 21 21 22 14 23
REMARK SMILES IDX 15 24 20 25 22 26 16 27 19 28 17 29 18 30
REMARK H PARENT 18 31
REMARK Flexibility Score: inf
ROOT
ATOM      1  C   UNL     1      -5.853   7.186  -5.728  1.00  0.00     0.004 C 
ENDROOT
BRANCH   1   2
ATOM      2  C   UNL     1      -5.741   7.789  -4.302  1.00  0.00     0.004 C 
BRANCH   2   3
ATOM      3  C   UNL     1      -5.831   6.712  -3.185  1.00  0.00    -0.009 C 
BRANCH   3   4
ATOM      4  C   UNL     1      -7.283   6.594  -2.635  1.00  0.00     0.000 C 
ATOM      5  C   UNL     1      -8.052   5.431  -3.265  1.00  0.00     0.004 C 
ENDBRANCH   3   4
BRANCH   3   6
ATOM      6  C   UNL     1      -4.806   6.956  -2.025  1.00  0.00    -0.014 C 
ATOM      7  C   UNL     1      -3.703   7.944  -2.436  1.00  0.00     0.007 C 
ATOM      8  C   UNL     1      -5.461   7.412  -0.706  1.00  0.00     0.007 C 
ENDBRANCH   3   6
ENDBRANCH   2   3
ENDBRANCH   1   2
BRANCH   1   9
ATOM      9  C   UNL     1      -4.954   5.937  -5.969  1.00  0.00    -0.011 C 
ATOM     10  C   UNL     1      -5.382   5.205  -7.263  1.00  0.00     0.008 C 
BRANCH   9  11
ATOM     11  C   UNL     1      -3.433   6.355  -5.926  1.00  0.00    -0.002 C 
ATOM     12  C   UNL     1      -2.847   6.651  -7.323  1.00  0.00     0.005 C 
ATOM     13  C   UNL     1      -2.400   5.380  -5.264  1.00  0.00    -0.023 C 
ATOM     14  C   UNL     1      -1.916   5.496  -7.692  1.00  0.00     0.009 C 
ATOM     15  C   UNL     1      -1.837   4.574  -6.470  1.00  0.00     0.021 C 
ATOM     16  C   UNL     1      -1.290   6.250  -4.557  1.00  0.00     0.008 C 
ATOM     17  C   UNL     1      -3.016   4.435  -4.200  1.00  0.00     0.012 C 
ATOM     18  C   UNL     1      -0.443   4.040  -6.184  1.00  0.00    -0.067 C 
ATOM     19  C   UNL     1       0.070   5.548  -4.341  1.00  0.00     0.009 C 
ATOM     20  C   UNL     1       0.595   5.023  -5.694  1.00  0.00     0.021 C 
ATOM     21  C   UNL     1      -0.289   2.724  -5.933  1.00  0.00    -0.027 C 
ATOM     22  C   UNL     1       2.062   4.428  -5.766  1.00  0.00    -0.023 C 
ATOM     23  C   UNL     1       0.792   2.246  -5.013  1.00  0.00     0.031 C 
ATOM     24  C   UNL     1       2.154   2.915  -5.289  1.00  0.00     0.002 C 
ATOM     25  C   UNL     1       3.061   5.329  -4.973  1.00  0.00     0.010 C 
ATOM     26  C   UNL     1       2.482   4.476  -7.270  1.00  0.00     0.012 C 
ATOM     27  C   UNL     1       3.076   2.719  -4.065  1.00  0.00     0.036 C 
ATOM     28  C   UNL     1       4.473   4.725  -4.893  1.00  0.00     0.032 C 
ATOM     29  C   UNL     1       4.486   3.288  -4.308  1.00  0.00     0.114 C 
BRANCH  29  30
ATOM     30  O   UNL     1       5.191   2.423  -5.164  1.00  0.00    -0.393 OA
ATOM     31  H   UNL     1       4.730   2.451  -6.042  1.00  0.00     0.210 HD
ENDBRANCH  29  30
ENDBRANCH   9  11
ENDBRANCH   1   9
TORSDOF 7
ENDMDL
MODEL 6
REMARK VINA RESULT:    -4.420      3.764      6.085
REMARK INTER + INTRA:          -7.547
REMARK INTER:                  -5.591
REMARK INTRA:                  -1.956
REMARK UNBOUND:                -1.448
REMARK SMILES CC[C@@H](CC[C@@H](C)[C@@H]1CC[C@H]2C3=CC[C@@H]4C[C@@H](O)CC[C@]4(C)[C@@H]3CC[C@]21C)C(C)C
REMARK SMILES IDX 5 1 4 2 3 3 2 4 1 5 28 6 29 7 30 8 6 9 7 10 8 11 9 12 26 13
REMARK SMILES IDX 10 14 11 15 25 16 27 17 12 18 24 19 23 20 13 21 21 22 14 23
REMARK SMILES IDX 15 24 20 25 22 26 16 27 19 28 17 29 18 30
REMARK H PARENT 18 31
REMARK Flexibility Score: inf
ROOT
ATOM      1  C   UNL     1       1.143   4.154  -7.563  1.00  0.00     0.004 C 
ENDROOT
BRANCH   1   2
ATOM      2  C   UNL     1       0.787   3.011  -6.574  1.00  0.00     0.004 C 
BRANCH   2   3
ATOM      3  C   UNL     1       1.968   2.639  -5.634  1.00  0.00    -0.009 C 
BRANCH   3   4
ATOM      4  C   UNL     1       1.467   2.363  -4.185  1.00  0.00     0.000 C 
ATOM      5  C   UNL     1      -0.019   2.000  -4.142  1.00  0.00     0.004 C 
ENDBRANCH   3   4
BRANCH   3   6
ATOM      6  C   UNL     1       3.110   3.712  -5.641  1.00  0.00    -0.014 C 
ATOM      7  C   UNL     1       2.930   4.744  -4.516  1.00  0.00     0.007 C 
ATOM      8  C   UNL     1       4.527   3.108  -5.585  1.00  0.00     0.007 C 
ENDBRANCH   3   6
ENDBRANCH   2   3
ENDBRANCH   1   2
BRANCH   1   9
ATOM      9  C   UNL     1       0.461   5.516  -7.240  1.00  0.00    -0.011 C 
ATOM     10  C   UNL     1       0.709   6.528  -8.384  1.00  0.00     0.008 C 
BRANCH   9  11
ATOM     11  C   UNL     1      -1.060   5.284  -6.889  1.00  0.00    -0.002 C 
ATOM     12  C   UNL     1      -2.021   6.018  -7.849  1.00  0.00     0.005 C 
ATOM     13  C   UNL     1      -1.571   5.661  -5.456  1.00  0.00    -0.023 C 
ATOM     14  C   UNL     1      -2.628   7.197  -7.089  1.00  0.00     0.009 C 
ATOM     15  C   UNL     1      -2.140   7.097  -5.640  1.00  0.00     0.021 C 
ATOM     16  C   UNL     1      -2.688   4.625  -5.047  1.00  0.00     0.008 C 
ATOM     17  C   UNL     1      -0.470   5.631  -4.365  1.00  0.00     0.012 C 
ATOM     18  C   UNL     1      -3.204   7.415  -4.602  1.00  0.00    -0.067 C 
ATOM     19  C   UNL     1      -3.688   5.111  -3.974  1.00  0.00     0.009 C 
ATOM     20  C   UNL     1      -4.339   6.430  -4.442  1.00  0.00     0.021 C 
ATOM     21  C   UNL     1      -2.898   8.253  -3.592  1.00  0.00    -0.027 C 
ATOM     22  C   UNL     1      -5.538   7.033  -3.599  1.00  0.00    -0.023 C 
ATOM     23  C   UNL     1      -3.539   8.090  -2.248  1.00  0.00     0.031 C 
ATOM     24  C   UNL     1      -5.062   7.867  -2.333  1.00  0.00     0.002 C 
ATOM     25  C   UNL     1      -6.541   5.909  -3.187  1.00  0.00     0.010 C 
ATOM     26  C   UNL     1      -6.297   8.011  -4.552  1.00  0.00     0.012 C 
ATOM     27  C   UNL     1      -5.568   7.281  -0.995  1.00  0.00     0.036 C 
ATOM     28  C   UNL     1      -7.650   6.414  -2.250  1.00  0.00     0.032 C 
ATOM     29  C   UNL     1      -7.099   7.115  -0.980  1.00  0.00     0.114 C 
BRANCH  29  30
ATOM     30  O   UNL     1      -7.698   8.377  -0.824  1.00  0.00    -0.393 OA
ATOM     31  H   UNL     1      -8.634   8.291  -1.141  1.00  0.00     0.210 HD
ENDBRANCH  29  30
ENDBRANCH   9  11
ENDBRANCH   1   9
TORSDOF 7
ENDMDL
MODEL 7
REMARK VINA RESULT:    -4.363      1.728      3.794
REMARK INTER + INTRA:          -7.469
REMARK INTER:                  -5.105
REMARK INTRA:                  -2.364
REMARK UNBOUND:                -1.448
REMARK SMILES CC[C@@H](CC[C@@H](C)[C@@H]1CC[C@H]2C3=CC[C@@H]4C[C@@H](O)CC[C@]4(C)[C@@H]3CC[C@]21C)C(C)C
REMARK SMILES IDX 5 1 4 2 3 3 2 4 1 5 28 6 29 7 30 8 6 9 7 10 8 11 9 12 26 13
REMARK SMILES IDX 10 14 11 15 25 16 27 17 12 18 24 19 23 20 13 21 21 22 14 23
REMARK SMILES IDX 15 24 20 25 22 26 16 27 19 28 17 29 18 30
REMARK H PARENT 18 31
REMARK Flexibility Score: inf
ROOT
ATOM      1  C   UNL     1       8.507   1.380  -2.349  1.00  0.00     0.004 C 
ENDROOT
BRANCH   1   2
ATOM      2  C   UNL     1       8.119  -0.042  -2.837  1.00  0.00     0.004 C 
BRANCH   2   3
ATOM      3  C   UNL     1       7.208  -0.797  -1.829  1.00  0.00    -0.009 C 
BRANCH   3   4
ATOM      4  C   UNL     1       6.159  -1.677  -2.571  1.00  0.00     0.000 C 
ATOM      5  C   UNL     1       6.234  -1.516  -4.091  1.00  0.00     0.004 C 
ENDBRANCH   3   4
BRANCH   3   6
ATOM      6  C   UNL     1       6.516   0.161  -0.802  1.00  0.00    -0.014 C 
ATOM      7  C   UNL     1       4.991  -0.030  -0.782  1.00  0.00     0.007 C 
ATOM      8  C   UNL     1       7.083   0.050   0.627  1.00  0.00     0.007 C 
ENDBRANCH   3   6
ENDBRANCH   2   3
ENDBRANCH   1   2
BRANCH   1   9
ATOM      9  C   UNL     1       7.999   2.533  -3.264  1.00  0.00    -0.011 C 
ATOM     10  C   UNL     1       9.145   3.053  -4.164  1.00  0.00     0.008 C 
BRANCH   9  11
ATOM     11  C   UNL     1       6.711   2.068  -4.047  1.00  0.00    -0.002 C 
ATOM     12  C   UNL     1       6.856   2.193  -5.579  1.00  0.00     0.005 C 
ATOM     13  C   UNL     1       5.340   2.757  -3.724  1.00  0.00    -0.023 C 
ATOM     14  C   UNL     1       5.996   3.371  -6.034  1.00  0.00     0.009 C 
ATOM     15  C   UNL     1       5.231   3.871  -4.803  1.00  0.00     0.021 C 
ATOM     16  C   UNL     1       4.202   1.673  -3.868  1.00  0.00     0.008 C 
ATOM     17  C   UNL     1       5.254   3.352  -2.295  1.00  0.00     0.012 C 
ATOM     18  C   UNL     1       3.784   4.243  -5.080  1.00  0.00    -0.067 C 
ATOM     19  C   UNL     1       2.787   2.226  -4.145  1.00  0.00     0.009 C 
ATOM     20  C   UNL     1       2.824   3.121  -5.403  1.00  0.00     0.021 C 
ATOM     21  C   UNL     1       3.310   5.412  -4.606  1.00  0.00    -0.027 C 
ATOM     22  C   UNL     1       1.458   3.657  -6.001  1.00  0.00    -0.023 C 
ATOM     23  C   UNL     1       1.870   5.548  -4.214  1.00  0.00     0.031 C 
ATOM     24  C   UNL     1       0.906   4.947  -5.256  1.00  0.00     0.002 C 
ATOM     25  C   UNL     1       0.385   2.522  -6.028  1.00  0.00     0.010 C 
ATOM     26  C   UNL     1       1.754   4.056  -7.483  1.00  0.00     0.012 C 
ATOM     27  C   UNL     1      -0.478   4.727  -4.604  1.00  0.00     0.036 C 
ATOM     28  C   UNL     1      -1.000   3.021  -6.469  1.00  0.00     0.032 C 
ATOM     29  C   UNL     1      -1.516   4.209  -5.616  1.00  0.00     0.114 C 
BRANCH  29  30
ATOM     30  O   UNL     1      -1.914   5.269  -6.451  1.00  0.00    -0.393 OA
ATOM     31  H   UNL     1      -2.372   5.932  -5.872  1.00  0.00     0.210 HD
ENDBRANCH  29  30
ENDBRANCH   9  11
ENDBRANCH   1   9
TORSDOF 7
ENDMDL
MODEL 8
REMARK VINA RESULT:    -4.323      3.287      8.576
REMARK INTER + INTRA:          -7.414
REMARK INTER:                  -5.073
REMARK INTRA:                  -2.341
REMARK UNBOUND:                -1.448
REMARK SMILES CC[C@@H](CC[C@@H](C)[C@@H]1CC[C@H]2C3=CC[C@@H]4C[C@@H](O)CC[C@]4(C)[C@@H]3CC[C@]21C)C(C)C
REMARK SMILES IDX 5 1 4 2 3 3 2 4 1 5 28 6 29 7 30 8 6 9 7 10 8 11 9 12 26 13
REMARK SMILES IDX 10 14 11 15 25 16 27 17 12 18 24 19 23 20 13 21 21 22 14 23
REMARK SMILES IDX 15 24 20 25 22 26 16 27 19 28 17 29 18 30
REMARK H PARENT 18 31
REMARK Flexibility Score: inf
ROOT
ATOM      1  C   UNL     1      -3.832   4.315  -6.250  1.00  0.00     0.004 C 
ENDROOT
BRANCH   1   2
ATOM      2  C   UNL     1      -3.661   5.722  -6.886  1.00  0.00     0.004 C 
BRANCH   2   3
ATOM      3  C   UNL     1      -3.648   6.862  -5.830  1.00  0.00    -0.009 C 
BRANCH   3   4
ATOM      4  C   UNL     1      -2.682   8.008  -6.254  1.00  0.00     0.000 C 
ATOM      5  C   UNL     1      -1.847   7.642  -7.482  1.00  0.00     0.004 C 
ENDBRANCH   3   4
BRANCH   3   6
ATOM      6  C   UNL     1      -3.315   6.349  -4.388  1.00  0.00    -0.014 C 
ATOM      7  C   UNL     1      -2.136   7.116  -3.767  1.00  0.00     0.007 C 
ATOM      8  C   UNL     1      -4.523   6.367  -3.430  1.00  0.00     0.007 C 
ENDBRANCH   3   6
ENDBRANCH   2   3
ENDBRANCH   1   2
BRANCH   1   9
ATOM      9  C   UNL     1      -2.676   3.322  -6.571  1.00  0.00    -0.011 C 
ATOM     10  C   UNL     1      -3.054   2.423  -7.771  1.00  0.00     0.008 C 
BRANCH   9  11
ATOM     11  C   UNL     1      -1.322   4.114  -6.746  1.00  0.00    -0.002 C 
ATOM     12  C   UNL     1      -0.587   3.772  -8.060  1.00  0.00     0.005 C 
ATOM     13  C   UNL     1      -0.224   3.987  -5.635  1.00  0.00    -0.023 C 
ATOM     14  C   UNL     1       0.633   2.923  -7.704  1.00  0.00     0.009 C 
ATOM     15  C   UNL     1       0.709   2.864  -6.174  1.00  0.00     0.021 C 
ATOM     16  C   UNL     1       0.519   5.374  -5.520  1.00  0.00     0.008 C 
ATOM     17  C   UNL     1      -0.780   3.626  -4.234  1.00  0.00     0.012 C 
ATOM     18  C   UNL     1       2.117   2.990  -5.617  1.00  0.00    -0.067 C 
ATOM     19  C   UNL     1       1.945   5.321  -4.928  1.00  0.00     0.009 C 
ATOM     20  C   UNL     1       2.802   4.331  -5.747  1.00  0.00     0.021 C 
ATOM     21  C   UNL     1       2.523   2.121  -4.670  1.00  0.00    -0.027 C 
ATOM     22  C   UNL     1       4.356   4.239  -5.451  1.00  0.00    -0.023 C 
ATOM     23  C   UNL     1       3.510   2.541  -3.624  1.00  0.00     0.031 C 
ATOM     24  C   UNL     1       4.708   3.316  -4.206  1.00  0.00     0.002 C 
ATOM     25  C   UNL     1       4.970   5.666  -5.283  1.00  0.00     0.010 C 
ATOM     26  C   UNL     1       5.007   3.596  -6.717  1.00  0.00     0.012 C 
ATOM     27  C   UNL     1       5.425   4.077  -3.069  1.00  0.00     0.036 C 
ATOM     28  C   UNL     1       6.447   5.632  -4.857  1.00  0.00     0.032 C 
ATOM     29  C   UNL     1       6.687   4.804  -3.568  1.00  0.00     0.114 C 
BRANCH  29  30
ATOM     30  O   UNL     1       7.709   3.861  -3.781  1.00  0.00    -0.393 OA
ATOM     31  H   UNL     1       7.594   3.155  -3.094  1.00  0.00     0.210 HD
ENDBRANCH  29  30
ENDBRANCH   9  11
ENDBRANCH   1   9
TORSDOF 7
ENDMDL
MODEL 9
REMARK VINA RESULT:    -4.257      2.072      4.571
REMARK INTER + INTRA:          -7.322
REMARK INTER:                  -4.926
REMARK INTRA:                  -2.396
REMARK UNBOUND:                -1.448
REMARK SMILES CC[C@@H](CC[C@@H](C)[C@@H]1CC[C@H]2C3=CC[C@@H]4C[C@@H](O)CC[C@]4(C)[C@@H]3CC[C@]21C)C(C)C
REMARK SMILES IDX 5 1 4 2 3 3 2 4 1 5 28 6 29 7 30 8 6 9 7 10 8 11 9 12 26 13
REMARK SMILES IDX 10 14 11 15 25 16 27 17 12 18 24 19 23 20 13 21 21 22 14 23
REMARK SMILES IDX 15 24 20 25 22 26 16 27 19 28 17 29 18 30
REMARK H PARENT 18 31
REMARK Flexibility Score: inf
ROOT
ATOM      1  C   UNL     1       5.666   4.479  -5.419  1.00  0.00     0.004 C 
ENDROOT
BRANCH   1   2
ATOM      2  C   UNL     1       5.253   5.608  -4.436  1.00  0.00     0.004 C 
BRANCH   2   3
ATOM      3  C   UNL     1       5.160   7.000  -5.123  1.00  0.00    -0.009 C 
BRANCH   3   4
ATOM      4  C   UNL     1       3.887   7.769  -4.662  1.00  0.00     0.000 C 
ATOM      5  C   UNL     1       3.160   7.060  -3.518  1.00  0.00     0.004 C 
ENDBRANCH   3   4
BRANCH   3   6
ATOM      6  C   UNL     1       5.232   6.911  -6.685  1.00  0.00    -0.014 C 
ATOM      7  C   UNL     1       4.019   7.582  -7.351  1.00  0.00     0.007 C 
ATOM      8  C   UNL     1       6.539   7.472  -7.278  1.00  0.00     0.007 C 
ENDBRANCH   3   6
ENDBRANCH   2   3
ENDBRANCH   1   2
BRANCH   1   9
ATOM      9  C   UNL     1       4.634   3.318  -5.532  1.00  0.00    -0.011 C 
ATOM     10  C   UNL     1       5.052   2.134  -4.629  1.00  0.00     0.008 C 
BRANCH   9  11
ATOM     11  C   UNL     1       3.179   3.867  -5.261  1.00  0.00    -0.002 C 
ATOM     12  C   UNL     1       2.415   3.055  -4.193  1.00  0.00     0.005 C 
ATOM     13  C   UNL     1       2.178   3.978  -6.462  1.00  0.00    -0.023 C 
ATOM     14  C   UNL     1       1.343   2.235  -4.910  1.00  0.00     0.009 C 
ATOM     15  C   UNL     1       1.370   2.650  -6.385  1.00  0.00     0.021 C 
ATOM     16  C   UNL     1       1.267   5.244  -6.225  1.00  0.00     0.008 C 
ATOM     17  C   UNL     1       2.863   4.135  -7.844  1.00  0.00     0.012 C 
ATOM     18  C   UNL     1      -0.005   2.794  -7.016  1.00  0.00    -0.067 C 
ATOM     19  C   UNL     1      -0.099   5.227  -6.945  1.00  0.00     0.009 C 
ATOM     20  C   UNL     1      -0.868   3.946  -6.555  1.00  0.00     0.021 C 
ATOM     21  C   UNL     1      -0.232   2.227  -8.217  1.00  0.00    -0.027 C 
ATOM     22  C   UNL     1      -2.374   3.786  -7.019  1.00  0.00    -0.023 C 
ATOM     23  C   UNL     1      -1.199   2.846  -9.180  1.00  0.00     0.031 C 
ATOM     24  C   UNL     1      -2.524   3.267  -8.513  1.00  0.00     0.002 C 
ATOM     25  C   UNL     1      -3.160   5.120  -6.807  1.00  0.00     0.010 C 
ATOM     26  C   UNL     1      -3.012   2.714  -6.079  1.00  0.00     0.012 C 
ATOM     27  C   UNL     1      -3.263   4.265  -9.432  1.00  0.00     0.036 C 
ATOM     28  C   UNL     1      -4.590   5.065  -7.368  1.00  0.00     0.032 C 
ATOM     29  C   UNL     1      -4.639   4.661  -8.865  1.00  0.00     0.114 C 
BRANCH  29  30
ATOM     30  O   UNL     1      -5.538   3.596  -9.051  1.00  0.00    -0.393 OA
ATOM     31  H   UNL     1      -6.426   3.915  -8.746  1.00  0.00     0.210 HD
ENDBRANCH  29  30
ENDBRANCH   9  11
ENDBRANCH   1   9
TORSDOF 7
ENDMDL
