MODEL 1
REMARK VINA RESULT:    -4.011      0.000      0.000
REMARK INTER + INTRA:          -8.239
REMARK INTER:                  -6.824
REMARK INTRA:                  -1.414
REMARK UNBOUND:                -1.414
REMARK SMILES CCCCCCCCCCCCCC(=O)[O-]
REMARK SMILES IDX 8 1 9 2 10 3 11 4 12 5 13 6 14 7 15 8 16 9 7 10 6 11 5 12
REMARK SMILES IDX 4 13 3 14 2 15 1 16
REMARK H PARENT
REMARK Flexibility Score: inf
ROOT
ATOM      1  C   UNL     1     302.625 325.020 647.505  1.00  0.00     0.000 C 
ENDROOT
BRANCH   1   2
ATOM      2  C   UNL     1     303.917 324.818 646.693  1.00  0.00     0.000 C 
BRANCH   2   3
ATOM      3  C   UNL     1     305.039 324.163 647.513  1.00  0.00     0.000 C 
BRANCH   3   4
ATOM      4  C   UNL     1     305.129 322.647 647.288  1.00  0.00     0.000 C 
BRANCH   4   5
ATOM      5  C   UNL     1     304.488 321.880 648.454  1.00  0.00     0.006 C 
BRANCH   5   6
ATOM      6  C   UNL     1     304.806 322.516 649.814  1.00  0.00     0.053 C 
BRANCH   6   7
ATOM      7  C   UNL     1     305.484 321.549 650.735  1.00  0.00     0.041 C 
ATOM      8  O   UNL     1     306.362 321.952 651.543  1.00  0.00    -0.550 OA
ATOM      9  O   UNL     1     305.170 320.197 650.680  1.00  0.00    -0.550 OA
ENDBRANCH   6   7
ENDBRANCH   5   6
ENDBRANCH   4   5
ENDBRANCH   3   4
ENDBRANCH   2   3
ENDBRANCH   1   2
BRANCH   1  10
ATOM     10  C   UNL     1     301.590 323.908 647.240  1.00  0.00     0.000 C 
BRANCH  10  11
ATOM     11  C   UNL     1     300.212 324.178 647.877  1.00  0.00    -0.000 C 
BRANCH  11  12
ATOM     12  C   UNL     1     299.012 323.988 646.933  1.00  0.00    -0.000 C 
BRANCH  12  13
ATOM     13  C   UNL     1     299.054 324.936 645.721  1.00  0.00    -0.000 C 
BRANCH  13  14
ATOM     14  C   UNL     1     298.951 326.415 646.125  1.00  0.00    -0.000 C 
BRANCH  14  15
ATOM     15  C   UNL     1     300.158 327.242 645.660  1.00  0.00    -0.003 C 
ATOM     16  C   UNL     1     300.919 326.525 644.548  1.00  0.00     0.004 C 
ENDBRANCH  14  15
ENDBRANCH  13  14
ENDBRANCH  12  13
ENDBRANCH  11  12
ENDBRANCH  10  11
ENDBRANCH   1  10
TORSDOF 12
ENDMDL
MODEL 2
REMARK VINA RESULT:    -3.992      0.964      1.758
REMARK INTER + INTRA:          -8.207
REMARK INTER:                  -6.746
REMARK INTRA:                  -1.461
REMARK UNBOUND:                -1.414
REMARK SMILES CCCCCCCCCCCCCC(=O)[O-]
REMARK SMILES IDX 8 1 9 2 10 3 11 4 12 5 13 6 14 7 15 8 16 9 7 10 6 11 5 12
REMARK SMILES IDX 4 13 3 14 2 15 1 16
REMARK H PARENT
REMARK Flexibility Score: inf
ROOT
ATOM      1  C   UNL     1     301.310 323.637 647.569  1.00  0.00     0.000 C 
ENDROOT
BRANCH   1   2
ATOM      2  C   UNL     1     302.399 324.720 647.672  1.00  0.00     0.000 C 
BRANCH   2   3
ATOM      3  C   UNL     1     303.802 324.133 647.892  1.00  0.00     0.000 C 
BRANCH   3   4
ATOM      4  C   UNL     1     303.923 322.686 647.391  1.00  0.00     0.000 C 
BRANCH   4   5
ATOM      5  C   UNL     1     304.312 321.740 648.537  1.00  0.00     0.006 C 
BRANCH   5   6
ATOM      6  C   UNL     1     305.078 322.463 649.653  1.00  0.00     0.053 C 
BRANCH   6   7
ATOM      7  C   UNL     1     305.548 321.513 650.711  1.00  0.00     0.041 C 
ATOM      8  O   UNL     1     306.282 321.921 651.649  1.00  0.00    -0.550 OA
ATOM      9  O   UNL     1     305.202 320.169 650.644  1.00  0.00    -0.550 OA
ENDBRANCH   6   7
ENDBRANCH   5   6
ENDBRANCH   4   5
ENDBRANCH   3   4
ENDBRANCH   2   3
ENDBRANCH   1   2
BRANCH   1  10
ATOM     10  C   UNL     1     299.894 324.212 647.786  1.00  0.00     0.000 C 
BRANCH  10  11
ATOM     11  C   UNL     1     299.238 324.749 646.498  1.00  0.00    -0.000 C 
BRANCH  11  12
ATOM     12  C   UNL     1     299.152 326.281 646.403  1.00  0.00    -0.000 C 
BRANCH  12  13
ATOM     13  C   UNL     1     300.273 326.887 645.540  1.00  0.00    -0.000 C 
BRANCH  13  14
ATOM     14  C   UNL     1     300.516 326.093 644.247  1.00  0.00    -0.000 C 
BRANCH  14  15
ATOM     15  C   UNL     1     301.966 325.605 644.115  1.00  0.00    -0.003 C 
ATOM     16  C   UNL     1     302.025 324.083 644.006  1.00  0.00     0.004 C 
ENDBRANCH  14  15
ENDBRANCH  13  14
ENDBRANCH  12  13
ENDBRANCH  11  12
ENDBRANCH  10  11
ENDBRANCH   1  10
TORSDOF 12
ENDMDL
MODEL 3
REMARK VINA RESULT:    -3.885      1.685      3.232
REMARK INTER + INTRA:          -8.024
REMARK INTER:                  -6.189
REMARK INTRA:                  -1.835
REMARK UNBOUND:                -1.414
REMARK SMILES CCCCCCCCCCCCCC(=O)[O-]
REMARK SMILES IDX 8 1 9 2 10 3 11 4 12 5 13 6 14 7 15 8 16 9 7 10 6 11 5 12
REMARK SMILES IDX 4 13 3 14 2 15 1 16
REMARK H PARENT
REMARK Flexibility Score: inf
ROOT
ATOM      1  C   UNL     1     299.229 325.301 646.632  1.00  0.00     0.000 C 
ENDROOT
BRANCH   1   2
ATOM      2  C   UNL     1     299.905 324.769 647.909  1.00  0.00     0.000 C 
BRANCH   2   3
ATOM      3  C   UNL     1     300.930 323.662 647.621  1.00  0.00     0.000 C 
BRANCH   3   4
ATOM      4  C   UNL     1     302.334 324.006 648.140  1.00  0.00     0.000 C 
BRANCH   4   5
ATOM      5  C   UNL     1     303.404 323.171 647.422  1.00  0.00     0.006 C 
BRANCH   5   6
ATOM      6  C   UNL     1     304.051 322.132 648.349  1.00  0.00     0.053 C 
BRANCH   6   7
ATOM      7  C   UNL     1     305.040 322.760 649.282  1.00  0.00     0.041 C 
ATOM      8  O   UNL     1     304.919 322.613 650.527  1.00  0.00    -0.550 OA
ATOM      9  O   UNL     1     306.079 323.534 648.780  1.00  0.00    -0.550 OA
ENDBRANCH   6   7
ENDBRANCH   5   6
ENDBRANCH   4   5
ENDBRANCH   3   4
ENDBRANCH   2   3
ENDBRANCH   1   2
BRANCH   1  10
ATOM     10  C   UNL     1     299.282 324.282 645.475  1.00  0.00     0.000 C 
BRANCH  10  11
ATOM     11  C   UNL     1     299.932 324.833 644.191  1.00  0.00    -0.000 C 
BRANCH  11  12
ATOM     12  C   UNL     1     301.341 324.294 643.893  1.00  0.00    -0.000 C 
BRANCH  12  13
ATOM     13  C   UNL     1     302.448 325.111 644.582  1.00  0.00    -0.000 C 
BRANCH  13  14
ATOM     14  C   UNL     1     302.254 326.626 644.411  1.00  0.00    -0.000 C 
BRANCH  14  15
ATOM     15  C   UNL     1     302.326 327.387 645.743  1.00  0.00    -0.003 C 
ATOM     16  C   UNL     1     303.542 326.954 646.557  1.00  0.00     0.004 C 
ENDBRANCH  14  15
ENDBRANCH  13  14
ENDBRANCH  12  13
ENDBRANCH  11  12
ENDBRANCH  10  11
ENDBRANCH   1  10
TORSDOF 12
ENDMDL
MODEL 4
REMARK VINA RESULT:    -3.797      1.538      3.173
REMARK INTER + INTRA:          -7.874
REMARK INTER:                  -6.288
REMARK INTRA:                  -1.586
REMARK UNBOUND:                -1.414
REMARK SMILES CCCCCCCCCCCCCC(=O)[O-]
REMARK SMILES IDX 8 1 9 2 10 3 11 4 12 5 13 6 14 7 15 8 16 9 7 10 6 11 5 12
REMARK SMILES IDX 4 13 3 14 2 15 1 16
REMARK H PARENT
REMARK Flexibility Score: inf
ROOT
ATOM      1  C   UNL     1     299.782 324.767 647.464  1.00  0.00     0.000 C 
ENDROOT
BRANCH   1   2
ATOM      2  C   UNL     1     300.780 323.599 647.563  1.00  0.00     0.000 C 
BRANCH   2   3
ATOM      3  C   UNL     1     302.205 324.061 647.904  1.00  0.00     0.000 C 
BRANCH   3   4
ATOM      4  C   UNL     1     303.204 322.897 647.972  1.00  0.00     0.000 C 
BRANCH   4   5
ATOM      5  C   UNL     1     304.542 323.358 648.570  1.00  0.00     0.006 C 
BRANCH   5   6
ATOM      6  C   UNL     1     304.713 322.908 650.028  1.00  0.00     0.053 C 
BRANCH   6   7
ATOM      7  C   UNL     1     305.526 321.655 650.131  1.00  0.00     0.041 C 
ATOM      8  O   UNL     1     304.959 320.546 650.318  1.00  0.00    -0.550 OA
ATOM      9  O   UNL     1     306.912 321.714 650.053  1.00  0.00    -0.550 OA
ENDBRANCH   6   7
ENDBRANCH   5   6
ENDBRANCH   4   5
ENDBRANCH   3   4
ENDBRANCH   2   3
ENDBRANCH   1   2
BRANCH   1  10
ATOM     10  C   UNL     1     298.982 324.741 646.145  1.00  0.00     0.000 C 
BRANCH  10  11
ATOM     11  C   UNL     1     299.847 324.467 644.899  1.00  0.00    -0.000 C 
BRANCH  11  12
ATOM     12  C   UNL     1     300.729 325.644 644.448  1.00  0.00    -0.000 C 
BRANCH  12  13
ATOM     13  C   UNL     1     302.225 325.285 644.409  1.00  0.00    -0.000 C 
BRANCH  13  14
ATOM     14  C   UNL     1     302.467 323.806 644.066  1.00  0.00    -0.000 C 
BRANCH  14  15
ATOM     15  C   UNL     1     303.892 323.344 644.404  1.00  0.00    -0.003 C 
ATOM     16  C   UNL     1     304.734 324.503 644.929  1.00  0.00     0.004 C 
ENDBRANCH  14  15
ENDBRANCH  13  14
ENDBRANCH  12  13
ENDBRANCH  11  12
ENDBRANCH  10  11
ENDBRANCH   1  10
TORSDOF 12
ENDMDL
MODEL 5
REMARK VINA RESULT:    -3.769      3.656      7.627
REMARK INTER + INTRA:          -7.827
REMARK INTER:                  -6.949
REMARK INTRA:                  -0.878
REMARK UNBOUND:                -1.414
REMARK SMILES CCCCCCCCCCCCCC(=O)[O-]
REMARK SMILES IDX 8 1 9 2 10 3 11 4 12 5 13 6 14 7 15 8 16 9 7 10 6 11 5 12
REMARK SMILES IDX 4 13 3 14 2 15 1 16
REMARK H PARENT
REMARK Flexibility Score: inf
ROOT
ATOM      1  C   UNL     1     303.042 323.225 647.031  1.00  0.00     0.000 C 
ENDROOT
BRANCH   1   2
ATOM      2  C   UNL     1     302.082 324.105 647.853  1.00  0.00     0.000 C 
BRANCH   2   3
ATOM      3  C   UNL     1     300.607 323.729 647.645  1.00  0.00     0.000 C 
BRANCH   3   4
ATOM      4  C   UNL     1     299.665 324.935 647.777  1.00  0.00     0.000 C 
BRANCH   4   5
ATOM      5  C   UNL     1     299.171 325.398 646.398  1.00  0.00     0.006 C 
BRANCH   5   6
ATOM      6  C   UNL     1     299.413 324.343 645.309  1.00  0.00     0.053 C 
BRANCH   6   7
ATOM      7  C   UNL     1     300.378 324.827 644.272  1.00  0.00     0.041 C 
ATOM      8  O   UNL     1     300.755 324.058 643.349  1.00  0.00    -0.550 OA
ATOM      9  O   UNL     1     300.889 326.117 644.342  1.00  0.00    -0.550 OA
ENDBRANCH   6   7
ENDBRANCH   5   6
ENDBRANCH   4   5
ENDBRANCH   3   4
ENDBRANCH   2   3
ENDBRANCH   1   2
BRANCH   1  10
ATOM     10  C   UNL     1     304.011 322.426 647.927  1.00  0.00     0.000 C 
BRANCH  10  11
ATOM     11  C   UNL     1     304.593 323.243 649.097  1.00  0.00    -0.000 C 
BRANCH  11  12
ATOM     12  C   UNL     1     306.109 323.492 649.025  1.00  0.00    -0.000 C 
BRANCH  12  13
ATOM     13  C   UNL     1     306.913 322.523 649.910  1.00  0.00    -0.000 C 
BRANCH  13  14
ATOM     14  C   UNL     1     307.121 321.152 649.245  1.00  0.00    -0.000 C 
BRANCH  14  15
ATOM     15  C   UNL     1     306.492 320.003 650.045  1.00  0.00    -0.003 C 
ATOM     16  C   UNL     1     305.919 320.505 651.368  1.00  0.00     0.004 C 
ENDBRANCH  14  15
ENDBRANCH  13  14
ENDBRANCH  12  13
ENDBRANCH  11  12
ENDBRANCH  10  11
ENDBRANCH   1  10
TORSDOF 12
ENDMDL
MODEL 6
REMARK VINA RESULT:    -3.692      1.036      1.949
REMARK INTER + INTRA:          -7.696
REMARK INTER:                  -6.473
REMARK INTRA:                  -1.223
REMARK UNBOUND:                -1.414
REMARK SMILES CCCCCCCCCCCCCC(=O)[O-]
REMARK SMILES IDX 8 1 9 2 10 3 11 4 12 5 13 6 14 7 15 8 16 9 7 10 6 11 5 12
REMARK SMILES IDX 4 13 3 14 2 15 1 16
REMARK H PARENT
REMARK Flexibility Score: inf
ROOT
ATOM      1  C   UNL     1     303.633 323.496 644.928  1.00  0.00     0.000 C 
ENDROOT
BRANCH   1   2
ATOM      2  C   UNL     1     304.733 323.319 645.990  1.00  0.00     0.000 C 
BRANCH   2   3
ATOM      3  C   UNL     1     305.259 321.878 646.066  1.00  0.00     0.000 C 
BRANCH   3   4
ATOM      4  C   UNL     1     305.540 321.426 647.507  1.00  0.00     0.000 C 
BRANCH   4   5
ATOM      5  C   UNL     1     304.365 321.780 648.431  1.00  0.00     0.006 C 
BRANCH   5   6
ATOM      6  C   UNL     1     304.824 322.503 649.705  1.00  0.00     0.053 C 
BRANCH   6   7
ATOM      7  C   UNL     1     305.570 321.588 650.626  1.00  0.00     0.041 C 
ATOM      8  O   UNL     1     305.152 320.417 650.831  1.00  0.00    -0.550 OA
ATOM      9  O   UNL     1     306.708 322.036 651.284  1.00  0.00    -0.550 OA
ENDBRANCH   6   7
ENDBRANCH   5   6
ENDBRANCH   4   5
ENDBRANCH   3   4
ENDBRANCH   2   3
ENDBRANCH   1   2
BRANCH   1  10
ATOM     10  C   UNL     1     302.510 324.441 645.404  1.00  0.00     0.000 C 
BRANCH  10  11
ATOM     11  C   UNL     1     302.314 324.453 646.932  1.00  0.00    -0.000 C 
BRANCH  11  12
ATOM     12  C   UNL     1     301.144 323.598 647.445  1.00  0.00    -0.000 C 
BRANCH  12  13
ATOM     13  C   UNL     1     299.886 324.432 647.749  1.00  0.00    -0.000 C 
BRANCH  13  14
ATOM     14  C   UNL     1     299.189 324.933 646.474  1.00  0.00    -0.000 C 
BRANCH  14  15
ATOM     15  C   UNL     1     298.930 326.446 646.496  1.00  0.00    -0.003 C 
ATOM     16  C   UNL     1     300.026 327.201 645.749  1.00  0.00     0.004 C 
ENDBRANCH  14  15
ENDBRANCH  13  14
ENDBRANCH  12  13
ENDBRANCH  11  12
ENDBRANCH  10  11
ENDBRANCH   1  10
TORSDOF 12
ENDMDL
MODEL 7
REMARK VINA RESULT:    -3.651      3.203      6.990
REMARK INTER + INTRA:          -7.627
REMARK INTER:                  -6.499
REMARK INTRA:                  -1.128
REMARK UNBOUND:                -1.414
REMARK SMILES CCCCCCCCCCCCCC(=O)[O-]
REMARK SMILES IDX 8 1 9 2 10 3 11 4 12 5 13 6 14 7 15 8 16 9 7 10 6 11 5 12
REMARK SMILES IDX 4 13 3 14 2 15 1 16
REMARK H PARENT
REMARK Flexibility Score: inf
ROOT
ATOM      1  C   UNL     1     300.805 323.595 647.482  1.00  0.00     0.000 C 
ENDROOT
BRANCH   1   2
ATOM      2  C   UNL     1     299.331 324.036 647.432  1.00  0.00     0.000 C 
BRANCH   2   3
ATOM      3  C   UNL     1     298.875 324.424 646.017  1.00  0.00     0.000 C 
BRANCH   3   4
ATOM      4  C   UNL     1     298.876 325.943 645.790  1.00  0.00     0.000 C 
BRANCH   4   5
ATOM      5  C   UNL     1     299.959 326.346 644.778  1.00  0.00     0.006 C 
BRANCH   5   6
ATOM      6  C   UNL     1     300.389 325.171 643.888  1.00  0.00     0.053 C 
BRANCH   6   7
ATOM      7  C   UNL     1     301.858 324.900 643.997  1.00  0.00     0.041 C 
ATOM      8  O   UNL     1     302.270 323.742 644.270  1.00  0.00    -0.550 OA
ATOM      9  O   UNL     1     302.772 325.933 643.830  1.00  0.00    -0.550 OA
ENDBRANCH   6   7
ENDBRANCH   5   6
ENDBRANCH   4   5
ENDBRANCH   3   4
ENDBRANCH   2   3
ENDBRANCH   1   2
BRANCH   1  10
ATOM     10  C   UNL     1     301.766 324.789 647.664  1.00  0.00     0.000 C 
BRANCH  10  11
ATOM     11  C   UNL     1     303.254 324.389 647.696  1.00  0.00    -0.000 C 
BRANCH  11  12
ATOM     12  C   UNL     1     303.525 322.881 647.564  1.00  0.00    -0.000 C 
BRANCH  12  13
ATOM     13  C   UNL     1     304.959 322.496 647.974  1.00  0.00    -0.000 C 
BRANCH  13  14
ATOM     14  C   UNL     1     304.989 321.457 649.105  1.00  0.00    -0.000 C 
BRANCH  14  15
ATOM     15  C   UNL     1     305.032 322.099 650.499  1.00  0.00    -0.003 C 
ATOM     16  C   UNL     1     306.350 321.792 651.204  1.00  0.00     0.004 C 
ENDBRANCH  14  15
ENDBRANCH  13  14
ENDBRANCH  12  13
ENDBRANCH  11  12
ENDBRANCH  10  11
ENDBRANCH   1  10
TORSDOF 12
ENDMDL
MODEL 8
REMARK VINA RESULT:    -3.616      1.948      4.099
REMARK INTER + INTRA:          -7.567
REMARK INTER:                  -5.800
REMARK INTRA:                  -1.767
REMARK UNBOUND:                -1.414
REMARK SMILES CCCCCCCCCCCCCC(=O)[O-]
REMARK SMILES IDX 8 1 9 2 10 3 11 4 12 5 13 6 14 7 15 8 16 9 7 10 6 11 5 12
REMARK SMILES IDX 4 13 3 14 2 15 1 16
REMARK H PARENT
REMARK Flexibility Score: inf
ROOT
ATOM      1  C   UNL     1     299.806 326.288 646.188  1.00  0.00     0.000 C 
ENDROOT
BRANCH   1   2
ATOM      2  C   UNL     1     298.876 325.075 646.365  1.00  0.00     0.000 C 
BRANCH   2   3
ATOM      3  C   UNL     1     299.514 323.953 647.198  1.00  0.00     0.000 C 
BRANCH   3   4
ATOM      4  C   UNL     1     300.813 324.394 647.888  1.00  0.00     0.000 C 
BRANCH   4   5
ATOM      5  C   UNL     1     301.972 323.453 647.527  1.00  0.00     0.006 C 
BRANCH   5   6
ATOM      6  C   UNL     1     303.232 323.736 648.357  1.00  0.00     0.053 C 
BRANCH   6   7
ATOM      7  C   UNL     1     304.201 322.596 648.304  1.00  0.00     0.041 C 
ATOM      8  O   UNL     1     304.437 322.015 647.211  1.00  0.00    -0.550 OA
ATOM      9  O   UNL     1     304.819 322.151 649.466  1.00  0.00    -0.550 OA
ENDBRANCH   6   7
ENDBRANCH   5   6
ENDBRANCH   4   5
ENDBRANCH   3   4
ENDBRANCH   2   3
ENDBRANCH   1   2
BRANCH   1  10
ATOM     10  C   UNL     1     299.570 327.013 644.846  1.00  0.00     0.000 C 
BRANCH  10  11
ATOM     11  C   UNL     1     299.453 326.062 643.639  1.00  0.00    -0.000 C 
BRANCH  11  12
ATOM     12  C   UNL     1     300.793 325.562 643.072  1.00  0.00    -0.000 C 
BRANCH  12  13
ATOM     13  C   UNL     1     301.050 324.075 643.379  1.00  0.00    -0.000 C 
BRANCH  13  14
ATOM     14  C   UNL     1     302.453 323.827 643.956  1.00  0.00    -0.000 C 
BRANCH  14  15
ATOM     15  C   UNL     1     303.183 325.128 644.318  1.00  0.00    -0.003 C 
ATOM     16  C   UNL     1     304.436 324.843 645.142  1.00  0.00     0.004 C 
ENDBRANCH  14  15
ENDBRANCH  13  14
ENDBRANCH  12  13
ENDBRANCH  11  12
ENDBRANCH  10  11
ENDBRANCH   1  10
TORSDOF 12
ENDMDL
MODEL 9
REMARK VINA RESULT:    -1.515      1.519      3.522
REMARK INTER + INTRA:          -3.992
REMARK INTER:                  -2.255
REMARK INTRA:                  -1.737
REMARK UNBOUND:                -1.414
REMARK SMILES CCCCCCCCCCCCCC(=O)[O-]
REMARK SMILES IDX 8 1 9 2 10 3 11 4 12 5 13 6 14 7 15 8 16 9 7 10 6 11 5 12
REMARK SMILES IDX 4 13 3 14 2 15 1 16
REMARK H PARENT
REMARK Flexibility Score: inf
ROOT
ATOM      1  C   UNL     1     299.127 324.366 645.663  1.00  0.00     0.000 C 
ENDROOT
BRANCH   1   2
ATOM      2  C   UNL     1     299.132 324.410 647.202  1.00  0.00     0.000 C 
BRANCH   2   3
ATOM      3  C   UNL     1     300.216 323.512 647.818  1.00  0.00     0.000 C 
BRANCH   3   4
ATOM      4  C   UNL     1     301.582 324.208 647.904  1.00  0.00     0.000 C 
BRANCH   4   5
ATOM      5  C   UNL     1     302.724 323.193 647.745  1.00  0.00     0.006 C 
BRANCH   5   6
ATOM      6  C   UNL     1     304.019 323.663 648.423  1.00  0.00     0.053 C 
BRANCH   6   7
ATOM      7  C   UNL     1     304.758 322.525 649.058  1.00  0.00     0.041 C 
ATOM      8  O   UNL     1     305.605 322.746 649.964  1.00  0.00    -0.550 OA
ATOM      9  O   UNL     1     304.536 321.223 648.628  1.00  0.00    -0.550 OA
ENDBRANCH   6   7
ENDBRANCH   5   6
ENDBRANCH   4   5
ENDBRANCH   3   4
ENDBRANCH   2   3
ENDBRANCH   1   2
BRANCH   1  10
ATOM     10  C   UNL     1     298.875 325.755 645.040  1.00  0.00     0.000 C 
BRANCH  10  11
ATOM     11  C   UNL     1     299.388 326.924 645.903  1.00  0.00    -0.000 C 
BRANCH  11  12
ATOM     12  C   UNL     1     300.597 327.678 645.324  1.00  0.00    -0.000 C 
BRANCH  12  13
ATOM     13  C   UNL     1     301.939 327.016 645.684  1.00  0.00    -0.000 C 
BRANCH  13  14
ATOM     14  C   UNL     1     302.665 326.450 644.453  1.00  0.00    -0.000 C 
BRANCH  14  15
ATOM     15  C   UNL     1     302.836 324.926 644.515  1.00  0.00    -0.003 C 
ATOM     16  C   UNL     1     301.972 324.234 643.464  1.00  0.00     0.004 C 
ENDBRANCH  14  15
ENDBRANCH  13  14
ENDBRANCH  12  13
ENDBRANCH  11  12
ENDBRANCH  10  11
ENDBRANCH   1  10
TORSDOF 12
ENDMDL
