MODEL 1
REMARK VINA RESULT:    -4.778      0.000      0.000
REMARK INTER + INTRA:          -5.530
REMARK INTER:                  -5.336
REMARK INTRA:                  -0.193
REMARK UNBOUND:                -0.193
REMARK SMILES CC(=O)c1ccc(O)cc1O
REMARK SMILES IDX 4 1 10 2 9 3 7 4 6 5 5 6 2 7 1 8 3 9 11 10 8 12
REMARK H PARENT 11 11 8 13
REMARK Flexibility Score: inf
ROOT
ATOM      1  C   UNL     1      11.904 -10.565 -43.859  1.00  0.00     0.059 A 
ATOM      2  C   UNL     1      13.121 -11.244 -44.112  1.00  0.00     0.130 A 
ATOM      3  C   UNL     1      13.231 -12.613 -43.821  1.00  0.00     0.093 A 
ATOM      4  C   UNL     1      12.156 -13.312 -43.269  1.00  0.00     0.119 A 
ATOM      5  C   UNL     1      10.959 -12.643 -43.000  1.00  0.00     0.047 A 
ATOM      6  C   UNL     1      10.835 -11.281 -43.289  1.00  0.00     0.019 A 
ENDROOT
BRANCH   1   7
ATOM      7  C   UNL     1      11.718  -9.120 -44.159  1.00  0.00     0.163 C 
ATOM      8  C   UNL     1      10.549  -8.335 -43.645  1.00  0.00     0.093 C 
ATOM      9  O   UNL     1      12.571  -8.521 -44.869  1.00  0.00    -0.294 OA
ENDBRANCH   1   7
BRANCH   2  10
ATOM     10  O   UNL     1      14.225 -10.566 -44.627  1.00  0.00    -0.507 OA
ATOM     11  H   UNL     1      14.611  -9.749 -44.169  1.00  0.00     0.293 HD
ENDBRANCH   2  10
BRANCH   4  12
ATOM     12  O   UNL     1      12.289 -14.670 -42.988  1.00  0.00    -0.508 OA
ATOM     13  H   UNL     1      12.823 -15.286 -43.591  1.00  0.00     0.293 HD
ENDBRANCH   4  12
TORSDOF 3
ENDMDL
MODEL 2
REMARK VINA RESULT:    -4.643      3.509      3.876
REMARK INTER + INTRA:          -5.379
REMARK INTER:                  -5.090
REMARK INTRA:                  -0.289
REMARK UNBOUND:                -0.193
REMARK SMILES CC(=O)c1ccc(O)cc1O
REMARK SMILES IDX 4 1 10 2 9 3 7 4 6 5 5 6 2 7 1 8 3 9 11 10 8 12
REMARK H PARENT 11 11 8 13
REMARK Flexibility Score: inf
ROOT
ATOM      1  C   UNL     1      10.088 -10.652 -45.047  1.00  0.00     0.059 A 
ATOM      2  C   UNL     1      10.398 -11.891 -45.659  1.00  0.00     0.130 A 
ATOM      3  C   UNL     1       9.424 -12.563 -46.412  1.00  0.00     0.093 A 
ATOM      4  C   UNL     1       8.141 -12.030 -46.553  1.00  0.00     0.119 A 
ATOM      5  C   UNL     1       7.822 -10.817 -45.936  1.00  0.00     0.047 A 
ATOM      6  C   UNL     1       8.785 -10.136 -45.186  1.00  0.00     0.019 A 
ENDROOT
BRANCH   1   7
ATOM      7  C   UNL     1      11.080  -9.883 -44.249  1.00  0.00     0.163 C 
ATOM      8  C   UNL     1      11.529  -8.506 -44.635  1.00  0.00     0.093 C 
ATOM      9  O   UNL     1      11.566 -10.397 -43.205  1.00  0.00    -0.294 OA
ENDBRANCH   1   7
BRANCH   2  10
ATOM     10  O   UNL     1      11.659 -12.468 -45.505  1.00  0.00    -0.507 OA
ATOM     11  H   UNL     1      12.500 -11.906 -45.446  1.00  0.00     0.293 HD
ENDBRANCH   2  10
BRANCH   4  12
ATOM     12  O   UNL     1       7.190 -12.716 -47.305  1.00  0.00    -0.508 OA
ATOM     13  H   UNL     1       7.123 -13.727 -47.279  1.00  0.00     0.293 HD
ENDBRANCH   4  12
TORSDOF 3
ENDMDL
MODEL 3
REMARK VINA RESULT:    -4.518      2.176      2.524
REMARK INTER + INTRA:          -5.240
REMARK INTER:                  -4.961
REMARK INTRA:                  -0.278
REMARK UNBOUND:                -0.193
REMARK SMILES CC(=O)c1ccc(O)cc1O
REMARK SMILES IDX 4 1 10 2 9 3 7 4 6 5 5 6 2 7 1 8 3 9 11 10 8 12
REMARK H PARENT 11 11 8 13
REMARK Flexibility Score: inf
ROOT
ATOM      1  C   UNL     1      10.464 -10.436 -44.434  1.00  0.00     0.059 A 
ATOM      2  C   UNL     1      10.948 -11.535 -43.684  1.00  0.00     0.130 A 
ATOM      3  C   UNL     1      10.417 -12.816 -43.897  1.00  0.00     0.093 A 
ATOM      4  C   UNL     1       9.401 -13.018 -44.833  1.00  0.00     0.119 A 
ATOM      5  C   UNL     1       8.905 -11.934 -45.563  1.00  0.00     0.047 A 
ATOM      6  C   UNL     1       9.429 -10.654 -45.364  1.00  0.00     0.019 A 
ENDROOT
BRANCH   1   7
ATOM      7  C   UNL     1      10.996  -9.056 -44.267  1.00  0.00     0.163 C 
ATOM      8  C   UNL     1      10.148  -7.920 -43.783  1.00  0.00     0.093 C 
ATOM      9  O   UNL     1      12.205  -8.824 -44.538  1.00  0.00    -0.294 OA
ENDBRANCH   1   7
BRANCH   2  10
ATOM     10  O   UNL     1      11.936 -11.360 -42.715  1.00  0.00    -0.507 OA
ATOM     11  H   UNL     1      12.004 -10.508 -42.170  1.00  0.00     0.293 HD
ENDBRANCH   2  10
BRANCH   4  12
ATOM     12  O   UNL     1       8.888 -14.299 -45.026  1.00  0.00    -0.508 OA
ATOM     13  H   UNL     1       7.891 -14.478 -45.012  1.00  0.00     0.293 HD
ENDBRANCH   4  12
TORSDOF 3
ENDMDL
MODEL 4
REMARK VINA RESULT:    -4.433      2.978      3.648
REMARK INTER + INTRA:          -5.145
REMARK INTER:                  -4.847
REMARK INTRA:                  -0.298
REMARK UNBOUND:                -0.193
REMARK SMILES CC(=O)c1ccc(O)cc1O
REMARK SMILES IDX 4 1 10 2 9 3 7 4 6 5 5 6 2 7 1 8 3 9 11 10 8 12
REMARK H PARENT 11 11 8 13
REMARK Flexibility Score: inf
ROOT
ATOM      1  C   UNL     1       9.999 -10.491 -44.907  1.00  0.00     0.059 A 
ATOM      2  C   UNL     1       8.754 -10.919 -45.428  1.00  0.00     0.130 A 
ATOM      3  C   UNL     1       8.558 -12.271 -45.752  1.00  0.00     0.093 A 
ATOM      4  C   UNL     1       9.586 -13.200 -45.579  1.00  0.00     0.119 A 
ATOM      5  C   UNL     1      10.823 -12.780 -45.082  1.00  0.00     0.047 A 
ATOM      6  C   UNL     1      11.029 -11.438 -44.753  1.00  0.00     0.019 A 
ENDROOT
BRANCH   1   7
ATOM      7  C   UNL     1      10.264  -9.077 -44.530  1.00  0.00     0.163 C 
ATOM      8  C   UNL     1      11.586  -8.414 -44.773  1.00  0.00     0.093 C 
ATOM      9  O   UNL     1       9.349  -8.399 -43.989  1.00  0.00    -0.294 OA
ENDBRANCH   1   7
BRANCH   2  10
ATOM     10  O   UNL     1       7.719 -10.010 -45.649  1.00  0.00    -0.507 OA
ATOM     11  H   UNL     1       7.006  -9.834 -44.951  1.00  0.00     0.293 HD
ENDBRANCH   2  10
BRANCH   4  12
ATOM     12  O   UNL     1       9.369 -14.536 -45.908  1.00  0.00    -0.508 OA
ATOM     13  H   UNL     1       9.782 -14.952 -46.734  1.00  0.00     0.293 HD
ENDBRANCH   4  12
TORSDOF 3
ENDMDL
MODEL 5
REMARK VINA RESULT:    -4.344      1.991      2.492
REMARK INTER + INTRA:          -5.045
REMARK INTER:                  -4.777
REMARK INTRA:                  -0.268
REMARK UNBOUND:                -0.193
REMARK SMILES CC(=O)c1ccc(O)cc1O
REMARK SMILES IDX 4 1 10 2 9 3 7 4 6 5 5 6 2 7 1 8 3 9 11 10 8 12
REMARK H PARENT 11 11 8 13
REMARK Flexibility Score: inf
ROOT
ATOM      1  C   UNL     1      10.991 -10.929 -44.109  1.00  0.00     0.059 A 
ATOM      2  C   UNL     1      10.141 -12.038 -44.336  1.00  0.00     0.130 A 
ATOM      3  C   UNL     1      10.551 -13.324 -43.951  1.00  0.00     0.093 A 
ATOM      4  C   UNL     1      11.799 -13.525 -43.359  1.00  0.00     0.119 A 
ATOM      5  C   UNL     1      12.651 -12.437 -43.149  1.00  0.00     0.047 A 
ATOM      6  C   UNL     1      12.252 -11.151 -43.524  1.00  0.00     0.019 A 
ENDROOT
BRANCH   1   7
ATOM      7  C   UNL     1      10.609  -9.539 -44.479  1.00  0.00     0.163 C 
ATOM      8  C   UNL     1      11.624  -8.474 -44.762  1.00  0.00     0.093 C 
ATOM      9  O   UNL     1       9.388  -9.236 -44.564  1.00  0.00    -0.294 OA
ENDBRANCH   1   7
BRANCH   2  10
ATOM     10  O   UNL     1       8.904 -11.876 -44.960  1.00  0.00    -0.507 OA
ATOM     11  H   UNL     1       8.827 -11.533 -45.911  1.00  0.00     0.293 HD
ENDBRANCH   2  10
BRANCH   4  12
ATOM     12  O   UNL     1      12.185 -14.811 -42.987  1.00  0.00    -0.508 OA
ATOM     13  H   UNL     1      11.893 -15.217 -42.105  1.00  0.00     0.293 HD
ENDBRANCH   4  12
TORSDOF 3
ENDMDL
MODEL 6
REMARK VINA RESULT:    -4.342      2.341      4.211
REMARK INTER + INTRA:          -5.043
REMARK INTER:                  -4.738
REMARK INTRA:                  -0.305
REMARK UNBOUND:                -0.193
REMARK SMILES CC(=O)c1ccc(O)cc1O
REMARK SMILES IDX 4 1 10 2 9 3 7 4 6 5 5 6 2 7 1 8 3 9 11 10 8 12
REMARK H PARENT 11 11 8 13
REMARK Flexibility Score: inf
ROOT
ATOM      1  C   UNL     1      10.676 -10.884 -44.419  1.00  0.00     0.059 A 
ATOM      2  C   UNL     1      11.129 -10.938 -43.079  1.00  0.00     0.130 A 
ATOM      3  C   UNL     1      11.034  -9.801 -42.261  1.00  0.00     0.093 A 
ATOM      4  C   UNL     1      10.508  -8.608 -42.761  1.00  0.00     0.119 A 
ATOM      5  C   UNL     1      10.076  -8.543 -44.089  1.00  0.00     0.047 A 
ATOM      6  C   UNL     1      10.162  -9.669 -44.912  1.00  0.00     0.019 A 
ENDROOT
BRANCH   1   7
ATOM      7  C   UNL     1      10.735 -12.058 -45.332  1.00  0.00     0.163 C 
ATOM      8  C   UNL     1       9.577 -12.469 -46.189  1.00  0.00     0.093 C 
ATOM      9  O   UNL     1      11.796 -12.737 -45.397  1.00  0.00    -0.294 OA
ENDBRANCH   1   7
BRANCH   2  10
ATOM     10  O   UNL     1      11.695 -12.103 -42.561  1.00  0.00    -0.507 OA
ATOM     11  H   UNL     1      11.640 -12.987 -43.054  1.00  0.00     0.293 HD
ENDBRANCH   2  10
BRANCH   4  12
ATOM     12  O   UNL     1      10.424  -7.492 -41.931  1.00  0.00    -0.508 OA
ATOM     13  H   UNL     1      10.306  -6.559 -42.308  1.00  0.00     0.293 HD
ENDBRANCH   4  12
TORSDOF 3
ENDMDL
MODEL 7
REMARK VINA RESULT:    -4.299      3.320      4.174
REMARK INTER + INTRA:          -4.996
REMARK INTER:                  -4.691
REMARK INTRA:                  -0.305
REMARK UNBOUND:                -0.193
REMARK SMILES CC(=O)c1ccc(O)cc1O
REMARK SMILES IDX 4 1 10 2 9 3 7 4 6 5 5 6 2 7 1 8 3 9 11 10 8 12
REMARK H PARENT 11 11 8 13
REMARK Flexibility Score: inf
ROOT
ATOM      1  C   UNL     1      10.544 -11.207 -44.942  1.00  0.00     0.059 A 
ATOM      2  C   UNL     1       9.418 -10.354 -45.037  1.00  0.00     0.130 A 
ATOM      3  C   UNL     1       8.284 -10.769 -45.753  1.00  0.00     0.093 A 
ATOM      4  C   UNL     1       8.259 -12.012 -46.389  1.00  0.00     0.119 A 
ATOM      5  C   UNL     1       9.375 -12.851 -46.315  1.00  0.00     0.047 A 
ATOM      6  C   UNL     1      10.508 -12.451 -45.601  1.00  0.00     0.019 A 
ENDROOT
BRANCH   1   7
ATOM      7  C   UNL     1      11.769 -10.834 -44.186  1.00  0.00     0.163 C 
ATOM      8  C   UNL     1      12.455 -11.779 -43.247  1.00  0.00     0.093 C 
ATOM      9  O   UNL     1      12.259  -9.682 -44.334  1.00  0.00    -0.294 OA
ENDBRANCH   1   7
BRANCH   2  10
ATOM     10  O   UNL     1       9.425  -9.091 -44.446  1.00  0.00    -0.507 OA
ATOM     11  H   UNL     1      10.076  -8.851 -43.708  1.00  0.00     0.293 HD
ENDBRANCH   2  10
BRANCH   4  12
ATOM     12  O   UNL     1       7.123 -12.401 -47.095  1.00  0.00    -0.508 OA
ATOM     13  H   UNL     1       7.110 -12.421 -48.108  1.00  0.00     0.293 HD
ENDBRANCH   4  12
TORSDOF 3
ENDMDL
MODEL 8
REMARK VINA RESULT:    -4.269      1.770      4.403
REMARK INTER + INTRA:          -4.962
REMARK INTER:                  -4.669
REMARK INTRA:                  -0.293
REMARK UNBOUND:                -0.193
REMARK SMILES CC(=O)c1ccc(O)cc1O
REMARK SMILES IDX 4 1 10 2 9 3 7 4 6 5 5 6 2 7 1 8 3 9 11 10 8 12
REMARK H PARENT 11 11 8 13
REMARK Flexibility Score: inf
ROOT
ATOM      1  C   UNL     1      12.487 -10.713 -43.906  1.00  0.00     0.059 A 
ATOM      2  C   UNL     1      11.329 -10.774 -43.092  1.00  0.00     0.130 A 
ATOM      3  C   UNL     1      10.458  -9.676 -43.030  1.00  0.00     0.093 A 
ATOM      4  C   UNL     1      10.729  -8.512 -43.752  1.00  0.00     0.119 A 
ATOM      5  C   UNL     1      11.879  -8.438 -44.542  1.00  0.00     0.047 A 
ATOM      6  C   UNL     1      12.752  -9.526 -44.616  1.00  0.00     0.019 A 
ENDROOT
BRANCH   1   7
ATOM      7  C   UNL     1      13.441 -11.848 -44.027  1.00  0.00     0.163 C 
ATOM      8  C   UNL     1      14.889 -11.723 -43.665  1.00  0.00     0.093 C 
ATOM      9  O   UNL     1      13.025 -12.962 -44.447  1.00  0.00    -0.294 OA
ENDBRANCH   1   7
BRANCH   2  10
ATOM     10  O   UNL     1      11.051 -11.908 -42.329  1.00  0.00    -0.507 OA
ATOM     11  H   UNL     1      11.646 -12.728 -42.355  1.00  0.00     0.293 HD
ENDBRANCH   2  10
BRANCH   4  12
ATOM     12  O   UNL     1       9.850  -7.434 -43.674  1.00  0.00    -0.508 OA
ATOM     13  H   UNL     1       8.925  -7.473 -44.085  1.00  0.00     0.293 HD
ENDBRANCH   4  12
TORSDOF 3
ENDMDL
MODEL 9
REMARK VINA RESULT:    -4.235      2.529      4.096
REMARK INTER + INTRA:          -4.924
REMARK INTER:                  -4.622
REMARK INTRA:                  -0.302
REMARK UNBOUND:                -0.193
REMARK SMILES CC(=O)c1ccc(O)cc1O
REMARK SMILES IDX 4 1 10 2 9 3 7 4 6 5 5 6 2 7 1 8 3 9 11 10 8 12
REMARK H PARENT 11 11 8 13
REMARK Flexibility Score: inf
ROOT
ATOM      1  C   UNL     1      11.258 -11.777 -44.556  1.00  0.00     0.059 A 
ATOM      2  C   UNL     1      10.975 -10.391 -44.499  1.00  0.00     0.130 A 
ATOM      3  C   UNL     1       9.728  -9.912 -44.929  1.00  0.00     0.093 A 
ATOM      4  C   UNL     1       8.764 -10.789 -45.430  1.00  0.00     0.119 A 
ATOM      5  C   UNL     1       9.044 -12.157 -45.506  1.00  0.00     0.047 A 
ATOM      6  C   UNL     1      10.280 -12.646 -45.077  1.00  0.00     0.019 A 
ENDROOT
BRANCH   1   7
ATOM      7  C   UNL     1      12.554 -12.348 -44.101  1.00  0.00     0.163 C 
ATOM      8  C   UNL     1      13.263 -13.434 -44.853  1.00  0.00     0.093 C 
ATOM      9  O   UNL     1      13.087 -11.909 -43.047  1.00  0.00    -0.294 OA
ENDBRANCH   1   7
BRANCH   2  10
ATOM     10  O   UNL     1      11.931  -9.484 -44.040  1.00  0.00    -0.507 OA
ATOM     11  H   UNL     1      12.455  -9.646 -43.188  1.00  0.00     0.293 HD
ENDBRANCH   2  10
BRANCH   4  12
ATOM     12  O   UNL     1       7.533 -10.291 -45.852  1.00  0.00    -0.508 OA
ATOM     13  H   UNL     1       7.169 -10.492 -46.776  1.00  0.00     0.293 HD
ENDBRANCH   4  12
TORSDOF 3
ENDMDL
