MODEL 1
REMARK VINA RESULT:    -6.586      0.000      0.000
REMARK INTER + INTRA:          -8.787
REMARK INTER:                  -8.318
REMARK INTRA:                  -0.469
REMARK UNBOUND:                -0.469
REMARK SMILES O=C(C=Cc1ccc(O)cc1)c1ccc(O)cc1O
REMARK SMILES IDX 4 1 3 2 5 3 6 4 7 5 8 6 11 7 10 8 9 9 2 11 1 12 12 13 18 14
REMARK SMILES IDX 13 15 17 16 14 17 15 18 19 19 16 21
REMARK H PARENT 9 10 19 20 16 22
REMARK Flexibility Score: inf
ROOT
ATOM      1  C   UNL     1      -8.383  -8.305  16.674  1.00  0.00     0.012 C 
ATOM      2  C   UNL     1      -8.934  -9.487  16.360  1.00  0.00     0.053 C 
ENDROOT
BRANCH   1   3
ATOM      3  C   UNL     1      -7.581  -7.495  15.724  1.00  0.00    -0.025 A 
ATOM      4  C   UNL     1      -7.446  -7.947  14.401  1.00  0.00     0.012 A 
ATOM      5  C   UNL     1      -6.708  -7.210  13.469  1.00  0.00     0.047 A 
ATOM      6  C   UNL     1      -6.105  -6.007  13.842  1.00  0.00     0.115 A 
ATOM      7  C   UNL     1      -6.983  -6.271  16.090  1.00  0.00     0.012 A 
ATOM      8  C   UNL     1      -6.247  -5.536  15.155  1.00  0.00     0.047 A 
BRANCH   6   9
ATOM      9  O   UNL     1      -5.372  -5.283  12.905  1.00  0.00    -0.508 OA
ATOM     10  H   UNL     1      -4.976  -5.727  12.084  1.00  0.00     0.293 HD
ENDBRANCH   6   9
ENDBRANCH   1   3
BRANCH   2  11
ATOM     11  C   UNL     1      -9.743 -10.260  17.330  1.00  0.00     0.189 C 
ATOM     12  O   UNL     1     -10.051  -9.747  18.440  1.00  0.00    -0.289 OA
BRANCH  11  13
ATOM     13  C   UNL     1     -10.241 -11.615  17.000  1.00  0.00     0.064 A 
ATOM     14  C   UNL     1     -11.242 -12.250  17.769  1.00  0.00     0.130 A 
ATOM     15  C   UNL     1      -9.721 -12.279  15.874  1.00  0.00     0.020 A 
ATOM     16  C   UNL     1     -11.672 -13.541  17.427  1.00  0.00     0.093 A 
ATOM     17  C   UNL     1     -10.161 -13.561  15.539  1.00  0.00     0.047 A 
ATOM     18  C   UNL     1     -11.133 -14.197  16.315  1.00  0.00     0.119 A 
BRANCH  14  19
ATOM     19  O   UNL     1     -11.826 -11.594  18.853  1.00  0.00    -0.507 OA
ATOM     20  H   UNL     1     -11.711 -10.598  18.997  1.00  0.00     0.293 HD
ENDBRANCH  14  19
BRANCH  18  21
ATOM     21  O   UNL     1     -11.558 -15.478  15.969  1.00  0.00    -0.508 OA
ATOM     22  H   UNL     1     -11.031 -16.301  16.236  1.00  0.00     0.293 HD
ENDBRANCH  18  21
ENDBRANCH  11  13
ENDBRANCH   2  11
TORSDOF 6
ENDMDL
MODEL 2
REMARK VINA RESULT:    -6.332      1.598      1.809
REMARK INTER + INTRA:          -8.467
REMARK INTER:                  -7.785
REMARK INTRA:                  -0.682
REMARK UNBOUND:                -0.469
REMARK SMILES O=C(C=Cc1ccc(O)cc1)c1ccc(O)cc1O
REMARK SMILES IDX 4 1 3 2 5 3 6 4 7 5 8 6 11 7 10 8 9 9 2 11 1 12 12 13 18 14
REMARK SMILES IDX 13 15 17 16 14 17 15 18 19 19 16 21
REMARK H PARENT 9 10 19 20 16 22
REMARK Flexibility Score: inf
ROOT
ATOM      1  C   UNL     1      -7.585  -9.370  15.829  1.00  0.00     0.012 C 
ATOM      2  C   UNL     1      -7.337 -10.680  15.685  1.00  0.00     0.053 C 
ENDROOT
BRANCH   1   3
ATOM      3  C   UNL     1      -6.961  -8.319  14.987  1.00  0.00    -0.025 A 
ATOM      4  C   UNL     1      -7.756  -7.246  14.552  1.00  0.00     0.012 A 
ATOM      5  C   UNL     1      -7.209  -6.227  13.766  1.00  0.00     0.047 A 
ATOM      6  C   UNL     1      -5.857  -6.260  13.414  1.00  0.00     0.115 A 
ATOM      7  C   UNL     1      -5.594  -8.337  14.642  1.00  0.00     0.012 A 
ATOM      8  C   UNL     1      -5.049  -7.315  13.857  1.00  0.00     0.047 A 
BRANCH   6   9
ATOM      9  O   UNL     1      -5.324  -5.239  12.631  1.00  0.00    -0.508 OA
ATOM     10  H   UNL     1      -4.415  -5.328  12.191  1.00  0.00     0.293 HD
ENDBRANCH   6   9
ENDBRANCH   1   3
BRANCH   2  11
ATOM     11  C   UNL     1      -7.991 -11.702  16.533  1.00  0.00     0.189 C 
ATOM     12  O   UNL     1      -7.430 -12.093  17.593  1.00  0.00    -0.289 OA
BRANCH  11  13
ATOM     13  C   UNL     1      -9.325 -12.244  16.184  1.00  0.00     0.064 A 
ATOM     14  C   UNL     1     -10.348 -12.389  17.149  1.00  0.00     0.130 A 
ATOM     15  C   UNL     1      -9.590 -12.602  14.850  1.00  0.00     0.020 A 
ATOM     16  C   UNL     1     -11.591 -12.921  16.774  1.00  0.00     0.093 A 
ATOM     17  C   UNL     1     -10.833 -13.125  14.487  1.00  0.00     0.047 A 
ATOM     18  C   UNL     1     -11.834 -13.290  15.447  1.00  0.00     0.119 A 
BRANCH  14  19
ATOM     19  O   UNL     1     -10.142 -11.982  18.467  1.00  0.00    -0.507 OA
ATOM     20  H   UNL     1     -10.326 -11.031  18.766  1.00  0.00     0.293 HD
ENDBRANCH  14  19
BRANCH  18  21
ATOM     21  O   UNL     1     -13.067 -13.817  15.069  1.00  0.00    -0.508 OA
ATOM     22  H   UNL     1     -13.440 -13.677  14.137  1.00  0.00     0.293 HD
ENDBRANCH  18  21
ENDBRANCH  11  13
ENDBRANCH   2  11
TORSDOF 6
ENDMDL
MODEL 3
REMARK VINA RESULT:    -6.208     11.341     13.067
REMARK INTER + INTRA:          -8.311
REMARK INTER:                  -7.873
REMARK INTRA:                  -0.438
REMARK UNBOUND:                -0.469
REMARK SMILES O=C(C=Cc1ccc(O)cc1)c1ccc(O)cc1O
REMARK SMILES IDX 4 1 3 2 5 3 6 4 7 5 8 6 11 7 10 8 9 9 2 11 1 12 12 13 18 14
REMARK SMILES IDX 13 15 17 16 14 17 15 18 19 19 16 21
REMARK H PARENT 9 10 19 20 16 22
REMARK Flexibility Score: inf
ROOT
ATOM      1  C   UNL     1     -11.739 -20.983  16.059  1.00  0.00     0.012 C 
ATOM      2  C   UNL     1     -12.868 -21.464  15.519  1.00  0.00     0.053 C 
ENDROOT
BRANCH   1   3
ATOM      3  C   UNL     1     -10.924 -21.722  17.056  1.00  0.00    -0.025 A 
ATOM      4  C   UNL     1     -10.899 -23.125  16.997  1.00  0.00     0.012 A 
ATOM      5  C   UNL     1     -10.137 -23.862  17.908  1.00  0.00     0.047 A 
ATOM      6  C   UNL     1      -9.381 -23.208  18.885  1.00  0.00     0.115 A 
ATOM      7  C   UNL     1     -10.147 -21.068  18.033  1.00  0.00     0.012 A 
ATOM      8  C   UNL     1      -9.385 -21.808  18.943  1.00  0.00     0.047 A 
BRANCH   6   9
ATOM      9  O   UNL     1      -8.627 -23.954  19.787  1.00  0.00    -0.508 OA
ATOM     10  H   UNL     1      -9.021 -24.749  20.277  1.00  0.00     0.293 HD
ENDBRANCH   6   9
ENDBRANCH   1   3
BRANCH   2  11
ATOM     11  C   UNL     1     -13.646 -20.705  14.515  1.00  0.00     0.189 C 
ATOM     12  O   UNL     1     -13.233 -20.631  13.326  1.00  0.00    -0.289 OA
BRANCH  11  13
ATOM     13  C   UNL     1     -14.934 -20.067  14.871  1.00  0.00     0.064 A 
ATOM     14  C   UNL     1     -14.994 -18.894  15.657  1.00  0.00     0.130 A 
ATOM     15  C   UNL     1     -16.131 -20.629  14.392  1.00  0.00     0.020 A 
ATOM     16  C   UNL     1     -16.239 -18.333  15.980  1.00  0.00     0.093 A 
ATOM     17  C   UNL     1     -17.364 -20.059  14.715  1.00  0.00     0.047 A 
ATOM     18  C   UNL     1     -17.423 -18.914  15.512  1.00  0.00     0.119 A 
BRANCH  14  19
ATOM     19  O   UNL     1     -13.825 -18.272  16.093  1.00  0.00    -0.507 OA
ATOM     20  H   UNL     1     -13.780 -17.271  16.250  1.00  0.00     0.293 HD
ENDBRANCH  14  19
BRANCH  18  21
ATOM     21  O   UNL     1     -18.661 -18.360  15.829  1.00  0.00    -0.508 OA
ATOM     22  H   UNL     1     -19.294 -18.813  16.478  1.00  0.00     0.293 HD
ENDBRANCH  18  21
ENDBRANCH  11  13
ENDBRANCH   2  11
TORSDOF 6
ENDMDL
MODEL 4
REMARK VINA RESULT:    -6.108      1.440      7.545
REMARK INTER + INTRA:          -8.184
REMARK INTER:                  -7.608
REMARK INTRA:                  -0.576
REMARK UNBOUND:                -0.469
REMARK SMILES O=C(C=Cc1ccc(O)cc1)c1ccc(O)cc1O
REMARK SMILES IDX 4 1 3 2 5 3 6 4 7 5 8 6 11 7 10 8 9 9 2 11 1 12 12 13 18 14
REMARK SMILES IDX 13 15 17 16 14 17 15 18 19 19 16 21
REMARK H PARENT 9 10 19 20 16 22
REMARK Flexibility Score: inf
ROOT
ATOM      1  C   UNL     1      -9.034 -10.505  16.901  1.00  0.00     0.012 C 
ATOM      2  C   UNL     1      -9.199  -9.205  16.615  1.00  0.00     0.053 C 
ENDROOT
BRANCH   1   3
ATOM      3  C   UNL     1     -10.030 -11.553  16.567  1.00  0.00    -0.025 A 
ATOM      4  C   UNL     1     -10.233 -11.882  15.217  1.00  0.00     0.012 A 
ATOM      5  C   UNL     1     -11.154 -12.871  14.856  1.00  0.00     0.047 A 
ATOM      6  C   UNL     1     -11.875 -13.553  15.838  1.00  0.00     0.115 A 
ATOM      7  C   UNL     1     -10.750 -12.257  17.554  1.00  0.00     0.012 A 
ATOM      8  C   UNL     1     -11.669 -13.246  17.190  1.00  0.00     0.047 A 
BRANCH   6   9
ATOM      9  O   UNL     1     -12.789 -14.535  15.465  1.00  0.00    -0.508 OA
ATOM     10  H   UNL     1     -13.048 -14.677  14.496  1.00  0.00     0.293 HD
ENDBRANCH   6   9
ENDBRANCH   1   3
BRANCH   2  11
ATOM     11  C   UNL     1      -8.176  -8.190  16.949  1.00  0.00     0.189 C 
ATOM     12  O   UNL     1      -7.854  -7.995  18.153  1.00  0.00    -0.289 OA
BRANCH  11  13
ATOM     13  C   UNL     1      -7.483  -7.426  15.887  1.00  0.00     0.064 A 
ATOM     14  C   UNL     1      -6.854  -6.187  16.147  1.00  0.00     0.130 A 
ATOM     15  C   UNL     1      -7.426  -7.959  14.587  1.00  0.00     0.020 A 
ATOM     16  C   UNL     1      -6.222  -5.492  15.105  1.00  0.00     0.093 A 
ATOM     17  C   UNL     1      -6.789  -7.262  13.558  1.00  0.00     0.047 A 
ATOM     18  C   UNL     1      -6.189  -6.027  13.813  1.00  0.00     0.119 A 
BRANCH  14  19
ATOM     19  O   UNL     1      -6.833  -5.660  17.438  1.00  0.00    -0.507 OA
ATOM     20  H   UNL     1      -6.248  -4.869  17.682  1.00  0.00     0.293 HD
ENDBRANCH  14  19
BRANCH  18  21
ATOM     21  O   UNL     1      -5.561  -5.342  12.775  1.00  0.00    -0.508 OA
ATOM     22  H   UNL     1      -4.576  -5.106  12.817  1.00  0.00     0.293 HD
ENDBRANCH  18  21
ENDBRANCH  11  13
ENDBRANCH   2  11
TORSDOF 6
ENDMDL
MODEL 5
REMARK VINA RESULT:    -5.943      2.301      7.670
REMARK INTER + INTRA:          -7.976
REMARK INTER:                  -7.497
REMARK INTRA:                  -0.478
REMARK UNBOUND:                -0.469
REMARK SMILES O=C(C=Cc1ccc(O)cc1)c1ccc(O)cc1O
REMARK SMILES IDX 4 1 3 2 5 3 6 4 7 5 8 6 11 7 10 8 9 9 2 11 1 12 12 13 18 14
REMARK SMILES IDX 13 15 17 16 14 17 15 18 19 19 16 21
REMARK H PARENT 9 10 19 20 16 22
REMARK Flexibility Score: inf
ROOT
ATOM      1  C   UNL     1      -9.083 -11.169  15.821  1.00  0.00     0.012 C 
ATOM      2  C   UNL     1      -9.370  -9.860  15.816  1.00  0.00     0.053 C 
ENDROOT
BRANCH   1   3
ATOM      3  C   UNL     1     -10.114 -12.237  15.792  1.00  0.00    -0.025 A 
ATOM      4  C   UNL     1     -10.695 -12.643  17.005  1.00  0.00     0.012 A 
ATOM      5  C   UNL     1     -11.677 -13.638  17.025  1.00  0.00     0.047 A 
ATOM      6  C   UNL     1     -12.101 -14.233  15.834  1.00  0.00     0.115 A 
ATOM      7  C   UNL     1     -10.557 -12.830  14.593  1.00  0.00     0.012 A 
ATOM      8  C   UNL     1     -11.541 -13.824  14.616  1.00  0.00     0.047 A 
BRANCH   6   9
ATOM      9  O   UNL     1     -13.079 -15.223  15.868  1.00  0.00    -0.508 OA
ATOM     10  H   UNL     1     -12.988 -16.078  15.331  1.00  0.00     0.293 HD
ENDBRANCH   6   9
ENDBRANCH   1   3
BRANCH   2  11
ATOM     11  C   UNL     1      -8.314  -8.823  15.828  1.00  0.00     0.189 C 
ATOM     12  O   UNL     1      -7.528  -8.716  14.848  1.00  0.00    -0.289 OA
BRANCH  11  13
ATOM     13  C   UNL     1      -8.193  -7.870  16.955  1.00  0.00     0.064 A 
ATOM     14  C   UNL     1      -7.330  -6.751  16.898  1.00  0.00     0.130 A 
ATOM     15  C   UNL     1      -8.976  -8.069  18.106  1.00  0.00     0.020 A 
ATOM     16  C   UNL     1      -7.237  -5.884  17.996  1.00  0.00     0.093 A 
ATOM     17  C   UNL     1      -8.880  -7.195  19.192  1.00  0.00     0.047 A 
ATOM     18  C   UNL     1      -8.009  -6.104  19.142  1.00  0.00     0.119 A 
BRANCH  14  19
ATOM     19  O   UNL     1      -6.589  -6.487  15.746  1.00  0.00    -0.507 OA
ATOM     20  H   UNL     1      -6.252  -5.555  15.532  1.00  0.00     0.293 HD
ENDBRANCH  14  19
BRANCH  18  21
ATOM     21  O   UNL     1      -7.922  -5.244  20.235  1.00  0.00    -0.508 OA
ATOM     22  H   UNL     1      -7.036  -4.850  20.529  1.00  0.00     0.293 HD
ENDBRANCH  18  21
ENDBRANCH  11  13
ENDBRANCH   2  11
TORSDOF 6
ENDMDL
MODEL 6
REMARK VINA RESULT:    -5.932      3.457      4.347
REMARK INTER + INTRA:          -7.961
REMARK INTER:                  -7.396
REMARK INTRA:                  -0.566
REMARK UNBOUND:                -0.469
REMARK SMILES O=C(C=Cc1ccc(O)cc1)c1ccc(O)cc1O
REMARK SMILES IDX 4 1 3 2 5 3 6 4 7 5 8 6 11 7 10 8 9 9 2 11 1 12 12 13 18 14
REMARK SMILES IDX 13 15 17 16 14 17 15 18 19 19 16 21
REMARK H PARENT 9 10 19 20 16 22
REMARK Flexibility Score: inf
ROOT
ATOM      1  C   UNL     1      -9.331  -9.959  18.481  1.00  0.00     0.012 C 
ATOM      2  C   UNL     1     -10.558 -10.499  18.513  1.00  0.00     0.053 C 
ENDROOT
BRANCH   1   3
ATOM      3  C   UNL     1      -9.003  -8.628  19.050  1.00  0.00    -0.025 A 
ATOM      4  C   UNL     1      -8.828  -8.514  20.439  1.00  0.00     0.012 A 
ATOM      5  C   UNL     1      -8.508  -7.283  21.017  1.00  0.00     0.047 A 
ATOM      6  C   UNL     1      -8.348  -6.149  20.216  1.00  0.00     0.115 A 
ATOM      7  C   UNL     1      -8.824  -7.484  18.245  1.00  0.00     0.012 A 
ATOM      8  C   UNL     1      -8.503  -6.253  18.827  1.00  0.00     0.047 A 
BRANCH   6   9
ATOM      9  O   UNL     1      -8.030  -4.928  20.805  1.00  0.00    -0.508 OA
ATOM     10  H   UNL     1      -7.436  -4.873  21.624  1.00  0.00     0.293 HD
ENDBRANCH   6   9
ENDBRANCH   1   3
BRANCH   2  11
ATOM     11  C   UNL     1     -10.843 -11.837  17.950  1.00  0.00     0.189 C 
ATOM     12  O   UNL     1     -11.974 -12.367  18.131  1.00  0.00    -0.289 OA
BRANCH  11  13
ATOM     13  C   UNL     1      -9.838 -12.552  17.130  1.00  0.00     0.064 A 
ATOM     14  C   UNL     1      -8.833 -13.355  17.714  1.00  0.00     0.130 A 
ATOM     15  C   UNL     1      -9.899 -12.447  15.729  1.00  0.00     0.020 A 
ATOM     16  C   UNL     1      -7.893 -14.001  16.898  1.00  0.00     0.093 A 
ATOM     17  C   UNL     1      -8.962 -13.100  14.925  1.00  0.00     0.047 A 
ATOM     18  C   UNL     1      -7.955 -13.874  15.506  1.00  0.00     0.119 A 
BRANCH  14  19
ATOM     19  O   UNL     1      -8.783 -13.534  19.096  1.00  0.00    -0.507 OA
ATOM     20  H   UNL     1      -9.458 -13.100  19.715  1.00  0.00     0.293 HD
ENDBRANCH  14  19
BRANCH  18  21
ATOM     21  O   UNL     1      -7.025 -14.515  14.690  1.00  0.00    -0.508 OA
ATOM     22  H   UNL     1      -7.239 -14.752  13.728  1.00  0.00     0.293 HD
ENDBRANCH  18  21
ENDBRANCH  11  13
ENDBRANCH   2  11
TORSDOF 6
ENDMDL
MODEL 7
REMARK VINA RESULT:    -5.922     11.026     12.589
REMARK INTER + INTRA:          -7.949
REMARK INTER:                  -7.265
REMARK INTRA:                  -0.684
REMARK UNBOUND:                -0.469
REMARK SMILES O=C(C=Cc1ccc(O)cc1)c1ccc(O)cc1O
REMARK SMILES IDX 4 1 3 2 5 3 6 4 7 5 8 6 11 7 10 8 9 9 2 11 1 12 12 13 18 14
REMARK SMILES IDX 13 15 17 16 14 17 15 18 19 19 16 21
REMARK H PARENT 9 10 19 20 16 22
REMARK Flexibility Score: inf
ROOT
ATOM      1  C   UNL     1     -15.473 -19.253  15.722  1.00  0.00     0.012 C 
ATOM      2  C   UNL     1     -15.453 -17.965  16.094  1.00  0.00     0.053 C 
ENDROOT
BRANCH   1   3
ATOM      3  C   UNL     1     -14.322 -19.946  15.091  1.00  0.00    -0.025 A 
ATOM      4  C   UNL     1     -14.492 -20.508  13.816  1.00  0.00     0.012 A 
ATOM      5  C   UNL     1     -13.432 -21.160  13.179  1.00  0.00     0.047 A 
ATOM      6  C   UNL     1     -12.184 -21.250  13.801  1.00  0.00     0.115 A 
ATOM      7  C   UNL     1     -13.056 -20.026  15.707  1.00  0.00     0.012 A 
ATOM      8  C   UNL     1     -11.997 -20.678  15.067  1.00  0.00     0.047 A 
BRANCH   6   9
ATOM      9  O   UNL     1     -11.137 -21.903  13.156  1.00  0.00    -0.508 OA
ATOM     10  H   UNL     1     -11.118 -22.912  13.065  1.00  0.00     0.293 HD
ENDBRANCH   6   9
ENDBRANCH   1   3
BRANCH   2  11
ATOM     11  C   UNL     1     -16.616 -17.313  16.736  1.00  0.00     0.189 C 
ATOM     12  O   UNL     1     -16.872 -16.102  16.490  1.00  0.00    -0.289 OA
BRANCH  11  13
ATOM     13  C   UNL     1     -17.520 -18.072  17.629  1.00  0.00     0.064 A 
ATOM     14  C   UNL     1     -18.765 -18.572  17.183  1.00  0.00     0.130 A 
ATOM     15  C   UNL     1     -17.119 -18.325  18.953  1.00  0.00     0.020 A 
ATOM     16  C   UNL     1     -19.595 -19.273  18.071  1.00  0.00     0.093 A 
ATOM     17  C   UNL     1     -17.950 -19.030  19.827  1.00  0.00     0.047 A 
ATOM     18  C   UNL     1     -19.190 -19.501  19.391  1.00  0.00     0.119 A 
BRANCH  14  19
ATOM     19  O   UNL     1     -19.165 -18.396  15.859  1.00  0.00    -0.507 OA
ATOM     20  H   UNL     1     -20.052 -18.752  15.519  1.00  0.00     0.293 HD
ENDBRANCH  14  19
BRANCH  18  21
ATOM     21  O   UNL     1     -20.010 -20.199  20.275  1.00  0.00    -0.508 OA
ATOM     22  H   UNL     1     -20.959 -19.898  20.468  1.00  0.00     0.293 HD
ENDBRANCH  18  21
ENDBRANCH  11  13
ENDBRANCH   2  11
TORSDOF 6
ENDMDL
MODEL 8
REMARK VINA RESULT:    -5.854      3.312      4.354
REMARK INTER + INTRA:          -7.863
REMARK INTER:                  -7.225
REMARK INTRA:                  -0.638
REMARK UNBOUND:                -0.469
REMARK SMILES O=C(C=Cc1ccc(O)cc1)c1ccc(O)cc1O
REMARK SMILES IDX 4 1 3 2 5 3 6 4 7 5 8 6 11 7 10 8 9 9 2 11 1 12 12 13 18 14
REMARK SMILES IDX 13 15 17 16 14 17 15 18 19 19 16 21
REMARK H PARENT 9 10 19 20 16 22
REMARK Flexibility Score: inf
ROOT
ATOM      1  C   UNL     1      -8.489  -9.906  17.676  1.00  0.00     0.012 C 
ATOM      2  C   UNL     1      -9.442 -10.171  16.771  1.00  0.00     0.053 C 
ENDROOT
BRANCH   1   3
ATOM      3  C   UNL     1      -8.555  -8.771  18.631  1.00  0.00    -0.025 A 
ATOM      4  C   UNL     1      -8.456  -9.042  20.005  1.00  0.00     0.012 A 
ATOM      5  C   UNL     1      -8.502  -8.003  20.940  1.00  0.00     0.047 A 
ATOM      6  C   UNL     1      -8.638  -6.679  20.515  1.00  0.00     0.115 A 
ATOM      7  C   UNL     1      -8.676  -7.432  18.208  1.00  0.00     0.012 A 
ATOM      8  C   UNL     1      -8.721  -6.395  19.145  1.00  0.00     0.047 A 
BRANCH   6   9
ATOM      9  O   UNL     1      -8.684  -5.654  21.456  1.00  0.00    -0.508 OA
ATOM     10  H   UNL     1      -8.084  -5.658  22.274  1.00  0.00     0.293 HD
ENDBRANCH   6   9
ENDBRANCH   1   3
BRANCH   2  11
ATOM     11  C   UNL     1      -9.349 -11.323  15.846  1.00  0.00     0.189 C 
ATOM     12  O   UNL     1      -8.409 -11.381  15.007  1.00  0.00    -0.289 OA
BRANCH  11  13
ATOM     13  C   UNL     1     -10.318 -12.441  15.918  1.00  0.00     0.064 A 
ATOM     14  C   UNL     1     -10.760 -13.122  14.761  1.00  0.00     0.130 A 
ATOM     15  C   UNL     1     -10.794 -12.852  17.176  1.00  0.00     0.020 A 
ATOM     16  C   UNL     1     -11.690 -14.165  14.878  1.00  0.00     0.093 A 
ATOM     17  C   UNL     1     -11.715 -13.897  17.281  1.00  0.00     0.047 A 
ATOM     18  C   UNL     1     -12.169 -14.553  16.135  1.00  0.00     0.119 A 
BRANCH  14  19
ATOM     19  O   UNL     1     -10.259 -12.784  13.505  1.00  0.00    -0.507 OA
ATOM     20  H   UNL     1      -9.313 -12.438  13.383  1.00  0.00     0.293 HD
ENDBRANCH  14  19
BRANCH  18  21
ATOM     21  O   UNL     1     -13.091 -15.590  16.256  1.00  0.00    -0.508 OA
ATOM     22  H   UNL     1     -12.931 -16.370  16.883  1.00  0.00     0.293 HD
ENDBRANCH  18  21
ENDBRANCH  11  13
ENDBRANCH   2  11
TORSDOF 6
ENDMDL
MODEL 9
REMARK VINA RESULT:    -5.776     11.861     14.073
REMARK INTER + INTRA:          -7.764
REMARK INTER:                  -7.103
REMARK INTRA:                  -0.661
REMARK UNBOUND:                -0.469
REMARK SMILES O=C(C=Cc1ccc(O)cc1)c1ccc(O)cc1O
REMARK SMILES IDX 4 1 3 2 5 3 6 4 7 5 8 6 11 7 10 8 9 9 2 11 1 12 12 13 18 14
REMARK SMILES IDX 13 15 17 16 14 17 15 18 19 19 16 21
REMARK H PARENT 9 10 19 20 16 22
REMARK Flexibility Score: inf
ROOT
ATOM      1  C   UNL     1     -16.679 -19.318  16.659  1.00  0.00     0.012 C 
ATOM      2  C   UNL     1     -16.414 -20.336  15.827  1.00  0.00     0.053 C 
ENDROOT
BRANCH   1   3
ATOM      3  C   UNL     1     -17.910 -19.230  17.484  1.00  0.00    -0.025 A 
ATOM      4  C   UNL     1     -19.155 -19.198  16.834  1.00  0.00     0.012 A 
ATOM      5  C   UNL     1     -20.341 -19.126  17.570  1.00  0.00     0.047 A 
ATOM      6  C   UNL     1     -20.301 -19.096  18.967  1.00  0.00     0.115 A 
ATOM      7  C   UNL     1     -17.878 -19.216  18.893  1.00  0.00     0.012 A 
ATOM      8  C   UNL     1     -19.067 -19.145  19.627  1.00  0.00     0.047 A 
BRANCH   6   9
ATOM      9  O   UNL     1     -21.490 -19.024  19.689  1.00  0.00    -0.508 OA
ATOM     10  H   UNL     1     -22.351 -18.702  19.261  1.00  0.00     0.293 HD
ENDBRANCH   6   9
ENDBRANCH   1   3
BRANCH   2  11
ATOM     11  C   UNL     1     -15.167 -20.397  15.032  1.00  0.00     0.189 C 
ATOM     12  O   UNL     1     -15.053 -19.699  13.988  1.00  0.00    -0.289 OA
BRANCH  11  13
ATOM     13  C   UNL     1     -14.023 -21.231  15.468  1.00  0.00     0.064 A 
ATOM     14  C   UNL     1     -12.778 -20.664  15.824  1.00  0.00     0.130 A 
ATOM     15  C   UNL     1     -14.187 -22.625  15.554  1.00  0.00     0.020 A 
ATOM     16  C   UNL     1     -11.719 -21.496  16.217  1.00  0.00     0.093 A 
ATOM     17  C   UNL     1     -13.128 -23.443  15.953  1.00  0.00     0.047 A 
ATOM     18  C   UNL     1     -11.891 -22.883  16.280  1.00  0.00     0.119 A 
BRANCH  14  19
ATOM     19  O   UNL     1     -12.601 -19.281  15.814  1.00  0.00    -0.507 OA
ATOM     20  H   UNL     1     -13.301 -18.657  15.429  1.00  0.00     0.293 HD
ENDBRANCH  14  19
BRANCH  18  21
ATOM     21  O   UNL     1     -10.843 -23.713  16.672  1.00  0.00    -0.508 OA
ATOM     22  H   UNL     1     -10.715 -23.982  17.641  1.00  0.00     0.293 HD
ENDBRANCH  18  21
ENDBRANCH  11  13
ENDBRANCH   2  11
TORSDOF 6
ENDMDL
