MODEL 1
REMARK VINA RESULT:    -7.545      0.000      0.000
REMARK INTER + INTRA:          -9.412
REMARK INTER:                  -9.088
REMARK INTRA:                  -0.323
REMARK UNBOUND:                -0.323
REMARK SMILES O=c1c(O)c(-c2ccc(O)c(O)c2)oc2cc(O)cc(O)c12
REMARK SMILES IDX 5 1 3 2 2 3 1 4 22 5 20 6 19 7 17 8 16 9 15 10 14 11 6 12
REMARK SMILES IDX 7 13 8 14 9 15 13 16 11 17 10 18 12 20 4 22 21 24 18 26
REMARK H PARENT 10 19 12 21 4 23 21 25 18 27
REMARK Flexibility Score: inf
ROOT
ATOM      1  C   UNL     1      12.953 -19.281 -19.463  1.00  0.00     0.180 A 
ATOM      2  C   UNL     1      13.968 -19.132 -18.502  1.00  0.00     0.208 A 
ATOM      3  C   UNL     1      13.955 -19.953 -17.363  1.00  0.00     0.238 A 
ATOM      4  O   UNL     1      14.897 -19.852 -16.535  1.00  0.00    -0.285 OA
ATOM      5  C   UNL     1      12.919 -20.902 -17.191  1.00  0.00     0.111 A 
ATOM      6  C   UNL     1      12.785 -21.758 -16.057  1.00  0.00     0.134 A 
ATOM      7  C   UNL     1      11.794 -22.749 -16.054  1.00  0.00     0.093 A 
ATOM      8  C   UNL     1      10.894 -22.871 -17.115  1.00  0.00     0.123 A 
ATOM      9  C   UNL     1      10.981 -22.002 -18.200  1.00  0.00     0.094 A 
ATOM     10  C   UNL     1      11.979 -21.027 -18.249  1.00  0.00     0.146 A 
ATOM     11  O   UNL     1      12.033 -20.225 -19.305  1.00  0.00    -0.452 OA
ENDROOT
BRANCH   1  12
ATOM     12  C   UNL     1      12.886 -18.436 -20.676  1.00  0.00     0.025 A 
ATOM     13  C   UNL     1      13.561 -18.795 -21.856  1.00  0.00     0.016 A 
ATOM     14  C   UNL     1      13.504 -17.970 -22.982  1.00  0.00     0.051 A 
ATOM     15  C   UNL     1      12.787 -16.770 -22.945  1.00  0.00     0.157 A 
ATOM     16  C   UNL     1      12.184 -17.220 -20.635  1.00  0.00     0.062 A 
ATOM     17  C   UNL     1      12.125 -16.391 -21.764  1.00  0.00     0.158 A 
BRANCH  15  18
ATOM     18  O   UNL     1      12.747 -15.967 -24.084  1.00  0.00    -0.504 OA
ATOM     19  H   UNL     1      12.390 -16.307 -24.969  1.00  0.00     0.293 HD
ENDBRANCH  15  18
BRANCH  17  20
ATOM     20  O   UNL     1      11.415 -15.192 -21.717  1.00  0.00    -0.504 OA
ATOM     21  H   UNL     1      11.881 -14.304 -21.572  1.00  0.00     0.293 HD
ENDBRANCH  17  20
ENDBRANCH   1  12
BRANCH   2  22
ATOM     22  O   UNL     1      14.994 -18.204 -18.702  1.00  0.00    -0.502 OA
ATOM     23  H   UNL     1      15.805 -18.150 -18.097  1.00  0.00     0.293 HD
ENDBRANCH   2  22
BRANCH   6  24
ATOM     24  O   UNL     1      13.572 -21.660 -14.907  1.00  0.00    -0.507 OA
ATOM     25  H   UNL     1      13.771 -22.425 -14.279  1.00  0.00     0.293 HD
ENDBRANCH   6  24
BRANCH   8  26
ATOM     26  O   UNL     1       9.902 -23.850 -17.096  1.00  0.00    -0.508 OA
ATOM     27  H   UNL     1       8.967 -23.650 -16.762  1.00  0.00     0.293 HD
ENDBRANCH   8  26
TORSDOF 6
ENDMDL
MODEL 2
REMARK VINA RESULT:    -7.541      1.337      3.017
REMARK INTER + INTRA:          -9.407
REMARK INTER:                  -9.222
REMARK INTRA:                  -0.184
REMARK UNBOUND:                -0.323
REMARK SMILES O=c1c(O)c(-c2ccc(O)c(O)c2)oc2cc(O)cc(O)c12
REMARK SMILES IDX 5 1 3 2 2 3 1 4 22 5 20 6 19 7 17 8 16 9 15 10 14 11 6 12
REMARK SMILES IDX 7 13 8 14 9 15 13 16 11 17 10 18 12 20 4 22 21 24 18 26
REMARK H PARENT 10 19 12 21 4 23 21 25 18 27
REMARK Flexibility Score: inf
ROOT
ATOM      1  C   UNL     1      12.987 -19.449 -19.277  1.00  0.00     0.180 A 
ATOM      2  C   UNL     1      11.881 -20.143 -18.755  1.00  0.00     0.208 A 
ATOM      3  C   UNL     1      12.045 -20.911 -17.592  1.00  0.00     0.238 A 
ATOM      4  O   UNL     1      11.039 -21.485 -17.100  1.00  0.00    -0.285 OA
ATOM      5  C   UNL     1      13.316 -20.989 -16.973  1.00  0.00     0.111 A 
ATOM      6  C   UNL     1      13.605 -21.769 -15.813  1.00  0.00     0.134 A 
ATOM      7  C   UNL     1      14.866 -21.669 -15.210  1.00  0.00     0.093 A 
ATOM      8  C   UNL     1      15.866 -20.866 -15.764  1.00  0.00     0.123 A 
ATOM      9  C   UNL     1      15.612 -20.146 -16.928  1.00  0.00     0.094 A 
ATOM     10  C   UNL     1      14.354 -20.198 -17.532  1.00  0.00     0.146 A 
ATOM     11  O   UNL     1      14.149 -19.489 -18.636  1.00  0.00    -0.452 OA
ENDROOT
BRANCH   1  12
ATOM     12  C   UNL     1      12.898 -18.638 -20.512  1.00  0.00     0.025 A 
ATOM     13  C   UNL     1      13.593 -19.005 -21.679  1.00  0.00     0.016 A 
ATOM     14  C   UNL     1      13.513 -18.212 -22.827  1.00  0.00     0.051 A 
ATOM     15  C   UNL     1      12.754 -17.037 -22.824  1.00  0.00     0.157 A 
ATOM     16  C   UNL     1      12.154 -17.447 -20.507  1.00  0.00     0.062 A 
ATOM     17  C   UNL     1      12.073 -16.651 -21.658  1.00  0.00     0.158 A 
BRANCH  15  18
ATOM     18  O   UNL     1      12.693 -16.267 -23.985  1.00  0.00    -0.504 OA
ATOM     19  H   UNL     1      12.136 -16.542 -24.785  1.00  0.00     0.293 HD
ENDBRANCH  15  18
BRANCH  17  20
ATOM     20  O   UNL     1      11.320 -15.477 -21.646  1.00  0.00    -0.504 OA
ATOM     21  H   UNL     1      11.451 -14.770 -20.931  1.00  0.00     0.293 HD
ENDBRANCH  17  20
ENDBRANCH   1  12
BRANCH   2  22
ATOM     22  O   UNL     1      10.631 -20.034 -19.370  1.00  0.00    -0.502 OA
ATOM     23  H   UNL     1      10.506 -19.593 -20.274  1.00  0.00     0.293 HD
ENDBRANCH   2  22
BRANCH   6  24
ATOM     24  O   UNL     1      12.708 -22.671 -15.235  1.00  0.00    -0.507 OA
ATOM     25  H   UNL     1      12.821 -23.091 -14.324  1.00  0.00     0.293 HD
ENDBRANCH   6  24
BRANCH   8  26
ATOM     26  O   UNL     1      17.123 -20.784 -15.165  1.00  0.00    -0.508 OA
ATOM     27  H   UNL     1      17.974 -20.860 -15.709  1.00  0.00     0.293 HD
ENDBRANCH   8  26
TORSDOF 6
ENDMDL
MODEL 3
REMARK VINA RESULT:    -6.965      2.434      7.001
REMARK INTER + INTRA:          -8.713
REMARK INTER:                  -8.469
REMARK INTRA:                  -0.245
REMARK UNBOUND:                -0.323
REMARK SMILES O=c1c(O)c(-c2ccc(O)c(O)c2)oc2cc(O)cc(O)c12
REMARK SMILES IDX 5 1 3 2 2 3 1 4 22 5 20 6 19 7 17 8 16 9 15 10 14 11 6 12
REMARK SMILES IDX 7 13 8 14 9 15 13 16 11 17 10 18 12 20 4 22 21 24 18 26
REMARK H PARENT 10 19 12 21 4 23 21 25 18 27
REMARK Flexibility Score: inf
ROOT
ATOM      1  C   UNL     1      13.726 -18.885 -19.054  1.00  0.00     0.180 A 
ATOM      2  C   UNL     1      12.364 -19.230 -19.112  1.00  0.00     0.208 A 
ATOM      3  C   UNL     1      11.558 -18.657 -20.108  1.00  0.00     0.238 A 
ATOM      4  O   UNL     1      10.353 -19.011 -20.188  1.00  0.00    -0.285 OA
ATOM      5  C   UNL     1      12.118 -17.734 -21.024  1.00  0.00     0.111 A 
ATOM      6  C   UNL     1      11.385 -17.062 -22.048  1.00  0.00     0.134 A 
ATOM      7  C   UNL     1      12.069 -16.270 -22.979  1.00  0.00     0.093 A 
ATOM      8  C   UNL     1      13.449 -16.074 -22.883  1.00  0.00     0.123 A 
ATOM      9  C   UNL     1      14.163 -16.679 -21.852  1.00  0.00     0.094 A 
ATOM     10  C   UNL     1      13.516 -17.503 -20.929  1.00  0.00     0.146 A 
ATOM     11  O   UNL     1      14.236 -18.068 -19.968  1.00  0.00    -0.452 OA
ENDROOT
BRANCH   1  12
ATOM     12  C   UNL     1      14.633 -19.429 -18.019  1.00  0.00     0.025 A 
ATOM     13  C   UNL     1      15.072 -20.764 -18.059  1.00  0.00     0.016 A 
ATOM     14  C   UNL     1      15.909 -21.263 -17.057  1.00  0.00     0.051 A 
ATOM     15  C   UNL     1      16.308 -20.445 -15.995  1.00  0.00     0.157 A 
ATOM     16  C   UNL     1      15.019 -18.616 -16.940  1.00  0.00     0.062 A 
ATOM     17  C   UNL     1      15.859 -19.115 -15.935  1.00  0.00     0.158 A 
BRANCH  15  18
ATOM     18  O   UNL     1      17.145 -20.970 -15.012  1.00  0.00    -0.504 OA
ATOM     19  H   UNL     1      17.712 -21.794 -15.171  1.00  0.00     0.293 HD
ENDBRANCH  15  18
BRANCH  17  20
ATOM     20  O   UNL     1      16.247 -18.295 -14.875  1.00  0.00    -0.504 OA
ATOM     21  H   UNL     1      17.042 -17.671 -14.950  1.00  0.00     0.293 HD
ENDBRANCH  17  20
ENDBRANCH   1  12
BRANCH   2  22
ATOM     22  O   UNL     1      11.836 -20.160 -18.212  1.00  0.00    -0.502 OA
ATOM     23  H   UNL     1      11.439 -21.042 -18.512  1.00  0.00     0.293 HD
ENDBRANCH   2  22
BRANCH   6  24
ATOM     24  O   UNL     1       9.995 -17.117 -22.177  1.00  0.00    -0.507 OA
ATOM     25  H   UNL     1       9.342 -16.646 -21.568  1.00  0.00     0.293 HD
ENDBRANCH   6  24
BRANCH   8  26
ATOM     26  O   UNL     1      14.118 -15.271 -23.805  1.00  0.00    -0.508 OA
ATOM     27  H   UNL     1      14.317 -15.596 -24.744  1.00  0.00     0.293 HD
ENDBRANCH   8  26
TORSDOF 6
ENDMDL
MODEL 4
REMARK VINA RESULT:    -4.772      2.037      7.102
REMARK INTER + INTRA:          -6.071
REMARK INTER:                  -5.851
REMARK INTRA:                  -0.221
REMARK UNBOUND:                -0.323
REMARK SMILES O=c1c(O)c(-c2ccc(O)c(O)c2)oc2cc(O)cc(O)c12
REMARK SMILES IDX 5 1 3 2 2 3 1 4 22 5 20 6 19 7 17 8 16 9 15 10 14 11 6 12
REMARK SMILES IDX 7 13 8 14 9 15 13 16 11 17 10 18 12 20 4 22 21 24 18 26
REMARK H PARENT 10 19 12 21 4 23 21 25 18 27
REMARK Flexibility Score: inf
ROOT
ATOM      1  C   UNL     1      13.574 -18.718 -20.255  1.00  0.00     0.180 A 
ATOM      2  C   UNL     1      12.470 -17.848 -20.206  1.00  0.00     0.208 A 
ATOM      3  C   UNL     1      11.961 -17.324 -21.405  1.00  0.00     0.238 A 
ATOM      4  O   UNL     1      10.940 -16.590 -21.358  1.00  0.00    -0.285 OA
ATOM      5  C   UNL     1      12.571 -17.663 -22.637  1.00  0.00     0.111 A 
ATOM      6  C   UNL     1      12.164 -17.159 -23.908  1.00  0.00     0.134 A 
ATOM      7  C   UNL     1      12.756 -17.664 -25.073  1.00  0.00     0.093 A 
ATOM      8  C   UNL     1      13.785 -18.606 -25.007  1.00  0.00     0.123 A 
ATOM      9  C   UNL     1      14.230 -19.060 -23.768  1.00  0.00     0.094 A 
ATOM     10  C   UNL     1      13.635 -18.603 -22.590  1.00  0.00     0.146 A 
ATOM     11  O   UNL     1      14.081 -19.068 -21.430  1.00  0.00    -0.452 OA
ENDROOT
BRANCH   1  12
ATOM     12  C   UNL     1      14.181 -19.290 -19.032  1.00  0.00     0.025 A 
ATOM     13  C   UNL     1      15.459 -18.897 -18.597  1.00  0.00     0.016 A 
ATOM     14  C   UNL     1      16.022 -19.469 -17.453  1.00  0.00     0.051 A 
ATOM     15  C   UNL     1      15.328 -20.449 -16.736  1.00  0.00     0.157 A 
ATOM     16  C   UNL     1      13.495 -20.289 -18.322  1.00  0.00     0.062 A 
ATOM     17  C   UNL     1      14.059 -20.864 -17.174  1.00  0.00     0.158 A 
BRANCH  15  18
ATOM     18  O   UNL     1      15.915 -21.000 -15.598  1.00  0.00    -0.504 OA
ATOM     19  H   UNL     1      16.591 -21.753 -15.652  1.00  0.00     0.293 HD
ENDBRANCH  15  18
BRANCH  17  20
ATOM     20  O   UNL     1      13.364 -21.846 -16.468  1.00  0.00    -0.504 OA
ATOM     21  H   UNL     1      12.938 -21.652 -15.570  1.00  0.00     0.293 HD
ENDBRANCH  17  20
ENDBRANCH   1  12
BRANCH   2  22
ATOM     22  O   UNL     1      11.870 -17.544 -18.981  1.00  0.00    -0.502 OA
ATOM     23  H   UNL     1      11.444 -16.644 -18.792  1.00  0.00     0.293 HD
ENDBRANCH   2  22
BRANCH   6  24
ATOM     24  O   UNL     1      11.210 -16.152 -24.080  1.00  0.00    -0.507 OA
ATOM     25  H   UNL     1      10.547 -16.111 -24.839  1.00  0.00     0.293 HD
ENDBRANCH   6  24
BRANCH   8  26
ATOM     26  O   UNL     1      14.379 -19.092 -26.171  1.00  0.00    -0.508 OA
ATOM     27  H   UNL     1      13.899 -19.064 -27.062  1.00  0.00     0.293 HD
ENDBRANCH   8  26
TORSDOF 6
ENDMDL
MODEL 5
REMARK VINA RESULT:    -4.696      2.130      7.098
REMARK INTER + INTRA:          -5.980
REMARK INTER:                  -5.707
REMARK INTRA:                  -0.273
REMARK UNBOUND:                -0.323
REMARK SMILES O=c1c(O)c(-c2ccc(O)c(O)c2)oc2cc(O)cc(O)c12
REMARK SMILES IDX 5 1 3 2 2 3 1 4 22 5 20 6 19 7 17 8 16 9 15 10 14 11 6 12
REMARK SMILES IDX 7 13 8 14 9 15 13 16 11 17 10 18 12 20 4 22 21 24 18 26
REMARK H PARENT 10 19 12 21 4 23 21 25 18 27
REMARK Flexibility Score: inf
ROOT
ATOM      1  C   UNL     1      13.339 -18.738 -20.184  1.00  0.00     0.180 A 
ATOM      2  C   UNL     1      12.288 -17.805 -20.216  1.00  0.00     0.208 A 
ATOM      3  C   UNL     1      11.910 -17.246 -21.447  1.00  0.00     0.238 A 
ATOM      4  O   UNL     1      10.933 -16.453 -21.476  1.00  0.00    -0.285 OA
ATOM      5  C   UNL     1      12.598 -17.614 -22.629  1.00  0.00     0.111 A 
ATOM      6  C   UNL     1      12.325 -17.080 -23.924  1.00  0.00     0.134 A 
ATOM      7  C   UNL     1      12.980 -17.613 -25.042  1.00  0.00     0.093 A 
ATOM      8  C   UNL     1      13.944 -18.615 -24.902  1.00  0.00     0.123 A 
ATOM      9  C   UNL     1      14.259 -19.101 -23.636  1.00  0.00     0.094 A 
ATOM     10  C   UNL     1      13.597 -18.615 -22.506  1.00  0.00     0.146 A 
ATOM     11  O   UNL     1      13.920 -19.112 -21.318  1.00  0.00    -0.452 OA
ENDROOT
BRANCH   1  12
ATOM     12  C   UNL     1      13.810 -19.352 -18.922  1.00  0.00     0.025 A 
ATOM     13  C   UNL     1      13.082 -20.375 -18.291  1.00  0.00     0.016 A 
ATOM     14  C   UNL     1      13.533 -20.924 -17.087  1.00  0.00     0.051 A 
ATOM     15  C   UNL     1      14.705 -20.451 -16.489  1.00  0.00     0.157 A 
ATOM     16  C   UNL     1      14.976 -18.865 -18.309  1.00  0.00     0.062 A 
ATOM     17  C   UNL     1      15.430 -19.414 -17.101  1.00  0.00     0.158 A 
BRANCH  15  18
ATOM     18  O   UNL     1      15.131 -21.018 -15.288  1.00  0.00    -0.504 OA
ATOM     19  H   UNL     1      15.970 -21.582 -15.227  1.00  0.00     0.293 HD
ENDBRANCH  15  18
BRANCH  17  20
ATOM     20  O   UNL     1      16.596 -18.932 -16.507  1.00  0.00    -0.504 OA
ATOM     21  H   UNL     1      17.259 -19.553 -16.058  1.00  0.00     0.293 HD
ENDBRANCH  17  20
ENDBRANCH   1  12
BRANCH   2  22
ATOM     22  O   UNL     1      11.608 -17.473 -19.041  1.00  0.00    -0.502 OA
ATOM     23  H   UNL     1      11.149 -18.167 -18.464  1.00  0.00     0.293 HD
ENDBRANCH   2  22
BRANCH   6  24
ATOM     24  O   UNL     1      11.450 -16.018 -24.163  1.00  0.00    -0.507 OA
ATOM     25  H   UNL     1      10.843 -15.606 -23.469  1.00  0.00     0.293 HD
ENDBRANCH   6  24
BRANCH   8  26
ATOM     26  O   UNL     1      14.602 -19.129 -26.019  1.00  0.00    -0.508 OA
ATOM     27  H   UNL     1      15.306 -18.592 -26.512  1.00  0.00     0.293 HD
ENDBRANCH   8  26
TORSDOF 6
ENDMDL
