MODEL 1
REMARK VINA RESULT:    -4.537      0.000      0.000
REMARK INTER + INTRA:          -7.916
REMARK INTER:                  -6.925
REMARK INTRA:                  -0.992
REMARK UNBOUND:                -0.992
REMARK SMILES CCCCCCCCCCC(=O)[O-]
REMARK SMILES IDX 7 1 8 2 9 3 10 4 11 5 12 6 13 7 6 8 5 9 4 10 3 11 2 12 1 13
REMARK H PARENT
REMARK Flexibility Score: inf
ROOT
ATOM      1  C   UNL     1     -19.433  53.217  -0.503  1.00  0.00     0.000 C 
ENDROOT
BRANCH   1   2
ATOM      2  C   UNL     1     -17.997  53.780  -0.437  1.00  0.00     0.000 C 
BRANCH   2   3
ATOM      3  C   UNL     1     -17.795  54.824   0.679  1.00  0.00     0.006 C 
BRANCH   3   4
ATOM      4  C   UNL     1     -16.816  55.949   0.314  1.00  0.00     0.053 C 
BRANCH   4   5
ATOM      5  C   UNL     1     -17.378  57.301   0.634  1.00  0.00     0.041 C 
ATOM      6  O   UNL     1     -18.618  57.454   0.791  1.00  0.00    -0.550 OA
ATOM      7  O   UNL     1     -16.528  58.391   0.778  1.00  0.00    -0.550 OA
ENDBRANCH   4   5
ENDBRANCH   3   4
ENDBRANCH   2   3
ENDBRANCH   1   2
BRANCH   1   8
ATOM      8  C   UNL     1     -19.796  52.710  -1.907  1.00  0.00     0.000 C 
BRANCH   8   9
ATOM      9  C   UNL     1     -19.473  53.767  -2.975  1.00  0.00    -0.000 C 
BRANCH   9  10
ATOM     10  C   UNL     1     -20.305  55.049  -2.807  1.00  0.00    -0.000 C 
BRANCH  10  11
ATOM     11  C   UNL     1     -19.472  56.327  -3.017  1.00  0.00    -0.000 C 
BRANCH  11  12
ATOM     12  C   UNL     1     -18.243  56.086  -3.906  1.00  0.00    -0.003 C 
ATOM     13  C   UNL     1     -16.971  56.717  -3.338  1.00  0.00     0.004 C 
ENDBRANCH  11  12
ENDBRANCH  10  11
ENDBRANCH   9  10
ENDBRANCH   8   9
ENDBRANCH   1   8
TORSDOF 9
ENDMDL
MODEL 2
REMARK VINA RESULT:    -4.506      2.087      4.029
REMARK INTER + INTRA:          -7.868
REMARK INTER:                  -6.887
REMARK INTRA:                  -0.981
REMARK UNBOUND:                -0.992
REMARK SMILES CCCCCCCCCCC(=O)[O-]
REMARK SMILES IDX 7 1 8 2 9 3 10 4 11 5 12 6 13 7 6 8 5 9 4 10 3 11 2 12 1 13
REMARK H PARENT
REMARK Flexibility Score: inf
ROOT
ATOM      1  C   UNL     1     -21.093  56.619  -3.260  1.00  0.00     0.000 C 
ENDROOT
BRANCH   1   2
ATOM      2  C   UNL     1     -19.711  56.242  -2.685  1.00  0.00     0.000 C 
BRANCH   2   3
ATOM      3  C   UNL     1     -18.545  56.514  -3.656  1.00  0.00     0.006 C 
BRANCH   3   4
ATOM      4  C   UNL     1     -17.175  56.626  -2.972  1.00  0.00     0.053 C 
BRANCH   4   5
ATOM      5  C   UNL     1     -16.985  55.567  -1.929  1.00  0.00     0.041 C 
ATOM      6  O   UNL     1     -16.807  54.367  -2.267  1.00  0.00    -0.550 OA
ATOM      7  O   UNL     1     -16.984  55.908  -0.583  1.00  0.00    -0.550 OA
ENDBRANCH   4   5
ENDBRANCH   3   4
ENDBRANCH   2   3
ENDBRANCH   1   2
BRANCH   1   8
ATOM      8  C   UNL     1     -22.064  55.430  -3.273  1.00  0.00     0.000 C 
BRANCH   8   9
ATOM      9  C   UNL     1     -22.611  55.149  -1.865  1.00  0.00    -0.000 C 
BRANCH   9  10
ATOM     10  C   UNL     1     -22.239  53.746  -1.357  1.00  0.00    -0.000 C 
BRANCH  10  11
ATOM     11  C   UNL     1     -21.167  53.782  -0.253  1.00  0.00    -0.000 C 
BRANCH  11  12
ATOM     12  C   UNL     1     -19.884  53.039  -0.656  1.00  0.00    -0.003 C 
ATOM     13  C   UNL     1     -19.891  52.605  -2.122  1.00  0.00     0.004 C 
ENDBRANCH  11  12
ENDBRANCH  10  11
ENDBRANCH   9  10
ENDBRANCH   8   9
ENDBRANCH   1   8
TORSDOF 9
ENDMDL
MODEL 3
REMARK VINA RESULT:    -4.494      2.747      5.200
REMARK INTER + INTRA:          -7.850
REMARK INTER:                  -7.234
REMARK INTRA:                  -0.617
REMARK UNBOUND:                -0.992
REMARK SMILES CCCCCCCCCCC(=O)[O-]
REMARK SMILES IDX 7 1 8 2 9 3 10 4 11 5 12 6 13 7 6 8 5 9 4 10 3 11 2 12 1 13
REMARK H PARENT
REMARK Flexibility Score: inf
ROOT
ATOM      1  C   UNL     1     -17.219  56.545  -2.448  1.00  0.00     0.000 C 
ENDROOT
BRANCH   1   2
ATOM      2  C   UNL     1     -18.292  56.206  -3.505  1.00  0.00     0.000 C 
BRANCH   2   3
ATOM      3  C   UNL     1     -18.848  54.774  -3.381  1.00  0.00     0.006 C 
BRANCH   3   4
ATOM      4  C   UNL     1     -20.298  54.707  -2.880  1.00  0.00     0.053 C 
BRANCH   4   5
ATOM      5  C   UNL     1     -20.531  53.511  -2.007  1.00  0.00     0.041 C 
ATOM      6  O   UNL     1     -19.781  52.504  -2.095  1.00  0.00    -0.550 OA
ATOM      7  O   UNL     1     -21.566  53.517  -1.081  1.00  0.00    -0.550 OA
ENDBRANCH   4   5
ENDBRANCH   3   4
ENDBRANCH   2   3
ENDBRANCH   1   2
BRANCH   1   8
ATOM      8  C   UNL     1     -17.044  55.424  -1.414  1.00  0.00     0.000 C 
BRANCH   8   9
ATOM      9  C   UNL     1     -16.455  55.969  -0.103  1.00  0.00    -0.000 C 
BRANCH   9  10
ATOM     10  C   UNL     1     -17.339  57.052   0.536  1.00  0.00    -0.000 C 
BRANCH  10  11
ATOM     11  C   UNL     1     -16.517  58.178   1.190  1.00  0.00    -0.000 C 
BRANCH  11  12
ATOM     12  C   UNL     1     -15.378  58.673   0.286  1.00  0.00    -0.003 C 
ATOM     13  C   UNL     1     -14.141  59.100   1.077  1.00  0.00     0.004 C 
ENDBRANCH  11  12
ENDBRANCH  10  11
ENDBRANCH   9  10
ENDBRANCH   8   9
ENDBRANCH   1   8
TORSDOF 9
ENDMDL
MODEL 4
REMARK VINA RESULT:    -4.491      1.362      2.133
REMARK INTER + INTRA:          -7.845
REMARK INTER:                  -6.467
REMARK INTRA:                  -1.378
REMARK UNBOUND:                -0.992
REMARK SMILES CCCCCCCCCCC(=O)[O-]
REMARK SMILES IDX 7 1 8 2 9 3 10 4 11 5 12 6 13 7 6 8 5 9 4 10 3 11 2 12 1 13
REMARK H PARENT
REMARK Flexibility Score: inf
ROOT
ATOM      1  C   UNL     1     -19.258  56.240   0.143  1.00  0.00     0.000 C 
ENDROOT
BRANCH   1   2
ATOM      2  C   UNL     1     -18.231  55.123   0.430  1.00  0.00     0.000 C 
BRANCH   2   3
ATOM      3  C   UNL     1     -16.790  55.494   0.031  1.00  0.00     0.006 C 
BRANCH   3   4
ATOM      4  C   UNL     1     -16.647  56.904  -0.560  1.00  0.00     0.053 C 
BRANCH   4   5
ATOM      5  C   UNL     1     -15.977  57.843   0.396  1.00  0.00     0.041 C 
ATOM      6  O   UNL     1     -15.022  58.570   0.011  1.00  0.00    -0.550 OA
ATOM      7  O   UNL     1     -16.419  57.931   1.710  1.00  0.00    -0.550 OA
ENDBRANCH   4   5
ENDBRANCH   3   4
ENDBRANCH   2   3
ENDBRANCH   1   2
BRANCH   1   8
ATOM      8  C   UNL     1     -20.573  55.691  -0.429  1.00  0.00     0.000 C 
BRANCH   8   9
ATOM      9  C   UNL     1     -20.338  54.371  -1.181  1.00  0.00    -0.000 C 
BRANCH   9  10
ATOM     10  C   UNL     1     -20.161  54.578  -2.694  1.00  0.00    -0.000 C 
BRANCH  10  11
ATOM     11  C   UNL     1     -18.750  54.200  -3.182  1.00  0.00    -0.000 C 
BRANCH  11  12
ATOM     12  C   UNL     1     -17.977  55.406  -3.735  1.00  0.00    -0.003 C 
ATOM     13  C   UNL     1     -18.755  56.716  -3.601  1.00  0.00     0.004 C 
ENDBRANCH  11  12
ENDBRANCH  10  11
ENDBRANCH   9  10
ENDBRANCH   8   9
ENDBRANCH   1   8
TORSDOF 9
ENDMDL
MODEL 5
REMARK VINA RESULT:    -4.482      1.268      3.154
REMARK INTER + INTRA:          -7.831
REMARK INTER:                  -6.589
REMARK INTRA:                  -1.242
REMARK UNBOUND:                -0.992
REMARK SMILES CCCCCCCCCCC(=O)[O-]
REMARK SMILES IDX 7 1 8 2 9 3 10 4 11 5 12 6 13 7 6 8 5 9 4 10 3 11 2 12 1 13
REMARK H PARENT
REMARK Flexibility Score: inf
ROOT
ATOM      1  C   UNL     1     -18.447  55.362  -3.528  1.00  0.00     0.000 C 
ENDROOT
BRANCH   1   2
ATOM      2  C   UNL     1     -17.111  55.471  -2.762  1.00  0.00     0.000 C 
BRANCH   2   3
ATOM      3  C   UNL     1     -17.071  54.631  -1.470  1.00  0.00     0.006 C 
BRANCH   3   4
ATOM      4  C   UNL     1     -17.856  55.243  -0.301  1.00  0.00     0.053 C 
BRANCH   4   5
ATOM      5  C   UNL     1     -17.252  56.535   0.159  1.00  0.00     0.041 C 
ATOM      6  O   UNL     1     -17.989  57.519   0.436  1.00  0.00    -0.550 OA
ATOM      7  O   UNL     1     -15.875  56.648   0.302  1.00  0.00    -0.550 OA
ENDBRANCH   4   5
ENDBRANCH   3   4
ENDBRANCH   2   3
ENDBRANCH   1   2
BRANCH   1   8
ATOM      8  C   UNL     1     -19.290  56.641  -3.416  1.00  0.00     0.000 C 
BRANCH   8   9
ATOM      9  C   UNL     1     -20.783  56.305  -3.273  1.00  0.00    -0.000 C 
BRANCH   9  10
ATOM     10  C   UNL     1     -21.022  54.847  -2.850  1.00  0.00    -0.000 C 
BRANCH  10  11
ATOM     11  C   UNL     1     -21.405  54.717  -1.364  1.00  0.00    -0.000 C 
BRANCH  11  12
ATOM     12  C   UNL     1     -21.239  53.284  -0.838  1.00  0.00    -0.003 C 
ATOM     13  C   UNL     1     -20.199  52.484  -1.624  1.00  0.00     0.004 C 
ENDBRANCH  11  12
ENDBRANCH  10  11
ENDBRANCH   9  10
ENDBRANCH   8   9
ENDBRANCH   1   8
TORSDOF 9
ENDMDL
MODEL 6
REMARK VINA RESULT:    -4.468      1.934      3.889
REMARK INTER + INTRA:          -7.811
REMARK INTER:                  -6.941
REMARK INTRA:                  -0.870
REMARK UNBOUND:                -0.992
REMARK SMILES CCCCCCCCCCC(=O)[O-]
REMARK SMILES IDX 7 1 8 2 9 3 10 4 11 5 12 6 13 7 6 8 5 9 4 10 3 11 2 12 1 13
REMARK H PARENT
REMARK Flexibility Score: inf
ROOT
ATOM      1  C   UNL     1     -19.545  55.747  -3.296  1.00  0.00     0.000 C 
ENDROOT
BRANCH   1   2
ATOM      2  C   UNL     1     -18.335  56.604  -3.724  1.00  0.00     0.000 C 
BRANCH   2   3
ATOM      3  C   UNL     1     -17.000  56.134  -3.114  1.00  0.00     0.006 C 
BRANCH   3   4
ATOM      4  C   UNL     1     -17.085  54.785  -2.386  1.00  0.00     0.053 C 
BRANCH   4   5
ATOM      5  C   UNL     1     -16.708  54.908  -0.940  1.00  0.00     0.041 C 
ATOM      6  O   UNL     1     -15.964  54.046  -0.402  1.00  0.00    -0.550 OA
ATOM      7  O   UNL     1     -17.161  55.987  -0.192  1.00  0.00    -0.550 OA
ENDBRANCH   4   5
ENDBRANCH   3   4
ENDBRANCH   2   3
ENDBRANCH   1   2
BRANCH   1   8
ATOM      8  C   UNL     1     -20.857  56.545  -3.303  1.00  0.00     0.000 C 
BRANCH   8   9
ATOM      9  C   UNL     1     -21.927  55.854  -2.443  1.00  0.00    -0.000 C 
BRANCH   9  10
ATOM     10  C   UNL     1     -21.320  55.013  -1.308  1.00  0.00    -0.000 C 
BRANCH  10  11
ATOM     11  C   UNL     1     -21.773  53.542  -1.354  1.00  0.00    -0.000 C 
BRANCH  11  12
ATOM     12  C   UNL     1     -20.616  52.582  -1.668  1.00  0.00    -0.003 C 
ATOM     13  C   UNL     1     -19.557  52.553  -0.566  1.00  0.00     0.004 C 
ENDBRANCH  11  12
ENDBRANCH  10  11
ENDBRANCH   9  10
ENDBRANCH   8   9
ENDBRANCH   1   8
TORSDOF 9
ENDMDL
MODEL 7
REMARK VINA RESULT:    -4.465      2.434      4.461
REMARK INTER + INTRA:          -7.805
REMARK INTER:                  -7.134
REMARK INTRA:                  -0.671
REMARK UNBOUND:                -0.992
REMARK SMILES CCCCCCCCCCC(=O)[O-]
REMARK SMILES IDX 7 1 8 2 9 3 10 4 11 5 12 6 13 7 6 8 5 9 4 10 3 11 2 12 1 13
REMARK H PARENT
REMARK Flexibility Score: inf
ROOT
ATOM      1  C   UNL     1     -20.031  54.786  -0.315  1.00  0.00     0.000 C 
ENDROOT
BRANCH   1   2
ATOM      2  C   UNL     1     -19.055  54.006  -1.222  1.00  0.00     0.000 C 
BRANCH   2   3
ATOM      3  C   UNL     1     -19.454  54.019  -2.711  1.00  0.00     0.006 C 
BRANCH   3   4
ATOM      4  C   UNL     1     -18.454  54.747  -3.620  1.00  0.00     0.053 C 
BRANCH   4   5
ATOM      5  C   UNL     1     -18.608  56.236  -3.536  1.00  0.00     0.041 C 
ATOM      6  O   UNL     1     -19.750  56.762  -3.609  1.00  0.00    -0.550 OA
ATOM      7  O   UNL     1     -17.491  57.042  -3.357  1.00  0.00    -0.550 OA
ENDBRANCH   4   5
ENDBRANCH   3   4
ENDBRANCH   2   3
ENDBRANCH   1   2
BRANCH   1   8
ATOM      8  C   UNL     1     -19.461  56.143   0.125  1.00  0.00     0.000 C 
BRANCH   8   9
ATOM      9  C   UNL     1     -17.928  56.092   0.220  1.00  0.00    -0.000 C 
BRANCH   9  10
ATOM     10  C   UNL     1     -17.323  57.415   0.716  1.00  0.00    -0.000 C 
BRANCH  10  11
ATOM     11  C   UNL     1     -15.786  57.373   0.786  1.00  0.00    -0.000 C 
BRANCH  11  12
ATOM     12  C   UNL     1     -15.139  58.660   0.253  1.00  0.00    -0.003 C 
ATOM     13  C   UNL     1     -14.010  59.168   1.151  1.00  0.00     0.004 C 
ENDBRANCH  11  12
ENDBRANCH  10  11
ENDBRANCH   9  10
ENDBRANCH   8   9
ENDBRANCH   1   8
TORSDOF 9
ENDMDL
MODEL 8
REMARK VINA RESULT:    -4.416      1.954      3.632
REMARK INTER + INTRA:          -7.731
REMARK INTER:                  -6.743
REMARK INTRA:                  -0.988
REMARK UNBOUND:                -0.992
REMARK SMILES CCCCCCCCCCC(=O)[O-]
REMARK SMILES IDX 7 1 8 2 9 3 10 4 11 5 12 6 13 7 6 8 5 9 4 10 3 11 2 12 1 13
REMARK H PARENT
REMARK Flexibility Score: inf
ROOT
ATOM      1  C   UNL     1     -19.263  55.133  -3.254  1.00  0.00     0.000 C 
ENDROOT
BRANCH   1   2
ATOM      2  C   UNL     1     -18.135  55.964  -3.902  1.00  0.00     0.000 C 
BRANCH   2   3
ATOM      3  C   UNL     1     -17.083  56.468  -2.895  1.00  0.00     0.006 C 
BRANCH   3   4
ATOM      4  C   UNL     1     -17.607  56.602  -1.458  1.00  0.00     0.053 C 
BRANCH   4   5
ATOM      5  C   UNL     1     -16.777  55.819  -0.487  1.00  0.00     0.041 C 
ATOM      6  O   UNL     1     -16.237  56.392   0.496  1.00  0.00    -0.550 OA
ATOM      7  O   UNL     1     -16.614  54.450  -0.657  1.00  0.00    -0.550 OA
ENDBRANCH   4   5
ENDBRANCH   3   4
ENDBRANCH   2   3
ENDBRANCH   1   2
BRANCH   1   8
ATOM      8  C   UNL     1     -18.918  53.638  -3.182  1.00  0.00     0.000 C 
BRANCH   8   9
ATOM      9  C   UNL     1     -19.779  52.923  -2.129  1.00  0.00    -0.000 C 
BRANCH   9  10
ATOM     10  C   UNL     1     -20.348  53.890  -1.077  1.00  0.00    -0.000 C 
BRANCH  10  11
ATOM     11  C   UNL     1     -21.846  53.658  -0.809  1.00  0.00    -0.000 C 
BRANCH  11  12
ATOM     12  C   UNL     1     -22.687  54.922  -1.044  1.00  0.00    -0.003 C 
ATOM     13  C   UNL     1     -22.962  55.179  -2.526  1.00  0.00     0.004 C 
ENDBRANCH  11  12
ENDBRANCH  10  11
ENDBRANCH   9  10
ENDBRANCH   8   9
ENDBRANCH   1   8
TORSDOF 9
ENDMDL
MODEL 9
REMARK VINA RESULT:    -4.396      2.528      4.635
REMARK INTER + INTRA:          -7.700
REMARK INTER:                  -6.479
REMARK INTRA:                  -1.221
REMARK UNBOUND:                -0.992
REMARK SMILES CCCCCCCCCCC(=O)[O-]
REMARK SMILES IDX 7 1 8 2 9 3 10 4 11 5 12 6 13 7 6 8 5 9 4 10 3 11 2 12 1 13
REMARK H PARENT
REMARK Flexibility Score: inf
ROOT
ATOM      1  C   UNL     1     -20.618  56.625  -3.296  1.00  0.00     0.000 C 
ENDROOT
BRANCH   1   2
ATOM      2  C   UNL     1     -21.530  56.210  -2.122  1.00  0.00     0.000 C 
BRANCH   2   3
ATOM      3  C   UNL     1     -21.977  54.736  -2.180  1.00  0.00     0.006 C 
BRANCH   3   4
ATOM      4  C   UNL     1     -21.672  53.939  -0.904  1.00  0.00     0.053 C 
BRANCH   4   5
ATOM      5  C   UNL     1     -20.471  53.058  -1.071  1.00  0.00     0.041 C 
ATOM      6  O   UNL     1     -20.226  52.520  -2.183  1.00  0.00    -0.550 OA
ATOM      7  O   UNL     1     -19.609  52.847  -0.002  1.00  0.00    -0.550 OA
ENDBRANCH   4   5
ENDBRANCH   3   4
ENDBRANCH   2   3
ENDBRANCH   1   2
BRANCH   1   8
ATOM      8  C   UNL     1     -19.353  55.759  -3.386  1.00  0.00     0.000 C 
BRANCH   8   9
ATOM      9  C   UNL     1     -18.103  56.629  -3.590  1.00  0.00    -0.000 C 
BRANCH   9  10
ATOM     10  C   UNL     1     -17.184  56.639  -2.357  1.00  0.00    -0.000 C 
BRANCH  10  11
ATOM     11  C   UNL     1     -17.366  55.391  -1.473  1.00  0.00    -0.000 C 
BRANCH  11  12
ATOM     12  C   UNL     1     -17.515  55.743   0.015  1.00  0.00    -0.003 C 
ATOM     13  C   UNL     1     -18.857  56.404   0.332  1.00  0.00     0.004 C 
ENDBRANCH  11  12
ENDBRANCH  10  11
ENDBRANCH   9  10
ENDBRANCH   8   9
ENDBRANCH   1   8
TORSDOF 9
ENDMDL
