MODEL 1
REMARK VINA RESULT:    -3.486      0.000      0.000
REMARK INTER + INTRA:          -6.990
REMARK INTER:                  -5.932
REMARK INTRA:                  -1.058
REMARK UNBOUND:                -1.058
REMARK SMILES CCCCCCCCCCCCCC(=O)[O-]
REMARK SMILES IDX 8 1 9 2 10 3 11 4 12 5 13 6 14 7 15 8 16 9 7 10 6 11 5 12
REMARK SMILES IDX 4 13 3 14 2 15 1 16
REMARK H PARENT
REMARK Flexibility Score: inf
ROOT
ATOM      1  C   UNL     1       4.511   1.185  -8.509  1.00  0.00     0.000 C 
ENDROOT
BRANCH   1   2
ATOM      2  C   UNL     1       3.427   1.794  -9.414  1.00  0.00     0.000 C 
BRANCH   2   3
ATOM      3  C   UNL     1       2.151   0.941  -9.466  1.00  0.00     0.000 C 
BRANCH   3   4
ATOM      4  C   UNL     1       0.902   1.811  -9.268  1.00  0.00     0.000 C 
BRANCH   4   5
ATOM      5  C   UNL     1      -0.183   1.109  -8.435  1.00  0.00     0.006 C 
BRANCH   5   6
ATOM      6  C   UNL     1       0.030  -0.407  -8.344  1.00  0.00     0.053 C 
BRANCH   6   7
ATOM      7  C   UNL     1      -0.105  -0.870  -6.928  1.00  0.00     0.041 C 
ATOM      8  O   UNL     1      -1.175  -0.666  -6.294  1.00  0.00    -0.550 OA
ATOM      9  O   UNL     1       0.930  -1.570  -6.322  1.00  0.00    -0.550 OA
ENDBRANCH   6   7
ENDBRANCH   5   6
ENDBRANCH   4   5
ENDBRANCH   3   4
ENDBRANCH   2   3
ENDBRANCH   1   2
BRANCH   1  10
ATOM     10  C   UNL     1       4.235  -0.290  -8.169  1.00  0.00     0.000 C 
BRANCH  10  11
ATOM     11  C   UNL     1       4.711  -0.669  -6.758  1.00  0.00    -0.000 C 
BRANCH  11  12
ATOM     12  C   UNL     1       5.715   0.341  -6.182  1.00  0.00    -0.000 C 
BRANCH  12  13
ATOM     13  C   UNL     1       5.657   0.362  -4.649  1.00  0.00    -0.000 C 
BRANCH  13  14
ATOM     14  C   UNL     1       5.589  -1.064  -4.082  1.00  0.00    -0.000 C 
BRANCH  14  15
ATOM     15  C   UNL     1       4.399  -1.264  -3.131  1.00  0.00    -0.003 C 
ATOM     16  C   UNL     1       3.360  -2.240  -3.681  1.00  0.00     0.004 C 
ENDBRANCH  14  15
ENDBRANCH  13  14
ENDBRANCH  12  13
ENDBRANCH  11  12
ENDBRANCH  10  11
ENDBRANCH   1  10
TORSDOF 12
ENDMDL
MODEL 2
REMARK VINA RESULT:    -3.360      1.082      2.143
REMARK INTER + INTRA:          -6.776
REMARK INTER:                  -5.686
REMARK INTRA:                  -1.090
REMARK UNBOUND:                -1.058
REMARK SMILES CCCCCCCCCCCCCC(=O)[O-]
REMARK SMILES IDX 8 1 9 2 10 3 11 4 12 5 13 6 14 7 15 8 16 9 7 10 6 11 5 12
REMARK SMILES IDX 4 13 3 14 2 15 1 16
REMARK H PARENT
REMARK Flexibility Score: inf
ROOT
ATOM      1  C   UNL     1       3.737   2.382  -9.732  1.00  0.00     0.000 C 
ENDROOT
BRANCH   1   2
ATOM      2  C   UNL     1       2.384   3.044  -9.427  1.00  0.00     0.000 C 
BRANCH   2   3
ATOM      3  C   UNL     1       1.246   2.024  -9.279  1.00  0.00     0.000 C 
BRANCH   3   4
ATOM      4  C   UNL     1       1.797   0.591  -9.232  1.00  0.00     0.000 C 
BRANCH   4   5
ATOM      5  C   UNL     1       0.715  -0.450  -8.903  1.00  0.00     0.006 C 
BRANCH   5   6
ATOM      6  C   UNL     1      -0.397   0.116  -8.010  1.00  0.00     0.053 C 
BRANCH   6   7
ATOM      7  C   UNL     1      -0.609  -0.765  -6.819  1.00  0.00     0.041 C 
ATOM      8  O   UNL     1      -1.768  -0.942  -6.360  1.00  0.00    -0.550 OA
ATOM      9  O   UNL     1       0.467  -1.431  -6.245  1.00  0.00    -0.550 OA
ENDBRANCH   6   7
ENDBRANCH   5   6
ENDBRANCH   4   5
ENDBRANCH   3   4
ENDBRANCH   2   3
ENDBRANCH   1   2
BRANCH   1  10
ATOM     10  C   UNL     1       4.926   3.183  -9.171  1.00  0.00     0.000 C 
BRANCH  10  11
ATOM     11  C   UNL     1       5.875   2.318  -8.327  1.00  0.00    -0.000 C 
BRANCH  11  12
ATOM     12  C   UNL     1       5.443   0.844  -8.276  1.00  0.00    -0.000 C 
BRANCH  12  13
ATOM     13  C   UNL     1       5.164   0.402  -6.834  1.00  0.00    -0.000 C 
BRANCH  13  14
ATOM     14  C   UNL     1       6.072   1.147  -5.845  1.00  0.00    -0.000 C 
BRANCH  14  15
ATOM     15  C   UNL     1       5.870   0.684  -4.394  1.00  0.00    -0.003 C 
ATOM     16  C   UNL     1       5.222  -0.697  -4.299  1.00  0.00     0.004 C 
ENDBRANCH  14  15
ENDBRANCH  13  14
ENDBRANCH  12  13
ENDBRANCH  11  12
ENDBRANCH  10  11
ENDBRANCH   1  10
TORSDOF 12
ENDMDL
MODEL 3
REMARK VINA RESULT:    -3.347      3.784      5.888
REMARK INTER + INTRA:          -6.754
REMARK INTER:                  -5.689
REMARK INTRA:                  -1.064
REMARK UNBOUND:                -1.058
REMARK SMILES CCCCCCCCCCCCCC(=O)[O-]
REMARK SMILES IDX 8 1 9 2 10 3 11 4 12 5 13 6 14 7 15 8 16 9 7 10 6 11 5 12
REMARK SMILES IDX 4 13 3 14 2 15 1 16
REMARK H PARENT
REMARK Flexibility Score: inf
ROOT
ATOM      1  C   UNL     1       6.759   2.685  -7.139  1.00  0.00     0.000 C 
ENDROOT
BRANCH   1   2
ATOM      2  C   UNL     1       6.975   1.322  -6.462  1.00  0.00     0.000 C 
BRANCH   2   3
ATOM      3  C   UNL     1       5.661   0.674  -6.002  1.00  0.00     0.000 C 
BRANCH   3   4
ATOM      4  C   UNL     1       5.636   0.509  -4.476  1.00  0.00     0.000 C 
BRANCH   4   5
ATOM      5  C   UNL     1       5.752  -0.959  -4.037  1.00  0.00     0.006 C 
BRANCH   5   6
ATOM      6  C   UNL     1       4.596  -1.825  -4.556  1.00  0.00     0.053 C 
BRANCH   6   7
ATOM      7  C   UNL     1       3.565  -2.013  -3.488  1.00  0.00     0.041 C 
ATOM      8  O   UNL     1       3.890  -1.941  -2.273  1.00  0.00    -0.550 OA
ATOM      9  O   UNL     1       2.235  -2.218  -3.833  1.00  0.00    -0.550 OA
ENDBRANCH   6   7
ENDBRANCH   5   6
ENDBRANCH   4   5
ENDBRANCH   3   4
ENDBRANCH   2   3
ENDBRANCH   1   2
BRANCH   1  10
ATOM     10  C   UNL     1       7.257   3.858  -6.277  1.00  0.00     0.000 C 
BRANCH  10  11
ATOM     11  C   UNL     1       8.378   3.446  -5.310  1.00  0.00    -0.000 C 
BRANCH  11  12
ATOM     12  C   UNL     1       8.018   3.712  -3.841  1.00  0.00    -0.000 C 
BRANCH  12  13
ATOM     13  C   UNL     1       6.529   4.051  -3.692  1.00  0.00    -0.000 C 
BRANCH  13  14
ATOM     14  C   UNL     1       6.341   5.414  -3.010  1.00  0.00    -0.000 C 
BRANCH  14  15
ATOM     15  C   UNL     1       4.920   5.607  -2.459  1.00  0.00    -0.003 C 
ATOM     16  C   UNL     1       4.334   6.976  -2.800  1.00  0.00     0.004 C 
ENDBRANCH  14  15
ENDBRANCH  13  14
ENDBRANCH  12  13
ENDBRANCH  11  12
ENDBRANCH  10  11
ENDBRANCH   1  10
TORSDOF 12
ENDMDL
MODEL 4
REMARK VINA RESULT:    -3.272      4.308      6.535
REMARK INTER + INTRA:          -6.626
REMARK INTER:                  -5.882
REMARK INTRA:                  -0.744
REMARK UNBOUND:                -1.058
REMARK SMILES CCCCCCCCCCCCCC(=O)[O-]
REMARK SMILES IDX 8 1 9 2 10 3 11 4 12 5 13 6 14 7 15 8 16 9 7 10 6 11 5 12
REMARK SMILES IDX 4 13 3 14 2 15 1 16
REMARK H PARENT
REMARK Flexibility Score: inf
ROOT
ATOM      1  C   UNL     1       7.784   2.146  -4.426  1.00  0.00     0.000 C 
ENDROOT
BRANCH   1   2
ATOM      2  C   UNL     1       6.371   1.552  -4.314  1.00  0.00     0.000 C 
BRANCH   2   3
ATOM      3  C   UNL     1       5.964   0.755  -5.562  1.00  0.00     0.000 C 
BRANCH   3   4
ATOM      4  C   UNL     1       5.453  -0.642  -5.178  1.00  0.00     0.000 C 
BRANCH   4   5
ATOM      5  C   UNL     1       4.883  -0.692  -3.752  1.00  0.00     0.006 C 
BRANCH   5   6
ATOM      6  C   UNL     1       4.587  -2.123  -3.284  1.00  0.00     0.053 C 
BRANCH   6   7
ATOM      7  C   UNL     1       3.384  -2.665  -3.989  1.00  0.00     0.041 C 
ATOM      8  O   UNL     1       2.242  -2.189  -3.751  1.00  0.00    -0.550 OA
ATOM      9  O   UNL     1       3.529  -3.661  -4.947  1.00  0.00    -0.550 OA
ENDBRANCH   6   7
ENDBRANCH   5   6
ENDBRANCH   4   5
ENDBRANCH   3   4
ENDBRANCH   2   3
ENDBRANCH   1   2
BRANCH   1  10
ATOM     10  C   UNL     1       7.871   3.575  -3.861  1.00  0.00     0.000 C 
BRANCH  10  11
ATOM     11  C   UNL     1       6.487   4.196  -3.615  1.00  0.00    -0.000 C 
BRANCH  11  12
ATOM     12  C   UNL     1       6.570   5.577  -2.945  1.00  0.00    -0.000 C 
BRANCH  12  13
ATOM     13  C   UNL     1       5.389   5.798  -1.992  1.00  0.00    -0.000 C 
BRANCH  13  14
ATOM     14  C   UNL     1       5.878   6.035  -0.556  1.00  0.00    -0.000 C 
BRANCH  14  15
ATOM     15  C   UNL     1       7.409   5.983  -0.438  1.00  0.00    -0.003 C 
ATOM     16  C   UNL     1       7.880   5.351   0.872  1.00  0.00     0.004 C 
ENDBRANCH  14  15
ENDBRANCH  13  14
ENDBRANCH  12  13
ENDBRANCH  11  12
ENDBRANCH  10  11
ENDBRANCH   1  10
TORSDOF 12
ENDMDL
MODEL 5
REMARK VINA RESULT:    -3.268      5.998      9.302
REMARK INTER + INTRA:          -6.620
REMARK INTER:                  -4.454
REMARK INTRA:                  -2.165
REMARK UNBOUND:                -1.058
REMARK SMILES CCCCCCCCCCCCCC(=O)[O-]
REMARK SMILES IDX 8 1 9 2 10 3 11 4 12 5 13 6 14 7 15 8 16 9 7 10 6 11 5 12
REMARK SMILES IDX 4 13 3 14 2 15 1 16
REMARK H PARENT
REMARK Flexibility Score: inf
ROOT
ATOM      1  C   UNL     1      -7.405  -2.010  -4.942  1.00  0.00     0.000 C 
ENDROOT
BRANCH   1   2
ATOM      2  C   UNL     1      -6.218  -1.777  -5.891  1.00  0.00     0.000 C 
BRANCH   2   3
ATOM      3  C   UNL     1      -6.047  -2.909  -6.914  1.00  0.00     0.000 C 
BRANCH   3   4
ATOM      4  C   UNL     1      -4.564  -3.124  -7.250  1.00  0.00     0.000 C 
BRANCH   4   5
ATOM      5  C   UNL     1      -3.646  -2.102  -6.562  1.00  0.00     0.006 C 
BRANCH   5   6
ATOM      6  C   UNL     1      -2.168  -2.294  -6.928  1.00  0.00     0.053 C 
BRANCH   6   7
ATOM      7  C   UNL     1      -1.494  -0.968  -7.085  1.00  0.00     0.041 C 
ATOM      8  O   UNL     1      -0.720  -0.541  -6.187  1.00  0.00    -0.550 OA
ATOM      9  O   UNL     1      -1.679  -0.225  -8.243  1.00  0.00    -0.550 OA
ENDBRANCH   6   7
ENDBRANCH   5   6
ENDBRANCH   4   5
ENDBRANCH   3   4
ENDBRANCH   2   3
ENDBRANCH   1   2
BRANCH   1  10
ATOM     10  C   UNL     1      -7.006  -1.897  -3.460  1.00  0.00     0.000 C 
BRANCH  10  11
ATOM     11  C   UNL     1      -5.485  -1.970  -3.250  1.00  0.00    -0.000 C 
BRANCH  11  12
ATOM     12  C   UNL     1      -5.038  -3.301  -2.626  1.00  0.00    -0.000 C 
BRANCH  12  13
ATOM     13  C   UNL     1      -4.062  -4.041  -3.550  1.00  0.00    -0.000 C 
BRANCH  13  14
ATOM     14  C   UNL     1      -4.739  -5.252  -4.208  1.00  0.00    -0.000 C 
BRANCH  14  15
ATOM     15  C   UNL     1      -6.119  -5.557  -3.604  1.00  0.00    -0.003 C 
ATOM     16  C   UNL     1      -7.211  -5.694  -4.664  1.00  0.00     0.004 C 
ENDBRANCH  14  15
ENDBRANCH  13  14
ENDBRANCH  12  13
ENDBRANCH  11  12
ENDBRANCH  10  11
ENDBRANCH   1  10
TORSDOF 12
ENDMDL
MODEL 6
REMARK VINA RESULT:    -3.229      4.681      6.888
REMARK INTER + INTRA:          -6.552
REMARK INTER:                  -5.810
REMARK INTRA:                  -0.743
REMARK UNBOUND:                -1.058
REMARK SMILES CCCCCCCCCCCCCC(=O)[O-]
REMARK SMILES IDX 8 1 9 2 10 3 11 4 12 5 13 6 14 7 15 8 16 9 7 10 6 11 5 12
REMARK SMILES IDX 4 13 3 14 2 15 1 16
REMARK H PARENT
REMARK Flexibility Score: inf
ROOT
ATOM      1  C   UNL     1       6.790   3.034  -4.309  1.00  0.00     0.000 C 
ENDROOT
BRANCH   1   2
ATOM      2  C   UNL     1       7.976   2.057  -4.351  1.00  0.00     0.000 C 
BRANCH   2   3
ATOM      3  C   UNL     1       7.532   0.594  -4.495  1.00  0.00     0.000 C 
BRANCH   3   4
ATOM      4  C   UNL     1       6.004   0.493  -4.609  1.00  0.00     0.000 C 
BRANCH   4   5
ATOM      5  C   UNL     1       5.413  -0.606  -3.712  1.00  0.00     0.006 C 
BRANCH   5   6
ATOM      6  C   UNL     1       4.396  -1.487  -4.449  1.00  0.00     0.053 C 
BRANCH   6   7
ATOM      7  C   UNL     1       3.280  -1.874  -3.531  1.00  0.00     0.041 C 
ATOM      8  O   UNL     1       2.198  -2.317  -4.000  1.00  0.00    -0.550 OA
ATOM      9  O   UNL     1       3.451  -1.795  -2.155  1.00  0.00    -0.550 OA
ENDBRANCH   6   7
ENDBRANCH   5   6
ENDBRANCH   4   5
ENDBRANCH   3   4
ENDBRANCH   2   3
ENDBRANCH   1   2
BRANCH   1  10
ATOM     10  C   UNL     1       7.107   4.376  -4.993  1.00  0.00     0.000 C 
BRANCH  10  11
ATOM     11  C   UNL     1       6.715   5.586  -4.131  1.00  0.00    -0.000 C 
BRANCH  11  12
ATOM     12  C   UNL     1       6.305   5.186  -2.705  1.00  0.00    -0.000 C 
BRANCH  12  13
ATOM     13  C   UNL     1       4.903   5.711  -2.369  1.00  0.00    -0.000 C 
BRANCH  13  14
ATOM     14  C   UNL     1       4.581   6.976  -3.178  1.00  0.00    -0.000 C 
BRANCH  14  15
ATOM     15  C   UNL     1       4.143   8.150  -2.289  1.00  0.00    -0.003 C 
ATOM     16  C   UNL     1       3.889   7.732  -0.841  1.00  0.00     0.004 C 
ENDBRANCH  14  15
ENDBRANCH  13  14
ENDBRANCH  12  13
ENDBRANCH  11  12
ENDBRANCH  10  11
ENDBRANCH   1  10
TORSDOF 12
ENDMDL
MODEL 7
REMARK VINA RESULT:    -3.219      6.178      9.588
REMARK INTER + INTRA:          -6.536
REMARK INTER:                  -4.454
REMARK INTRA:                  -2.082
REMARK UNBOUND:                -1.058
REMARK SMILES CCCCCCCCCCCCCC(=O)[O-]
REMARK SMILES IDX 8 1 9 2 10 3 11 4 12 5 13 6 14 7 15 8 16 9 7 10 6 11 5 12
REMARK SMILES IDX 4 13 3 14 2 15 1 16
REMARK H PARENT
REMARK Flexibility Score: inf
ROOT
ATOM      1  C   UNL     1      -5.515  -5.460  -4.635  1.00  0.00     0.000 C 
ENDROOT
BRANCH   1   2
ATOM      2  C   UNL     1      -5.586  -4.863  -6.050  1.00  0.00     0.000 C 
BRANCH   2   3
ATOM      3  C   UNL     1      -4.354  -4.014  -6.397  1.00  0.00     0.000 C 
BRANCH   3   4
ATOM      4  C   UNL     1      -4.769  -2.608  -6.856  1.00  0.00     0.000 C 
BRANCH   4   5
ATOM      5  C   UNL     1      -3.931  -1.499  -6.199  1.00  0.00     0.006 C 
BRANCH   5   6
ATOM      6  C   UNL     1      -2.973  -0.820  -7.186  1.00  0.00     0.053 C 
BRANCH   6   7
ATOM      7  C   UNL     1      -1.566  -1.262  -6.936  1.00  0.00     0.041 C 
ATOM      8  O   UNL     1      -0.787  -0.544  -6.255  1.00  0.00    -0.550 OA
ATOM      9  O   UNL     1      -1.128  -2.491  -7.413  1.00  0.00    -0.550 OA
ENDBRANCH   6   7
ENDBRANCH   5   6
ENDBRANCH   4   5
ENDBRANCH   3   4
ENDBRANCH   2   3
ENDBRANCH   1   2
BRANCH   1  10
ATOM     10  C   UNL     1      -4.319  -4.925  -3.828  1.00  0.00     0.000 C 
BRANCH  10  11
ATOM     11  C   UNL     1      -4.753  -4.161  -2.567  1.00  0.00    -0.000 C 
BRANCH  11  12
ATOM     12  C   UNL     1      -4.987  -2.666  -2.834  1.00  0.00    -0.000 C 
BRANCH  12  13
ATOM     13  C   UNL     1      -6.475  -2.312  -2.713  1.00  0.00    -0.000 C 
BRANCH  13  14
ATOM     14  C   UNL     1      -7.044  -1.859  -4.066  1.00  0.00    -0.000 C 
BRANCH  14  15
ATOM     15  C   UNL     1      -8.189  -2.759  -4.555  1.00  0.00    -0.003 C 
ATOM     16  C   UNL     1      -8.656  -3.753  -3.493  1.00  0.00     0.004 C 
ENDBRANCH  14  15
ENDBRANCH  13  14
ENDBRANCH  12  13
ENDBRANCH  11  12
ENDBRANCH  10  11
ENDBRANCH   1  10
TORSDOF 12
ENDMDL
MODEL 8
REMARK VINA RESULT:    -3.219      2.621      5.708
REMARK INTER + INTRA:          -6.535
REMARK INTER:                  -5.281
REMARK INTRA:                  -1.254
REMARK UNBOUND:                -1.058
REMARK SMILES CCCCCCCCCCCCCC(=O)[O-]
REMARK SMILES IDX 8 1 9 2 10 3 11 4 12 5 13 6 14 7 15 8 16 9 7 10 6 11 5 12
REMARK SMILES IDX 4 13 3 14 2 15 1 16
REMARK H PARENT
REMARK Flexibility Score: inf
ROOT
ATOM      1  C   UNL     1       7.827   2.745  -5.556  1.00  0.00     0.000 C 
ENDROOT
BRANCH   1   2
ATOM      2  C   UNL     1       7.409   1.836  -4.389  1.00  0.00     0.000 C 
BRANCH   2   3
ATOM      3  C   UNL     1       6.023   1.208  -4.595  1.00  0.00     0.000 C 
BRANCH   3   4
ATOM      4  C   UNL     1       6.082  -0.317  -4.428  1.00  0.00     0.000 C 
BRANCH   4   5
ATOM      5  C   UNL     1       4.942  -1.038  -5.164  1.00  0.00     0.006 C 
BRANCH   5   6
ATOM      6  C   UNL     1       4.500  -2.324  -4.453  1.00  0.00     0.053 C 
BRANCH   6   7
ATOM      7  C   UNL     1       3.332  -2.051  -3.559  1.00  0.00     0.041 C 
ATOM      8  O   UNL     1       2.162  -2.309  -3.949  1.00  0.00    -0.550 OA
ATOM      9  O   UNL     1       3.537  -1.560  -2.276  1.00  0.00    -0.550 OA
ENDBRANCH   6   7
ENDBRANCH   5   6
ENDBRANCH   4   5
ENDBRANCH   3   4
ENDBRANCH   2   3
ENDBRANCH   1   2
BRANCH   1  10
ATOM     10  C   UNL     1       6.793   2.755  -6.696  1.00  0.00     0.000 C 
BRANCH  10  11
ATOM     11  C   UNL     1       7.337   2.132  -7.991  1.00  0.00    -0.000 C 
BRANCH  11  12
ATOM     12  C   UNL     1       6.432   1.016  -8.534  1.00  0.00    -0.000 C 
BRANCH  12  13
ATOM     13  C   UNL     1       4.977   1.224  -8.095  1.00  0.00    -0.000 C 
BRANCH  13  14
ATOM     14  C   UNL     1       4.095   1.630  -9.285  1.00  0.00    -0.000 C 
BRANCH  14  15
ATOM     15  C   UNL     1       3.888   3.150  -9.375  1.00  0.00    -0.003 C 
ATOM     16  C   UNL     1       2.414   3.540  -9.474  1.00  0.00     0.004 C 
ENDBRANCH  14  15
ENDBRANCH  13  14
ENDBRANCH  12  13
ENDBRANCH  11  12
ENDBRANCH  10  11
ENDBRANCH   1  10
TORSDOF 12
ENDMDL
MODEL 9
REMARK VINA RESULT:    -3.216      2.792      3.604
REMARK INTER + INTRA:          -6.530
REMARK INTER:                  -4.398
REMARK INTRA:                  -2.133
REMARK UNBOUND:                -1.058
REMARK SMILES CCCCCCCCCCCCCC(=O)[O-]
REMARK SMILES IDX 8 1 9 2 10 3 11 4 12 5 13 6 14 7 15 8 16 9 7 10 6 11 5 12
REMARK SMILES IDX 4 13 3 14 2 15 1 16
REMARK H PARENT
REMARK Flexibility Score: inf
ROOT
ATOM      1  C   UNL     1       6.443   0.582  -7.361  1.00  0.00     0.000 C 
ENDROOT
BRANCH   1   2
ATOM      2  C   UNL     1       5.112   0.734  -8.114  1.00  0.00     0.000 C 
BRANCH   2   3
ATOM      3  C   UNL     1       4.261  -0.544  -8.076  1.00  0.00     0.000 C 
BRANCH   3   4
ATOM      4  C   UNL     1       5.106  -1.752  -7.646  1.00  0.00     0.000 C 
BRANCH   4   5
ATOM      5  C   UNL     1       4.391  -2.637  -6.613  1.00  0.00     0.006 C 
BRANCH   5   6
ATOM      6  C   UNL     1       3.122  -1.983  -6.051  1.00  0.00     0.053 C 
BRANCH   6   7
ATOM      7  C   UNL     1       2.607  -2.763  -4.882  1.00  0.00     0.041 C 
ATOM      8  O   UNL     1       2.372  -2.183  -3.788  1.00  0.00    -0.550 OA
ATOM      9  O   UNL     1       2.339  -4.119  -5.013  1.00  0.00    -0.550 OA
ENDBRANCH   6   7
ENDBRANCH   5   6
ENDBRANCH   4   5
ENDBRANCH   3   4
ENDBRANCH   2   3
ENDBRANCH   1   2
BRANCH   1  10
ATOM     10  C   UNL     1       6.640   1.665  -6.285  1.00  0.00     0.000 C 
BRANCH  10  11
ATOM     11  C   UNL     1       6.770   1.076  -4.872  1.00  0.00    -0.000 C 
BRANCH  11  12
ATOM     12  C   UNL     1       5.497   0.346  -4.417  1.00  0.00    -0.000 C 
BRANCH  12  13
ATOM     13  C   UNL     1       5.842  -0.963  -3.695  1.00  0.00    -0.000 C 
BRANCH  13  14
ATOM     14  C   UNL     1       7.113  -1.595  -4.281  1.00  0.00    -0.000 C 
BRANCH  14  15
ATOM     15  C   UNL     1       7.134  -3.124  -4.132  1.00  0.00    -0.003 C 
ATOM     16  C   UNL     1       5.922  -3.661  -3.372  1.00  0.00     0.004 C 
ENDBRANCH  14  15
ENDBRANCH  13  14
ENDBRANCH  12  13
ENDBRANCH  11  12
ENDBRANCH  10  11
ENDBRANCH   1  10
TORSDOF 12
ENDMDL
