MODEL 1
REMARK VINA RESULT:    -4.296      0.000      0.000
REMARK INTER + INTRA:          -5.663
REMARK INTER:                  -5.551
REMARK INTRA:                  -0.111
REMARK UNBOUND:                -0.111
REMARK SMILES CCCCCCC(C)=O
REMARK SMILES IDX 4 1 3 2 2 3 1 4 5 5 6 6 7 7 9 8 8 9
REMARK H PARENT
REMARK Flexibility Score: inf
ROOT
ATOM      1  C   UNL     1      27.618  45.148  -0.704  1.00  0.00     0.000 C 
ENDROOT
BRANCH   1   2
ATOM      2  C   UNL     1      28.674  45.098   0.415  1.00  0.00    -0.000 C 
BRANCH   2   3
ATOM      3  C   UNL     1      30.050  44.558  -0.016  1.00  0.00    -0.003 C 
ATOM      4  C   UNL     1      31.101  44.650   1.088  1.00  0.00     0.004 C 
ENDBRANCH   2   3
ENDBRANCH   1   2
BRANCH   1   5
ATOM      5  C   UNL     1      26.994  46.544  -0.876  1.00  0.00     0.008 C 
BRANCH   5   6
ATOM      6  C   UNL     1      25.466  46.480  -1.011  1.00  0.00     0.075 C 
BRANCH   6   7
ATOM      7  C   UNL     1      24.992  47.000  -2.343  1.00  0.00     0.129 C 
ATOM      8  O   UNL     1      25.759  47.021  -3.295  1.00  0.00    -0.300 OA
ATOM      9  C   UNL     1      23.596  47.522  -2.501  1.00  0.00     0.087 C 
ENDBRANCH   6   7
ENDBRANCH   5   6
ENDBRANCH   1   5
TORSDOF 5
ENDMDL
MODEL 2
REMARK VINA RESULT:    -4.016      2.007      5.771
REMARK INTER + INTRA:          -5.301
REMARK INTER:                  -5.210
REMARK INTRA:                  -0.092
REMARK UNBOUND:                -0.111
REMARK SMILES CCCCCCC(C)=O
REMARK SMILES IDX 4 1 3 2 2 3 1 4 5 5 6 6 7 7 9 8 8 9
REMARK H PARENT
REMARK Flexibility Score: inf
ROOT
ATOM      1  C   UNL     1      27.142  46.489  -1.061  1.00  0.00     0.000 C 
ENDROOT
BRANCH   1   2
ATOM      2  C   UNL     1      25.630  46.417  -1.338  1.00  0.00    -0.000 C 
BRANCH   2   3
ATOM      3  C   UNL     1      25.171  47.133  -2.622  1.00  0.00    -0.003 C 
ATOM      4  C   UNL     1      23.696  47.531  -2.589  1.00  0.00     0.004 C 
ENDBRANCH   2   3
ENDBRANCH   1   2
BRANCH   1   5
ATOM      5  C   UNL     1      27.746  45.128  -0.675  1.00  0.00     0.008 C 
BRANCH   5   6
ATOM      6  C   UNL     1      28.720  45.243   0.507  1.00  0.00     0.075 C 
BRANCH   6   7
ATOM      7  C   UNL     1      30.034  44.562   0.226  1.00  0.00     0.129 C 
ATOM      8  O   UNL     1      30.150  43.847  -0.758  1.00  0.00    -0.300 OA
ATOM      9  C   UNL     1      31.190  44.729   1.164  1.00  0.00     0.087 C 
ENDBRANCH   6   7
ENDBRANCH   5   6
ENDBRANCH   1   5
TORSDOF 5
ENDMDL
MODEL 3
REMARK VINA RESULT:    -3.646     12.960     15.214
REMARK INTER + INTRA:          -4.824
REMARK INTER:                  -4.743
REMARK INTRA:                  -0.081
REMARK UNBOUND:                -0.111
REMARK SMILES CCCCCCC(C)=O
REMARK SMILES IDX 4 1 3 2 2 3 1 4 5 5 6 6 7 7 9 8 8 9
REMARK H PARENT
REMARK Flexibility Score: inf
ROOT
ATOM      1  C   UNL     1      25.108  57.377  -9.155  1.00  0.00     0.000 C 
ENDROOT
BRANCH   1   2
ATOM      2  C   UNL     1      24.829  55.864  -9.216  1.00  0.00    -0.000 C 
BRANCH   2   3
ATOM      3  C   UNL     1      24.305  55.249  -7.906  1.00  0.00    -0.003 C 
ATOM      4  C   UNL     1      22.873  54.729  -8.021  1.00  0.00     0.004 C 
ENDBRANCH   2   3
ENDBRANCH   1   2
BRANCH   1   5
ATOM      5  C   UNL     1      26.244  57.814 -10.095  1.00  0.00     0.008 C 
BRANCH   5   6
ATOM      6  C   UNL     1      26.422  59.339 -10.116  1.00  0.00     0.075 C 
BRANCH   6   7
ATOM      7  C   UNL     1      27.836  59.741 -10.442  1.00  0.00     0.129 C 
ATOM      8  O   UNL     1      28.535  59.005 -11.124  1.00  0.00    -0.300 OA
ATOM      9  C   UNL     1      28.404  61.021  -9.910  1.00  0.00     0.087 C 
ENDBRANCH   6   7
ENDBRANCH   5   6
ENDBRANCH   1   5
TORSDOF 5
ENDMDL
MODEL 4
REMARK VINA RESULT:    -3.504      2.849      6.223
REMARK INTER + INTRA:          -4.639
REMARK INTER:                  -4.556
REMARK INTRA:                  -0.083
REMARK UNBOUND:                -0.111
REMARK SMILES CCCCCCC(C)=O
REMARK SMILES IDX 4 1 3 2 2 3 1 4 5 5 6 6 7 7 9 8 8 9
REMARK H PARENT
REMARK Flexibility Score: inf
ROOT
ATOM      1  C   UNL     1      28.145  44.901  -0.470  1.00  0.00     0.000 C 
ENDROOT
BRANCH   1   2
ATOM      2  C   UNL     1      27.276  46.169  -0.379  1.00  0.00    -0.000 C 
BRANCH   2   3
ATOM      3  C   UNL     1      26.590  46.580  -1.694  1.00  0.00    -0.003 C 
ATOM      4  C   UNL     1      25.091  46.828  -1.535  1.00  0.00     0.004 C 
ENDBRANCH   2   3
ENDBRANCH   1   2
BRANCH   1   5
ATOM      5  C   UNL     1      29.302  44.895   0.543  1.00  0.00     0.008 C 
BRANCH   5   6
ATOM      6  C   UNL     1      30.600  44.346  -0.066  1.00  0.00     0.075 C 
BRANCH   6   7
ATOM      7  C   UNL     1      31.805  44.672   0.776  1.00  0.00     0.129 C 
ATOM      8  O   UNL     1      31.661  45.251   1.843  1.00  0.00    -0.300 OA
ATOM      9  C   UNL     1      33.182  44.321   0.300  1.00  0.00     0.087 C 
ENDBRANCH   6   7
ENDBRANCH   5   6
ENDBRANCH   1   5
TORSDOF 5
ENDMDL
MODEL 5
REMARK VINA RESULT:    -3.489      3.839      7.168
REMARK INTER + INTRA:          -4.620
REMARK INTER:                  -4.513
REMARK INTRA:                  -0.107
REMARK UNBOUND:                -0.111
REMARK SMILES CCCCCCC(C)=O
REMARK SMILES IDX 4 1 3 2 2 3 1 4 5 5 6 6 7 7 9 8 8 9
REMARK H PARENT
REMARK Flexibility Score: inf
ROOT
ATOM      1  C   UNL     1      31.230  44.727   0.719  1.00  0.00     0.000 C 
ENDROOT
BRANCH   1   2
ATOM      2  C   UNL     1      29.719  44.989   0.856  1.00  0.00    -0.000 C 
BRANCH   2   3
ATOM      3  C   UNL     1      28.874  44.560  -0.357  1.00  0.00    -0.003 C 
ATOM      4  C   UNL     1      27.720  45.517  -0.650  1.00  0.00     0.004 C 
ENDBRANCH   2   3
ENDBRANCH   1   2
BRANCH   1   5
ATOM      5  C   UNL     1      31.992  44.919   2.041  1.00  0.00     0.008 C 
BRANCH   5   6
ATOM      6  C   UNL     1      32.834  46.204   2.041  1.00  0.00     0.075 C 
BRANCH   6   7
ATOM      7  C   UNL     1      32.746  46.940   3.351  1.00  0.00     0.129 C 
ATOM      8  O   UNL     1      31.656  47.300   3.774  1.00  0.00    -0.300 OA
ATOM      9  C   UNL     1      33.987  47.264   4.125  1.00  0.00     0.087 C 
ENDBRANCH   6   7
ENDBRANCH   5   6
ENDBRANCH   1   5
TORSDOF 5
ENDMDL
MODEL 6
REMARK VINA RESULT:    -3.345     10.491     11.823
REMARK INTER + INTRA:          -4.434
REMARK INTER:                  -3.925
REMARK INTRA:                  -0.509
REMARK UNBOUND:                -0.111
REMARK SMILES CCCCCCC(C)=O
REMARK SMILES IDX 4 1 3 2 2 3 1 4 5 5 6 6 7 7 9 8 8 9
REMARK H PARENT
REMARK Flexibility Score: inf
ROOT
ATOM      1  C   UNL     1      17.290  43.948   0.611  1.00  0.00     0.000 C 
ENDROOT
BRANCH   1   2
ATOM      2  C   UNL     1      15.879  44.280   1.131  1.00  0.00    -0.000 C 
BRANCH   2   3
ATOM      3  C   UNL     1      15.014  45.113   0.168  1.00  0.00    -0.003 C 
ATOM      4  C   UNL     1      15.694  45.372  -1.175  1.00  0.00     0.004 C 
ENDBRANCH   2   3
ENDBRANCH   1   2
BRANCH   1   5
ATOM      5  C   UNL     1      17.800  42.581   1.097  1.00  0.00     0.008 C 
BRANCH   5   6
ATOM      6  C   UNL     1      16.864  41.436   0.684  1.00  0.00     0.075 C 
BRANCH   6   7
ATOM      7  C   UNL     1      16.821  41.250  -0.810  1.00  0.00     0.129 C 
ATOM      8  O   UNL     1      17.821  40.875  -1.405  1.00  0.00    -0.300 OA
ATOM      9  C   UNL     1      15.569  41.553  -1.576  1.00  0.00     0.087 C 
ENDBRANCH   6   7
ENDBRANCH   5   6
ENDBRANCH   1   5
TORSDOF 5
ENDMDL
MODEL 7
REMARK VINA RESULT:    -3.340     16.050     17.221
REMARK INTER + INTRA:          -4.428
REMARK INTER:                  -4.202
REMARK INTRA:                  -0.226
REMARK UNBOUND:                -0.111
REMARK SMILES CCCCCCC(C)=O
REMARK SMILES IDX 4 1 3 2 2 3 1 4 5 5 6 6 7 7 9 8 8 9
REMARK H PARENT
REMARK Flexibility Score: inf
ROOT
ATOM      1  C   UNL     1      30.263  59.103 -10.584  1.00  0.00     0.000 C 
ENDROOT
BRANCH   1   2
ATOM      2  C   UNL     1      29.009  59.688 -11.258  1.00  0.00    -0.000 C 
BRANCH   2   3
ATOM      3  C   UNL     1      27.753  59.725 -10.369  1.00  0.00    -0.003 C 
ATOM      4  C   UNL     1      26.867  58.491 -10.534  1.00  0.00     0.004 C 
ENDBRANCH   2   3
ENDBRANCH   1   2
BRANCH   1   5
ATOM      5  C   UNL     1      31.198  58.389 -11.575  1.00  0.00     0.008 C 
BRANCH   5   6
ATOM      6  C   UNL     1      30.490  58.052 -12.895  1.00  0.00     0.075 C 
BRANCH   6   7
ATOM      7  C   UNL     1      31.054  56.814 -13.541  1.00  0.00     0.129 C 
ATOM      8  O   UNL     1      30.312  55.885 -13.826  1.00  0.00    -0.300 OA
ATOM      9  C   UNL     1      32.524  56.700 -13.808  1.00  0.00     0.087 C 
ENDBRANCH   6   7
ENDBRANCH   5   6
ENDBRANCH   1   5
TORSDOF 5
ENDMDL
MODEL 8
REMARK VINA RESULT:    -3.311     16.648     17.074
REMARK INTER + INTRA:          -4.391
REMARK INTER:                  -4.111
REMARK INTRA:                  -0.280
REMARK UNBOUND:                -0.111
REMARK SMILES CCCCCCC(C)=O
REMARK SMILES IDX 4 1 3 2 2 3 1 4 5 5 6 6 7 7 9 8 8 9
REMARK H PARENT
REMARK Flexibility Score: inf
ROOT
ATOM      1  C   UNL     1      32.118  58.316 -11.962  1.00  0.00     0.000 C 
ENDROOT
BRANCH   1   2
ATOM      2  C   UNL     1      31.579  58.044 -13.378  1.00  0.00    -0.000 C 
BRANCH   2   3
ATOM      3  C   UNL     1      31.763  56.599 -13.875  1.00  0.00    -0.003 C 
ATOM      4  C   UNL     1      30.457  55.807 -13.909  1.00  0.00     0.004 C 
ENDBRANCH   2   3
ENDBRANCH   1   2
BRANCH   1   5
ATOM      5  C   UNL     1      31.038  58.846 -11.002  1.00  0.00     0.008 C 
BRANCH   5   6
ATOM      6  C   UNL     1      29.662  58.941 -11.677  1.00  0.00     0.075 C 
BRANCH   6   7
ATOM      7  C   UNL     1      28.600  59.436 -10.732  1.00  0.00     0.129 C 
ATOM      8  O   UNL     1      27.536  58.839 -10.648  1.00  0.00    -0.300 OA
ATOM      9  C   UNL     1      28.825  60.673  -9.918  1.00  0.00     0.087 C 
ENDBRANCH   6   7
ENDBRANCH   5   6
ENDBRANCH   1   5
TORSDOF 5
ENDMDL
MODEL 9
REMARK VINA RESULT:    -3.271     10.020     11.889
REMARK INTER + INTRA:          -4.339
REMARK INTER:                  -3.807
REMARK INTRA:                  -0.532
REMARK UNBOUND:                -0.111
REMARK SMILES CCCCCCC(C)=O
REMARK SMILES IDX 4 1 3 2 2 3 1 4 5 5 6 6 7 7 9 8 8 9
REMARK H PARENT
REMARK Flexibility Score: inf
ROOT
ATOM      1  C   UNL     1      16.271  45.373  -0.911  1.00  0.00     0.000 C 
ENDROOT
BRANCH   1   2
ATOM      2  C   UNL     1      15.067  44.964  -0.043  1.00  0.00    -0.000 C 
BRANCH   2   3
ATOM      3  C   UNL     1      13.971  44.178  -0.785  1.00  0.00    -0.003 C 
ATOM      4  C   UNL     1      14.374  43.786  -2.205  1.00  0.00     0.004 C 
ENDBRANCH   2   3
ENDBRANCH   1   2
BRANCH   1   5
ATOM      5  C   UNL     1      17.609  44.844  -0.366  1.00  0.00     0.008 C 
BRANCH   5   6
ATOM      6  C   UNL     1      17.417  43.631   0.556  1.00  0.00     0.075 C 
BRANCH   6   7
ATOM      7  C   UNL     1      17.900  42.354  -0.080  1.00  0.00     0.129 C 
ATOM      8  O   UNL     1      19.083  42.051  -0.014  1.00  0.00    -0.300 OA
ATOM      9  C   UNL     1      16.946  41.468  -0.822  1.00  0.00     0.087 C 
ENDBRANCH   6   7
ENDBRANCH   5   6
ENDBRANCH   1   5
TORSDOF 5
ENDMDL
