MODEL 1
REMARK VINA RESULT:    -3.942      0.000      0.000
REMARK INTER + INTRA:          -4.442
REMARK INTER:                  -4.287
REMARK INTRA:                  -0.155
REMARK UNBOUND:                -0.155
REMARK SMILES C=C1CCC(C(C)(C)O)CC1
REMARK SMILES IDX 7 1 6 2 8 3 5 4 4 5 10 6 3 7 11 8 2 9 1 10 9 11
REMARK H PARENT 9 12
REMARK Flexibility Score: inf
ROOT
ATOM      1  C   UNL     1       2.170 -15.469  13.737  1.00  0.00     0.042 C 
ATOM      2  C   UNL     1       2.294 -16.061  12.312  1.00  0.00     0.062 C 
ATOM      3  C   UNL     1       3.772 -15.988  11.863  1.00  0.00     0.042 C 
ENDROOT
BRANCH   2   4
ATOM      4  C   UNL     1       1.369 -15.327  11.278  1.00  0.00     0.021 C 
ATOM      5  C   UNL     1       1.317 -15.996   9.878  1.00  0.00     0.011 C 
ATOM      6  C   UNL     1       1.736 -13.829  11.112  1.00  0.00     0.011 C 
ATOM      7  C   UNL     1       0.290 -15.311   8.968  1.00  0.00     0.031 C 
ATOM      8  C   UNL     1       0.716 -13.094  10.235  1.00  0.00     0.031 C 
ATOM      9  C   UNL     1       0.521 -13.820   8.928  1.00  0.00    -0.077 C 
ATOM     10  C   UNL     1       0.400 -13.140   7.778  1.00  0.00     0.008 C 
ENDBRANCH   2   4
BRANCH   2  11
ATOM     11  O   UNL     1       1.910 -17.418  12.340  1.00  0.00    -0.390 OA
ATOM     12  H   UNL     1       2.052 -17.806  11.436  1.00  0.00     0.211 HD
ENDBRANCH   2  11
TORSDOF 2
ENDMDL
MODEL 2
REMARK VINA RESULT:    -3.878      2.515      3.261
REMARK INTER + INTRA:          -4.373
REMARK INTER:                  -4.204
REMARK INTRA:                  -0.170
REMARK UNBOUND:                -0.155
REMARK SMILES C=C1CCC(C(C)(C)O)CC1
REMARK SMILES IDX 7 1 6 2 8 3 5 4 4 5 10 6 3 7 11 8 2 9 1 10 9 11
REMARK H PARENT 9 12
REMARK Flexibility Score: inf
ROOT
ATOM      1  C   UNL     1       4.846 -13.044   8.825  1.00  0.00     0.042 C 
ATOM      2  C   UNL     1       4.599 -13.997  10.019  1.00  0.00     0.062 C 
ATOM      3  C   UNL     1       5.611 -15.165   9.948  1.00  0.00     0.042 C 
ENDROOT
BRANCH   2   4
ATOM      4  C   UNL     1       3.129 -14.546  10.050  1.00  0.00     0.021 C 
ATOM      5  C   UNL     1       2.988 -16.026   9.605  1.00  0.00     0.011 C 
ATOM      6  C   UNL     1       2.151 -13.671   9.224  1.00  0.00     0.011 C 
ATOM      7  C   UNL     1       1.554 -16.535   9.796  1.00  0.00     0.031 C 
ATOM      8  C   UNL     1       0.698 -14.122   9.411  1.00  0.00     0.031 C 
ATOM      9  C   UNL     1       0.564 -15.601   9.145  1.00  0.00    -0.077 C 
ATOM     10  C   UNL     1      -0.496 -16.083   8.478  1.00  0.00     0.008 C 
ENDBRANCH   2   4
BRANCH   2  11
ATOM     11  O   UNL     1       4.820 -13.297  11.224  1.00  0.00    -0.390 OA
ATOM     12  H   UNL     1       4.752 -12.323  11.041  1.00  0.00     0.211 HD
ENDBRANCH   2  11
TORSDOF 2
ENDMDL
MODEL 3
REMARK VINA RESULT:    -3.858      2.298      4.592
REMARK INTER + INTRA:          -4.352
REMARK INTER:                  -4.199
REMARK INTRA:                  -0.153
REMARK UNBOUND:                -0.155
REMARK SMILES C=C1CCC(C(C)(C)O)CC1
REMARK SMILES IDX 7 1 6 2 8 3 5 4 4 5 10 6 3 7 11 8 2 9 1 10 9 11
REMARK H PARENT 9 12
REMARK Flexibility Score: inf
ROOT
ATOM      1  C   UNL     1       1.940 -12.205   7.218  1.00  0.00     0.042 C 
ATOM      2  C   UNL     1       0.921 -12.918   8.140  1.00  0.00     0.062 C 
ATOM      3  C   UNL     1       0.290 -11.876   9.092  1.00  0.00     0.042 C 
ENDROOT
BRANCH   2   4
ATOM      4  C   UNL     1       1.573 -14.087   8.959  1.00  0.00     0.021 C 
ATOM      5  C   UNL     1       0.634 -15.299   9.202  1.00  0.00     0.011 C 
ATOM      6  C   UNL     1       2.150 -13.610  10.318  1.00  0.00     0.011 C 
ATOM      7  C   UNL     1       1.379 -16.456   9.881  1.00  0.00     0.031 C 
ATOM      8  C   UNL     1       2.933 -14.726  11.019  1.00  0.00     0.031 C 
ATOM      9  C   UNL     1       2.096 -15.977  11.119  1.00  0.00    -0.077 C 
ATOM     10  C   UNL     1       2.116 -16.726  12.232  1.00  0.00     0.008 C 
ENDBRANCH   2   4
BRANCH   2  11
ATOM     11  O   UNL     1      -0.108 -13.472   7.350  1.00  0.00    -0.390 OA
ATOM     12  H   UNL     1       0.082 -13.271   6.395  1.00  0.00     0.211 HD
ENDBRANCH   2  11
TORSDOF 2
ENDMDL
MODEL 4
REMARK VINA RESULT:    -3.786      1.709      2.631
REMARK INTER + INTRA:          -4.273
REMARK INTER:                  -4.116
REMARK INTRA:                  -0.157
REMARK UNBOUND:                -0.155
REMARK SMILES C=C1CCC(C(C)(C)O)CC1
REMARK SMILES IDX 7 1 6 2 8 3 5 4 4 5 10 6 3 7 11 8 2 9 1 10 9 11
REMARK H PARENT 9 12
REMARK Flexibility Score: inf
ROOT
ATOM      1  C   UNL     1       3.965 -15.579  13.256  1.00  0.00     0.042 C 
ATOM      2  C   UNL     1       2.789 -14.644  12.887  1.00  0.00     0.062 C 
ATOM      3  C   UNL     1       1.642 -14.852  13.902  1.00  0.00     0.042 C 
ENDROOT
BRANCH   2   4
ATOM      4  C   UNL     1       2.275 -14.880  11.422  1.00  0.00     0.021 C 
ATOM      5  C   UNL     1       1.060 -14.001  11.021  1.00  0.00     0.011 C 
ATOM      6  C   UNL     1       1.941 -16.369  11.143  1.00  0.00     0.011 C 
ATOM      7  C   UNL     1       0.704 -14.181   9.539  1.00  0.00     0.031 C 
ATOM      8  C   UNL     1       1.610 -16.603   9.665  1.00  0.00     0.031 C 
ATOM      9  C   UNL     1       0.543 -15.643   9.202  1.00  0.00    -0.077 C 
ATOM     10  C   UNL     1      -0.437 -16.052   8.382  1.00  0.00     0.008 C 
ENDBRANCH   2   4
BRANCH   2  11
ATOM     11  O   UNL     1       3.218 -13.303  12.978  1.00  0.00    -0.390 OA
ATOM     12  H   UNL     1       2.673 -12.753  12.355  1.00  0.00     0.211 HD
ENDBRANCH   2  11
TORSDOF 2
ENDMDL
MODEL 5
REMARK VINA RESULT:    -3.612      2.722      3.960
REMARK INTER + INTRA:          -4.084
REMARK INTER:                  -3.912
REMARK INTRA:                  -0.172
REMARK UNBOUND:                -0.155
REMARK SMILES C=C1CCC(C(C)(C)O)CC1
REMARK SMILES IDX 7 1 6 2 8 3 5 4 4 5 10 6 3 7 11 8 2 9 1 10 9 11
REMARK H PARENT 9 12
REMARK Flexibility Score: inf
ROOT
ATOM      1  C   UNL     1       0.601 -15.226   9.542  1.00  0.00     0.042 C 
ATOM      2  C   UNL     1       1.815 -16.107   9.925  1.00  0.00     0.062 C 
ATOM      3  C   UNL     1       1.796 -16.355  11.451  1.00  0.00     0.042 C 
ENDROOT
BRANCH   2   4
ATOM      4  C   UNL     1       3.179 -15.464   9.490  1.00  0.00     0.021 C 
ATOM      5  C   UNL     1       4.311 -15.590  10.544  1.00  0.00     0.011 C 
ATOM      6  C   UNL     1       3.030 -13.976   9.079  1.00  0.00     0.011 C 
ATOM      7  C   UNL     1       5.647 -15.070   9.997  1.00  0.00     0.031 C 
ATOM      8  C   UNL     1       4.334 -13.421   8.494  1.00  0.00     0.031 C 
ATOM      9  C   UNL     1       5.488 -13.680   9.431  1.00  0.00    -0.077 C 
ATOM     10  C   UNL     1       6.431 -12.747   9.629  1.00  0.00     0.008 C 
ENDBRANCH   2   4
BRANCH   2  11
ATOM     11  O   UNL     1       1.705 -17.355   9.276  1.00  0.00    -0.390 OA
ATOM     12  H   UNL     1       0.787 -17.707   9.421  1.00  0.00     0.211 HD
ENDBRANCH   2  11
TORSDOF 2
ENDMDL
MODEL 6
REMARK VINA RESULT:    -3.555      1.583      4.509
REMARK INTER + INTRA:          -4.022
REMARK INTER:                  -3.873
REMARK INTRA:                  -0.149
REMARK UNBOUND:                -0.155
REMARK SMILES C=C1CCC(C(C)(C)O)CC1
REMARK SMILES IDX 7 1 6 2 8 3 5 4 4 5 10 6 3 7 11 8 2 9 1 10 9 11
REMARK H PARENT 9 12
REMARK Flexibility Score: inf
ROOT
ATOM      1  C   UNL     1       3.030 -15.434   9.479  1.00  0.00     0.042 C 
ATOM      2  C   UNL     1       1.629 -15.945   9.892  1.00  0.00     0.062 C 
ATOM      3  C   UNL     1       0.553 -15.137   9.131  1.00  0.00     0.042 C 
ENDROOT
BRANCH   2   4
ATOM      4  C   UNL     1       1.392 -15.852  11.441  1.00  0.00     0.021 C 
ATOM      5  C   UNL     1       1.673 -14.452  12.048  1.00  0.00     0.011 C 
ATOM      6  C   UNL     1       2.196 -16.919  12.229  1.00  0.00     0.011 C 
ATOM      7  C   UNL     1       1.285 -14.397  13.532  1.00  0.00     0.031 C 
ATOM      8  C   UNL     1       1.817 -16.925  13.714  1.00  0.00     0.031 C 
ATOM      9  C   UNL     1       1.920 -15.535  14.292  1.00  0.00    -0.077 C 
ATOM     10  C   UNL     1       2.424 -15.340  15.521  1.00  0.00     0.008 C 
ENDBRANCH   2   4
BRANCH   2  11
ATOM     11  O   UNL     1       1.503 -17.301   9.521  1.00  0.00    -0.390 OA
ATOM     12  H   UNL     1       1.703 -17.866  10.314  1.00  0.00     0.211 HD
ENDBRANCH   2  11
TORSDOF 2
ENDMDL
MODEL 7
REMARK VINA RESULT:    -3.498      3.340      6.300
REMARK INTER + INTRA:          -3.960
REMARK INTER:                  -3.789
REMARK INTRA:                  -0.172
REMARK UNBOUND:                -0.155
REMARK SMILES C=C1CCC(C(C)(C)O)CC1
REMARK SMILES IDX 7 1 6 2 8 3 5 4 4 5 10 6 3 7 11 8 2 9 1 10 9 11
REMARK H PARENT 9 12
REMARK Flexibility Score: inf
ROOT
ATOM      1  C   UNL     1       3.680 -16.274  12.866  1.00  0.00     0.042 C 
ATOM      2  C   UNL     1       2.164 -16.578  12.793  1.00  0.00     0.062 C 
ATOM      3  C   UNL     1       1.378 -15.327  13.249  1.00  0.00     0.042 C 
ENDROOT
BRANCH   2   4
ATOM      4  C   UNL     1       1.763 -17.825  13.657  1.00  0.00     0.021 C 
ATOM      5  C   UNL     1       0.811 -17.504  14.840  1.00  0.00     0.011 C 
ATOM      6  C   UNL     1       2.996 -18.598  14.192  1.00  0.00     0.011 C 
ATOM      7  C   UNL     1       0.349 -18.783  15.550  1.00  0.00     0.031 C 
ATOM      8  C   UNL     1       2.585 -19.904  14.882  1.00  0.00     0.031 C 
ATOM      9  C   UNL     1       1.531 -19.641  15.929  1.00  0.00    -0.077 C 
ATOM     10  C   UNL     1       1.565 -20.277  17.109  1.00  0.00     0.008 C 
ENDBRANCH   2   4
BRANCH   2  11
ATOM     11  O   UNL     1       1.811 -16.854  11.455  1.00  0.00    -0.390 OA
ATOM     12  H   UNL     1       1.806 -17.839  11.325  1.00  0.00     0.211 HD
ENDBRANCH   2  11
TORSDOF 2
ENDMDL
MODEL 8
REMARK VINA RESULT:    -3.469      1.950      2.410
REMARK INTER + INTRA:          -3.929
REMARK INTER:                  -3.775
REMARK INTRA:                  -0.154
REMARK UNBOUND:                -0.155
REMARK SMILES C=C1CCC(C(C)(C)O)CC1
REMARK SMILES IDX 7 1 6 2 8 3 5 4 4 5 10 6 3 7 11 8 2 9 1 10 9 11
REMARK H PARENT 9 12
REMARK Flexibility Score: inf
ROOT
ATOM      1  C   UNL     1       5.201 -14.709  11.330  1.00  0.00     0.042 C 
ATOM      2  C   UNL     1       4.137 -15.365  10.418  1.00  0.00     0.062 C 
ATOM      3  C   UNL     1       4.844 -16.019   9.209  1.00  0.00     0.042 C 
ENDROOT
BRANCH   2   4
ATOM      4  C   UNL     1       3.053 -14.340   9.932  1.00  0.00     0.021 C 
ATOM      5  C   UNL     1       1.655 -14.962   9.670  1.00  0.00     0.011 C 
ATOM      6  C   UNL     1       3.503 -13.552   8.674  1.00  0.00     0.011 C 
ATOM      7  C   UNL     1       0.615 -13.883   9.338  1.00  0.00     0.031 C 
ATOM      8  C   UNL     1       2.509 -12.439   8.321  1.00  0.00     0.031 C 
ATOM      9  C   UNL     1       1.108 -12.991   8.225  1.00  0.00    -0.077 C 
ATOM     10  C   UNL     1       0.273 -12.575   7.260  1.00  0.00     0.008 C 
ENDBRANCH   2   4
BRANCH   2  11
ATOM     11  O   UNL     1       3.472 -16.380  11.140  1.00  0.00    -0.390 OA
ATOM     12  H   UNL     1       3.466 -16.132  12.102  1.00  0.00     0.211 HD
ENDBRANCH   2  11
TORSDOF 2
ENDMDL
MODEL 9
REMARK VINA RESULT:    -3.351      1.096      2.038
REMARK INTER + INTRA:          -3.800
REMARK INTER:                  -3.656
REMARK INTRA:                  -0.143
REMARK UNBOUND:                -0.155
REMARK SMILES C=C1CCC(C(C)(C)O)CC1
REMARK SMILES IDX 7 1 6 2 8 3 5 4 4 5 10 6 3 7 11 8 2 9 1 10 9 11
REMARK H PARENT 9 12
REMARK Flexibility Score: inf
ROOT
ATOM      1  C   UNL     1       1.179 -16.077  14.481  1.00  0.00     0.042 C 
ATOM      2  C   UNL     1       2.207 -16.548  13.424  1.00  0.00     0.062 C 
ATOM      3  C   UNL     1       3.612 -16.580  14.066  1.00  0.00     0.042 C 
ENDROOT
BRANCH   2   4
ATOM      4  C   UNL     1       2.208 -15.638  12.145  1.00  0.00     0.021 C 
ATOM      5  C   UNL     1       1.285 -14.394  12.245  1.00  0.00     0.011 C 
ATOM      6  C   UNL     1       1.862 -16.426  10.855  1.00  0.00     0.011 C 
ATOM      7  C   UNL     1       1.445 -13.479  11.023  1.00  0.00     0.031 C 
ATOM      8  C   UNL     1       2.040 -15.560   9.602  1.00  0.00     0.031 C 
ATOM      9  C   UNL     1       1.283 -14.263   9.744  1.00  0.00    -0.077 C 
ATOM     10  C   UNL     1       0.613 -13.745   8.703  1.00  0.00     0.008 C 
ENDBRANCH   2   4
BRANCH   2  11
ATOM     11  O   UNL     1       1.881 -17.859  13.014  1.00  0.00    -0.390 OA
ATOM     12  H   UNL     1       0.893 -17.932  12.939  1.00  0.00     0.211 HD
ENDBRANCH   2  11
TORSDOF 2
ENDMDL
