MODEL 1
REMARK VINA RESULT:    -4.410      0.000      0.000
REMARK INTER + INTRA:          -8.138
REMARK INTER:                  -6.730
REMARK INTRA:                  -1.408
REMARK UNBOUND:                -1.408
REMARK SMILES CCCCCCCCCC=CC(=O)[O-]
REMARK SMILES IDX 7 1 8 2 9 3 10 4 11 5 12 6 13 7 14 8 6 9 5 10 4 11 3 12 2 13
REMARK SMILES IDX 1 14
REMARK H PARENT
REMARK Flexibility Score: inf
ROOT
ATOM      1  C   UNL     1     -19.954  17.286 -23.857  1.00  0.00     0.000 C 
ENDROOT
BRANCH   1   2
ATOM      2  C   UNL     1     -20.326  18.263 -24.979  1.00  0.00     0.004 C 
BRANCH   2   3
ATOM      3  C   UNL     1     -21.843  18.288 -25.206  1.00  0.00     0.027 C 
BRANCH   3   4
ATOM      4  C   UNL     1     -22.394  19.675 -25.041  1.00  0.00    -0.025 C 
ATOM      5  C   UNL     1     -21.598  20.750 -25.061  1.00  0.00     0.020 C 
BRANCH   5   6
ATOM      6  C   UNL     1     -22.119  22.119 -24.915  1.00  0.00     0.064 C 
ATOM      7  O   UNL     1     -21.388  23.121 -25.134  1.00  0.00    -0.545 OA
ATOM      8  O   UNL     1     -23.440  22.309 -24.529  1.00  0.00    -0.545 OA
ENDBRANCH   5   6
ENDBRANCH   3   4
ENDBRANCH   2   3
ENDBRANCH   1   2
BRANCH   1   9
ATOM      9  C   UNL     1     -21.141  16.374 -23.507  1.00  0.00     0.000 C 
BRANCH   9  10
ATOM     10  C   UNL     1     -21.584  16.516 -22.042  1.00  0.00     0.000 C 
BRANCH  10  11
ATOM     11  C   UNL     1     -23.111  16.559 -21.886  1.00  0.00    -0.000 C 
BRANCH  11  12
ATOM     12  C   UNL     1     -23.621  18.008 -21.884  1.00  0.00    -0.000 C 
BRANCH  12  13
ATOM     13  C   UNL     1     -22.537  19.016 -21.471  1.00  0.00    -0.003 C 
ATOM     14  C   UNL     1     -23.072  20.442 -21.347  1.00  0.00     0.004 C 
ENDBRANCH  12  13
ENDBRANCH  11  12
ENDBRANCH  10  11
ENDBRANCH   9  10
ENDBRANCH   1   9
TORSDOF 9
ENDMDL
MODEL 2
REMARK VINA RESULT:    -4.383      3.839      5.126
REMARK INTER + INTRA:          -8.097
REMARK INTER:                  -6.551
REMARK INTRA:                  -1.545
REMARK UNBOUND:                -1.408
REMARK SMILES CCCCCCCCCC=CC(=O)[O-]
REMARK SMILES IDX 7 1 8 2 9 3 10 4 11 5 12 6 13 7 14 8 6 9 5 10 4 11 3 12 2 13
REMARK SMILES IDX 1 14
REMARK H PARENT
REMARK Flexibility Score: inf
ROOT
ATOM      1  C   UNL     1     -21.424  16.470 -24.954  1.00  0.00     0.000 C 
ENDROOT
BRANCH   1   2
ATOM      2  C   UNL     1     -20.356  17.299 -24.229  1.00  0.00     0.004 C 
BRANCH   2   3
ATOM      3  C   UNL     1     -20.056  16.717 -22.842  1.00  0.00     0.027 C 
BRANCH   3   4
ATOM      4  C   UNL     1     -21.015  15.616 -22.495  1.00  0.00    -0.025 C 
ATOM      5  C   UNL     1     -21.600  15.551 -21.294  1.00  0.00     0.020 C 
BRANCH   5   6
ATOM      6  C   UNL     1     -22.554  14.488 -20.937  1.00  0.00     0.064 C 
ATOM      7  O   UNL     1     -22.246  13.272 -21.047  1.00  0.00    -0.545 OA
ATOM      8  O   UNL     1     -23.816  14.834 -20.471  1.00  0.00    -0.545 OA
ENDBRANCH   5   6
ENDBRANCH   3   4
ENDBRANCH   2   3
ENDBRANCH   1   2
BRANCH   1   9
ATOM      9  C   UNL     1     -22.508  17.377 -25.557  1.00  0.00     0.000 C 
BRANCH   9  10
ATOM     10  C   UNL     1     -23.150  18.306 -24.514  1.00  0.00     0.000 C 
BRANCH  10  11
ATOM     11  C   UNL     1     -24.025  17.549 -23.505  1.00  0.00    -0.000 C 
BRANCH  11  12
ATOM     12  C   UNL     1     -24.002  18.240 -22.133  1.00  0.00    -0.000 C 
BRANCH  12  13
ATOM     13  C   UNL     1     -22.773  19.145 -21.947  1.00  0.00    -0.003 C 
ATOM     14  C   UNL     1     -23.088  20.415 -21.158  1.00  0.00     0.004 C 
ENDBRANCH  12  13
ENDBRANCH  11  12
ENDBRANCH  10  11
ENDBRANCH   9  10
ENDBRANCH   1   9
TORSDOF 9
ENDMDL
MODEL 3
REMARK VINA RESULT:    -4.247      0.978      3.334
REMARK INTER + INTRA:          -7.889
REMARK INTER:                  -6.629
REMARK INTRA:                  -1.260
REMARK UNBOUND:                -1.408
REMARK SMILES CCCCCCCCCC=CC(=O)[O-]
REMARK SMILES IDX 7 1 8 2 9 3 10 4 11 5 12 6 13 7 14 8 6 9 5 10 4 11 3 12 2 13
REMARK SMILES IDX 1 14
REMARK H PARENT
REMARK Flexibility Score: inf
ROOT
ATOM      1  C   UNL     1     -23.224  17.478 -22.003  1.00  0.00     0.000 C 
ENDROOT
BRANCH   1   2
ATOM      2  C   UNL     1     -22.503  18.780 -21.630  1.00  0.00     0.004 C 
BRANCH   2   3
ATOM      3  C   UNL     1     -23.505  19.922 -21.421  1.00  0.00     0.027 C 
BRANCH   3   4
ATOM      4  C   UNL     1     -23.260  21.045 -22.388  1.00  0.00    -0.025 C 
ATOM      5  C   UNL     1     -22.917  20.809 -23.659  1.00  0.00     0.020 C 
BRANCH   5   6
ATOM      6  C   UNL     1     -22.686  21.894 -24.628  1.00  0.00     0.064 C 
ATOM      7  O   UNL     1     -23.557  22.779 -24.835  1.00  0.00    -0.545 OA
ATOM      8  O   UNL     1     -21.485  21.941 -25.324  1.00  0.00    -0.545 OA
ENDBRANCH   5   6
ENDBRANCH   3   4
ENDBRANCH   2   3
ENDBRANCH   1   2
BRANCH   1   9
ATOM      9  C   UNL     1     -22.238  16.300 -22.051  1.00  0.00     0.000 C 
BRANCH   9  10
ATOM     10  C   UNL     1     -20.809  16.737 -22.409  1.00  0.00     0.000 C 
BRANCH  10  11
ATOM     11  C   UNL     1     -20.511  16.612 -23.911  1.00  0.00    -0.000 C 
BRANCH  11  12
ATOM     12  C   UNL     1     -20.288  17.996 -24.541  1.00  0.00    -0.000 C 
BRANCH  12  13
ATOM     13  C   UNL     1     -21.063  18.178 -25.855  1.00  0.00    -0.003 C 
ATOM     14  C   UNL     1     -22.524  17.745 -25.745  1.00  0.00     0.004 C 
ENDBRANCH  12  13
ENDBRANCH  11  12
ENDBRANCH  10  11
ENDBRANCH   9  10
ENDBRANCH   1   9
TORSDOF 9
ENDMDL
MODEL 4
REMARK VINA RESULT:    -4.198      1.233      3.325
REMARK INTER + INTRA:          -7.814
REMARK INTER:                  -6.712
REMARK INTRA:                  -1.102
REMARK UNBOUND:                -1.408
REMARK SMILES CCCCCCCCCC=CC(=O)[O-]
REMARK SMILES IDX 7 1 8 2 9 3 10 4 11 5 12 6 13 7 14 8 6 9 5 10 4 11 3 12 2 13
REMARK SMILES IDX 1 14
REMARK H PARENT
REMARK Flexibility Score: inf
ROOT
ATOM      1  C   UNL     1     -22.609  19.294 -21.618  1.00  0.00     0.000 C 
ENDROOT
BRANCH   1   2
ATOM      2  C   UNL     1     -23.183  20.448 -22.450  1.00  0.00     0.004 C 
BRANCH   2   3
ATOM      3  C   UNL     1     -22.833  20.283 -23.934  1.00  0.00     0.027 C 
BRANCH   3   4
ATOM      4  C   UNL     1     -22.739  21.614 -24.622  1.00  0.00    -0.025 C 
ATOM      5  C   UNL     1     -21.559  22.131 -24.983  1.00  0.00     0.020 C 
BRANCH   5   6
ATOM      6  C   UNL     1     -21.444  23.428 -25.671  1.00  0.00     0.064 C 
ATOM      7  O   UNL     1     -21.909  24.480 -25.159  1.00  0.00    -0.545 OA
ATOM      8  O   UNL     1     -20.810  23.491 -26.905  1.00  0.00    -0.545 OA
ENDBRANCH   5   6
ENDBRANCH   3   4
ENDBRANCH   2   3
ENDBRANCH   1   2
BRANCH   1   9
ATOM      9  C   UNL     1     -22.686  17.968 -22.391  1.00  0.00     0.000 C 
BRANCH   9  10
ATOM     10  C   UNL     1     -21.420  17.112 -22.224  1.00  0.00     0.000 C 
BRANCH  10  11
ATOM     11  C   UNL     1     -20.853  16.626 -23.566  1.00  0.00    -0.000 C 
BRANCH  11  12
ATOM     12  C   UNL     1     -19.972  17.707 -24.212  1.00  0.00    -0.000 C 
BRANCH  12  13
ATOM     13  C   UNL     1     -20.524  18.191 -25.561  1.00  0.00    -0.003 C 
ATOM     14  C   UNL     1     -21.727  17.376 -26.035  1.00  0.00     0.004 C 
ENDBRANCH  12  13
ENDBRANCH  11  12
ENDBRANCH  10  11
ENDBRANCH   9  10
ENDBRANCH   1   9
TORSDOF 9
ENDMDL
MODEL 5
REMARK VINA RESULT:    -4.178      3.123      5.020
REMARK INTER + INTRA:          -7.784
REMARK INTER:                  -6.850
REMARK INTRA:                  -0.934
REMARK UNBOUND:                -1.408
REMARK SMILES CCCCCCCCCC=CC(=O)[O-]
REMARK SMILES IDX 7 1 8 2 9 3 10 4 11 5 12 6 13 7 14 8 6 9 5 10 4 11 3 12 2 13
REMARK SMILES IDX 1 14
REMARK H PARENT
REMARK Flexibility Score: inf
ROOT
ATOM      1  C   UNL     1     -22.083  19.426 -25.256  1.00  0.00     0.000 C 
ENDROOT
BRANCH   1   2
ATOM      2  C   UNL     1     -20.842  18.667 -25.742  1.00  0.00     0.004 C 
BRANCH   2   3
ATOM      3  C   UNL     1     -20.088  18.036 -24.566  1.00  0.00     0.027 C 
BRANCH   3   4
ATOM      4  C   UNL     1     -21.013  17.238 -23.693  1.00  0.00    -0.025 C 
ATOM      5  C   UNL     1     -20.565  16.582 -22.616  1.00  0.00     0.020 C 
BRANCH   5   6
ATOM      6  C   UNL     1     -21.456  15.806 -21.738  1.00  0.00     0.064 C 
ATOM      7  O   UNL     1     -22.701  15.993 -21.744  1.00  0.00    -0.545 OA
ATOM      8  O   UNL     1     -20.913  14.850 -20.889  1.00  0.00    -0.545 OA
ENDBRANCH   5   6
ENDBRANCH   3   4
ENDBRANCH   2   3
ENDBRANCH   1   2
BRANCH   1   9
ATOM      9  C   UNL     1     -21.744  20.892 -24.944  1.00  0.00     0.000 C 
BRANCH   9  10
ATOM     10  C   UNL     1     -22.989  21.731 -24.617  1.00  0.00     0.000 C 
BRANCH  10  11
ATOM     11  C   UNL     1     -22.937  22.346 -23.211  1.00  0.00    -0.000 C 
BRANCH  11  12
ATOM     12  C   UNL     1     -23.996  21.710 -22.296  1.00  0.00    -0.000 C 
BRANCH  12  13
ATOM     13  C   UNL     1     -23.379  21.009 -21.076  1.00  0.00    -0.003 C 
ATOM     14  C   UNL     1     -22.770  19.650 -21.421  1.00  0.00     0.004 C 
ENDBRANCH  12  13
ENDBRANCH  11  12
ENDBRANCH  10  11
ENDBRANCH   9  10
ENDBRANCH   1   9
TORSDOF 9
ENDMDL
MODEL 6
REMARK VINA RESULT:    -4.150      3.797      5.945
REMARK INTER + INTRA:          -7.742
REMARK INTER:                  -6.546
REMARK INTRA:                  -1.196
REMARK UNBOUND:                -1.408
REMARK SMILES CCCCCCCCCC=CC(=O)[O-]
REMARK SMILES IDX 7 1 8 2 9 3 10 4 11 5 12 6 13 7 14 8 6 9 5 10 4 11 3 12 2 13
REMARK SMILES IDX 1 14
REMARK H PARENT
REMARK Flexibility Score: inf
ROOT
ATOM      1  C   UNL     1     -22.880  20.333 -23.137  1.00  0.00     0.000 C 
ENDROOT
BRANCH   1   2
ATOM      2  C   UNL     1     -23.148  19.365 -21.977  1.00  0.00     0.004 C 
BRANCH   2   3
ATOM      3  C   UNL     1     -24.262  18.373 -22.335  1.00  0.00     0.027 C 
BRANCH   3   4
ATOM      4  C   UNL     1     -24.396  17.306 -21.287  1.00  0.00    -0.025 C 
ATOM      5  C   UNL     1     -24.338  16.007 -21.603  1.00  0.00     0.020 C 
BRANCH   5   6
ATOM      6  C   UNL     1     -24.453  14.944 -20.591  1.00  0.00     0.064 C 
ATOM      7  O   UNL     1     -24.829  15.200 -19.417  1.00  0.00    -0.545 OA
ATOM      8  O   UNL     1     -24.141  13.635 -20.938  1.00  0.00    -0.545 OA
ENDBRANCH   5   6
ENDBRANCH   3   4
ENDBRANCH   2   3
ENDBRANCH   1   2
BRANCH   1   9
ATOM      9  C   UNL     1     -22.750  19.574 -24.467  1.00  0.00     0.000 C 
BRANCH   9  10
ATOM     10  C   UNL     1     -21.413  19.846 -25.174  1.00  0.00     0.000 C 
BRANCH  10  11
ATOM     11  C   UNL     1     -20.542  18.587 -25.299  1.00  0.00    -0.000 C 
BRANCH  11  12
ATOM     12  C   UNL     1     -21.186  17.401 -24.564  1.00  0.00    -0.000 C 
BRANCH  12  13
ATOM     13  C   UNL     1     -20.212  16.702 -23.603  1.00  0.00    -0.003 C 
ATOM     14  C   UNL     1     -20.782  16.543 -22.194  1.00  0.00     0.004 C 
ENDBRANCH  12  13
ENDBRANCH  11  12
ENDBRANCH  10  11
ENDBRANCH   9  10
ENDBRANCH   1   9
TORSDOF 9
ENDMDL
MODEL 7
REMARK VINA RESULT:    -4.130      1.630      3.963
REMARK INTER + INTRA:          -7.711
REMARK INTER:                  -6.392
REMARK INTRA:                  -1.319
REMARK UNBOUND:                -1.408
REMARK SMILES CCCCCCCCCC=CC(=O)[O-]
REMARK SMILES IDX 7 1 8 2 9 3 10 4 11 5 12 6 13 7 14 8 6 9 5 10 4 11 3 12 2 13
REMARK SMILES IDX 1 14
REMARK H PARENT
REMARK Flexibility Score: inf
ROOT
ATOM      1  C   UNL     1     -24.005  17.460 -23.467  1.00  0.00     0.000 C 
ENDROOT
BRANCH   1   2
ATOM      2  C   UNL     1     -24.256  18.372 -22.260  1.00  0.00     0.004 C 
BRANCH   2   3
ATOM      3  C   UNL     1     -22.934  18.858 -21.653  1.00  0.00     0.027 C 
BRANCH   3   4
ATOM      4  C   UNL     1     -22.971  20.334 -21.380  1.00  0.00    -0.025 C 
ATOM      5  C   UNL     1     -23.382  21.205 -22.308  1.00  0.00     0.020 C 
BRANCH   5   6
ATOM      6  C   UNL     1     -23.439  22.655 -22.058  1.00  0.00     0.064 C 
ATOM      7  O   UNL     1     -23.892  23.112 -20.976  1.00  0.00    -0.545 OA
ATOM      8  O   UNL     1     -22.984  23.534 -23.033  1.00  0.00    -0.545 OA
ENDBRANCH   5   6
ENDBRANCH   3   4
ENDBRANCH   2   3
ENDBRANCH   1   2
BRANCH   1   9
ATOM      9  C   UNL     1     -23.515  18.271 -24.677  1.00  0.00     0.000 C 
BRANCH   9  10
ATOM     10  C   UNL     1     -22.227  17.701 -25.290  1.00  0.00     0.000 C 
BRANCH  10  11
ATOM     11  C   UNL     1     -20.981  18.517 -24.915  1.00  0.00    -0.000 C 
BRANCH  11  12
ATOM     12  C   UNL     1     -19.929  17.627 -24.234  1.00  0.00    -0.000 C 
BRANCH  12  13
ATOM     13  C   UNL     1     -20.491  16.259 -23.819  1.00  0.00    -0.003 C 
ATOM     14  C   UNL     1     -20.548  16.078 -22.303  1.00  0.00     0.004 C 
ENDBRANCH  12  13
ENDBRANCH  11  12
ENDBRANCH  10  11
ENDBRANCH   9  10
ENDBRANCH   1   9
TORSDOF 9
ENDMDL
MODEL 8
REMARK VINA RESULT:    -4.122      3.393      5.070
REMARK INTER + INTRA:          -7.699
REMARK INTER:                  -6.333
REMARK INTRA:                  -1.366
REMARK UNBOUND:                -1.408
REMARK SMILES CCCCCCCCCC=CC(=O)[O-]
REMARK SMILES IDX 7 1 8 2 9 3 10 4 11 5 12 6 13 7 14 8 6 9 5 10 4 11 3 12 2 13
REMARK SMILES IDX 1 14
REMARK H PARENT
REMARK Flexibility Score: inf
ROOT
ATOM      1  C   UNL     1     -21.448  20.215 -25.049  1.00  0.00     0.000 C 
ENDROOT
BRANCH   1   2
ATOM      2  C   UNL     1     -21.576  18.700 -25.246  1.00  0.00     0.004 C 
BRANCH   2   3
ATOM      3  C   UNL     1     -20.318  17.973 -24.753  1.00  0.00     0.027 C 
BRANCH   3   4
ATOM      4  C   UNL     1     -20.598  17.190 -23.503  1.00  0.00    -0.025 C 
ATOM      5  C   UNL     1     -20.558  15.853 -23.494  1.00  0.00     0.020 C 
BRANCH   5   6
ATOM      6  C   UNL     1     -20.815  15.065 -22.276  1.00  0.00     0.064 C 
ATOM      7  O   UNL     1     -21.957  15.036 -21.748  1.00  0.00    -0.545 OA
ATOM      8  O   UNL     1     -19.778  14.340 -21.703  1.00  0.00    -0.545 OA
ENDBRANCH   5   6
ENDBRANCH   3   4
ENDBRANCH   2   3
ENDBRANCH   1   2
BRANCH   1   9
ATOM      9  C   UNL     1     -22.811  20.842 -24.711  1.00  0.00     0.000 C 
BRANCH   9  10
ATOM     10  C   UNL     1     -22.871  21.390 -23.277  1.00  0.00     0.000 C 
BRANCH  10  11
ATOM     11  C   UNL     1     -23.737  20.526 -22.348  1.00  0.00    -0.000 C 
BRANCH  11  12
ATOM     12  C   UNL     1     -22.889  19.451 -21.651  1.00  0.00    -0.000 C 
BRANCH  12  13
ATOM     13  C   UNL     1     -23.580  18.079 -21.623  1.00  0.00    -0.003 C 
ATOM     14  C   UNL     1     -24.263  17.734 -22.946  1.00  0.00     0.004 C 
ENDBRANCH  12  13
ENDBRANCH  11  12
ENDBRANCH  10  11
ENDBRANCH   9  10
ENDBRANCH   1   9
TORSDOF 9
ENDMDL
MODEL 9
REMARK VINA RESULT:    -4.096      2.181      4.410
REMARK INTER + INTRA:          -7.658
REMARK INTER:                  -6.409
REMARK INTRA:                  -1.249
REMARK UNBOUND:                -1.408
REMARK SMILES CCCCCCCCCC=CC(=O)[O-]
REMARK SMILES IDX 7 1 8 2 9 3 10 4 11 5 12 6 13 7 14 8 6 9 5 10 4 11 3 12 2 13
REMARK SMILES IDX 1 14
REMARK H PARENT
REMARK Flexibility Score: inf
ROOT
ATOM      1  C   UNL     1     -23.451  22.389 -23.498  1.00  0.00     0.000 C 
ENDROOT
BRANCH   1   2
ATOM      2  C   UNL     1     -22.351  23.075 -24.318  1.00  0.00     0.004 C 
BRANCH   2   3
ATOM      3  C   UNL     1     -21.445  22.041 -24.997  1.00  0.00     0.027 C 
BRANCH   3   4
ATOM      4  C   UNL     1     -22.145  20.721 -25.148  1.00  0.00    -0.025 C 
ATOM      5  C   UNL     1     -21.463  19.589 -25.355  1.00  0.00     0.020 C 
BRANCH   5   6
ATOM      6  C   UNL     1     -22.127  18.282 -25.491  1.00  0.00     0.064 C 
ATOM      7  O   UNL     1     -23.358  18.150 -25.263  1.00  0.00    -0.545 OA
ATOM      8  O   UNL     1     -21.383  17.176 -25.879  1.00  0.00    -0.545 OA
ENDBRANCH   5   6
ENDBRANCH   3   4
ENDBRANCH   2   3
ENDBRANCH   1   2
BRANCH   1   9
ATOM      9  C   UNL     1     -23.402  22.838 -22.029  1.00  0.00     0.000 C 
BRANCH   9  10
ATOM     10  C   UNL     1     -23.328  21.654 -21.051  1.00  0.00     0.000 C 
BRANCH  10  11
ATOM     11  C   UNL     1     -23.695  20.317 -21.711  1.00  0.00    -0.000 C 
BRANCH  11  12
ATOM     12  C   UNL     1     -22.522  19.328 -21.634  1.00  0.00    -0.000 C 
BRANCH  12  13
ATOM     13  C   UNL     1     -22.967  17.868 -21.813  1.00  0.00    -0.003 C 
ATOM     14  C   UNL     1     -21.794  16.916 -22.044  1.00  0.00     0.004 C 
ENDBRANCH  12  13
ENDBRANCH  11  12
ENDBRANCH  10  11
ENDBRANCH   9  10
ENDBRANCH   1   9
TORSDOF 9
ENDMDL
