MODEL 1
REMARK VINA RESULT:    -3.585      0.000      0.000
REMARK INTER + INTRA:         -12.567
REMARK INTER:                  -8.196
REMARK INTRA:                  -4.372
REMARK UNBOUND:                -4.372
REMARK SMILES CCCCCCCCCCCCCCCCCCCCCCCC(=O)[O-]
REMARK SMILES IDX 13 1 14 2 15 3 16 4 17 5 18 6 19 7 20 8 21 9 22 10 23 11
REMARK SMILES IDX 24 12 25 13 26 14 12 15 11 16 10 17 9 18 8 19 7 20 6 21 5 22
REMARK SMILES IDX 4 23 3 24 2 25 1 26
REMARK H PARENT
REMARK Flexibility Score: inf
ROOT
ATOM      1  C   UNL     1      19.840   2.023  39.959  1.00  0.00     0.000 C 
ENDROOT
BRANCH   1   2
ATOM      2  C   UNL     1      20.506   1.157  41.041  1.00  0.00     0.000 C 
BRANCH   2   3
ATOM      3  C   UNL     1      20.327   1.730  42.455  1.00  0.00     0.000 C 
BRANCH   3   4
ATOM      4  C   UNL     1      19.742   0.674  43.403  1.00  0.00     0.000 C 
BRANCH   4   5
ATOM      5  C   UNL     1      18.223   0.495  43.234  1.00  0.00     0.000 C 
BRANCH   5   6
ATOM      6  C   UNL     1      17.425   1.808  43.107  1.00  0.00     0.000 C 
BRANCH   6   7
ATOM      7  C   UNL     1      16.594   1.909  41.811  1.00  0.00     0.000 C 
BRANCH   7   8
ATOM      8  C   UNL     1      16.499   3.352  41.289  1.00  0.00     0.000 C 
BRANCH   8   9
ATOM      9  C   UNL     1      16.187   3.379  39.790  1.00  0.00     0.000 C 
BRANCH   9  10
ATOM     10  C   UNL     1      15.618   2.031  39.322  1.00  0.00     0.006 C 
BRANCH  10  11
ATOM     11  C   UNL     1      15.400   1.986  37.804  1.00  0.00     0.053 C 
BRANCH  11  12
ATOM     12  C   UNL     1      14.484   0.869  37.403  1.00  0.00     0.041 C 
ATOM     13  O   UNL     1      14.668   0.258  36.316  1.00  0.00    -0.550 OA
ATOM     14  O   UNL     1      13.446   0.484  38.243  1.00  0.00    -0.550 OA
ENDBRANCH  11  12
ENDBRANCH  10  11
ENDBRANCH   9  10
ENDBRANCH   8   9
ENDBRANCH   7   8
ENDBRANCH   6   7
ENDBRANCH   5   6
ENDBRANCH   4   5
ENDBRANCH   3   4
ENDBRANCH   2   3
ENDBRANCH   1   2
BRANCH   1  15
ATOM     15  C   UNL     1      19.186   1.184  38.849  1.00  0.00     0.000 C 
BRANCH  15  16
ATOM     16  C   UNL     1      18.723  -0.194  39.350  1.00  0.00     0.000 C 
BRANCH  16  17
ATOM     17  C   UNL     1      17.729  -0.870  38.391  1.00  0.00     0.000 C 
BRANCH  17  18
ATOM     18  C   UNL     1      18.411  -1.862  37.431  1.00  0.00    -0.000 C 
BRANCH  18  19
ATOM     19  C   UNL     1      19.444  -2.797  38.090  1.00  0.00    -0.000 C 
BRANCH  19  20
ATOM     20  C   UNL     1      18.875  -4.121  38.642  1.00  0.00    -0.000 C 
BRANCH  20  21
ATOM     21  C   UNL     1      19.348  -4.485  40.061  1.00  0.00    -0.000 C 
BRANCH  21  22
ATOM     22  C   UNL     1      18.438  -3.907  41.157  1.00  0.00    -0.000 C 
BRANCH  22  23
ATOM     23  C   UNL     1      19.091  -2.742  41.922  1.00  0.00    -0.000 C 
BRANCH  23  24
ATOM     24  C   UNL     1      20.618  -2.853  42.089  1.00  0.00    -0.000 C 
BRANCH  24  25
ATOM     25  C   UNL     1      21.051  -3.020  43.553  1.00  0.00    -0.003 C 
ATOM     26  C   UNL     1      19.871  -2.833  44.503  1.00  0.00     0.004 C 
ENDBRANCH  24  25
ENDBRANCH  23  24
ENDBRANCH  22  23
ENDBRANCH  21  22
ENDBRANCH  20  21
ENDBRANCH  19  20
ENDBRANCH  18  19
ENDBRANCH  17  18
ENDBRANCH  16  17
ENDBRANCH  15  16
ENDBRANCH   1  15
TORSDOF 22
ENDMDL
MODEL 2
REMARK VINA RESULT:    -3.299      1.693      2.837
REMARK INTER + INTRA:         -11.914
REMARK INTER:                  -8.207
REMARK INTRA:                  -3.707
REMARK UNBOUND:                -4.372
REMARK SMILES CCCCCCCCCCCCCCCCCCCCCCCC(=O)[O-]
REMARK SMILES IDX 13 1 14 2 15 3 16 4 17 5 18 6 19 7 20 8 21 9 22 10 23 11
REMARK SMILES IDX 24 12 25 13 26 14 12 15 11 16 10 17 9 18 8 19 7 20 6 21 5 22
REMARK SMILES IDX 4 23 3 24 2 25 1 26
REMARK H PARENT
REMARK Flexibility Score: inf
ROOT
ATOM      1  C   UNL     1      20.078   2.135  40.873  1.00  0.00     0.000 C 
ENDROOT
BRANCH   1   2
ATOM      2  C   UNL     1      20.592   1.735  42.265  1.00  0.00     0.000 C 
BRANCH   2   3
ATOM      3  C   UNL     1      19.504   1.818  43.347  1.00  0.00     0.000 C 
BRANCH   3   4
ATOM      4  C   UNL     1      18.157   1.317  42.807  1.00  0.00     0.000 C 
BRANCH   4   5
ATOM      5  C   UNL     1      16.987   2.253  43.155  1.00  0.00     0.000 C 
BRANCH   5   6
ATOM      6  C   UNL     1      17.024   3.625  42.453  1.00  0.00     0.000 C 
BRANCH   6   7
ATOM      7  C   UNL     1      16.124   3.710  41.202  1.00  0.00     0.000 C 
BRANCH   7   8
ATOM      8  C   UNL     1      16.928   3.981  39.921  1.00  0.00     0.000 C 
BRANCH   8   9
ATOM      9  C   UNL     1      17.090   2.705  39.088  1.00  0.00     0.000 C 
BRANCH   9  10
ATOM     10  C   UNL     1      16.076   1.635  39.521  1.00  0.00     0.006 C 
BRANCH  10  11
ATOM     11  C   UNL     1      15.299   1.055  38.331  1.00  0.00     0.053 C 
BRANCH  11  12
ATOM     12  C   UNL     1      13.943   1.679  38.191  1.00  0.00     0.041 C 
ATOM     13  O   UNL     1      12.916   0.953  38.118  1.00  0.00    -0.550 OA
ATOM     14  O   UNL     1      13.811   3.062  38.170  1.00  0.00    -0.550 OA
ENDBRANCH  11  12
ENDBRANCH  10  11
ENDBRANCH   9  10
ENDBRANCH   8   9
ENDBRANCH   7   8
ENDBRANCH   6   7
ENDBRANCH   5   6
ENDBRANCH   4   5
ENDBRANCH   3   4
ENDBRANCH   2   3
ENDBRANCH   1   2
BRANCH   1  15
ATOM     15  C   UNL     1      20.515   1.150  39.775  1.00  0.00     0.000 C 
BRANCH  15  16
ATOM     16  C   UNL     1      20.753  -0.267  40.320  1.00  0.00     0.000 C 
BRANCH  16  17
ATOM     17  C   UNL     1      19.493  -1.146  40.258  1.00  0.00     0.000 C 
BRANCH  17  18
ATOM     18  C   UNL     1      19.496  -2.265  41.315  1.00  0.00    -0.000 C 
BRANCH  18  19
ATOM     19  C   UNL     1      20.036  -1.850  42.698  1.00  0.00    -0.000 C 
BRANCH  19  20
ATOM     20  C   UNL     1      19.124  -2.198  43.893  1.00  0.00    -0.000 C 
BRANCH  20  21
ATOM     21  C   UNL     1      19.702  -3.242  44.865  1.00  0.00    -0.000 C 
BRANCH  21  22
ATOM     22  C   UNL     1      19.602  -4.677  44.322  1.00  0.00    -0.000 C 
BRANCH  22  23
ATOM     23  C   UNL     1      20.942  -5.206  43.781  1.00  0.00    -0.000 C 
BRANCH  23  24
ATOM     24  C   UNL     1      22.181  -4.776  44.588  1.00  0.00    -0.000 C 
BRANCH  24  25
ATOM     25  C   UNL     1      23.233  -4.056  43.731  1.00  0.00    -0.003 C 
ATOM     26  C   UNL     1      22.889  -4.140  42.247  1.00  0.00     0.004 C 
ENDBRANCH  24  25
ENDBRANCH  23  24
ENDBRANCH  22  23
ENDBRANCH  21  22
ENDBRANCH  20  21
ENDBRANCH  19  20
ENDBRANCH  18  19
ENDBRANCH  17  18
ENDBRANCH  16  17
ENDBRANCH  15  16
ENDBRANCH   1  15
TORSDOF 22
ENDMDL
MODEL 3
REMARK VINA RESULT:    -3.226      2.145      5.492
REMARK INTER + INTRA:         -11.746
REMARK INTER:                  -7.660
REMARK INTRA:                  -4.086
REMARK UNBOUND:                -4.372
REMARK SMILES CCCCCCCCCCCCCCCCCCCCCCCC(=O)[O-]
REMARK SMILES IDX 13 1 14 2 15 3 16 4 17 5 18 6 19 7 20 8 21 9 22 10 23 11
REMARK SMILES IDX 24 12 25 13 26 14 12 15 11 16 10 17 9 18 8 19 7 20 6 21 5 22
REMARK SMILES IDX 4 23 3 24 2 25 1 26
REMARK H PARENT
REMARK Flexibility Score: inf
ROOT
ATOM      1  C   UNL     1      20.150  -1.447  41.609  1.00  0.00     0.000 C 
ENDROOT
BRANCH   1   2
ATOM      2  C   UNL     1      19.273  -1.480  40.347  1.00  0.00     0.000 C 
BRANCH   2   3
ATOM      3  C   UNL     1      19.910  -0.740  39.161  1.00  0.00     0.000 C 
BRANCH   3   4
ATOM      4  C   UNL     1      21.189  -0.010  39.594  1.00  0.00     0.000 C 
BRANCH   4   5
ATOM      5  C   UNL     1      21.053   1.521  39.536  1.00  0.00     0.000 C 
BRANCH   5   6
ATOM      6  C   UNL     1      19.631   2.036  39.239  1.00  0.00     0.000 C 
BRANCH   6   7
ATOM      7  C   UNL     1      19.188   3.203  40.147  1.00  0.00     0.000 C 
BRANCH   7   8
ATOM      8  C   UNL     1      17.782   2.990  40.728  1.00  0.00     0.000 C 
BRANCH   8   9
ATOM      9  C   UNL     1      17.206   1.636  40.304  1.00  0.00     0.000 C 
BRANCH   9  10
ATOM     10  C   UNL     1      15.773   1.791  39.773  1.00  0.00     0.006 C 
BRANCH  10  11
ATOM     11  C   UNL     1      15.723   1.849  38.241  1.00  0.00     0.053 C 
BRANCH  11  12
ATOM     12  C   UNL     1      14.669   0.942  37.680  1.00  0.00     0.041 C 
ATOM     13  O   UNL     1      14.802   0.455  36.526  1.00  0.00    -0.550 OA
ATOM     14  O   UNL     1      13.556   0.612  38.443  1.00  0.00    -0.550 OA
ENDBRANCH  11  12
ENDBRANCH  10  11
ENDBRANCH   9  10
ENDBRANCH   8   9
ENDBRANCH   7   8
ENDBRANCH   6   7
ENDBRANCH   5   6
ENDBRANCH   4   5
ENDBRANCH   3   4
ENDBRANCH   2   3
ENDBRANCH   1   2
BRANCH   1  15
ATOM     15  C   UNL     1      19.329  -1.566  42.904  1.00  0.00     0.000 C 
BRANCH  15  16
ATOM     16  C   UNL     1      19.365  -0.277  43.741  1.00  0.00     0.000 C 
BRANCH  16  17
ATOM     17  C   UNL     1      19.985   0.907  42.980  1.00  0.00     0.000 C 
BRANCH  17  18
ATOM     18  C   UNL     1      19.968   2.212  43.797  1.00  0.00    -0.000 C 
BRANCH  18  19
ATOM     19  C   UNL     1      18.826   2.319  44.827  1.00  0.00    -0.000 C 
BRANCH  19  20
ATOM     20  C   UNL     1      17.798   3.437  44.556  1.00  0.00    -0.000 C 
BRANCH  20  21
ATOM     21  C   UNL     1      16.421   2.946  44.075  1.00  0.00    -0.000 C 
BRANCH  21  22
ATOM     22  C   UNL     1      16.245   1.426  44.231  1.00  0.00    -0.000 C 
BRANCH  22  23
ATOM     23  C   UNL     1      15.508   1.039  45.525  1.00  0.00    -0.000 C 
BRANCH  23  24
ATOM     24  C   UNL     1      14.670   2.167  46.155  1.00  0.00    -0.000 C 
BRANCH  24  25
ATOM     25  C   UNL     1      15.143   2.551  47.564  1.00  0.00    -0.003 C 
ATOM     26  C   UNL     1      16.500   1.929  47.880  1.00  0.00     0.004 C 
ENDBRANCH  24  25
ENDBRANCH  23  24
ENDBRANCH  22  23
ENDBRANCH  21  22
ENDBRANCH  20  21
ENDBRANCH  19  20
ENDBRANCH  18  19
ENDBRANCH  17  18
ENDBRANCH  16  17
ENDBRANCH  15  16
ENDBRANCH   1  15
TORSDOF 22
ENDMDL
MODEL 4
REMARK VINA RESULT:    -3.211      3.214      6.983
REMARK INTER + INTRA:         -11.712
REMARK INTER:                  -7.208
REMARK INTRA:                  -4.504
REMARK UNBOUND:                -4.372
REMARK SMILES CCCCCCCCCCCCCCCCCCCCCCCC(=O)[O-]
REMARK SMILES IDX 13 1 14 2 15 3 16 4 17 5 18 6 19 7 20 8 21 9 22 10 23 11
REMARK SMILES IDX 24 12 25 13 26 14 12 15 11 16 10 17 9 18 8 19 7 20 6 21 5 22
REMARK SMILES IDX 4 23 3 24 2 25 1 26
REMARK H PARENT
REMARK Flexibility Score: inf
ROOT
ATOM      1  C   UNL     1      15.827   0.390  37.990  1.00  0.00     0.000 C 
ENDROOT
BRANCH   1   2
ATOM      2  C   UNL     1      15.265   1.313  36.897  1.00  0.00     0.000 C 
BRANCH   2   3
ATOM      3  C   UNL     1      15.080   2.760  37.378  1.00  0.00     0.000 C 
BRANCH   3   4
ATOM      4  C   UNL     1      15.130   2.837  38.911  1.00  0.00     0.000 C 
BRANCH   4   5
ATOM      5  C   UNL     1      16.141   3.876  39.425  1.00  0.00     0.000 C 
BRANCH   5   6
ATOM      6  C   UNL     1      16.362   3.867  40.950  1.00  0.00     0.000 C 
BRANCH   6   7
ATOM      7  C   UNL     1      16.643   2.466  41.532  1.00  0.00     0.000 C 
BRANCH   7   8
ATOM      8  C   UNL     1      17.854   2.457  42.476  1.00  0.00     0.000 C 
BRANCH   8   9
ATOM      9  C   UNL     1      19.157   2.701  41.708  1.00  0.00     0.000 C 
BRANCH   9  10
ATOM     10  C   UNL     1      20.143   1.541  41.915  1.00  0.00     0.006 C 
BRANCH  10  11
ATOM     11  C   UNL     1      19.935   0.834  43.261  1.00  0.00     0.053 C 
BRANCH  11  12
ATOM     12  C   UNL     1      19.664  -0.630  43.088  1.00  0.00     0.041 C 
ATOM     13  O   UNL     1      19.696  -1.402  44.083  1.00  0.00    -0.550 OA
ATOM     14  O   UNL     1      19.347  -1.136  41.834  1.00  0.00    -0.550 OA
ENDBRANCH  11  12
ENDBRANCH  10  11
ENDBRANCH   9  10
ENDBRANCH   8   9
ENDBRANCH   7   8
ENDBRANCH   6   7
ENDBRANCH   5   6
ENDBRANCH   4   5
ENDBRANCH   3   4
ENDBRANCH   2   3
ENDBRANCH   1   2
BRANCH   1  15
ATOM     15  C   UNL     1      17.288  -0.014  37.731  1.00  0.00     0.000 C 
BRANCH  15  16
ATOM     16  C   UNL     1      18.249   0.546  38.792  1.00  0.00     0.000 C 
BRANCH  16  17
ATOM     17  C   UNL     1      19.721   0.488  38.349  1.00  0.00     0.000 C 
BRANCH  17  18
ATOM     18  C   UNL     1      20.198   1.799  37.700  1.00  0.00    -0.000 C 
BRANCH  18  19
ATOM     19  C   UNL     1      19.271   3.011  37.927  1.00  0.00    -0.000 C 
BRANCH  19  20
ATOM     20  C   UNL     1      18.650   3.612  36.649  1.00  0.00    -0.000 C 
BRANCH  20  21
ATOM     21  C   UNL     1      18.434   2.608  35.502  1.00  0.00    -0.000 C 
BRANCH  21  22
ATOM     22  C   UNL     1      17.447   3.122  34.441  1.00  0.00    -0.000 C 
BRANCH  22  23
ATOM     23  C   UNL     1      16.864   1.994  33.571  1.00  0.00    -0.000 C 
BRANCH  23  24
ATOM     24  C   UNL     1      17.347   0.579  33.938  1.00  0.00    -0.000 C 
BRANCH  24  25
ATOM     25  C   UNL     1      16.407  -0.525  33.432  1.00  0.00    -0.003 C 
ATOM     26  C   UNL     1      14.946  -0.098  33.537  1.00  0.00     0.004 C 
ENDBRANCH  24  25
ENDBRANCH  23  24
ENDBRANCH  22  23
ENDBRANCH  21  22
ENDBRANCH  20  21
ENDBRANCH  19  20
ENDBRANCH  18  19
ENDBRANCH  17  18
ENDBRANCH  16  17
ENDBRANCH  15  16
ENDBRANCH   1  15
TORSDOF 22
ENDMDL
MODEL 5
REMARK VINA RESULT:    -3.208      1.135      3.672
REMARK INTER + INTRA:         -11.705
REMARK INTER:                  -8.096
REMARK INTRA:                  -3.608
REMARK UNBOUND:                -4.372
REMARK SMILES CCCCCCCCCCCCCCCCCCCCCCCC(=O)[O-]
REMARK SMILES IDX 13 1 14 2 15 3 16 4 17 5 18 6 19 7 20 8 21 9 22 10 23 11
REMARK SMILES IDX 24 12 25 13 26 14 12 15 11 16 10 17 9 18 8 19 7 20 6 21 5 22
REMARK SMILES IDX 4 23 3 24 2 25 1 26
REMARK H PARENT
REMARK Flexibility Score: inf
ROOT
ATOM      1  C   UNL     1      19.368  -3.256  43.702  1.00  0.00     0.000 C 
ENDROOT
BRANCH   1   2
ATOM      2  C   UNL     1      18.693  -1.880  43.594  1.00  0.00     0.000 C 
BRANCH   2   3
ATOM      3  C   UNL     1      19.617  -0.729  44.020  1.00  0.00     0.000 C 
BRANCH   3   4
ATOM      4  C   UNL     1      18.966   0.630  43.728  1.00  0.00     0.000 C 
BRANCH   4   5
ATOM      5  C   UNL     1      17.440   0.539  43.557  1.00  0.00     0.000 C 
BRANCH   5   6
ATOM      6  C   UNL     1      16.684   1.869  43.742  1.00  0.00     0.000 C 
BRANCH   6   7
ATOM      7  C   UNL     1      16.826   2.839  42.550  1.00  0.00     0.000 C 
BRANCH   7   8
ATOM      8  C   UNL     1      16.645   2.132  41.198  1.00  0.00     0.000 C 
BRANCH   8   9
ATOM      9  C   UNL     1      16.140   3.105  40.127  1.00  0.00     0.000 C 
BRANCH   9  10
ATOM     10  C   UNL     1      16.020   2.408  38.764  1.00  0.00     0.006 C 
BRANCH  10  11
ATOM     11  C   UNL     1      15.277   1.069  38.859  1.00  0.00     0.053 C 
BRANCH  11  12
ATOM     12  C   UNL     1      14.243   0.925  37.783  1.00  0.00     0.041 C 
ATOM     13  O   UNL     1      14.592   0.694  36.595  1.00  0.00    -0.550 OA
ATOM     14  O   UNL     1      12.892   1.018  38.098  1.00  0.00    -0.550 OA
ENDBRANCH  11  12
ENDBRANCH  10  11
ENDBRANCH   9  10
ENDBRANCH   8   9
ENDBRANCH   7   8
ENDBRANCH   6   7
ENDBRANCH   5   6
ENDBRANCH   4   5
ENDBRANCH   3   4
ENDBRANCH   2   3
ENDBRANCH   1   2
BRANCH   1  15
ATOM     15  C   UNL     1      20.696  -3.205  44.476  1.00  0.00     0.000 C 
BRANCH  15  16
ATOM     16  C   UNL     1      21.893  -3.643  43.616  1.00  0.00     0.000 C 
BRANCH  16  17
ATOM     17  C   UNL     1      21.465  -4.358  42.323  1.00  0.00     0.000 C 
BRANCH  17  18
ATOM     18  C   UNL     1      22.068  -3.717  41.061  1.00  0.00    -0.000 C 
BRANCH  18  19
ATOM     19  C   UNL     1      21.079  -3.522  39.895  1.00  0.00    -0.000 C 
BRANCH  19  20
ATOM     20  C   UNL     1      19.704  -4.199  40.079  1.00  0.00    -0.000 C 
BRANCH  20  21
ATOM     21  C   UNL     1      18.518  -3.427  39.475  1.00  0.00    -0.000 C 
BRANCH  21  22
ATOM     22  C   UNL     1      18.960  -2.349  38.471  1.00  0.00    -0.000 C 
BRANCH  22  23
ATOM     23  C   UNL     1      18.528  -0.932  38.887  1.00  0.00    -0.000 C 
BRANCH  23  24
ATOM     24  C   UNL     1      19.096  -0.451  40.235  1.00  0.00    -0.000 C 
BRANCH  24  25
ATOM     25  C   UNL     1      20.441   0.276  40.094  1.00  0.00    -0.003 C 
ATOM     26  C   UNL     1      20.316   1.748  40.477  1.00  0.00     0.004 C 
ENDBRANCH  24  25
ENDBRANCH  23  24
ENDBRANCH  22  23
ENDBRANCH  21  22
ENDBRANCH  20  21
ENDBRANCH  19  20
ENDBRANCH  18  19
ENDBRANCH  17  18
ENDBRANCH  16  17
ENDBRANCH  15  16
ENDBRANCH   1  15
TORSDOF 22
ENDMDL
MODEL 6
REMARK VINA RESULT:    -3.199      3.624      5.766
REMARK INTER + INTRA:         -11.684
REMARK INTER:                  -7.668
REMARK INTRA:                  -4.016
REMARK UNBOUND:                -4.372
REMARK SMILES CCCCCCCCCCCCCCCCCCCCCCCC(=O)[O-]
REMARK SMILES IDX 13 1 14 2 15 3 16 4 17 5 18 6 19 7 20 8 21 9 22 10 23 11
REMARK SMILES IDX 24 12 25 13 26 14 12 15 11 16 10 17 9 18 8 19 7 20 6 21 5 22
REMARK SMILES IDX 4 23 3 24 2 25 1 26
REMARK H PARENT
REMARK Flexibility Score: inf
ROOT
ATOM      1  C   UNL     1      14.787   2.433  37.806  1.00  0.00     0.000 C 
ENDROOT
BRANCH   1   2
ATOM      2  C   UNL     1      15.686   2.966  38.933  1.00  0.00     0.000 C 
BRANCH   2   3
ATOM      3  C   UNL     1      15.840   1.969  40.092  1.00  0.00     0.000 C 
BRANCH   3   4
ATOM      4  C   UNL     1      16.738   2.548  41.195  1.00  0.00     0.000 C 
BRANCH   4   5
ATOM      5  C   UNL     1      17.370   3.896  40.806  1.00  0.00     0.000 C 
BRANCH   5   6
ATOM      6  C   UNL     1      17.234   5.007  41.865  1.00  0.00     0.000 C 
BRANCH   6   7
ATOM      7  C   UNL     1      15.901   4.968  42.642  1.00  0.00     0.000 C 
BRANCH   7   8
ATOM      8  C   UNL     1      16.088   5.267  44.138  1.00  0.00     0.000 C 
BRANCH   8   9
ATOM      9  C   UNL     1      15.594   4.103  45.002  1.00  0.00     0.000 C 
BRANCH   9  10
ATOM     10  C   UNL     1      16.430   2.838  44.749  1.00  0.00     0.006 C 
BRANCH  10  11
ATOM     11  C   UNL     1      17.056   2.288  46.037  1.00  0.00     0.053 C 
BRANCH  11  12
ATOM     12  C   UNL     1      17.839   3.335  46.771  1.00  0.00     0.041 C 
ATOM     13  O   UNL     1      18.885   3.817  46.262  1.00  0.00    -0.550 OA
ATOM     14  O   UNL     1      17.396   3.799  48.004  1.00  0.00    -0.550 OA
ENDBRANCH  11  12
ENDBRANCH  10  11
ENDBRANCH   9  10
ENDBRANCH   8   9
ENDBRANCH   7   8
ENDBRANCH   6   7
ENDBRANCH   5   6
ENDBRANCH   4   5
ENDBRANCH   3   4
ENDBRANCH   2   3
ENDBRANCH   1   2
BRANCH   1  15
ATOM     15  C   UNL     1      15.041   0.948  37.498  1.00  0.00     0.000 C 
BRANCH  15  16
ATOM     16  C   UNL     1      15.939   0.749  36.266  1.00  0.00     0.000 C 
BRANCH  16  17
ATOM     17  C   UNL     1      17.274   0.067  36.610  1.00  0.00     0.000 C 
BRANCH  17  18
ATOM     18  C   UNL     1      17.363  -0.356  38.087  1.00  0.00    -0.000 C 
BRANCH  18  19
ATOM     19  C   UNL     1      18.684   0.015  38.790  1.00  0.00    -0.000 C 
BRANCH  19  20
ATOM     20  C   UNL     1      19.185   1.452  38.534  1.00  0.00    -0.000 C 
BRANCH  20  21
ATOM     21  C   UNL     1      20.252   1.951  39.524  1.00  0.00    -0.000 C 
BRANCH  21  22
ATOM     22  C   UNL     1      20.270   1.144  40.833  1.00  0.00    -0.000 C 
BRANCH  22  23
ATOM     23  C   UNL     1      20.412   2.033  42.081  1.00  0.00    -0.000 C 
BRANCH  23  24
ATOM     24  C   UNL     1      19.663   1.525  43.327  1.00  0.00    -0.000 C 
BRANCH  24  25
ATOM     25  C   UNL     1      18.975   0.171  43.101  1.00  0.00    -0.003 C 
ATOM     26  C   UNL     1      19.676  -0.942  43.875  1.00  0.00     0.004 C 
ENDBRANCH  24  25
ENDBRANCH  23  24
ENDBRANCH  22  23
ENDBRANCH  21  22
ENDBRANCH  20  21
ENDBRANCH  19  20
ENDBRANCH  18  19
ENDBRANCH  17  18
ENDBRANCH  16  17
ENDBRANCH  15  16
ENDBRANCH   1  15
TORSDOF 22
ENDMDL
MODEL 7
REMARK VINA RESULT:    -3.194      3.314      7.000
REMARK INTER + INTRA:         -11.675
REMARK INTER:                  -7.646
REMARK INTRA:                  -4.028
REMARK UNBOUND:                -4.372
REMARK SMILES CCCCCCCCCCCCCCCCCCCCCCCC(=O)[O-]
REMARK SMILES IDX 13 1 14 2 15 3 16 4 17 5 18 6 19 7 20 8 21 9 22 10 23 11
REMARK SMILES IDX 24 12 25 13 26 14 12 15 11 16 10 17 9 18 8 19 7 20 6 21 5 22
REMARK SMILES IDX 4 23 3 24 2 25 1 26
REMARK H PARENT
REMARK Flexibility Score: inf
ROOT
ATOM      1  C   UNL     1      18.524  -0.823  34.662  1.00  0.00     0.000 C 
ENDROOT
BRANCH   1   2
ATOM      2  C   UNL     1      18.714   0.544  35.339  1.00  0.00     0.000 C 
BRANCH   2   3
ATOM      3  C   UNL     1      18.752   0.449  36.872  1.00  0.00     0.000 C 
BRANCH   3   4
ATOM      4  C   UNL     1      18.151  -0.880  37.351  1.00  0.00     0.000 C 
BRANCH   4   5
ATOM      5  C   UNL     1      19.006  -1.569  38.429  1.00  0.00     0.000 C 
BRANCH   5   6
ATOM      6  C   UNL     1      20.528  -1.502  38.191  1.00  0.00     0.000 C 
BRANCH   6   7
ATOM      7  C   UNL     1      21.289  -0.674  39.247  1.00  0.00     0.000 C 
BRANCH   7   8
ATOM      8  C   UNL     1      20.391  -0.261  40.424  1.00  0.00     0.000 C 
BRANCH   8   9
ATOM      9  C   UNL     1      20.219   1.261  40.482  1.00  0.00     0.000 C 
BRANCH   9  10
ATOM     10  C   UNL     1      20.273   1.764  41.933  1.00  0.00     0.006 C 
BRANCH  10  11
ATOM     11  C   UNL     1      19.045   1.331  42.745  1.00  0.00     0.053 C 
BRANCH  11  12
ATOM     12  C   UNL     1      19.430   0.710  44.054  1.00  0.00     0.041 C 
ATOM     13  O   UNL     1      19.434   1.402  45.107  1.00  0.00    -0.550 OA
ATOM     14  O   UNL     1      19.757  -0.639  44.116  1.00  0.00    -0.550 OA
ENDBRANCH  11  12
ENDBRANCH  10  11
ENDBRANCH   9  10
ENDBRANCH   8   9
ENDBRANCH   7   8
ENDBRANCH   6   7
ENDBRANCH   5   6
ENDBRANCH   4   5
ENDBRANCH   3   4
ENDBRANCH   2   3
ENDBRANCH   1   2
BRANCH   1  15
ATOM     15  C   UNL     1      17.592  -0.754  33.440  1.00  0.00     0.000 C 
BRANCH  15  16
ATOM     16  C   UNL     1      16.690   0.491  33.460  1.00  0.00     0.000 C 
BRANCH  16  17
ATOM     17  C   UNL     1      15.203   0.143  33.642  1.00  0.00     0.000 C 
BRANCH  17  18
ATOM     18  C   UNL     1      14.857  -0.249  35.090  1.00  0.00    -0.000 C 
BRANCH  18  19
ATOM     19  C   UNL     1      15.129   0.846  36.141  1.00  0.00    -0.000 C 
BRANCH  19  20
ATOM     20  C   UNL     1      14.465   0.618  37.515  1.00  0.00    -0.000 C 
BRANCH  20  21
ATOM     21  C   UNL     1      14.747   1.714  38.558  1.00  0.00    -0.000 C 
BRANCH  21  22
ATOM     22  C   UNL     1      16.070   1.491  39.310  1.00  0.00    -0.000 C 
BRANCH  22  23
ATOM     23  C   UNL     1      16.908   2.776  39.438  1.00  0.00    -0.000 C 
BRANCH  23  24
ATOM     24  C   UNL     1      16.564   3.877  38.419  1.00  0.00    -0.000 C 
BRANCH  24  25
ATOM     25  C   UNL     1      17.514   3.896  37.212  1.00  0.00    -0.003 C 
ATOM     26  C   UNL     1      16.744   4.049  35.904  1.00  0.00     0.004 C 
ENDBRANCH  24  25
ENDBRANCH  23  24
ENDBRANCH  22  23
ENDBRANCH  21  22
ENDBRANCH  20  21
ENDBRANCH  19  20
ENDBRANCH  18  19
ENDBRANCH  17  18
ENDBRANCH  16  17
ENDBRANCH  15  16
ENDBRANCH   1  15
TORSDOF 22
ENDMDL
MODEL 8
REMARK VINA RESULT:    -3.191      2.921      5.931
REMARK INTER + INTRA:         -11.668
REMARK INTER:                  -7.202
REMARK INTRA:                  -4.466
REMARK UNBOUND:                -4.372
REMARK SMILES CCCCCCCCCCCCCCCCCCCCCCCC(=O)[O-]
REMARK SMILES IDX 13 1 14 2 15 3 16 4 17 5 18 6 19 7 20 8 21 9 22 10 23 11
REMARK SMILES IDX 24 12 25 13 26 14 12 15 11 16 10 17 9 18 8 19 7 20 6 21 5 22
REMARK SMILES IDX 4 23 3 24 2 25 1 26
REMARK H PARENT
REMARK Flexibility Score: inf
ROOT
ATOM      1  C   UNL     1      17.605   3.554  38.135  1.00  0.00     0.000 C 
ENDROOT
BRANCH   1   2
ATOM      2  C   UNL     1      16.256   3.990  37.541  1.00  0.00     0.000 C 
BRANCH   2   3
ATOM      3  C   UNL     1      15.064   3.249  38.164  1.00  0.00     0.000 C 
BRANCH   3   4
ATOM      4  C   UNL     1      15.519   1.942  38.827  1.00  0.00     0.000 C 
BRANCH   4   5
ATOM      5  C   UNL     1      14.901   0.694  38.174  1.00  0.00     0.000 C 
BRANCH   5   6
ATOM      6  C   UNL     1      14.784   0.755  36.638  1.00  0.00     0.000 C 
BRANCH   6   7
ATOM      7  C   UNL     1      15.623  -0.313  35.906  1.00  0.00     0.000 C 
BRANCH   7   8
ATOM      8  C   UNL     1      16.978  -0.559  36.587  1.00  0.00     0.000 C 
BRANCH   8   9
ATOM      9  C   UNL     1      18.008   0.495  36.169  1.00  0.00     0.000 C 
BRANCH   9  10
ATOM     10  C   UNL     1      17.912   0.791  34.664  1.00  0.00     0.006 C 
BRANCH  10  11
ATOM     11  C   UNL     1      17.871   2.296  34.369  1.00  0.00     0.053 C 
BRANCH  11  12
ATOM     12  C   UNL     1      16.562   2.712  33.766  1.00  0.00     0.041 C 
ATOM     13  O   UNL     1      15.916   1.911  33.041  1.00  0.00    -0.550 OA
ATOM     14  O   UNL     1      16.044   3.974  34.030  1.00  0.00    -0.550 OA
ENDBRANCH  11  12
ENDBRANCH  10  11
ENDBRANCH   9  10
ENDBRANCH   8   9
ENDBRANCH   7   8
ENDBRANCH   6   7
ENDBRANCH   5   6
ENDBRANCH   4   5
ENDBRANCH   3   4
ENDBRANCH   2   3
ENDBRANCH   1   2
BRANCH   1  15
ATOM     15  C   UNL     1      18.398   4.729  38.731  1.00  0.00     0.000 C 
BRANCH  15  16
ATOM     16  C   UNL     1      18.562   4.613  40.256  1.00  0.00     0.000 C 
BRANCH  16  17
ATOM     17  C   UNL     1      17.493   5.404  41.029  1.00  0.00     0.000 C 
BRANCH  17  18
ATOM     18  C   UNL     1      16.290   4.536  41.437  1.00  0.00    -0.000 C 
BRANCH  18  19
ATOM     19  C   UNL     1      16.534   3.617  42.650  1.00  0.00    -0.000 C 
BRANCH  19  20
ATOM     20  C   UNL     1      16.842   2.144  42.308  1.00  0.00    -0.000 C 
BRANCH  20  21
ATOM     21  C   UNL     1      17.696   1.403  43.352  1.00  0.00    -0.000 C 
BRANCH  21  22
ATOM     22  C   UNL     1      18.973   2.172  43.729  1.00  0.00    -0.000 C 
BRANCH  22  23
ATOM     23  C   UNL     1      19.988   2.247  42.574  1.00  0.00    -0.000 C 
BRANCH  23  24
ATOM     24  C   UNL     1      20.167   0.938  41.784  1.00  0.00    -0.000 C 
BRANCH  24  25
ATOM     25  C   UNL     1      19.978   1.120  40.271  1.00  0.00    -0.003 C 
ATOM     26  C   UNL     1      18.769   0.338  39.767  1.00  0.00     0.004 C 
ENDBRANCH  24  25
ENDBRANCH  23  24
ENDBRANCH  22  23
ENDBRANCH  21  22
ENDBRANCH  20  21
ENDBRANCH  19  20
ENDBRANCH  18  19
ENDBRANCH  17  18
ENDBRANCH  16  17
ENDBRANCH  15  16
ENDBRANCH   1  15
TORSDOF 22
ENDMDL
MODEL 9
REMARK VINA RESULT:    -3.180      3.919      7.039
REMARK INTER + INTRA:         -11.642
REMARK INTER:                  -8.183
REMARK INTRA:                  -3.458
REMARK UNBOUND:                -4.372
REMARK SMILES CCCCCCCCCCCCCCCCCCCCCCCC(=O)[O-]
REMARK SMILES IDX 13 1 14 2 15 3 16 4 17 5 18 6 19 7 20 8 21 9 22 10 23 11
REMARK SMILES IDX 24 12 25 13 26 14 12 15 11 16 10 17 9 18 8 19 7 20 6 21 5 22
REMARK SMILES IDX 4 23 3 24 2 25 1 26
REMARK H PARENT
REMARK Flexibility Score: inf
ROOT
ATOM      1  C   UNL     1      18.366   5.035  39.640  1.00  0.00     0.000 C 
ENDROOT
BRANCH   1   2
ATOM      2  C   UNL     1      17.765   5.207  41.044  1.00  0.00     0.000 C 
BRANCH   2   3
ATOM      3  C   UNL     1      16.559   4.288  41.292  1.00  0.00     0.000 C 
BRANCH   3   4
ATOM      4  C   UNL     1      16.845   3.311  42.441  1.00  0.00     0.000 C 
BRANCH   4   5
ATOM      5  C   UNL     1      16.870   1.842  41.984  1.00  0.00     0.000 C 
BRANCH   5   6
ATOM      6  C   UNL     1      17.814   1.545  40.803  1.00  0.00     0.000 C 
BRANCH   6   7
ATOM      7  C   UNL     1      19.309   1.745  41.133  1.00  0.00     0.000 C 
BRANCH   7   8
ATOM      8  C   UNL     1      19.705   1.090  42.465  1.00  0.00     0.000 C 
BRANCH   8   9
ATOM      9  C   UNL     1      20.192   2.136  43.473  1.00  0.00     0.000 C 
BRANCH   9  10
ATOM     10  C   UNL     1      19.651   1.837  44.880  1.00  0.00     0.006 C 
BRANCH  10  11
ATOM     11  C   UNL     1      19.223   3.110  45.622  1.00  0.00     0.053 C 
BRANCH  11  12
ATOM     12  C   UNL     1      17.923   2.925  46.346  1.00  0.00     0.041 C 
ATOM     13  O   UNL     1      17.033   2.173  45.869  1.00  0.00    -0.550 OA
ATOM     14  O   UNL     1      17.708   3.561  47.563  1.00  0.00    -0.550 OA
ENDBRANCH  11  12
ENDBRANCH  10  11
ENDBRANCH   9  10
ENDBRANCH   8   9
ENDBRANCH   7   8
ENDBRANCH   6   7
ENDBRANCH   5   6
ENDBRANCH   4   5
ENDBRANCH   3   4
ENDBRANCH   2   3
ENDBRANCH   1   2
BRANCH   1  15
ATOM     15  C   UNL     1      17.318   5.185  38.524  1.00  0.00     0.000 C 
BRANCH  15  16
ATOM     16  C   UNL     1      17.132   3.890  37.717  1.00  0.00     0.000 C 
BRANCH  16  17
ATOM     17  C   UNL     1      15.716   3.755  37.131  1.00  0.00     0.000 C 
BRANCH  17  18
ATOM     18  C   UNL     1      14.690   3.261  38.166  1.00  0.00    -0.000 C 
BRANCH  18  19
ATOM     19  C   UNL     1      14.949   1.842  38.711  1.00  0.00    -0.000 C 
BRANCH  19  20
ATOM     20  C   UNL     1      14.169   0.713  38.004  1.00  0.00    -0.000 C 
BRANCH  20  21
ATOM     21  C   UNL     1      14.781   0.241  36.673  1.00  0.00    -0.000 C 
BRANCH  21  22
ATOM     22  C   UNL     1      16.293  -0.016  36.773  1.00  0.00    -0.000 C 
BRANCH  22  23
ATOM     23  C   UNL     1      17.089   0.653  35.638  1.00  0.00    -0.000 C 
BRANCH  23  24
ATOM     24  C   UNL     1      16.245   1.091  34.427  1.00  0.00    -0.000 C 
BRANCH  24  25
ATOM     25  C   UNL     1      16.102  -0.011  33.367  1.00  0.00    -0.003 C 
ATOM     26  C   UNL     1      17.374  -0.847  33.262  1.00  0.00     0.004 C 
ENDBRANCH  24  25
ENDBRANCH  23  24
ENDBRANCH  22  23
ENDBRANCH  21  22
ENDBRANCH  20  21
ENDBRANCH  19  20
ENDBRANCH  18  19
ENDBRANCH  17  18
ENDBRANCH  16  17
ENDBRANCH  15  16
ENDBRANCH   1  15
TORSDOF 22
ENDMDL
