MODEL 1
REMARK VINA RESULT:    -5.788      0.000      0.000
REMARK INTER + INTRA:          -7.837
REMARK INTER:                  -7.311
REMARK INTRA:                  -0.527
REMARK UNBOUND:                -0.527
REMARK SMILES O=C(C=Cc1ccc(O)cc1)c1ccc(O)cc1O
REMARK SMILES IDX 4 1 3 2 5 3 6 4 7 5 8 6 11 7 10 8 9 9 2 11 1 12 12 13 18 14
REMARK SMILES IDX 13 15 17 16 14 17 15 18 19 19 16 21
REMARK H PARENT 9 10 19 20 16 22
REMARK Flexibility Score: inf
ROOT
ATOM      1  C   UNL     1     126.050 130.732 113.124  1.00  0.00     0.012 C 
ATOM      2  C   UNL     1     126.180 130.019 114.253  1.00  0.00     0.053 C 
ENDROOT
BRANCH   1   3
ATOM      3  C   UNL     1     124.763 131.301 112.655  1.00  0.00    -0.025 A 
ATOM      4  C   UNL     1     124.537 131.656 111.308  1.00  0.00     0.012 A 
ATOM      5  C   UNL     1     123.302 132.177 110.912  1.00  0.00     0.047 A 
ATOM      6  C   UNL     1     122.274 132.342 111.844  1.00  0.00     0.115 A 
ATOM      7  C   UNL     1     123.717 131.456 113.580  1.00  0.00     0.012 A 
ATOM      8  C   UNL     1     122.484 131.979 113.180  1.00  0.00     0.047 A 
BRANCH   6   9
ATOM      9  O   UNL     1     121.050 132.864 111.434  1.00  0.00    -0.508 OA
ATOM     10  H   UNL     1     120.767 133.806 111.676  1.00  0.00     0.293 HD
ENDBRANCH   6   9
ENDBRANCH   1   3
BRANCH   2  11
ATOM     11  C   UNL     1     127.478 129.453 114.680  1.00  0.00     0.189 C 
ATOM     12  O   UNL     1     128.232 128.898 113.834  1.00  0.00    -0.289 OA
BRANCH  11  13
ATOM     13  C   UNL     1     127.893 129.479 116.102  1.00  0.00     0.064 A 
ATOM     14  C   UNL     1     129.243 129.315 116.488  1.00  0.00     0.130 A 
ATOM     15  C   UNL     1     126.914 129.649 117.096  1.00  0.00     0.020 A 
ATOM     16  C   UNL     1     129.592 129.362 117.846  1.00  0.00     0.093 A 
ATOM     17  C   UNL     1     127.272 129.689 118.447  1.00  0.00     0.047 A 
ATOM     18  C   UNL     1     128.612 129.550 118.824  1.00  0.00     0.119 A 
BRANCH  14  19
ATOM     19  O   UNL     1     130.230 129.077 115.532  1.00  0.00    -0.507 OA
ATOM     20  H   UNL     1     130.462 128.139 115.228  1.00  0.00     0.293 HD
ENDBRANCH  14  19
BRANCH  18  21
ATOM     21  O   UNL     1     128.979 129.592 120.167  1.00  0.00    -0.508 OA
ATOM     22  H   UNL     1     129.150 130.471 120.642  1.00  0.00     0.293 HD
ENDBRANCH  18  21
ENDBRANCH  11  13
ENDBRANCH   2  11
TORSDOF 6
ENDMDL
MODEL 2
REMARK VINA RESULT:    -5.752      1.802      7.575
REMARK INTER + INTRA:          -7.791
REMARK INTER:                  -7.289
REMARK INTRA:                  -0.502
REMARK UNBOUND:                -0.527
REMARK SMILES O=C(C=Cc1ccc(O)cc1)c1ccc(O)cc1O
REMARK SMILES IDX 4 1 3 2 5 3 6 4 7 5 8 6 11 7 10 8 9 9 2 11 1 12 12 13 18 14
REMARK SMILES IDX 13 15 17 16 14 17 15 18 19 19 16 21
REMARK H PARENT 9 10 19 20 16 22
REMARK Flexibility Score: inf
ROOT
ATOM      1  C   UNL     1     129.290 129.371 115.514  1.00  0.00     0.012 C 
ATOM      2  C   UNL     1     128.252 128.954 114.775  1.00  0.00     0.053 C 
ENDROOT
BRANCH   1   3
ATOM      3  C   UNL     1     129.316 129.324 116.996  1.00  0.00    -0.025 A 
ATOM      4  C   UNL     1     130.398 128.777 117.718  1.00  0.00     0.012 A 
ATOM      5  C   UNL     1     130.382 128.767 119.116  1.00  0.00     0.047 A 
ATOM      6  C   UNL     1     129.299 129.308 119.813  1.00  0.00     0.115 A 
ATOM      7  C   UNL     1     128.240 129.880 117.707  1.00  0.00     0.012 A 
ATOM      8  C   UNL     1     128.227 129.867 119.105  1.00  0.00     0.047 A 
BRANCH   6   9
ATOM      9  O   UNL     1     129.297 129.289 121.205  1.00  0.00    -0.508 OA
ATOM     10  H   UNL     1     129.793 128.575 121.726  1.00  0.00     0.293 HD
ENDBRANCH   6   9
ENDBRANCH   1   3
BRANCH   2  11
ATOM     11  C   UNL     1     128.255 129.033 113.298  1.00  0.00     0.189 C 
ATOM     12  O   UNL     1     129.197 128.509 112.641  1.00  0.00    -0.289 OA
BRANCH  11  13
ATOM     13  C   UNL     1     127.192 129.764 112.569  1.00  0.00     0.064 A 
ATOM     14  C   UNL     1     127.032 129.647 111.169  1.00  0.00     0.130 A 
ATOM     15  C   UNL     1     126.333 130.615 113.285  1.00  0.00     0.020 A 
ATOM     16  C   UNL     1     126.002 130.346 110.523  1.00  0.00     0.093 A 
ATOM     17  C   UNL     1     125.314 131.312 112.631  1.00  0.00     0.047 A 
ATOM     18  C   UNL     1     125.143 131.175 111.249  1.00  0.00     0.119 A 
BRANCH  14  19
ATOM     19  O   UNL     1     127.908 128.864 110.417  1.00  0.00    -0.507 OA
ATOM     20  H   UNL     1     128.071 129.041 109.433  1.00  0.00     0.293 HD
ENDBRANCH  14  19
BRANCH  18  21
ATOM     21  O   UNL     1     124.127 131.862 110.587  1.00  0.00    -0.508 OA
ATOM     22  H   UNL     1     123.476 131.383 109.975  1.00  0.00     0.293 HD
ENDBRANCH  18  21
ENDBRANCH  11  13
ENDBRANCH   2  11
TORSDOF 6
ENDMDL
MODEL 3
REMARK VINA RESULT:    -5.608      2.763      7.579
REMARK INTER + INTRA:          -7.610
REMARK INTER:                  -7.070
REMARK INTRA:                  -0.539
REMARK UNBOUND:                -0.527
REMARK SMILES O=C(C=Cc1ccc(O)cc1)c1ccc(O)cc1O
REMARK SMILES IDX 4 1 3 2 5 3 6 4 7 5 8 6 11 7 10 8 9 9 2 11 1 12 12 13 18 14
REMARK SMILES IDX 13 15 17 16 14 17 15 18 19 19 16 21
REMARK H PARENT 9 10 19 20 16 22
REMARK Flexibility Score: inf
ROOT
ATOM      1  C   UNL     1     129.319 129.335 115.243  1.00  0.00     0.012 C 
ATOM      2  C   UNL     1     128.269 128.930 114.513  1.00  0.00     0.053 C 
ENDROOT
BRANCH   1   3
ATOM      3  C   UNL     1     129.352 129.302 116.725  1.00  0.00    -0.025 A 
ATOM      4  C   UNL     1     130.478 128.858 117.449  1.00  0.00     0.012 A 
ATOM      5  C   UNL     1     130.464 128.857 118.847  1.00  0.00     0.047 A 
ATOM      6  C   UNL     1     129.340 129.308 119.542  1.00  0.00     0.115 A 
ATOM      7  C   UNL     1     128.232 129.769 117.434  1.00  0.00     0.012 A 
ATOM      8  C   UNL     1     128.223 129.766 118.832  1.00  0.00     0.047 A 
BRANCH   6   9
ATOM      9  O   UNL     1     129.342 129.300 120.935  1.00  0.00    -0.508 OA
ATOM     10  H   UNL     1     129.856 128.604 121.460  1.00  0.00     0.293 HD
ENDBRANCH   6   9
ENDBRANCH   1   3
BRANCH   2  11
ATOM     11  C   UNL     1     128.267 128.994 113.035  1.00  0.00     0.189 C 
ATOM     12  O   UNL     1     128.374 127.934 112.359  1.00  0.00    -0.289 OA
BRANCH  11  13
ATOM     13  C   UNL     1     128.191 130.293 112.326  1.00  0.00     0.064 A 
ATOM     14  C   UNL     1     126.961 130.958 112.120  1.00  0.00     0.130 A 
ATOM     15  C   UNL     1     129.371 130.867 111.824  1.00  0.00     0.020 A 
ATOM     16  C   UNL     1     126.938 132.194 111.456  1.00  0.00     0.093 A 
ATOM     17  C   UNL     1     129.336 132.096 111.159  1.00  0.00     0.047 A 
ATOM     18  C   UNL     1     128.121 132.764 110.978  1.00  0.00     0.119 A 
BRANCH  14  19
ATOM     19  O   UNL     1     125.763 130.384 112.545  1.00  0.00    -0.507 OA
ATOM     20  H   UNL     1     125.419 130.507 113.490  1.00  0.00     0.293 HD
ENDBRANCH  14  19
BRANCH  18  21
ATOM     21  O   UNL     1     128.076 133.991 110.319  1.00  0.00    -0.508 OA
ATOM     22  H   UNL     1     127.490 134.749 110.651  1.00  0.00     0.293 HD
ENDBRANCH  18  21
ENDBRANCH  11  13
ENDBRANCH   2  11
TORSDOF 6
ENDMDL
MODEL 4
REMARK VINA RESULT:    -5.551      5.270      6.964
REMARK INTER + INTRA:          -7.539
REMARK INTER:                  -6.780
REMARK INTRA:                  -0.759
REMARK UNBOUND:                -0.527
REMARK SMILES O=C(C=Cc1ccc(O)cc1)c1ccc(O)cc1O
REMARK SMILES IDX 4 1 3 2 5 3 6 4 7 5 8 6 11 7 10 8 9 9 2 11 1 12 12 13 18 14
REMARK SMILES IDX 13 15 17 16 14 17 15 18 19 19 16 21
REMARK H PARENT 9 10 19 20 16 22
REMARK Flexibility Score: inf
ROOT
ATOM      1  C   UNL     1     125.717 133.866 111.502  1.00  0.00     0.012 C 
ATOM      2  C   UNL     1     126.088 134.218 110.263  1.00  0.00     0.053 C 
ENDROOT
BRANCH   1   3
ATOM      3  C   UNL     1     124.394 133.280 111.829  1.00  0.00    -0.025 A 
ATOM      4  C   UNL     1     124.081 132.785 113.113  1.00  0.00     0.012 A 
ATOM      5  C   UNL     1     122.814 132.254 113.375  1.00  0.00     0.047 A 
ATOM      6  C   UNL     1     121.843 132.217 112.373  1.00  0.00     0.115 A 
ATOM      7  C   UNL     1     123.405 133.253 110.833  1.00  0.00     0.012 A 
ATOM      8  C   UNL     1     122.140 132.719 111.100  1.00  0.00     0.047 A 
BRANCH   6   9
ATOM      9  O   UNL     1     120.587 131.683 112.650  1.00  0.00    -0.508 OA
ATOM     10  H   UNL     1     120.465 130.703 112.875  1.00  0.00     0.293 HD
ENDBRANCH   6   9
ENDBRANCH   1   3
BRANCH   2  11
ATOM     11  C   UNL     1     127.411 134.816 109.977  1.00  0.00     0.189 C 
ATOM     12  O   UNL     1     128.121 134.357 109.040  1.00  0.00    -0.289 OA
BRANCH  11  13
ATOM     13  C   UNL     1     127.946 135.921 110.808  1.00  0.00     0.064 A 
ATOM     14  C   UNL     1     129.041 135.733 111.681  1.00  0.00     0.130 A 
ATOM     15  C   UNL     1     127.331 137.183 110.743  1.00  0.00     0.020 A 
ATOM     16  C   UNL     1     129.524 136.812 112.437  1.00  0.00     0.093 A 
ATOM     17  C   UNL     1     127.816 138.249 111.505  1.00  0.00     0.047 A 
ATOM     18  C   UNL     1     128.917 138.067 112.350  1.00  0.00     0.119 A 
BRANCH  14  19
ATOM     19  O   UNL     1     129.632 134.478 111.821  1.00  0.00    -0.507 OA
ATOM     20  H   UNL     1     130.366 134.162 111.198  1.00  0.00     0.293 HD
ENDBRANCH  14  19
BRANCH  18  21
ATOM     21  O   UNL     1     129.410 139.125 113.111  1.00  0.00    -0.508 OA
ATOM     22  H   UNL     1     129.666 140.009 112.686  1.00  0.00     0.293 HD
ENDBRANCH  18  21
ENDBRANCH  11  13
ENDBRANCH   2  11
TORSDOF 6
ENDMDL
MODEL 5
REMARK VINA RESULT:    -5.488      6.180      7.435
REMARK INTER + INTRA:          -7.458
REMARK INTER:                  -6.849
REMARK INTRA:                  -0.610
REMARK UNBOUND:                -0.527
REMARK SMILES O=C(C=Cc1ccc(O)cc1)c1ccc(O)cc1O
REMARK SMILES IDX 4 1 3 2 5 3 6 4 7 5 8 6 11 7 10 8 9 9 2 11 1 12 12 13 18 14
REMARK SMILES IDX 13 15 17 16 14 17 15 18 19 19 16 21
REMARK H PARENT 9 10 19 20 16 22
REMARK Flexibility Score: inf
ROOT
ATOM      1  C   UNL     1     124.352 133.863 110.182  1.00  0.00     0.012 C 
ATOM      2  C   UNL     1     124.765 135.124 110.378  1.00  0.00     0.053 C 
ENDROOT
BRANCH   1   3
ATOM      3  C   UNL     1     123.165 133.273 110.848  1.00  0.00    -0.025 A 
ATOM      4  C   UNL     1     123.259 132.523 112.039  1.00  0.00     0.012 A 
ATOM      5  C   UNL     1     122.109 131.997 112.636  1.00  0.00     0.047 A 
ATOM      6  C   UNL     1     120.854 132.220 112.066  1.00  0.00     0.115 A 
ATOM      7  C   UNL     1     121.896 133.504 110.292  1.00  0.00     0.012 A 
ATOM      8  C   UNL     1     120.749 132.976 110.892  1.00  0.00     0.047 A 
BRANCH   6   9
ATOM      9  O   UNL     1     119.718 131.689 112.672  1.00  0.00    -0.508 OA
ATOM     10  H   UNL     1     119.206 132.202 113.380  1.00  0.00     0.293 HD
ENDBRANCH   6   9
ENDBRANCH   1   3
BRANCH   2  11
ATOM     11  C   UNL     1     125.964 135.672 109.709  1.00  0.00     0.189 C 
ATOM     12  O   UNL     1     126.006 135.741 108.449  1.00  0.00    -0.289 OA
BRANCH  11  13
ATOM     13  C   UNL     1     127.148 136.100 110.491  1.00  0.00     0.064 A 
ATOM     14  C   UNL     1     127.513 137.461 110.605  1.00  0.00     0.130 A 
ATOM     15  C   UNL     1     127.944 135.124 111.115  1.00  0.00     0.020 A 
ATOM     16  C   UNL     1     128.634 137.821 111.369  1.00  0.00     0.093 A 
ATOM     17  C   UNL     1     129.061 135.494 111.868  1.00  0.00     0.047 A 
ATOM     18  C   UNL     1     129.406 136.843 112.000  1.00  0.00     0.119 A 
BRANCH  14  19
ATOM     19  O   UNL     1     126.786 138.450 109.943  1.00  0.00    -0.507 OA
ATOM     20  H   UNL     1     125.837 138.683 110.211  1.00  0.00     0.293 HD
ENDBRANCH  14  19
BRANCH  18  21
ATOM     21  O   UNL     1     130.516 137.222 112.752  1.00  0.00    -0.508 OA
ATOM     22  H   UNL     1     131.396 137.465 112.311  1.00  0.00     0.293 HD
ENDBRANCH  18  21
ENDBRANCH  11  13
ENDBRANCH   2  11
TORSDOF 6
ENDMDL
MODEL 6
REMARK VINA RESULT:    -5.313      5.596      7.094
REMARK INTER + INTRA:          -7.237
REMARK INTER:                  -6.657
REMARK INTRA:                  -0.580
REMARK UNBOUND:                -0.527
REMARK SMILES O=C(C=Cc1ccc(O)cc1)c1ccc(O)cc1O
REMARK SMILES IDX 4 1 3 2 5 3 6 4 7 5 8 6 11 7 10 8 9 9 2 11 1 12 12 13 18 14
REMARK SMILES IDX 13 15 17 16 14 17 15 18 19 19 16 21
REMARK H PARENT 9 10 19 20 16 22
REMARK Flexibility Score: inf
ROOT
ATOM      1  C   UNL     1     125.020 133.670 110.831  1.00  0.00     0.012 C 
ATOM      2  C   UNL     1     125.333 134.949 110.575  1.00  0.00     0.053 C 
ENDROOT
BRANCH   1   3
ATOM      3  C   UNL     1     123.687 133.228 111.306  1.00  0.00    -0.025 A 
ATOM      4  C   UNL     1     122.524 133.341 110.515  1.00  0.00     0.012 A 
ATOM      5  C   UNL     1     121.291 132.898 111.003  1.00  0.00     0.047 A 
ATOM      6  C   UNL     1     121.199 132.329 112.275  1.00  0.00     0.115 A 
ATOM      7  C   UNL     1     123.586 132.639 112.577  1.00  0.00     0.012 A 
ATOM      8  C   UNL     1     122.350 132.198 113.061  1.00  0.00     0.047 A 
BRANCH   6   9
ATOM      9  O   UNL     1     119.963 131.894 112.747  1.00  0.00    -0.508 OA
ATOM     10  H   UNL     1     119.658 130.936 112.628  1.00  0.00     0.293 HD
ENDBRANCH   6   9
ENDBRANCH   1   3
BRANCH   2  11
ATOM     11  C   UNL     1     126.680 135.354 110.118  1.00  0.00     0.189 C 
ATOM     12  O   UNL     1     127.169 134.847 109.071  1.00  0.00    -0.289 OA
BRANCH  11  13
ATOM     13  C   UNL     1     127.495 136.314 110.899  1.00  0.00     0.064 A 
ATOM     14  C   UNL     1     128.611 135.897 111.660  1.00  0.00     0.130 A 
ATOM     15  C   UNL     1     127.134 137.672 110.902  1.00  0.00     0.020 A 
ATOM     16  C   UNL     1     129.363 136.844 112.372  1.00  0.00     0.093 A 
ATOM     17  C   UNL     1     127.887 138.606 111.619  1.00  0.00     0.047 A 
ATOM     18  C   UNL     1     129.006 138.194 112.352  1.00  0.00     0.119 A 
BRANCH  14  19
ATOM     19  O   UNL     1     128.957 134.548 111.734  1.00  0.00    -0.507 OA
ATOM     20  H   UNL     1     128.381 133.827 111.317  1.00  0.00     0.293 HD
ENDBRANCH  14  19
BRANCH  18  21
ATOM     21  O   UNL     1     129.765 139.118 113.067  1.00  0.00    -0.508 OA
ATOM     22  H   UNL     1     130.778 139.094 113.055  1.00  0.00     0.293 HD
ENDBRANCH  18  21
ENDBRANCH  11  13
ENDBRANCH   2  11
TORSDOF 6
ENDMDL
MODEL 7
REMARK VINA RESULT:    -5.283      5.138      7.240
REMARK INTER + INTRA:          -7.199
REMARK INTER:                  -6.572
REMARK INTRA:                  -0.628
REMARK UNBOUND:                -0.527
REMARK SMILES O=C(C=Cc1ccc(O)cc1)c1ccc(O)cc1O
REMARK SMILES IDX 4 1 3 2 5 3 6 4 7 5 8 6 11 7 10 8 9 9 2 11 1 12 12 13 18 14
REMARK SMILES IDX 13 15 17 16 14 17 15 18 19 19 16 21
REMARK H PARENT 9 10 19 20 16 22
REMARK Flexibility Score: inf
ROOT
ATOM      1  C   UNL     1     125.456 132.559 111.363  1.00  0.00     0.012 C 
ATOM      2  C   UNL     1     126.172 133.681 111.532  1.00  0.00     0.053 C 
ENDROOT
BRANCH   1   3
ATOM      3  C   UNL     1     124.023 132.436 111.727  1.00  0.00    -0.025 A 
ATOM      4  C   UNL     1     123.014 132.214 110.767  1.00  0.00     0.012 A 
ATOM      5  C   UNL     1     121.678 132.092 111.162  1.00  0.00     0.047 A 
ATOM      6  C   UNL     1     121.331 132.177 112.512  1.00  0.00     0.115 A 
ATOM      7  C   UNL     1     123.665 132.503 113.083  1.00  0.00     0.012 A 
ATOM      8  C   UNL     1     122.328 132.382 113.474  1.00  0.00     0.047 A 
BRANCH   6   9
ATOM      9  O   UNL     1     119.996 132.054 112.889  1.00  0.00    -0.508 OA
ATOM     10  H   UNL     1     119.263 131.904 112.205  1.00  0.00     0.293 HD
ENDBRANCH   6   9
ENDBRANCH   1   3
BRANCH   2  11
ATOM     11  C   UNL     1     127.605 133.761 111.173  1.00  0.00     0.189 C 
ATOM     12  O   UNL     1     128.387 132.823 111.490  1.00  0.00    -0.289 OA
BRANCH  11  13
ATOM     13  C   UNL     1     128.155 134.952 110.484  1.00  0.00     0.064 A 
ATOM     14  C   UNL     1     129.168 135.748 111.067  1.00  0.00     0.130 A 
ATOM     15  C   UNL     1     127.638 135.315 109.229  1.00  0.00     0.020 A 
ATOM     16  C   UNL     1     129.669 136.859 110.371  1.00  0.00     0.093 A 
ATOM     17  C   UNL     1     128.140 136.427 108.547  1.00  0.00     0.047 A 
ATOM     18  C   UNL     1     129.160 137.198 109.115  1.00  0.00     0.119 A 
BRANCH  14  19
ATOM     19  O   UNL     1     129.656 135.457 112.340  1.00  0.00    -0.507 OA
ATOM     20  H   UNL     1     129.128 134.895 112.997  1.00  0.00     0.293 HD
ENDBRANCH  14  19
BRANCH  18  21
ATOM     21  O   UNL     1     129.671 138.306 108.442  1.00  0.00    -0.508 OA
ATOM     22  H   UNL     1     130.658 138.533 108.469  1.00  0.00     0.293 HD
ENDBRANCH  18  21
ENDBRANCH  11  13
ENDBRANCH   2  11
TORSDOF 6
ENDMDL
MODEL 8
REMARK VINA RESULT:    -5.280      5.086      7.601
REMARK INTER + INTRA:          -7.196
REMARK INTER:                  -6.460
REMARK INTRA:                  -0.736
REMARK UNBOUND:                -0.527
REMARK SMILES O=C(C=Cc1ccc(O)cc1)c1ccc(O)cc1O
REMARK SMILES IDX 4 1 3 2 5 3 6 4 7 5 8 6 11 7 10 8 9 9 2 11 1 12 12 13 18 14
REMARK SMILES IDX 13 15 17 16 14 17 15 18 19 19 16 21
REMARK H PARENT 9 10 19 20 16 22
REMARK Flexibility Score: inf
ROOT
ATOM      1  C   UNL     1     126.262 133.916 111.244  1.00  0.00     0.012 C 
ATOM      2  C   UNL     1     126.096 132.851 110.447  1.00  0.00     0.053 C 
ENDROOT
BRANCH   1   3
ATOM      3  C   UNL     1     127.144 135.062 110.913  1.00  0.00    -0.025 A 
ATOM      4  C   UNL     1     126.730 136.121 110.078  1.00  0.00     0.012 A 
ATOM      5  C   UNL     1     127.595 137.185 109.805  1.00  0.00     0.047 A 
ATOM      6  C   UNL     1     128.873 137.217 110.366  1.00  0.00     0.115 A 
ATOM      7  C   UNL     1     128.426 135.112 111.485  1.00  0.00     0.012 A 
ATOM      8  C   UNL     1     129.288 136.178 111.209  1.00  0.00     0.047 A 
BRANCH   6   9
ATOM      9  O   UNL     1     129.723 138.284 110.083  1.00  0.00    -0.508 OA
ATOM     10  H   UNL     1     129.443 139.243 110.249  1.00  0.00     0.293 HD
ENDBRANCH   6   9
ENDBRANCH   1   3
BRANCH   2  11
ATOM     11  C   UNL     1     125.220 131.718 110.819  1.00  0.00     0.189 C 
ATOM     12  O   UNL     1     125.618 130.533 110.650  1.00  0.00    -0.289 OA
BRANCH  11  13
ATOM     13  C   UNL     1     123.854 131.949 111.345  1.00  0.00     0.064 A 
ATOM     14  C   UNL     1     123.495 131.595 112.666  1.00  0.00     0.130 A 
ATOM     15  C   UNL     1     122.883 132.513 110.500  1.00  0.00     0.020 A 
ATOM     16  C   UNL     1     122.193 131.846 113.126  1.00  0.00     0.093 A 
ATOM     17  C   UNL     1     121.588 132.753 110.967  1.00  0.00     0.047 A 
ATOM     18  C   UNL     1     121.242 132.424 112.282  1.00  0.00     0.119 A 
BRANCH  14  19
ATOM     19  O   UNL     1     124.414 130.972 113.509  1.00  0.00    -0.507 OA
ATOM     20  H   UNL     1     124.122 130.487 114.350  1.00  0.00     0.293 HD
ENDBRANCH  14  19
BRANCH  18  21
ATOM     21  O   UNL     1     119.954 132.663 112.758  1.00  0.00    -0.508 OA
ATOM     22  H   UNL     1     119.476 133.538 112.576  1.00  0.00     0.293 HD
ENDBRANCH  18  21
ENDBRANCH  11  13
ENDBRANCH   2  11
TORSDOF 6
ENDMDL
