MODEL 1
REMARK VINA RESULT:    -4.558      0.000      0.000
REMARK INTER + INTRA:          -5.217
REMARK INTER:                  -4.958
REMARK INTRA:                  -0.259
REMARK UNBOUND:                -0.259
REMARK SMILES CC(=O)c1cc(C)ccc1O
REMARK SMILES IDX 7 1 6 2 5 3 4 4 10 5 9 6 8 7 2 8 3 9 1 10 11 11
REMARK H PARENT 11 12
REMARK Flexibility Score: inf
ROOT
ATOM      1  C   UNL     1      88.960  31.680  64.223  1.00  0.00     0.044 C 
ATOM      2  C   UNL     1      87.794  31.803  65.158  1.00  0.00    -0.050 A 
ATOM      3  C   UNL     1      86.492  31.557  64.698  1.00  0.00     0.019 A 
ATOM      4  C   UNL     1      85.388  31.641  65.570  1.00  0.00     0.059 A 
ATOM      5  C   UNL     1      85.616  31.943  66.932  1.00  0.00     0.126 A 
ATOM      6  C   UNL     1      86.922  32.177  67.387  1.00  0.00     0.047 A 
ATOM      7  C   UNL     1      88.003  32.102  66.509  1.00  0.00     0.007 A 
ENDROOT
BRANCH   4   8
ATOM      8  C   UNL     1      84.026  31.392  65.024  1.00  0.00     0.163 C 
ATOM      9  O   UNL     1      83.194  32.338  64.981  1.00  0.00    -0.294 OA
ATOM     10  C   UNL     1      83.596  30.047  64.520  1.00  0.00     0.093 C 
ENDBRANCH   4   8
BRANCH   5  11
ATOM     11  O   UNL     1      84.561  31.987  67.842  1.00  0.00    -0.507 OA
ATOM     12  H   UNL     1      84.266  32.855  68.275  1.00  0.00     0.293 HD
ENDBRANCH   5  11
TORSDOF 2
ENDMDL
MODEL 2
REMARK VINA RESULT:    -4.509      2.088      3.814
REMARK INTER + INTRA:          -5.163
REMARK INTER:                  -4.857
REMARK INTRA:                  -0.306
REMARK UNBOUND:                -0.259
REMARK SMILES CC(=O)c1cc(C)ccc1O
REMARK SMILES IDX 7 1 6 2 5 3 4 4 10 5 9 6 8 7 2 8 3 9 1 10 11 11
REMARK H PARENT 11 12
REMARK Flexibility Score: inf
ROOT
ATOM      1  C   UNL     1      83.139  31.168  64.751  1.00  0.00     0.044 C 
ATOM      2  C   UNL     1      84.320  31.386  65.650  1.00  0.00    -0.050 A 
ATOM      3  C   UNL     1      85.609  31.046  65.216  1.00  0.00     0.019 A 
ATOM      4  C   UNL     1      86.732  31.269  66.038  1.00  0.00     0.059 A 
ATOM      5  C   UNL     1      86.544  31.881  67.299  1.00  0.00     0.126 A 
ATOM      6  C   UNL     1      85.252  32.230  67.721  1.00  0.00     0.047 A 
ATOM      7  C   UNL     1      84.150  31.990  66.902  1.00  0.00     0.007 A 
ENDROOT
BRANCH   4   8
ATOM      8  C   UNL     1      88.075  30.869  65.537  1.00  0.00     0.163 C 
ATOM      9  O   UNL     1      88.846  30.214  66.290  1.00  0.00    -0.294 OA
ATOM     10  C   UNL     1      88.556  31.215  64.161  1.00  0.00     0.093 C 
ENDBRANCH   4   8
BRANCH   5  11
ATOM     11  O   UNL     1      87.630  32.168  68.125  1.00  0.00    -0.507 OA
ATOM     12  H   UNL     1      87.516  32.329  69.119  1.00  0.00     0.293 HD
ENDBRANCH   5  11
TORSDOF 2
ENDMDL
MODEL 3
REMARK VINA RESULT:    -4.409      1.794      2.101
REMARK INTER + INTRA:          -5.054
REMARK INTER:                  -4.770
REMARK INTRA:                  -0.284
REMARK UNBOUND:                -0.259
REMARK SMILES CC(=O)c1cc(C)ccc1O
REMARK SMILES IDX 7 1 6 2 5 3 4 4 10 5 9 6 8 7 2 8 3 9 1 10 11 11
REMARK H PARENT 11 12
REMARK Flexibility Score: inf
ROOT
ATOM      1  C   UNL     1      88.959  30.590  66.250  1.00  0.00     0.044 C 
ATOM      2  C   UNL     1      87.758  31.206  65.594  1.00  0.00    -0.050 A 
ATOM      3  C   UNL     1      86.580  30.461  65.438  1.00  0.00     0.019 A 
ATOM      4  C   UNL     1      85.434  31.032  64.849  1.00  0.00     0.059 A 
ATOM      5  C   UNL     1      85.476  32.388  64.450  1.00  0.00     0.126 A 
ATOM      6  C   UNL     1      86.654  33.130  64.621  1.00  0.00     0.047 A 
ATOM      7  C   UNL     1      87.784  32.547  65.193  1.00  0.00     0.007 A 
ENDROOT
BRANCH   4   8
ATOM      8  C   UNL     1      84.218  30.189  64.687  1.00  0.00     0.163 C 
ATOM      9  O   UNL     1      83.080  30.717  64.807  1.00  0.00    -0.294 OA
ATOM     10  C   UNL     1      84.291  28.723  64.385  1.00  0.00     0.093 C 
ENDBRANCH   4   8
BRANCH   5  11
ATOM     11  O   UNL     1      84.352  33.011  63.909  1.00  0.00    -0.507 OA
ATOM     12  H   UNL     1      84.350  33.996  63.672  1.00  0.00     0.293 HD
ENDBRANCH   5  11
TORSDOF 2
ENDMDL
MODEL 4
REMARK VINA RESULT:    -4.343      1.782      2.350
REMARK INTER + INTRA:          -4.983
REMARK INTER:                  -4.702
REMARK INTRA:                  -0.282
REMARK UNBOUND:                -0.259
REMARK SMILES CC(=O)c1cc(C)ccc1O
REMARK SMILES IDX 7 1 6 2 5 3 4 4 10 5 9 6 8 7 2 8 3 9 1 10 11 11
REMARK H PARENT 11 12
REMARK Flexibility Score: inf
ROOT
ATOM      1  C   UNL     1      88.601  34.179  65.150  1.00  0.00     0.044 C 
ATOM      2  C   UNL     1      87.856  32.877  65.159  1.00  0.00    -0.050 A 
ATOM      3  C   UNL     1      86.486  32.850  65.458  1.00  0.00     0.019 A 
ATOM      4  C   UNL     1      85.765  31.639  65.444  1.00  0.00     0.059 A 
ATOM      5  C   UNL     1      86.439  30.449  65.085  1.00  0.00     0.126 A 
ATOM      6  C   UNL     1      87.807  30.485  64.776  1.00  0.00     0.047 A 
ATOM      7  C   UNL     1      88.509  31.690  64.807  1.00  0.00     0.007 A 
ENDROOT
BRANCH   4   8
ATOM      8  C   UNL     1      84.319  31.664  65.791  1.00  0.00     0.163 C 
ATOM      9  O   UNL     1      83.467  31.353  64.915  1.00  0.00    -0.294 OA
ATOM     10  C   UNL     1      83.825  32.050  67.153  1.00  0.00     0.093 C 
ENDBRANCH   4   8
BRANCH   5  11
ATOM     11  O   UNL     1      85.756  29.235  65.009  1.00  0.00    -0.507 OA
ATOM     12  H   UNL     1      84.747  29.194  64.925  1.00  0.00     0.293 HD
ENDBRANCH   5  11
TORSDOF 2
ENDMDL
MODEL 5
REMARK VINA RESULT:    -4.242      2.859      4.655
REMARK INTER + INTRA:          -4.873
REMARK INTER:                  -4.580
REMARK INTRA:                  -0.293
REMARK UNBOUND:                -0.259
REMARK SMILES CC(=O)c1cc(C)ccc1O
REMARK SMILES IDX 7 1 6 2 5 3 4 4 10 5 9 6 8 7 2 8 3 9 1 10 11 11
REMARK H PARENT 11 12
REMARK Flexibility Score: inf
ROOT
ATOM      1  C   UNL     1      83.496  32.400  65.122  1.00  0.00     0.044 C 
ATOM      2  C   UNL     1      84.249  31.115  64.946  1.00  0.00    -0.050 A 
ATOM      3  C   UNL     1      85.623  31.059  65.219  1.00  0.00     0.019 A 
ATOM      4  C   UNL     1      86.341  29.853  65.085  1.00  0.00     0.059 A 
ATOM      5  C   UNL     1      85.643  28.684  64.704  1.00  0.00     0.126 A 
ATOM      6  C   UNL     1      84.266  28.745  64.443  1.00  0.00     0.047 A 
ATOM      7  C   UNL     1      83.573  29.948  64.568  1.00  0.00     0.007 A 
ENDROOT
BRANCH   4   8
ATOM      8  C   UNL     1      87.802  29.855  65.366  1.00  0.00     0.163 C 
ATOM      9  O   UNL     1      88.564  29.120  64.683  1.00  0.00    -0.294 OA
ATOM     10  C   UNL     1      88.412  30.704  66.441  1.00  0.00     0.093 C 
ENDBRANCH   4   8
BRANCH   5  11
ATOM     11  O   UNL     1      86.300  27.458  64.606  1.00  0.00    -0.507 OA
ATOM     12  H   UNL     1      86.753  27.030  65.406  1.00  0.00     0.293 HD
ENDBRANCH   5  11
TORSDOF 2
ENDMDL
MODEL 6
REMARK VINA RESULT:    -4.033      2.690      4.251
REMARK INTER + INTRA:          -4.646
REMARK INTER:                  -4.360
REMARK INTRA:                  -0.286
REMARK UNBOUND:                -0.259
REMARK SMILES CC(=O)c1cc(C)ccc1O
REMARK SMILES IDX 7 1 6 2 5 3 4 4 10 5 9 6 8 7 2 8 3 9 1 10 11 11
REMARK H PARENT 11 12
REMARK Flexibility Score: inf
ROOT
ATOM      1  C   UNL     1      83.459  30.423  64.749  1.00  0.00     0.044 C 
ATOM      2  C   UNL     1      84.827  31.037  64.767  1.00  0.00    -0.050 A 
ATOM      3  C   UNL     1      85.946  30.259  65.101  1.00  0.00     0.019 A 
ATOM      4  C   UNL     1      87.241  30.813  65.096  1.00  0.00     0.059 A 
ATOM      5  C   UNL     1      87.404  32.164  64.711  1.00  0.00     0.126 A 
ATOM      6  C   UNL     1      86.282  32.933  64.367  1.00  0.00     0.047 A 
ATOM      7  C   UNL     1      85.005  32.373  64.390  1.00  0.00     0.007 A 
ENDROOT
BRANCH   4   8
ATOM      8  C   UNL     1      88.390  29.948  65.480  1.00  0.00     0.163 C 
ATOM      9  O   UNL     1      89.100  30.267  66.471  1.00  0.00    -0.294 OA
ATOM     10  C   UNL     1      88.743  28.700  64.728  1.00  0.00     0.093 C 
ENDBRANCH   4   8
BRANCH   5  11
ATOM     11  O   UNL     1      88.671  32.741  64.642  1.00  0.00    -0.507 OA
ATOM     12  H   UNL     1      88.933  33.525  65.229  1.00  0.00     0.293 HD
ENDBRANCH   5  11
TORSDOF 2
ENDMDL
MODEL 7
REMARK VINA RESULT:    -3.991     14.967     16.080
REMARK INTER + INTRA:          -4.600
REMARK INTER:                  -4.338
REMARK INTRA:                  -0.263
REMARK UNBOUND:                -0.259
REMARK SMILES CC(=O)c1cc(C)ccc1O
REMARK SMILES IDX 7 1 6 2 5 3 4 4 10 5 9 6 8 7 2 8 3 9 1 10 11 11
REMARK H PARENT 11 12
REMARK Flexibility Score: inf
ROOT
ATOM      1  C   UNL     1      75.664  34.019  52.332  1.00  0.00     0.044 C 
ATOM      2  C   UNL     1      77.121  33.676  52.236  1.00  0.00    -0.050 A 
ATOM      3  C   UNL     1      78.049  34.645  51.827  1.00  0.00     0.019 A 
ATOM      4  C   UNL     1      79.424  34.347  51.758  1.00  0.00     0.059 A 
ATOM      5  C   UNL     1      79.864  33.060  52.146  1.00  0.00     0.126 A 
ATOM      6  C   UNL     1      78.931  32.100  52.565  1.00  0.00     0.047 A 
ATOM      7  C   UNL     1      77.572  32.406  52.615  1.00  0.00     0.007 A 
ENDROOT
BRANCH   4   8
ATOM      8  C   UNL     1      80.362  35.406  51.296  1.00  0.00     0.163 C 
ATOM      9  O   UNL     1      81.174  35.913  52.116  1.00  0.00    -0.294 OA
ATOM     10  C   UNL     1      80.382  35.901  49.881  1.00  0.00     0.093 C 
ENDBRANCH   4   8
BRANCH   5  11
ATOM     11  O   UNL     1      81.220  32.736  52.142  1.00  0.00    -0.507 OA
ATOM     12  H   UNL     1      81.539  31.778  52.048  1.00  0.00     0.293 HD
ENDBRANCH   5  11
TORSDOF 2
ENDMDL
MODEL 8
REMARK VINA RESULT:    -3.968     14.819     16.697
REMARK INTER + INTRA:          -4.575
REMARK INTER:                  -4.276
REMARK INTRA:                  -0.299
REMARK UNBOUND:                -0.259
REMARK SMILES CC(=O)c1cc(C)ccc1O
REMARK SMILES IDX 7 1 6 2 5 3 4 4 10 5 9 6 8 7 2 8 3 9 1 10 11 11
REMARK H PARENT 11 12
REMARK Flexibility Score: inf
ROOT
ATOM      1  C   UNL     1      75.852  35.242  52.375  1.00  0.00     0.044 C 
ATOM      2  C   UNL     1      77.196  35.253  51.709  1.00  0.00    -0.050 A 
ATOM      3  C   UNL     1      78.188  34.345  52.107  1.00  0.00     0.019 A 
ATOM      4  C   UNL     1      79.447  34.323  51.474  1.00  0.00     0.059 A 
ATOM      5  C   UNL     1      79.684  35.209  50.398  1.00  0.00     0.126 A 
ATOM      6  C   UNL     1      78.683  36.106  49.997  1.00  0.00     0.047 A 
ATOM      7  C   UNL     1      77.447  36.125  50.643  1.00  0.00     0.007 A 
ENDROOT
BRANCH   4   8
ATOM      8  C   UNL     1      80.470  33.355  51.951  1.00  0.00     0.163 C 
ATOM      9  O   UNL     1      81.679  33.709  52.004  1.00  0.00    -0.294 OA
ATOM     10  C   UNL     1      80.122  31.961  52.377  1.00  0.00     0.093 C 
ENDBRANCH   4   8
BRANCH   5  11
ATOM     11  O   UNL     1      80.895  35.190  49.708  1.00  0.00    -0.507 OA
ATOM     12  H   UNL     1      81.762  34.922  50.159  1.00  0.00     0.293 HD
ENDBRANCH   5  11
TORSDOF 2
ENDMDL
MODEL 9
REMARK VINA RESULT:    -3.950      1.885      2.666
REMARK INTER + INTRA:          -4.555
REMARK INTER:                  -4.337
REMARK INTRA:                  -0.218
REMARK UNBOUND:                -0.259
REMARK SMILES CC(=O)c1cc(C)ccc1O
REMARK SMILES IDX 7 1 6 2 5 3 4 4 10 5 9 6 8 7 2 8 3 9 1 10 11 11
REMARK H PARENT 11 12
REMARK Flexibility Score: inf
ROOT
ATOM      1  C   UNL     1      88.522  28.388  64.739  1.00  0.00     0.044 C 
ATOM      2  C   UNL     1      88.096  29.825  64.803  1.00  0.00    -0.050 A 
ATOM      3  C   UNL     1      86.891  30.178  65.428  1.00  0.00     0.019 A 
ATOM      4  C   UNL     1      86.490  31.525  65.520  1.00  0.00     0.059 A 
ATOM      5  C   UNL     1      87.343  32.528  65.005  1.00  0.00     0.126 A 
ATOM      6  C   UNL     1      88.553  32.169  64.392  1.00  0.00     0.047 A 
ATOM      7  C   UNL     1      88.929  30.830  64.296  1.00  0.00     0.007 A 
ENDROOT
BRANCH   4   8
ATOM      8  C   UNL     1      85.191  31.841  66.174  1.00  0.00     0.163 C 
ATOM      9  O   UNL     1      85.185  32.315  67.342  1.00  0.00    -0.294 OA
ATOM     10  C   UNL     1      83.873  31.616  65.495  1.00  0.00     0.093 C 
ENDBRANCH   4   8
BRANCH   5  11
ATOM     11  O   UNL     1      87.013  33.878  65.118  1.00  0.00    -0.507 OA
ATOM     12  H   UNL     1      86.347  34.319  64.494  1.00  0.00     0.293 HD
ENDBRANCH   5  11
TORSDOF 2
ENDMDL
