MODEL 1
REMARK VINA RESULT:    -5.417      0.000      0.000
REMARK INTER + INTRA:          -7.837
REMARK INTER:                  -8.266
REMARK INTRA:                   0.429
REMARK UNBOUND:                 0.429
REMARK SMILES CC1=CCC[C@@H](C)C(=O)C[C@@H](C(C)C)C(=O)C1
REMARK SMILES IDX 8 1 9 2 6 3 7 4 5 5 4 6 3 7 2 8 1 9 10 11 11 12 15 13 16 14
REMARK SMILES IDX 17 15 12 17 13 18 14 19
REMARK H PARENT
REMARK Flexibility Score: 70.00
ROOT
ATOM      1  C   UNL     1      17.376  24.950   4.545  1.00  0.00     0.136 C 
ATOM      2  O   UNL     1      17.928  23.883   4.777  1.00  0.00    -0.299 OA
ENDROOT
BRANCH   1   3
ATOM      3  C   UNL     1      15.920  25.109   4.928  1.00  0.00     0.053 C 
ATOM      4  C   UNL     1      15.537  26.594   4.872  1.00  0.00     0.016 C 
BRANCH   3   5
ATOM      5  C   UNL     1      15.670  24.530   6.345  1.00  0.00     0.015 C 
BRANCH   5   6
ATOM      6  C   UNL     1      15.794  25.584   7.465  1.00  0.00     0.028 C 
BRANCH   6   7
ATOM      7  C   UNL     1      17.022  25.404   8.330  1.00  0.00    -0.028 C 
ATOM      8  C   UNL     1      18.257  25.922   8.106  1.00  0.00    -0.070 CG0
ATOM      9  C   UNL     1      19.353  25.537   9.072  1.00  0.00     0.039 C 
ATOM     10  G   UNL     1      18.595  26.891   6.980  1.00  0.00     0.000 G0
ENDBRANCH   6   7
ENDBRANCH   5   6
ENDBRANCH   3   5
ENDBRANCH   1   3
BRANCH   1  11
ATOM     11  C   UNL     1      18.215  26.072   3.971  1.00  0.00     0.087 C 
BRANCH  11  12
ATOM     12  C   UNL     1      19.644  26.248   4.568  1.00  0.00     0.066 C 
BRANCH  12  13
ATOM     13  C   UNL     1      19.724  26.426   6.089  1.00  0.00     0.140 C 
ATOM     14  O   UNL     1      20.791  26.183   6.636  1.00  0.00    -0.299 OA
BRANCH  13  15
ATOM     15  C   UNL     1      18.585  26.886   6.968  1.00  0.00     0.106 CG0
ATOM     16  G   UNL     1      18.276  25.917   8.102  1.00  0.00     0.000 G0
ENDBRANCH  13  15
ENDBRANCH  12  13
BRANCH  12  17
ATOM     17  C   UNL     1      20.432  27.403   3.864  1.00  0.00    -0.006 C 
ATOM     18  C   UNL     1      19.525  28.370   3.081  1.00  0.00     0.008 C 
ATOM     19  C   UNL     1      21.566  26.888   2.962  1.00  0.00     0.008 C 
ENDBRANCH  12  17
ENDBRANCH  11  12
ENDBRANCH   1  11
TORSDOF 1
ENDMDL
MODEL 2
REMARK VINA RESULT:    -4.471      1.846      4.360
REMARK INTER + INTRA:          -6.394
REMARK INTER:                  -7.161
REMARK INTRA:                   0.767
REMARK UNBOUND:                 0.429
REMARK SMILES CC1=CCC[C@@H](C)C(=O)C[C@@H](C(C)C)C(=O)C1
REMARK SMILES IDX 8 1 9 2 6 3 7 4 5 5 4 6 3 7 2 8 1 9 10 11 11 12 15 13 16 14
REMARK SMILES IDX 17 15 12 17 13 18 14 19
REMARK H PARENT
REMARK Flexibility Score: 70.00
ROOT
ATOM      1  C   UNL     1      19.800  26.449   5.644  1.00  0.00     0.136 C 
ATOM      2  O   UNL     1      19.965  27.604   5.276  1.00  0.00    -0.299 OA
ENDROOT
BRANCH   1   3
ATOM      3  C   UNL     1      19.602  25.377   4.593  1.00  0.00     0.053 C 
ATOM      4  C   UNL     1      20.880  25.241   3.755  1.00  0.00     0.016 C 
BRANCH   3   5
ATOM      5  C   UNL     1      18.388  25.725   3.691  1.00  0.00     0.015 C 
BRANCH   5   6
ATOM      6  C   UNL     1      17.148  26.182   4.489  1.00  0.00     0.028 C 
BRANCH   6   7
ATOM      7  C   UNL     1      16.358  25.038   5.085  1.00  0.00    -0.028 C 
ATOM      8  C   UNL     1      15.862  24.964   6.347  1.00  0.00    -0.070 CG0
ATOM      9  C   UNL     1      15.171  23.680   6.743  1.00  0.00     0.039 C 
ATOM     10  G   UNL     1      15.920  26.096   7.365  1.00  0.00     0.000 G0
ENDBRANCH   6   7
ENDBRANCH   5   6
ENDBRANCH   3   5
ENDBRANCH   1   3
BRANCH   1  11
ATOM     11  C   UNL     1      19.896  26.157   7.126  1.00  0.00     0.087 C 
BRANCH  11  12
ATOM     12  C   UNL     1      18.576  25.733   7.839  1.00  0.00     0.066 C 
BRANCH  12  13
ATOM     13  C   UNL     1      17.345  26.602   7.553  1.00  0.00     0.140 C 
ATOM     14  O   UNL     1      17.509  27.811   7.461  1.00  0.00    -0.299 OA
BRANCH  13  15
ATOM     15  C   UNL     1      15.939  26.079   7.369  1.00  0.00     0.106 CG0
ATOM     16  G   UNL     1      15.848  24.957   6.344  1.00  0.00     0.000 G0
ENDBRANCH  13  15
ENDBRANCH  12  13
BRANCH  12  17
ATOM     17  C   UNL     1      18.768  25.592   9.386  1.00  0.00    -0.006 C 
ATOM     18  C   UNL     1      18.536  26.908  10.151  1.00  0.00     0.008 C 
ATOM     19  C   UNL     1      20.129  24.988   9.764  1.00  0.00     0.008 C 
ENDBRANCH  12  17
ENDBRANCH  11  12
ENDBRANCH   1  11
TORSDOF 1
ENDMDL
MODEL 3
REMARK VINA RESULT:    -4.321      1.679      3.585
REMARK INTER + INTRA:          -6.166
REMARK INTER:                  -6.182
REMARK INTRA:                   0.016
REMARK UNBOUND:                 0.429
REMARK SMILES CC1=CCC[C@@H](C)C(=O)C[C@@H](C(C)C)C(=O)C1
REMARK SMILES IDX 8 1 9 2 6 3 7 4 5 5 4 6 3 7 2 8 1 9 10 11 11 12 15 13 16 14
REMARK SMILES IDX 17 15 12 17 13 18 14 19
REMARK H PARENT
REMARK Flexibility Score: 70.00
ROOT
ATOM      1  C   UNL     1      18.630  26.977   7.359  1.00  0.00     0.136 C 
ATOM      2  O   UNL     1      17.864  27.891   7.083  1.00  0.00    -0.299 OA
ENDROOT
BRANCH   1   3
ATOM      3  C   UNL     1      18.526  26.335   8.726  1.00  0.00     0.053 C 
ATOM      4  C   UNL     1      19.604  25.252   8.865  1.00  0.00     0.016 C 
BRANCH   3   5
ATOM      5  C   UNL     1      17.112  25.732   8.933  1.00  0.00     0.015 C 
BRANCH   5   6
ATOM      6  C   UNL     1      16.809  24.550   7.988  1.00  0.00     0.028 C 
BRANCH   6   7
ATOM      7  C   UNL     1      15.796  24.881   6.914  1.00  0.00    -0.028 C 
ATOM      8  C   UNL     1      16.038  25.026   5.585  1.00  0.00    -0.070 CG0
ATOM      9  C   UNL     1      14.876  25.438   4.713  1.00  0.00     0.039 C 
ATOM     10  G   UNL     1      17.383  24.763   4.920  1.00  0.00     0.000 G0
ENDBRANCH   6   7
ENDBRANCH   5   6
ENDBRANCH   3   5
ENDBRANCH   1   3
BRANCH   1  11
ATOM     11  C   UNL     1      19.570  26.489   6.278  1.00  0.00     0.087 C 
BRANCH  11  12
ATOM     12  C   UNL     1      19.157  26.795   4.806  1.00  0.00     0.066 C 
BRANCH  12  13
ATOM     13  C   UNL     1      17.975  25.989   4.254  1.00  0.00     0.140 C 
ATOM     14  O   UNL     1      17.472  26.361   3.203  1.00  0.00    -0.299 OA
BRANCH  13  15
ATOM     15  C   UNL     1      17.383  24.762   4.908  1.00  0.00     0.106 CG0
ATOM     16  G   UNL     1      16.047  25.033   5.587  1.00  0.00     0.000 G0
ENDBRANCH  13  15
ENDBRANCH  12  13
BRANCH  12  17
ATOM     17  C   UNL     1      20.371  26.682   3.824  1.00  0.00    -0.006 C 
ATOM     18  C   UNL     1      21.478  25.740   4.331  1.00  0.00     0.008 C 
ATOM     19  C   UNL     1      20.965  28.050   3.451  1.00  0.00     0.008 C 
ENDBRANCH  12  17
ENDBRANCH  11  12
ENDBRANCH   1  11
TORSDOF 1
ENDMDL
MODEL 4
REMARK VINA RESULT:    -3.920      1.698      4.728
REMARK INTER + INTRA:          -5.553
REMARK INTER:                  -5.446
REMARK INTRA:                  -0.107
REMARK UNBOUND:                 0.429
REMARK SMILES CC1=CCC[C@@H](C)C(=O)C[C@@H](C(C)C)C(=O)C1
REMARK SMILES IDX 8 1 9 2 6 3 7 4 5 5 4 6 3 7 2 8 1 9 10 11 11 12 15 13 16 14
REMARK SMILES IDX 17 15 12 17 13 18 14 19
REMARK H PARENT
REMARK Flexibility Score: 70.00
ROOT
ATOM      1  C   UNL     1      20.116  26.254   5.809  1.00  0.00     0.136 C 
ATOM      2  O   UNL     1      21.211  26.348   6.346  1.00  0.00    -0.299 OA
ENDROOT
BRANCH   1   3
ATOM      3  C   UNL     1      20.050  25.733   4.389  1.00  0.00     0.053 C 
ATOM      4  C   UNL     1      21.472  25.594   3.829  1.00  0.00     0.016 C 
BRANCH   3   5
ATOM      5  C   UNL     1      19.201  26.684   3.505  1.00  0.00     0.015 C 
BRANCH   5   6
ATOM      6  C   UNL     1      17.856  26.067   3.064  1.00  0.00     0.028 C 
BRANCH   6   7
ATOM      7  C   UNL     1      16.677  26.543   3.885  1.00  0.00    -0.028 C 
ATOM      8  C   UNL     1      16.103  25.897   4.932  1.00  0.00    -0.070 CG0
ATOM      9  C   UNL     1      14.879  26.533   5.548  1.00  0.00     0.039 C 
ATOM     10  G   UNL     1      16.634  24.608   5.547  1.00  0.00     0.000 G0
ENDBRANCH   6   7
ENDBRANCH   5   6
ENDBRANCH   3   5
ENDBRANCH   1   3
BRANCH   1  11
ATOM     11  C   UNL     1      18.891  26.582   6.635  1.00  0.00     0.087 C 
BRANCH  11  12
ATOM     12  C   UNL     1      18.319  25.432   7.519  1.00  0.00     0.066 C 
BRANCH  12  13
ATOM     13  C   UNL     1      17.027  24.775   7.019  1.00  0.00     0.140 C 
ATOM     14  O   UNL     1      16.246  24.342   7.856  1.00  0.00    -0.299 OA
BRANCH  13  15
ATOM     15  C   UNL     1      16.638  24.623   5.567  1.00  0.00     0.106 CG0
ATOM     16  G   UNL     1      16.109  25.912   4.952  1.00  0.00     0.000 G0
ENDBRANCH  13  15
ENDBRANCH  12  13
BRANCH  12  17
ATOM     17  C   UNL     1      18.137  25.877   9.009  1.00  0.00    -0.006 C 
ATOM     18  C   UNL     1      17.627  27.323   9.155  1.00  0.00     0.008 C 
ATOM     19  C   UNL     1      19.406  25.672   9.851  1.00  0.00     0.008 C 
ENDBRANCH  12  17
ENDBRANCH  11  12
ENDBRANCH   1  11
TORSDOF 1
ENDMDL
MODEL 5
REMARK VINA RESULT:    -3.821      1.552      4.178
REMARK INTER + INTRA:          -5.401
REMARK INTER:                  -6.578
REMARK INTRA:                   1.176
REMARK UNBOUND:                 0.429
REMARK SMILES CC1=CCC[C@@H](C)C(=O)C[C@@H](C(C)C)C(=O)C1
REMARK SMILES IDX 8 1 9 2 6 3 7 4 5 5 4 6 3 7 2 8 1 9 10 11 11 12 15 13 16 14
REMARK SMILES IDX 17 15 12 17 13 18 14 19
REMARK H PARENT
REMARK Flexibility Score: 70.00
ROOT
ATOM      1  C   UNL     1      16.152  25.042   7.034  1.00  0.00     0.136 C 
ATOM      2  O   UNL     1      15.326  24.140   7.086  1.00  0.00    -0.299 OA
ENDROOT
BRANCH   1   3
ATOM      3  C   UNL     1      16.256  25.854   5.761  1.00  0.00     0.053 C 
ATOM      4  C   UNL     1      14.877  26.429   5.408  1.00  0.00     0.016 C 
BRANCH   3   5
ATOM      5  C   UNL     1      16.797  24.974   4.603  1.00  0.00     0.015 C 
BRANCH   5   6
ATOM      6  C   UNL     1      18.123  24.263   4.948  1.00  0.00     0.028 C 
BRANCH   6   7
ATOM      7  C   UNL     1      19.345  24.968   4.402  1.00  0.00    -0.028 C 
ATOM      8  C   UNL     1      19.792  26.203   4.747  1.00  0.00    -0.070 CG0
ATOM      9  C   UNL     1      20.997  26.733   4.005  1.00  0.00     0.039 C 
ATOM     10  G   UNL     1      19.188  27.062   5.851  1.00  0.00     0.000 G0
ENDBRANCH   6   7
ENDBRANCH   5   6
ENDBRANCH   3   5
ENDBRANCH   1   3
BRANCH   1  11
ATOM     11  C   UNL     1      16.954  25.341   8.283  1.00  0.00     0.087 C 
BRANCH  11  12
ATOM     12  C   UNL     1      17.955  26.533   8.198  1.00  0.00     0.066 C 
BRANCH  12  13
ATOM     13  C   UNL     1      19.107  26.378   7.198  1.00  0.00     0.140 C 
ATOM     14  O   UNL     1      20.030  25.634   7.502  1.00  0.00    -0.299 OA
BRANCH  13  15
ATOM     15  C   UNL     1      19.189  27.070   5.857  1.00  0.00     0.106 CG0
ATOM     16  G   UNL     1      19.793  26.194   4.767  1.00  0.00     0.000 G0
ENDBRANCH  13  15
ENDBRANCH  12  13
BRANCH  12  17
ATOM     17  C   UNL     1      18.530  26.913   9.603  1.00  0.00    -0.006 C 
ATOM     18  C   UNL     1      18.749  25.696  10.521  1.00  0.00     0.008 C 
ATOM     19  C   UNL     1      17.688  27.979  10.323  1.00  0.00     0.008 C 
ENDBRANCH  12  17
ENDBRANCH  11  12
ENDBRANCH   1  11
TORSDOF 1
ENDMDL
MODEL 6
REMARK VINA RESULT:    -3.642     17.550     20.375
REMARK INTER + INTRA:          -5.130
REMARK INTER:                  -5.120
REMARK INTRA:                  -0.010
REMARK UNBOUND:                 0.429
REMARK SMILES CC1=CCC[C@@H](C)C(=O)C[C@@H](C(C)C)C(=O)C1
REMARK SMILES IDX 8 1 9 2 6 3 7 4 5 5 4 6 3 7 2 8 1 9 10 11 11 12 15 13 16 14
REMARK SMILES IDX 17 15 12 17 13 18 14 19
REMARK H PARENT
REMARK Flexibility Score: 70.00
ROOT
ATOM      1  C   UNL     1      33.134  16.861  -4.104  1.00  0.00     0.136 C 
ATOM      2  O   UNL     1      33.639  17.972  -4.196  1.00  0.00    -0.299 OA
ENDROOT
BRANCH   1   3
ATOM      3  C   UNL     1      33.940  15.662  -4.558  1.00  0.00     0.053 C 
ATOM      4  C   UNL     1      35.085  15.412  -3.567  1.00  0.00     0.016 C 
BRANCH   3   5
ATOM      5  C   UNL     1      34.492  15.894  -5.989  1.00  0.00     0.015 C 
BRANCH   5   6
ATOM      6  C   UNL     1      33.446  15.639  -7.094  1.00  0.00     0.028 C 
BRANCH   6   7
ATOM      7  C   UNL     1      32.374  14.648  -6.694  1.00  0.00    -0.028 C 
ATOM      8  C   UNL     1      31.057  14.913  -6.494  1.00  0.00    -0.070 CG0
ATOM      9  C   UNL     1      30.189  13.772  -6.018  1.00  0.00     0.039 C 
ATOM     10  G   UNL     1      30.398  16.261  -6.756  1.00  0.00     0.000 G0
ENDBRANCH   6   7
ENDBRANCH   5   6
ENDBRANCH   3   5
ENDBRANCH   1   3
BRANCH   1  11
ATOM     11  C   UNL     1      31.769  16.753  -3.458  1.00  0.00     0.087 C 
BRANCH  11  12
ATOM     12  C   UNL     1      30.567  17.317  -4.273  1.00  0.00     0.066 C 
BRANCH  12  13
ATOM     13  C   UNL     1      30.746  17.367  -5.795  1.00  0.00     0.140 C 
ATOM     14  O   UNL     1      31.247  18.374  -6.278  1.00  0.00    -0.299 OA
BRANCH  13  15
ATOM     15  C   UNL     1      30.355  16.263  -6.750  1.00  0.00     0.106 CG0
ATOM     16  G   UNL     1      31.076  14.950  -6.474  1.00  0.00     0.000 G0
ENDBRANCH  13  15
ENDBRANCH  12  13
BRANCH  12  17
ATOM     17  C   UNL     1      30.119  18.724  -3.753  1.00  0.00    -0.006 C 
ATOM     18  C   UNL     1      31.009  19.267  -2.620  1.00  0.00     0.008 C 
ATOM     19  C   UNL     1      28.640  18.761  -3.333  1.00  0.00     0.008 C 
ENDBRANCH  12  17
ENDBRANCH  11  12
ENDBRANCH   1  11
TORSDOF 1
ENDMDL
MODEL 7
REMARK VINA RESULT:    -3.341      1.899      3.203
REMARK INTER + INTRA:          -4.669
REMARK INTER:                  -5.992
REMARK INTRA:                   1.323
REMARK UNBOUND:                 0.429
REMARK SMILES CC1=CCC[C@@H](C)C(=O)C[C@@H](C(C)C)C(=O)C1
REMARK SMILES IDX 8 1 9 2 6 3 7 4 5 5 4 6 3 7 2 8 1 9 10 11 11 12 15 13 16 14
REMARK SMILES IDX 17 15 12 17 13 18 14 19
REMARK H PARENT
REMARK Flexibility Score: 70.00
ROOT
ATOM      1  C   UNL     1      18.836  26.048   7.556  1.00  0.00     0.136 C 
ATOM      2  O   UNL     1      19.215  25.451   8.555  1.00  0.00    -0.299 OA
ENDROOT
BRANCH   1   3
ATOM      3  C   UNL     1      17.495  26.749   7.597  1.00  0.00     0.053 C 
ATOM      4  C   UNL     1      17.440  27.672   8.822  1.00  0.00     0.016 C 
BRANCH   3   5
ATOM      5  C   UNL     1      16.344  25.709   7.641  1.00  0.00     0.015 C 
BRANCH   5   6
ATOM      6  C   UNL     1      16.133  24.978   6.298  1.00  0.00     0.028 C 
BRANCH   6   7
ATOM      7  C   UNL     1      17.225  23.982   5.975  1.00  0.00    -0.028 C 
ATOM      8  C   UNL     1      18.026  23.982   4.878  1.00  0.00    -0.070 CG0
ATOM      9  C   UNL     1      18.997  22.833   4.733  1.00  0.00     0.039 C 
ATOM     10  G   UNL     1      18.037  25.075   3.817  1.00  0.00     0.000 G0
ENDBRANCH   6   7
ENDBRANCH   5   6
ENDBRANCH   3   5
ENDBRANCH   1   3
BRANCH   1  11
ATOM     11  C   UNL     1      19.778  26.118   6.373  1.00  0.00     0.087 C 
BRANCH  11  12
ATOM     12  C   UNL     1      19.327  27.010   5.176  1.00  0.00     0.066 C 
BRANCH  12  13
ATOM     13  C   UNL     1      18.156  26.478   4.341  1.00  0.00     0.140 C 
ATOM     14  O   UNL     1      17.239  27.248   4.090  1.00  0.00    -0.299 OA
BRANCH  13  15
ATOM     15  C   UNL     1      18.049  25.072   3.797  1.00  0.00     0.106 CG0
ATOM     16  G   UNL     1      18.036  24.008   4.886  1.00  0.00     0.000 G0
ENDBRANCH  13  15
ENDBRANCH  12  13
BRANCH  12  17
ATOM     17  C   UNL     1      20.523  27.367   4.232  1.00  0.00    -0.006 C 
ATOM     18  C   UNL     1      20.127  28.299   3.073  1.00  0.00     0.008 C 
ATOM     19  C   UNL     1      21.248  26.124   3.692  1.00  0.00     0.008 C 
ENDBRANCH  12  17
ENDBRANCH  11  12
ENDBRANCH   1  11
TORSDOF 1
ENDMDL
MODEL 8
REMARK VINA RESULT:    -2.813     17.946     20.604
REMARK INTER + INTRA:          -3.864
REMARK INTER:                  -5.442
REMARK INTRA:                   1.578
REMARK UNBOUND:                 0.429
REMARK SMILES CC1=CCC[C@@H](C)C(=O)C[C@@H](C(C)C)C(=O)C1
REMARK SMILES IDX 8 1 9 2 6 3 7 4 5 5 4 6 3 7 2 8 1 9 10 11 11 12 15 13 16 14
REMARK SMILES IDX 17 15 12 17 13 18 14 19
REMARK H PARENT
REMARK Flexibility Score: 70.00
ROOT
ATOM      1  C   UNL     1      31.625  17.458  -3.248  1.00  0.00     0.136 C 
ATOM      2  O   UNL     1      31.407  17.495  -2.044  1.00  0.00    -0.299 OA
ENDROOT
BRANCH   1   3
ATOM      3  C   UNL     1      31.097  18.582  -4.114  1.00  0.00     0.053 C 
ATOM      4  C   UNL     1      30.619  19.734  -3.220  1.00  0.00     0.016 C 
BRANCH   3   5
ATOM      5  C   UNL     1      29.942  18.070  -5.015  1.00  0.00     0.015 C 
BRANCH   5   6
ATOM      6  C   UNL     1      30.429  17.512  -6.369  1.00  0.00     0.028 C 
BRANCH   6   7
ATOM      7  C   UNL     1      30.512  16.002  -6.405  1.00  0.00    -0.028 C 
ATOM      8  C   UNL     1      31.590  15.256  -6.763  1.00  0.00    -0.070 CG0
ATOM      9  C   UNL     1      31.410  13.756  -6.798  1.00  0.00     0.039 C 
ATOM     10  G   UNL     1      32.964  15.826  -7.087  1.00  0.00     0.000 G0
ENDBRANCH   6   7
ENDBRANCH   5   6
ENDBRANCH   3   5
ENDBRANCH   1   3
BRANCH   1  11
ATOM     11  C   UNL     1      32.490  16.333  -3.776  1.00  0.00     0.087 C 
BRANCH  11  12
ATOM     12  C   UNL     1      33.707  16.746  -4.658  1.00  0.00     0.066 C 
BRANCH  12  13
ATOM     13  C   UNL     1      33.428  16.921  -6.156  1.00  0.00     0.140 C 
ATOM     14  O   UNL     1      33.582  18.035  -6.638  1.00  0.00    -0.299 OA
BRANCH  13  15
ATOM     15  C   UNL     1      32.981  15.819  -7.088  1.00  0.00     0.106 CG0
ATOM     16  G   UNL     1      31.605  15.265  -6.743  1.00  0.00     0.000 G0
ENDBRANCH  13  15
ENDBRANCH  12  13
BRANCH  12  17
ATOM     17  C   UNL     1      34.924  15.780  -4.462  1.00  0.00    -0.006 C 
ATOM     18  C   UNL     1      35.006  14.679  -5.534  1.00  0.00     0.008 C 
ATOM     19  C   UNL     1      34.971  15.160  -3.056  1.00  0.00     0.008 C 
ENDBRANCH  12  17
ENDBRANCH  11  12
ENDBRANCH   1  11
TORSDOF 1
ENDMDL
MODEL 9
REMARK VINA RESULT:    -2.638     17.938     20.527
REMARK INTER + INTRA:          -3.597
REMARK INTER:                  -5.120
REMARK INTRA:                   1.523
REMARK UNBOUND:                 0.429
REMARK SMILES CC1=CCC[C@@H](C)C(=O)C[C@@H](C(C)C)C(=O)C1
REMARK SMILES IDX 8 1 9 2 6 3 7 4 5 5 4 6 3 7 2 8 1 9 10 11 11 12 15 13 16 14
REMARK SMILES IDX 17 15 12 17 13 18 14 19
REMARK H PARENT
REMARK Flexibility Score: 70.00
ROOT
ATOM      1  C   UNL     1      30.487  18.187  -4.829  1.00  0.00     0.136 C 
ATOM      2  O   UNL     1      30.575  19.290  -5.352  1.00  0.00    -0.299 OA
ENDROOT
BRANCH   1   3
ATOM      3  C   UNL     1      30.529  18.098  -3.318  1.00  0.00     0.053 C 
ATOM      4  C   UNL     1      30.771  19.495  -2.731  1.00  0.00     0.016 C 
BRANCH   3   5
ATOM      5  C   UNL     1      31.639  17.112  -2.868  1.00  0.00     0.015 C 
BRANCH   5   6
ATOM      6  C   UNL     1      33.014  17.413  -3.501  1.00  0.00     0.028 C 
BRANCH   6   7
ATOM      7  C   UNL     1      33.879  16.184  -3.677  1.00  0.00    -0.028 C 
ATOM      8  C   UNL     1      34.340  15.676  -4.849  1.00  0.00    -0.070 CG0
ATOM      9  C   UNL     1      35.125  14.387  -4.781  1.00  0.00     0.039 C 
ATOM     10  G   UNL     1      34.156  16.338  -6.209  1.00  0.00     0.000 G0
ENDBRANCH   6   7
ENDBRANCH   5   6
ENDBRANCH   3   5
ENDBRANCH   1   3
BRANCH   1  11
ATOM     11  C   UNL     1      30.250  16.993  -5.729  1.00  0.00     0.087 C 
BRANCH  11  12
ATOM     12  C   UNL     1      31.483  16.083  -6.016  1.00  0.00     0.066 C 
BRANCH  12  13
ATOM     13  C   UNL     1      32.754  16.796  -6.489  1.00  0.00     0.140 C 
ATOM     14  O   UNL     1      32.624  17.835  -7.123  1.00  0.00    -0.299 OA
BRANCH  13  15
ATOM     15  C   UNL     1      34.164  16.317  -6.229  1.00  0.00     0.106 CG0
ATOM     16  G   UNL     1      34.330  15.659  -4.865  1.00  0.00     0.000 G0
ENDBRANCH  13  15
ENDBRANCH  12  13
BRANCH  12  17
ATOM     17  C   UNL     1      31.133  14.923  -7.008  1.00  0.00    -0.006 C 
ATOM     18  C   UNL     1      29.778  14.255  -6.711  1.00  0.00     0.008 C 
ATOM     19  C   UNL     1      32.242  13.863  -7.100  1.00  0.00     0.008 C 
ENDBRANCH  12  17
ENDBRANCH  11  12
ENDBRANCH   1  11
TORSDOF 1
ENDMDL
