MODEL 1
REMARK VINA RESULT:    39.953      0.000      0.000
REMARK INTER + INTRA:          58.194
REMARK INTER:                  58.638
REMARK INTRA:                  -0.444
REMARK UNBOUND:                -0.444
REMARK SMILES Cc1cc2c(C(C)C)c(O)c(O)c(C=O)c2c(O)c1-c1c(C)cc2c(C(C)C)c(O)c(O)c(C=O)c2c1O
REMARK SMILES IDX 1 1 2 2 3 3 4 4 16 5 13 6 11 7 9 8 5 9 17 10 19 11 20 12
REMARK SMILES IDX 37 13 21 14 36 15 23 16 22 17 24 18 33 19 25 20 31 21 29 22
REMARK SMILES IDX 38 23 34 25 35 26 26 27 27 28 28 29 32 30 30 32 18 34 6 36
REMARK SMILES IDX 7 37 8 38 14 39 15 40 10 41 12 43
REMARK H PARENT 38 24 32 31 30 33 18 35 10 42 12 44
REMARK Flexibility Score: inf
ROOT
ATOM      1  C   UNL     1     -15.393 -12.194  71.125  1.00  0.00     0.045 C 
ATOM      2  C   UNL     1     -14.352 -11.973  70.053  1.00  0.00    -0.039 A 
ATOM      3  C   UNL     1     -13.669 -10.758  70.001  1.00  0.00     0.013 A 
ATOM      4  C   UNL     1     -12.701 -10.490  69.009  1.00  0.00    -0.006 A 
ATOM      5  C   UNL     1     -12.324 -11.540  68.119  1.00  0.00     0.039 A 
ATOM      6  C   UNL     1     -11.196 -11.349  67.265  1.00  0.00     0.072 A 
ATOM      7  C   UNL     1     -10.479 -10.134  67.313  1.00  0.00     0.169 A 
ATOM      8  C   UNL     1     -10.924  -9.077  68.114  1.00  0.00     0.162 A 
ATOM      9  C   UNL     1     -12.086  -9.205  68.905  1.00  0.00     0.008 A 
ATOM     10  C   UNL     1     -13.098 -12.739  68.107  1.00  0.00     0.132 A 
ATOM     11  C   UNL     1     -14.097 -12.953  69.080  1.00  0.00     0.031 A 
ENDROOT
BRANCH  11  12
ATOM     12  C   UNL     1     -14.873 -14.222  69.090  1.00  0.00     0.031 A 
ATOM     13  C   UNL     1     -15.853 -14.461  68.103  1.00  0.00     0.132 A 
ATOM     14  C   UNL     1     -14.614 -15.189  70.074  1.00  0.00    -0.039 A 
ATOM     15  C   UNL     1     -16.581 -15.690  68.092  1.00  0.00     0.039 A 
ATOM     16  C   UNL     1     -15.382 -16.354  70.112  1.00  0.00     0.013 A 
ATOM     17  C   UNL     1     -13.519 -14.988  71.093  1.00  0.00     0.045 C 
ATOM     18  C   UNL     1     -16.417 -16.594  69.183  1.00  0.00    -0.006 A 
ATOM     19  C   UNL     1     -17.476 -16.041  67.035  1.00  0.00     0.072 A 
ATOM     20  C   UNL     1     -17.269 -17.733  69.308  1.00  0.00     0.008 A 
ATOM     21  C   UNL     1     -18.170 -17.268  67.084  1.00  0.00     0.169 A 
ATOM     22  C   UNL     1     -18.074 -18.096  68.207  1.00  0.00     0.162 A 
BRANCH  13  23
ATOM     23  O   UNL     1     -16.118 -13.473  67.149  1.00  0.00    -0.507 OA
ATOM     24  H   UNL     1     -16.370 -12.519  67.377  1.00  0.00     0.293 HD
ENDBRANCH  13  23
BRANCH  19  25
ATOM     25  C   UNL     1     -17.631 -15.199  65.830  1.00  0.00     0.264 C 
ATOM     26  O   UNL     1     -18.343 -14.162  65.863  1.00  0.00    -0.298 OA
ENDBRANCH  19  25
BRANCH  20  27
ATOM     27  C   UNL     1     -17.317 -18.569  70.599  1.00  0.00     0.017 C 
ATOM     28  C   UNL     1     -16.551 -19.884  70.429  1.00  0.00     0.012 C 
ATOM     29  C   UNL     1     -18.744 -18.816  71.124  1.00  0.00     0.012 C 
ENDBRANCH  20  27
BRANCH  21  30
ATOM     30  O   UNL     1     -18.957 -17.707  66.013  1.00  0.00    -0.504 OA
ATOM     31  H   UNL     1     -18.718 -17.573  65.040  1.00  0.00     0.293 HD
ENDBRANCH  21  30
BRANCH  22  32
ATOM     32  O   UNL     1     -18.765 -19.310  68.221  1.00  0.00    -0.504 OA
ATOM     33  H   UNL     1     -18.798 -19.937  67.427  1.00  0.00     0.293 HD
ENDBRANCH  22  32
ENDBRANCH  11  12
BRANCH  10  34
ATOM     34  O   UNL     1     -12.895 -13.702  67.112  1.00  0.00    -0.507 OA
ATOM     35  H   UNL     1     -13.397 -13.721  66.234  1.00  0.00     0.293 HD
ENDBRANCH  10  34
BRANCH   9  36
ATOM     36  C   UNL     1     -12.649  -7.977  69.642  1.00  0.00     0.017 C 
ATOM     37  C   UNL     1     -14.175  -7.918  69.519  1.00  0.00     0.012 C 
ATOM     38  C   UNL     1     -12.199  -7.876  71.111  1.00  0.00     0.012 C 
ENDBRANCH   9  36
BRANCH   6  39
ATOM     39  C   UNL     1     -10.687 -12.426  66.391  1.00  0.00     0.264 C 
ATOM     40  O   UNL     1      -9.697 -13.122  66.741  1.00  0.00    -0.298 OA
ENDBRANCH   6  39
BRANCH   8  41
ATOM     41  O   UNL     1     -10.186  -7.890  68.149  1.00  0.00    -0.504 OA
ATOM     42  H   UNL     1     -10.030  -7.312  67.333  1.00  0.00     0.293 HD
ENDBRANCH   8  41
BRANCH   7  43
ATOM     43  O   UNL     1      -9.296  -9.952  66.587  1.00  0.00    -0.504 OA
ATOM     44  H   UNL     1      -9.248  -9.491  65.688  1.00  0.00     0.293 HD
ENDBRANCH   7  43
TORSDOF 11
ENDMDL
