MODEL 1
REMARK VINA RESULT:    -3.905      0.000      0.000
REMARK INTER + INTRA:          -8.399
REMARK INTER:                  -7.330
REMARK INTRA:                  -1.069
REMARK UNBOUND:                -1.069
REMARK SMILES O=C([O-])CCCCCCCCCCCCCCC(=O)[O-]
REMARK SMILES IDX 10 1 9 2 8 3 7 4 6 5 5 6 4 7 2 8 1 9 3 10 11 11 12 12 13 13
REMARK SMILES IDX 14 14 15 15 16 16 17 17 18 18 19 19 20 20
REMARK H PARENT
REMARK Flexibility Score: inf
ROOT
ATOM      1  C   UNL     1      24.243  -4.698 -32.870  1.00  0.00     0.000 C 
ENDROOT
BRANCH   1   2
ATOM      2  C   UNL     1      25.319  -4.511 -33.947  1.00  0.00     0.000 C 
BRANCH   2   3
ATOM      3  C   UNL     1      24.921  -3.412 -34.939  1.00  0.00     0.000 C 
BRANCH   3   4
ATOM      4  C   UNL     1      25.413  -3.746 -36.355  1.00  0.00     0.000 C 
BRANCH   4   5
ATOM      5  C   UNL     1      26.508  -4.826 -36.363  1.00  0.00     0.000 C 
BRANCH   5   6
ATOM      6  C   UNL     1      27.910  -4.246 -36.619  1.00  0.00     0.006 C 
BRANCH   6   7
ATOM      7  C   UNL     1      28.236  -4.160 -38.117  1.00  0.00     0.053 C 
BRANCH   7   8
ATOM      8  C   UNL     1      29.200  -5.227 -38.539  1.00  0.00     0.041 C 
ATOM      9  O   UNL     1      28.937  -6.439 -38.324  1.00  0.00    -0.550 OA
ATOM     10  O   UNL     1      30.402  -4.880 -39.143  1.00  0.00    -0.550 OA
ENDBRANCH   7   8
ENDBRANCH   6   7
ENDBRANCH   5   6
ENDBRANCH   4   5
ENDBRANCH   3   4
ENDBRANCH   2   3
ENDBRANCH   1   2
BRANCH   1  11
ATOM     11  C   UNL     1      24.826  -5.359 -31.615  1.00  0.00     0.000 C 
BRANCH  11  12
ATOM     12  C   UNL     1      23.776  -5.437 -30.497  1.00  0.00     0.000 C 
BRANCH  12  13
ATOM     13  C   UNL     1      24.209  -4.694 -29.222  1.00  0.00     0.000 C 
BRANCH  13  14
ATOM     14  C   UNL     1      24.168  -5.592 -27.973  1.00  0.00     0.000 C 
BRANCH  14  15
ATOM     15  C   UNL     1      24.054  -7.085 -28.323  1.00  0.00     0.000 C 
BRANCH  15  16
ATOM     16  C   UNL     1      25.317  -7.880 -27.950  1.00  0.00     0.006 C 
BRANCH  16  17
ATOM     17  C   UNL     1      26.335  -7.922 -29.098  1.00  0.00     0.053 C 
BRANCH  17  18
ATOM     18  C   UNL     1      27.489  -6.997 -28.856  1.00  0.00     0.041 C 
ATOM     19  O   UNL     1      28.170  -7.097 -27.801  1.00  0.00    -0.550 OA
ATOM     20  O   UNL     1      27.792  -6.004 -29.779  1.00  0.00    -0.550 OA
ENDBRANCH  17  18
ENDBRANCH  16  17
ENDBRANCH  15  16
ENDBRANCH  14  15
ENDBRANCH  13  14
ENDBRANCH  12  13
ENDBRANCH  11  12
ENDBRANCH   1  11
TORSDOF 15
ENDMDL
MODEL 2
REMARK VINA RESULT:    -3.866      3.776      6.939
REMARK INTER + INTRA:          -8.326
REMARK INTER:                  -5.732
REMARK INTRA:                  -2.593
REMARK UNBOUND:                -1.069
REMARK SMILES O=C([O-])CCCCCCCCCCCCCCC(=O)[O-]
REMARK SMILES IDX 10 1 9 2 8 3 7 4 6 5 5 6 4 7 2 8 1 9 3 10 11 11 12 12 13 13
REMARK SMILES IDX 14 14 15 15 16 16 17 17 18 18 19 19 20 20
REMARK H PARENT
REMARK Flexibility Score: inf
ROOT
ATOM      1  C   UNL     1      24.312  -6.442 -26.327  1.00  0.00     0.000 C 
ENDROOT
BRANCH   1   2
ATOM      2  C   UNL     1      24.886  -7.797 -26.758  1.00  0.00     0.000 C 
BRANCH   2   3
ATOM      3  C   UNL     1      24.604  -8.068 -28.241  1.00  0.00     0.000 C 
BRANCH   3   4
ATOM      4  C   UNL     1      25.801  -7.654 -29.111  1.00  0.00     0.000 C 
BRANCH   4   5
ATOM      5  C   UNL     1      27.150  -8.069 -28.501  1.00  0.00     0.000 C 
BRANCH   5   6
ATOM      6  C   UNL     1      28.075  -6.868 -28.238  1.00  0.00     0.006 C 
BRANCH   6   7
ATOM      7  C   UNL     1      28.673  -6.304 -29.534  1.00  0.00     0.053 C 
BRANCH   7   8
ATOM      8  C   UNL     1      29.474  -5.062 -29.284  1.00  0.00     0.041 C 
ATOM      9  O   UNL     1      29.569  -4.594 -28.118  1.00  0.00    -0.550 OA
ATOM     10  O   UNL     1      30.091  -4.406 -30.342  1.00  0.00    -0.550 OA
ENDBRANCH   7   8
ENDBRANCH   6   7
ENDBRANCH   5   6
ENDBRANCH   4   5
ENDBRANCH   3   4
ENDBRANCH   2   3
ENDBRANCH   1   2
BRANCH   1  11
ATOM     11  C   UNL     1      25.432  -5.429 -26.057  1.00  0.00     0.000 C 
BRANCH  11  12
ATOM     12  C   UNL     1      25.124  -4.079 -26.721  1.00  0.00     0.000 C 
BRANCH  12  13
ATOM     13  C   UNL     1      26.159  -3.695 -27.792  1.00  0.00     0.000 C 
BRANCH  13  14
ATOM     14  C   UNL     1      25.690  -4.038 -29.217  1.00  0.00     0.000 C 
BRANCH  14  15
ATOM     15  C   UNL     1      24.162  -4.173 -29.318  1.00  0.00     0.000 C 
BRANCH  15  16
ATOM     16  C   UNL     1      23.718  -4.988 -30.545  1.00  0.00     0.006 C 
BRANCH  16  17
ATOM     17  C   UNL     1      24.853  -5.168 -31.562  1.00  0.00     0.053 C 
BRANCH  17  18
ATOM     18  C   UNL     1      24.630  -4.352 -32.799  1.00  0.00     0.041 C 
ATOM     19  O   UNL     1      25.577  -3.690 -33.299  1.00  0.00    -0.550 OA
ATOM     20  O   UNL     1      23.370  -4.298 -33.381  1.00  0.00    -0.550 OA
ENDBRANCH  17  18
ENDBRANCH  16  17
ENDBRANCH  15  16
ENDBRANCH  14  15
ENDBRANCH  13  14
ENDBRANCH  12  13
ENDBRANCH  11  12
ENDBRANCH   1  11
TORSDOF 15
ENDMDL
MODEL 3
REMARK VINA RESULT:    -3.828      7.235      9.128
REMARK INTER + INTRA:          -8.253
REMARK INTER:                  -5.523
REMARK INTRA:                  -2.730
REMARK UNBOUND:                -1.069
REMARK SMILES O=C([O-])CCCCCCCCCCCCCCC(=O)[O-]
REMARK SMILES IDX 10 1 9 2 8 3 7 4 6 5 5 6 4 7 2 8 1 9 3 10 11 11 12 12 13 13
REMARK SMILES IDX 14 14 15 15 16 16 17 17 18 18 19 19 20 20
REMARK H PARENT
REMARK Flexibility Score: inf
ROOT
ATOM      1  C   UNL     1      32.748  -0.189 -38.247  1.00  0.00     0.000 C 
ENDROOT
BRANCH   1   2
ATOM      2  C   UNL     1      31.571   0.728 -38.602  1.00  0.00     0.000 C 
BRANCH   2   3
ATOM      3  C   UNL     1      30.357  -0.086 -39.064  1.00  0.00     0.000 C 
BRANCH   3   4
ATOM      4  C   UNL     1      29.307  -0.188 -37.947  1.00  0.00     0.000 C 
BRANCH   4   5
ATOM      5  C   UNL     1      29.046  -1.638 -37.509  1.00  0.00     0.000 C 
BRANCH   5   6
ATOM      6  C   UNL     1      28.872  -2.594 -38.701  1.00  0.00     0.006 C 
BRANCH   6   7
ATOM      7  C   UNL     1      29.619  -3.919 -38.495  1.00  0.00     0.053 C 
BRANCH   7   8
ATOM      8  C   UNL     1      28.688  -5.032 -38.119  1.00  0.00     0.041 C 
ATOM      9  O   UNL     1      28.980  -6.224 -38.402  1.00  0.00    -0.550 OA
ATOM     10  O   UNL     1      27.485  -4.750 -37.483  1.00  0.00    -0.550 OA
ENDBRANCH   7   8
ENDBRANCH   6   7
ENDBRANCH   5   6
ENDBRANCH   4   5
ENDBRANCH   3   4
ENDBRANCH   2   3
ENDBRANCH   1   2
BRANCH   1  11
ATOM     11  C   UNL     1      32.572  -1.579 -38.872  1.00  0.00     0.000 C 
BRANCH  11  12
ATOM     12  C   UNL     1      33.488  -2.607 -38.192  1.00  0.00     0.000 C 
BRANCH  12  13
ATOM     13  C   UNL     1      33.476  -2.491 -36.658  1.00  0.00     0.000 C 
BRANCH  13  14
ATOM     14  C   UNL     1      32.345  -3.310 -36.013  1.00  0.00     0.000 C 
BRANCH  14  15
ATOM     15  C   UNL     1      31.495  -2.477 -35.039  1.00  0.00     0.000 C 
BRANCH  15  16
ATOM     16  C   UNL     1      32.107  -1.096 -34.748  1.00  0.00     0.006 C 
BRANCH  16  17
ATOM     17  C   UNL     1      31.047   0.013 -34.724  1.00  0.00     0.053 C 
BRANCH  17  18
ATOM     18  C   UNL     1      31.650   1.367 -34.952  1.00  0.00     0.041 C 
ATOM     19  O   UNL     1      32.834   1.600 -34.594  1.00  0.00    -0.550 OA
ATOM     20  O   UNL     1      30.892   2.378 -35.529  1.00  0.00    -0.550 OA
ENDBRANCH  17  18
ENDBRANCH  16  17
ENDBRANCH  15  16
ENDBRANCH  14  15
ENDBRANCH  13  14
ENDBRANCH  12  13
ENDBRANCH  11  12
ENDBRANCH   1  11
TORSDOF 15
ENDMDL
MODEL 4
REMARK VINA RESULT:    -3.777      3.713      7.647
REMARK INTER + INTRA:          -8.159
REMARK INTER:                  -5.934
REMARK INTRA:                  -2.224
REMARK UNBOUND:                -1.069
REMARK SMILES O=C([O-])CCCCCCCCCCCCCCC(=O)[O-]
REMARK SMILES IDX 10 1 9 2 8 3 7 4 6 5 5 6 4 7 2 8 1 9 3 10 11 11 12 12 13 13
REMARK SMILES IDX 14 14 15 15 16 16 17 17 18 18 19 19 20 20
REMARK H PARENT
REMARK Flexibility Score: inf
ROOT
ATOM      1  C   UNL     1      24.277  -3.998 -29.024  1.00  0.00     0.000 C 
ENDROOT
BRANCH   1   2
ATOM      2  C   UNL     1      24.147  -4.173 -27.506  1.00  0.00     0.000 C 
BRANCH   2   3
ATOM      3  C   UNL     1      24.643  -5.556 -27.066  1.00  0.00     0.000 C 
BRANCH   3   4
ATOM      4  C   UNL     1      23.805  -6.670 -27.709  1.00  0.00     0.000 C 
BRANCH   4   5
ATOM      5  C   UNL     1      24.669  -7.763 -28.358  1.00  0.00     0.000 C 
BRANCH   5   6
ATOM      6  C   UNL     1      26.087  -7.827 -27.764  1.00  0.00     0.006 C 
BRANCH   6   7
ATOM      7  C   UNL     1      27.172  -7.787 -28.849  1.00  0.00     0.053 C 
BRANCH   7   8
ATOM      8  C   UNL     1      28.191  -6.721 -28.580  1.00  0.00     0.041 C 
ATOM      9  O   UNL     1      28.104  -6.010 -27.544  1.00  0.00    -0.550 OA
ATOM     10  O   UNL     1      29.218  -6.494 -29.488  1.00  0.00    -0.550 OA
ENDBRANCH   7   8
ENDBRANCH   6   7
ENDBRANCH   5   6
ENDBRANCH   4   5
ENDBRANCH   3   4
ENDBRANCH   2   3
ENDBRANCH   1   2
BRANCH   1  11
ATOM     11  C   UNL     1      25.749  -3.965 -29.452  1.00  0.00     0.000 C 
BRANCH  11  12
ATOM     12  C   UNL     1      25.960  -4.745 -30.757  1.00  0.00     0.000 C 
BRANCH  12  13
ATOM     13  C   UNL     1      24.726  -5.568 -31.164  1.00  0.00     0.000 C 
BRANCH  13  14
ATOM     14  C   UNL     1      24.260  -5.263 -32.599  1.00  0.00     0.000 C 
BRANCH  14  15
ATOM     15  C   UNL     1      25.337  -4.546 -33.429  1.00  0.00     0.000 C 
BRANCH  15  16
ATOM     16  C   UNL     1      24.741  -3.661 -34.537  1.00  0.00     0.006 C 
BRANCH  16  17
ATOM     17  C   UNL     1      24.846  -2.167 -34.203  1.00  0.00     0.053 C 
BRANCH  17  18
ATOM     18  C   UNL     1      24.043  -1.808 -32.989  1.00  0.00     0.041 C 
ATOM     19  O   UNL     1      22.788  -1.739 -33.058  1.00  0.00    -0.550 OA
ATOM     20  O   UNL     1      24.684  -1.518 -31.791  1.00  0.00    -0.550 OA
ENDBRANCH  17  18
ENDBRANCH  16  17
ENDBRANCH  15  16
ENDBRANCH  14  15
ENDBRANCH  13  14
ENDBRANCH  12  13
ENDBRANCH  11  12
ENDBRANCH   1  11
TORSDOF 15
ENDMDL
MODEL 5
REMARK VINA RESULT:    -3.775      7.327      9.754
REMARK INTER + INTRA:          -8.155
REMARK INTER:                  -5.525
REMARK INTRA:                  -2.630
REMARK UNBOUND:                -1.069
REMARK SMILES O=C([O-])CCCCCCCCCCCCCCC(=O)[O-]
REMARK SMILES IDX 10 1 9 2 8 3 7 4 6 5 5 6 4 7 2 8 1 9 3 10 11 11 12 12 13 13
REMARK SMILES IDX 14 14 15 15 16 16 17 17 18 18 19 19 20 20
REMARK H PARENT
REMARK Flexibility Score: inf
ROOT
ATOM      1  C   UNL     1      33.478  -1.049 -35.767  1.00  0.00     0.000 C 
ENDROOT
BRANCH   1   2
ATOM      2  C   UNL     1      31.994  -1.081 -35.383  1.00  0.00     0.000 C 
BRANCH   2   3
ATOM      3  C   UNL     1      31.452  -2.516 -35.398  1.00  0.00     0.000 C 
BRANCH   3   4
ATOM      4  C   UNL     1      32.567  -3.521 -35.725  1.00  0.00     0.000 C 
BRANCH   4   5
ATOM      5  C   UNL     1      32.055  -4.740 -36.509  1.00  0.00     0.000 C 
BRANCH   5   6
ATOM      6  C   UNL     1      32.565  -4.768 -37.960  1.00  0.00     0.006 C 
BRANCH   6   7
ATOM      7  C   UNL     1      33.825  -3.913 -38.147  1.00  0.00     0.053 C 
BRANCH   7   8
ATOM      8  C   UNL     1      35.076  -4.710 -37.935  1.00  0.00     0.041 C 
ATOM      9  O   UNL     1      35.367  -5.653 -38.718  1.00  0.00    -0.550 OA
ATOM     10  O   UNL     1      35.906  -4.432 -36.855  1.00  0.00    -0.550 OA
ENDBRANCH   7   8
ENDBRANCH   6   7
ENDBRANCH   5   6
ENDBRANCH   4   5
ENDBRANCH   3   4
ENDBRANCH   2   3
ENDBRANCH   1   2
BRANCH   1  11
ATOM     11  C   UNL     1      33.756   0.041 -36.809  1.00  0.00     0.000 C 
BRANCH  11  12
ATOM     12  C   UNL     1      33.128  -0.321 -38.163  1.00  0.00     0.000 C 
BRANCH  12  13
ATOM     13  C   UNL     1      31.948   0.593 -38.534  1.00  0.00     0.000 C 
BRANCH  13  14
ATOM     14  C   UNL     1      30.680  -0.198 -38.898  1.00  0.00     0.000 C 
BRANCH  14  15
ATOM     15  C   UNL     1      30.947  -1.705 -39.047  1.00  0.00     0.000 C 
BRANCH  15  16
ATOM     16  C   UNL     1      29.668  -2.508 -39.339  1.00  0.00     0.006 C 
BRANCH  16  17
ATOM     17  C   UNL     1      29.062  -3.115 -38.066  1.00  0.00     0.053 C 
BRANCH  17  18
ATOM     18  C   UNL     1      28.652  -4.542 -38.268  1.00  0.00     0.041 C 
ATOM     19  O   UNL     1      29.209  -5.242 -39.154  1.00  0.00    -0.550 OA
ATOM     20  O   UNL     1      27.633  -5.090 -37.499  1.00  0.00    -0.550 OA
ENDBRANCH  17  18
ENDBRANCH  16  17
ENDBRANCH  15  16
ENDBRANCH  14  15
ENDBRANCH  13  14
ENDBRANCH  12  13
ENDBRANCH  11  12
ENDBRANCH   1  11
TORSDOF 15
ENDMDL
MODEL 6
REMARK VINA RESULT:    -3.771      1.889      7.643
REMARK INTER + INTRA:          -8.147
REMARK INTER:                  -6.216
REMARK INTRA:                  -1.931
REMARK UNBOUND:                -1.069
REMARK SMILES O=C([O-])CCCCCCCCCCCCCCC(=O)[O-]
REMARK SMILES IDX 10 1 9 2 8 3 7 4 6 5 5 6 4 7 2 8 1 9 3 10 11 11 12 12 13 13
REMARK SMILES IDX 14 14 15 15 16 16 17 17 18 18 19 19 20 20
REMARK H PARENT
REMARK Flexibility Score: inf
ROOT
ATOM      1  C   UNL     1      24.125  -5.001 -28.891  1.00  0.00     0.000 C 
ENDROOT
BRANCH   1   2
ATOM      2  C   UNL     1      24.167  -5.964 -27.698  1.00  0.00     0.000 C 
BRANCH   2   3
ATOM      3  C   UNL     1      24.410  -7.405 -28.161  1.00  0.00     0.000 C 
BRANCH   3   4
ATOM      4  C   UNL     1      25.830  -7.866 -27.798  1.00  0.00     0.000 C 
BRANCH   4   5
ATOM      5  C   UNL     1      26.725  -8.055 -29.034  1.00  0.00     0.000 C 
BRANCH   5   6
ATOM      6  C   UNL     1      27.687  -6.875 -29.254  1.00  0.00     0.006 C 
BRANCH   6   7
ATOM      7  C   UNL     1      28.021  -6.148 -27.943  1.00  0.00     0.053 C 
BRANCH   7   8
ATOM      8  C   UNL     1      27.697  -4.687 -28.018  1.00  0.00     0.041 C 
ATOM      9  O   UNL     1      27.212  -4.094 -27.018  1.00  0.00    -0.550 OA
ATOM     10  O   UNL     1      27.902  -3.987 -29.201  1.00  0.00    -0.550 OA
ENDBRANCH   7   8
ENDBRANCH   6   7
ENDBRANCH   5   6
ENDBRANCH   4   5
ENDBRANCH   3   4
ENDBRANCH   2   3
ENDBRANCH   1   2
BRANCH   1  11
ATOM     11  C   UNL     1      23.818  -5.750 -30.193  1.00  0.00     0.000 C 
BRANCH  11  12
ATOM     12  C   UNL     1      24.883  -5.457 -31.261  1.00  0.00     0.000 C 
BRANCH  12  13
ATOM     13  C   UNL     1      25.169  -3.954 -31.417  1.00  0.00     0.000 C 
BRANCH  13  14
ATOM     14  C   UNL     1      24.098  -3.233 -32.254  1.00  0.00     0.000 C 
BRANCH  14  15
ATOM     15  C   UNL     1      23.783  -3.967 -33.568  1.00  0.00     0.000 C 
BRANCH  15  16
ATOM     16  C   UNL     1      24.788  -3.641 -34.685  1.00  0.00     0.006 C 
BRANCH  16  17
ATOM     17  C   UNL     1      25.890  -4.702 -34.801  1.00  0.00     0.053 C 
BRANCH  17  18
ATOM     18  C   UNL     1      26.860  -4.384 -35.898  1.00  0.00     0.041 C 
ATOM     19  O   UNL     1      26.689  -4.860 -37.051  1.00  0.00    -0.550 OA
ATOM     20  O   UNL     1      27.969  -3.589 -35.639  1.00  0.00    -0.550 OA
ENDBRANCH  17  18
ENDBRANCH  16  17
ENDBRANCH  15  16
ENDBRANCH  14  15
ENDBRANCH  13  14
ENDBRANCH  12  13
ENDBRANCH  11  12
ENDBRANCH   1  11
TORSDOF 15
ENDMDL
MODEL 7
REMARK VINA RESULT:    -3.762      7.518     10.574
REMARK INTER + INTRA:          -8.130
REMARK INTER:                  -6.247
REMARK INTRA:                  -1.883
REMARK UNBOUND:                -1.069
REMARK SMILES O=C([O-])CCCCCCCCCCCCCCC(=O)[O-]
REMARK SMILES IDX 10 1 9 2 8 3 7 4 6 5 5 6 4 7 2 8 1 9 3 10 11 11 12 12 13 13
REMARK SMILES IDX 14 14 15 15 16 16 17 17 18 18 19 19 20 20
REMARK H PARENT
REMARK Flexibility Score: inf
ROOT
ATOM      1  C   UNL     1      32.905  -0.984 -38.618  1.00  0.00     0.000 C 
ENDROOT
BRANCH   1   2
ATOM      2  C   UNL     1      32.526   0.490 -38.428  1.00  0.00     0.000 C 
BRANCH   2   3
ATOM      3  C   UNL     1      31.023   0.704 -38.644  1.00  0.00     0.000 C 
BRANCH   3   4
ATOM      4  C   UNL     1      30.213   0.130 -37.472  1.00  0.00     0.000 C 
BRANCH   4   5
ATOM      5  C   UNL     1      29.271  -1.007 -37.902  1.00  0.00     0.000 C 
BRANCH   5   6
ATOM      6  C   UNL     1      29.645  -2.358 -37.269  1.00  0.00     0.006 C 
BRANCH   6   7
ATOM      7  C   UNL     1      30.128  -2.205 -35.820  1.00  0.00     0.053 C 
BRANCH   7   8
ATOM      8  C   UNL     1      30.784  -3.454 -35.316  1.00  0.00     0.041 C 
ATOM      9  O   UNL     1      31.278  -4.282 -36.128  1.00  0.00    -0.550 OA
ATOM     10  O   UNL     1      30.824  -3.719 -33.953  1.00  0.00    -0.550 OA
ENDBRANCH   7   8
ENDBRANCH   6   7
ENDBRANCH   5   6
ENDBRANCH   4   5
ENDBRANCH   3   4
ENDBRANCH   2   3
ENDBRANCH   1   2
BRANCH   1  11
ATOM     11  C   UNL     1      33.528  -1.563 -37.342  1.00  0.00     0.000 C 
BRANCH  11  12
ATOM     12  C   UNL     1      33.923  -0.444 -36.366  1.00  0.00     0.000 C 
BRANCH  12  13
ATOM     13  C   UNL     1      33.242  -0.584 -34.994  1.00  0.00     0.000 C 
BRANCH  13  14
ATOM     14  C   UNL     1      32.667   0.748 -34.482  1.00  0.00     0.000 C 
BRANCH  14  15
ATOM     15  C   UNL     1      33.763   1.759 -34.106  1.00  0.00     0.000 C 
BRANCH  15  16
ATOM     16  C   UNL     1      33.410   2.580 -32.855  1.00  0.00     0.006 C 
BRANCH  16  17
ATOM     17  C   UNL     1      33.305   4.081 -33.157  1.00  0.00     0.053 C 
BRANCH  17  18
ATOM     18  C   UNL     1      34.587   4.801 -32.865  1.00  0.00     0.041 C 
ATOM     19  O   UNL     1      35.206   5.391 -33.789  1.00  0.00    -0.550 OA
ATOM     20  O   UNL     1      35.112   4.793 -31.579  1.00  0.00    -0.550 OA
ENDBRANCH  17  18
ENDBRANCH  16  17
ENDBRANCH  15  16
ENDBRANCH  14  15
ENDBRANCH  13  14
ENDBRANCH  12  13
ENDBRANCH  11  12
ENDBRANCH   1  11
TORSDOF 15
ENDMDL
MODEL 8
REMARK VINA RESULT:    -3.734      7.418     10.815
REMARK INTER + INTRA:          -8.078
REMARK INTER:                  -6.150
REMARK INTRA:                  -1.928
REMARK UNBOUND:                -1.069
REMARK SMILES O=C([O-])CCCCCCCCCCCCCCC(=O)[O-]
REMARK SMILES IDX 10 1 9 2 8 3 7 4 6 5 5 6 4 7 2 8 1 9 3 10 11 11 12 12 13 13
REMARK SMILES IDX 14 14 15 15 16 16 17 17 18 18 19 19 20 20
REMARK H PARENT
REMARK Flexibility Score: inf
ROOT
ATOM      1  C   UNL     1      33.583  -1.436 -36.949  1.00  0.00     0.000 C 
ENDROOT
BRANCH   1   2
ATOM      2  C   UNL     1      33.369  -0.809 -35.566  1.00  0.00     0.000 C 
BRANCH   2   3
ATOM      3  C   UNL     1      31.965  -1.119 -35.032  1.00  0.00     0.000 C 
BRANCH   3   4
ATOM      4  C   UNL     1      31.203   0.174 -34.706  1.00  0.00     0.000 C 
BRANCH   4   5
ATOM      5  C   UNL     1      32.011   1.438 -35.040  1.00  0.00     0.000 C 
BRANCH   5   6
ATOM      6  C   UNL     1      32.222   2.347 -33.816  1.00  0.00     0.006 C 
BRANCH   6   7
ATOM      7  C   UNL     1      33.683   2.795 -33.672  1.00  0.00     0.053 C 
BRANCH   7   8
ATOM      8  C   UNL     1      33.790   4.152 -33.045  1.00  0.00     0.041 C 
ATOM      9  O   UNL     1      32.835   4.968 -33.134  1.00  0.00    -0.550 OA
ATOM     10  O   UNL     1      34.957   4.526 -32.389  1.00  0.00    -0.550 OA
ENDBRANCH   7   8
ENDBRANCH   6   7
ENDBRANCH   5   6
ENDBRANCH   4   5
ENDBRANCH   3   4
ENDBRANCH   2   3
ENDBRANCH   1   2
BRANCH   1  11
ATOM     11  C   UNL     1      33.373  -0.402 -38.062  1.00  0.00     0.000 C 
BRANCH  11  12
ATOM     12  C   UNL     1      32.022  -0.613 -38.761  1.00  0.00     0.000 C 
BRANCH  12  13
ATOM     13  C   UNL     1      31.071   0.584 -38.591  1.00  0.00     0.000 C 
BRANCH  13  14
ATOM     14  C   UNL     1      29.627   0.151 -38.283  1.00  0.00     0.000 C 
BRANCH  14  15
ATOM     15  C   UNL     1      29.548  -1.268 -37.696  1.00  0.00     0.000 C 
BRANCH  15  16
ATOM     16  C   UNL     1      28.645  -2.201 -38.519  1.00  0.00     0.006 C 
BRANCH  16  17
ATOM     17  C   UNL     1      29.316  -3.550 -38.808  1.00  0.00     0.053 C 
BRANCH  17  18
ATOM     18  C   UNL     1      28.545  -4.695 -38.224  1.00  0.00     0.041 C 
ATOM     19  O   UNL     1      27.571  -4.476 -37.456  1.00  0.00    -0.550 OA
ATOM     20  O   UNL     1      28.921  -6.003 -38.502  1.00  0.00    -0.550 OA
ENDBRANCH  17  18
ENDBRANCH  16  17
ENDBRANCH  15  16
ENDBRANCH  14  15
ENDBRANCH  13  14
ENDBRANCH  12  13
ENDBRANCH  11  12
ENDBRANCH   1  11
TORSDOF 15
ENDMDL
MODEL 9
REMARK VINA RESULT:    -3.680      6.762     10.398
REMARK INTER + INTRA:          -7.977
REMARK INTER:                  -5.523
REMARK INTRA:                  -2.454
REMARK UNBOUND:                -1.069
REMARK SMILES O=C([O-])CCCCCCCCCCCCCCC(=O)[O-]
REMARK SMILES IDX 10 1 9 2 8 3 7 4 6 5 5 6 4 7 2 8 1 9 3 10 11 11 12 12 13 13
REMARK SMILES IDX 14 14 15 15 16 16 17 17 18 18 19 19 20 20
REMARK H PARENT
REMARK Flexibility Score: inf
ROOT
ATOM      1  C   UNL     1      33.954  -3.777 -37.904  1.00  0.00     0.000 C 
ENDROOT
BRANCH   1   2
ATOM      2  C   UNL     1      33.311  -5.169 -37.885  1.00  0.00     0.000 C 
BRANCH   2   3
ATOM      3  C   UNL     1      31.806  -5.085 -38.166  1.00  0.00     0.000 C 
BRANCH   3   4
ATOM      4  C   UNL     1      31.530  -4.286 -39.449  1.00  0.00     0.000 C 
BRANCH   4   5
ATOM      5  C   UNL     1      30.505  -3.161 -39.238  1.00  0.00     0.000 C 
BRANCH   5   6
ATOM      6  C   UNL     1      29.893  -3.175 -37.827  1.00  0.00     0.006 C 
BRANCH   6   7
ATOM      7  C   UNL     1      28.359  -3.127 -37.861  1.00  0.00     0.053 C 
BRANCH   7   8
ATOM      8  C   UNL     1      27.752  -4.456 -37.528  1.00  0.00     0.041 C 
ATOM      9  O   UNL     1      28.300  -5.519 -37.924  1.00  0.00    -0.550 OA
ATOM     10  O   UNL     1      26.566  -4.520 -36.807  1.00  0.00    -0.550 OA
ENDBRANCH   7   8
ENDBRANCH   6   7
ENDBRANCH   5   6
ENDBRANCH   4   5
ENDBRANCH   3   4
ENDBRANCH   2   3
ENDBRANCH   1   2
BRANCH   1  11
ATOM     11  C   UNL     1      33.769  -3.065 -36.559  1.00  0.00     0.000 C 
BRANCH  11  12
ATOM     12  C   UNL     1      33.189  -1.656 -36.757  1.00  0.00     0.000 C 
BRANCH  12  13
ATOM     13  C   UNL     1      33.483  -1.084 -38.154  1.00  0.00     0.000 C 
BRANCH  13  14
ATOM     14  C   UNL     1      32.408  -0.087 -38.621  1.00  0.00     0.000 C 
BRANCH  14  15
ATOM     15  C   UNL     1      31.610   0.512 -37.452  1.00  0.00     0.000 C 
BRANCH  15  16
ATOM     16  C   UNL     1      30.092   0.503 -37.702  1.00  0.00     0.006 C 
BRANCH  16  17
ATOM     17  C   UNL     1      29.739   0.923 -39.135  1.00  0.00     0.053 C 
BRANCH  17  18
ATOM     18  C   UNL     1      28.775   2.069 -39.161  1.00  0.00     0.041 C 
ATOM     19  O   UNL     1      28.861   2.987 -38.304  1.00  0.00    -0.550 OA
ATOM     20  O   UNL     1      27.762   2.106 -40.110  1.00  0.00    -0.550 OA
ENDBRANCH  17  18
ENDBRANCH  16  17
ENDBRANCH  15  16
ENDBRANCH  14  15
ENDBRANCH  13  14
ENDBRANCH  12  13
ENDBRANCH  11  12
ENDBRANCH   1  11
TORSDOF 15
ENDMDL
