MODEL 1
REMARK VINA RESULT:    -3.791      0.000      0.000
REMARK INTER + INTRA:          -9.988
REMARK INTER:                  -7.115
REMARK INTRA:                  -2.873
REMARK UNBOUND:                -2.873
REMARK SMILES CCCCCCCCCCCCCC=CC=CC(=O)OC
REMARK SMILES IDX 9 1 8 2 7 3 6 4 5 5 4 6 3 7 2 8 1 9 10 10 11 11 12 12 13 13
REMARK SMILES IDX 14 14 15 15 16 16 17 17 18 18 19 19 20 20 21 21
REMARK H PARENT
REMARK Flexibility Score: inf
ROOT
ATOM      1  C   UNL     1     -11.201 -10.083  92.117  1.00  0.00     0.000 C 
ENDROOT
BRANCH   1   2
ATOM      2  C   UNL     1      -9.989 -10.188  93.063  1.00  0.00     0.000 C 
BRANCH   2   3
ATOM      3  C   UNL     1      -9.388  -8.819  93.421  1.00  0.00     0.000 C 
BRANCH   3   4
ATOM      4  C   UNL     1      -7.875  -8.737  93.139  1.00  0.00    -0.000 C 
BRANCH   4   5
ATOM      5  C   UNL     1      -7.473  -7.803  91.981  1.00  0.00    -0.000 C 
BRANCH   5   6
ATOM      6  C   UNL     1      -8.648  -7.282  91.131  1.00  0.00    -0.000 C 
BRANCH   6   7
ATOM      7  C   UNL     1      -8.805  -8.012  89.777  1.00  0.00    -0.000 C 
BRANCH   7   8
ATOM      8  C   UNL     1      -7.861  -9.216  89.609  1.00  0.00    -0.003 C 
ATOM      9  C   UNL     1      -8.611 -10.514  89.312  1.00  0.00     0.004 C 
ENDBRANCH   7   8
ENDBRANCH   6   7
ENDBRANCH   5   6
ENDBRANCH   4   5
ENDBRANCH   3   4
ENDBRANCH   2   3
ENDBRANCH   1   2
BRANCH   1  10
ATOM     10  C   UNL     1     -12.032  -8.794  92.256  1.00  0.00     0.000 C 
BRANCH  10  11
ATOM     11  C   UNL     1     -13.487  -9.058  92.668  1.00  0.00     0.000 C 
BRANCH  11  12
ATOM     12  C   UNL     1     -13.755 -10.561  92.812  1.00  0.00     0.004 C 
BRANCH  12  13
ATOM     13  C   UNL     1     -14.174 -10.910  94.246  1.00  0.00     0.027 C 
BRANCH  13  14
ATOM     14  C   UNL     1     -13.155 -11.791  94.918  1.00  0.00    -0.027 C 
ATOM     15  C   UNL     1     -12.210 -11.361  95.766  1.00  0.00    -0.004 C 
BRANCH  15  16
ATOM     16  C   UNL     1     -12.003  -9.936  96.113  1.00  0.00     0.007 C 
ATOM     17  C   UNL     1     -12.555  -9.319  97.169  1.00  0.00     0.093 C 
BRANCH  17  18
ATOM     18  C   UNL     1     -13.581  -9.881  98.069  1.00  0.00     0.330 C 
ATOM     19  O   UNL     1     -14.796  -9.917  97.736  1.00  0.00    -0.247 OA
BRANCH  18  20
ATOM     20  O   UNL     1     -13.187 -10.317  99.338  1.00  0.00    -0.466 OA
ATOM     21  C   UNL     1     -13.654 -11.532  99.910  1.00  0.00     0.282 C 
ENDBRANCH  18  20
ENDBRANCH  17  18
ENDBRANCH  15  16
ENDBRANCH  13  14
ENDBRANCH  12  13
ENDBRANCH  11  12
ENDBRANCH  10  11
ENDBRANCH   1  10
TORSDOF 15
ENDMDL
MODEL 2
REMARK VINA RESULT:    -3.767      1.899      4.366
REMARK INTER + INTRA:          -9.944
REMARK INTER:                  -6.889
REMARK INTRA:                  -3.055
REMARK UNBOUND:                -2.873
REMARK SMILES CCCCCCCCCCCCCC=CC=CC(=O)OC
REMARK SMILES IDX 9 1 8 2 7 3 6 4 5 5 4 6 3 7 2 8 1 9 10 10 11 11 12 12 13 13
REMARK SMILES IDX 14 14 15 15 16 16 17 17 18 18 19 19 20 20 21 21
REMARK H PARENT
REMARK Flexibility Score: inf
ROOT
ATOM      1  C   UNL     1      -8.132  -8.739  89.603  1.00  0.00     0.000 C 
ENDROOT
BRANCH   1   2
ATOM      2  C   UNL     1      -7.784 -10.168  89.146  1.00  0.00     0.000 C 
BRANCH   2   3
ATOM      3  C   UNL     1      -8.959 -11.149  89.295  1.00  0.00     0.000 C 
BRANCH   3   4
ATOM      4  C   UNL     1     -10.183 -10.751  88.447  1.00  0.00    -0.000 C 
BRANCH   4   5
ATOM      5  C   UNL     1     -11.438 -10.359  89.250  1.00  0.00    -0.000 C 
BRANCH   5   6
ATOM      6  C   UNL     1     -12.151  -9.085  88.758  1.00  0.00    -0.000 C 
BRANCH   6   7
ATOM      7  C   UNL     1     -11.609  -7.786  89.397  1.00  0.00    -0.000 C 
BRANCH   7   8
ATOM      8  C   UNL     1     -11.260  -6.691  88.373  1.00  0.00    -0.003 C 
ATOM      9  C   UNL     1     -10.166  -5.747  88.873  1.00  0.00     0.004 C 
ENDBRANCH   7   8
ENDBRANCH   6   7
ENDBRANCH   5   6
ENDBRANCH   4   5
ENDBRANCH   3   4
ENDBRANCH   2   3
ENDBRANCH   1   2
BRANCH   1  10
ATOM     10  C   UNL     1      -7.735  -8.397  91.051  1.00  0.00     0.000 C 
BRANCH  10  11
ATOM     11  C   UNL     1      -8.942  -8.277  91.993  1.00  0.00     0.000 C 
BRANCH  11  12
ATOM     12  C   UNL     1      -9.209  -9.602  92.717  1.00  0.00     0.004 C 
BRANCH  12  13
ATOM     13  C   UNL     1     -10.703  -9.952  92.688  1.00  0.00     0.027 C 
BRANCH  13  14
ATOM     14  C   UNL     1     -11.559  -8.732  92.896  1.00  0.00    -0.027 C 
ATOM     15  C   UNL     1     -12.895  -8.704  92.776  1.00  0.00    -0.004 C 
BRANCH  15  16
ATOM     16  C   UNL     1     -13.709  -9.869  92.360  1.00  0.00     0.007 C 
ATOM     17  C   UNL     1     -14.294 -10.732  93.205  1.00  0.00     0.093 C 
BRANCH  17  18
ATOM     18  C   UNL     1     -14.109 -10.781  94.668  1.00  0.00     0.330 C 
ATOM     19  O   UNL     1     -14.725  -9.989  95.433  1.00  0.00    -0.247 OA
BRANCH  18  20
ATOM     20  O   UNL     1     -13.181 -11.684  95.193  1.00  0.00    -0.466 OA
ATOM     21  C   UNL     1     -12.020 -11.267  95.902  1.00  0.00     0.282 C 
ENDBRANCH  18  20
ENDBRANCH  17  18
ENDBRANCH  15  16
ENDBRANCH  13  14
ENDBRANCH  12  13
ENDBRANCH  11  12
ENDBRANCH  10  11
ENDBRANCH   1  10
TORSDOF 15
ENDMDL
MODEL 3
REMARK VINA RESULT:    -3.758      3.672      7.674
REMARK INTER + INTRA:          -9.926
REMARK INTER:                  -8.144
REMARK INTRA:                  -1.782
REMARK UNBOUND:                -2.873
REMARK SMILES CCCCCCCCCCCCCC=CC=CC(=O)OC
REMARK SMILES IDX 9 1 8 2 7 3 6 4 5 5 4 6 3 7 2 8 1 9 10 10 11 11 12 12 13 13
REMARK SMILES IDX 14 14 15 15 16 16 17 17 18 18 19 19 20 20 21 21
REMARK H PARENT
REMARK Flexibility Score: inf
ROOT
ATOM      1  C   UNL     1      -8.578  -8.619  93.096  1.00  0.00     0.000 C 
ENDROOT
BRANCH   1   2
ATOM      2  C   UNL     1      -9.432  -9.891  92.943  1.00  0.00     0.000 C 
BRANCH   2   3
ATOM      3  C   UNL     1     -10.902  -9.677  93.342  1.00  0.00     0.000 C 
BRANCH   3   4
ATOM      4  C   UNL     1     -11.732 -10.975  93.294  1.00  0.00    -0.000 C 
BRANCH   4   5
ATOM      5  C   UNL     1     -11.464 -11.968  94.441  1.00  0.00    -0.000 C 
BRANCH   5   6
ATOM      6  C   UNL     1     -11.561 -11.366  95.856  1.00  0.00    -0.000 C 
BRANCH   6   7
ATOM      7  C   UNL     1     -12.952 -11.534  96.507  1.00  0.00    -0.000 C 
BRANCH   7   8
ATOM      8  C   UNL     1     -13.714 -10.209  96.691  1.00  0.00    -0.003 C 
ATOM      9  C   UNL     1     -14.559  -9.843  95.470  1.00  0.00     0.004 C 
ENDBRANCH   7   8
ENDBRANCH   6   7
ENDBRANCH   5   6
ENDBRANCH   4   5
ENDBRANCH   3   4
ENDBRANCH   2   3
ENDBRANCH   1   2
BRANCH   1  10
ATOM     10  C   UNL     1      -7.513  -8.408  92.004  1.00  0.00     0.000 C 
BRANCH  10  11
ATOM     11  C   UNL     1      -8.028  -7.589  90.812  1.00  0.00     0.000 C 
BRANCH  11  12
ATOM     12  C   UNL     1      -7.871  -8.365  89.500  1.00  0.00     0.004 C 
BRANCH  12  13
ATOM     13  C   UNL     1      -7.505  -9.831  89.768  1.00  0.00     0.027 C 
BRANCH  13  14
ATOM     14  C   UNL     1      -8.132 -10.750  88.754  1.00  0.00    -0.027 C 
ATOM     15  C   UNL     1      -9.436 -11.061  88.706  1.00  0.00    -0.004 C 
BRANCH  15  16
ATOM     16  C   UNL     1     -10.433 -10.583  89.691  1.00  0.00     0.007 C 
ATOM     17  C   UNL     1     -11.743 -10.434  89.440  1.00  0.00     0.093 C 
BRANCH  17  18
ATOM     18  C   UNL     1     -12.398 -10.555  88.123  1.00  0.00     0.330 C 
ATOM     19  O   UNL     1     -12.013  -9.872  87.135  1.00  0.00    -0.247 OA
BRANCH  18  20
ATOM     20  O   UNL     1     -13.506 -11.399  88.005  1.00  0.00    -0.466 OA
ATOM     21  C   UNL     1     -14.795 -11.046  88.494  1.00  0.00     0.282 C 
ENDBRANCH  18  20
ENDBRANCH  17  18
ENDBRANCH  15  16
ENDBRANCH  13  14
ENDBRANCH  12  13
ENDBRANCH  11  12
ENDBRANCH  10  11
ENDBRANCH   1  10
TORSDOF 15
ENDMDL
MODEL 4
REMARK VINA RESULT:    -3.724      3.311      7.383
REMARK INTER + INTRA:          -9.863
REMARK INTER:                  -6.984
REMARK INTRA:                  -2.879
REMARK UNBOUND:                -2.873
REMARK SMILES CCCCCCCCCCCCCC=CC=CC(=O)OC
REMARK SMILES IDX 9 1 8 2 7 3 6 4 5 5 4 6 3 7 2 8 1 9 10 10 11 11 12 12 13 13
REMARK SMILES IDX 14 14 15 15 16 16 17 17 18 18 19 19 20 20 21 21
REMARK H PARENT
REMARK Flexibility Score: inf
ROOT
ATOM      1  C   UNL     1     -13.508 -12.131  94.003  1.00  0.00     0.000 C 
ENDROOT
BRANCH   1   2
ATOM      2  C   UNL     1     -12.124 -11.735  94.552  1.00  0.00     0.000 C 
BRANCH   2   3
ATOM      3  C   UNL     1     -12.120 -11.533  96.077  1.00  0.00     0.000 C 
BRANCH   3   4
ATOM      4  C   UNL     1     -11.802 -10.082  96.489  1.00  0.00    -0.000 C 
BRANCH   4   5
ATOM      5  C   UNL     1     -13.028  -9.166  96.665  1.00  0.00    -0.000 C 
BRANCH   5   6
ATOM      6  C   UNL     1     -14.355  -9.903  96.929  1.00  0.00    -0.000 C 
BRANCH   6   7
ATOM      7  C   UNL     1     -14.939  -9.644  98.336  1.00  0.00    -0.000 C 
BRANCH   7   8
ATOM      8  C   UNL     1     -13.971  -9.988  99.482  1.00  0.00    -0.003 C 
ATOM      9  C   UNL     1     -13.669 -11.484  99.566  1.00  0.00     0.004 C 
ENDBRANCH   7   8
ENDBRANCH   6   7
ENDBRANCH   5   6
ENDBRANCH   4   5
ENDBRANCH   3   4
ENDBRANCH   2   3
ENDBRANCH   1   2
BRANCH   1  10
ATOM     10  C   UNL     1     -14.386 -10.959  93.526  1.00  0.00     0.000 C 
BRANCH  10  11
ATOM     11  C   UNL     1     -13.674 -10.045  92.519  1.00  0.00     0.000 C 
BRANCH  11  12
ATOM     12  C   UNL     1     -13.540  -8.620  93.066  1.00  0.00     0.004 C 
BRANCH  12  13
ATOM     13  C   UNL     1     -12.269  -7.944  92.535  1.00  0.00     0.027 C 
BRANCH  13  14
ATOM     14  C   UNL     1     -11.085  -8.226  93.420  1.00  0.00    -0.027 C 
ATOM     15  C   UNL     1     -10.084  -9.066  93.116  1.00  0.00    -0.004 C 
BRANCH  15  16
ATOM     16  C   UNL     1     -10.042  -9.882  91.880  1.00  0.00     0.007 C 
ATOM     17  C   UNL     1      -9.374  -9.545  90.766  1.00  0.00     0.093 C 
BRANCH  17  18
ATOM     18  C   UNL     1      -8.708  -8.254  90.505  1.00  0.00     0.330 C 
ATOM     19  O   UNL     1      -9.200  -7.415  89.702  1.00  0.00    -0.247 OA
BRANCH  18  20
ATOM     20  O   UNL     1      -7.477  -8.003  91.117  1.00  0.00    -0.466 OA
ATOM     21  C   UNL     1      -7.173  -6.765  91.748  1.00  0.00     0.282 C 
ENDBRANCH  18  20
ENDBRANCH  17  18
ENDBRANCH  15  16
ENDBRANCH  13  14
ENDBRANCH  12  13
ENDBRANCH  11  12
ENDBRANCH  10  11
ENDBRANCH   1  10
TORSDOF 15
ENDMDL
MODEL 5
REMARK VINA RESULT:    -3.641      1.890      3.339
REMARK INTER + INTRA:          -9.706
REMARK INTER:                  -6.956
REMARK INTRA:                  -2.750
REMARK UNBOUND:                -2.873
REMARK SMILES CCCCCCCCCCCCCC=CC=CC(=O)OC
REMARK SMILES IDX 9 1 8 2 7 3 6 4 5 5 4 6 3 7 2 8 1 9 10 10 11 11 12 12 13 13
REMARK SMILES IDX 14 14 15 15 16 16 17 17 18 18 19 19 20 20 21 21
REMARK H PARENT
REMARK Flexibility Score: inf
ROOT
ATOM      1  C   UNL     1     -11.354  -7.647  88.785  1.00  0.00     0.000 C 
ENDROOT
BRANCH   1   2
ATOM      2  C   UNL     1     -10.521  -6.352  88.794  1.00  0.00     0.000 C 
BRANCH   2   3
ATOM      3  C   UNL     1     -10.165  -5.878  90.213  1.00  0.00     0.000 C 
BRANCH   3   4
ATOM      4  C   UNL     1      -8.738  -6.276  90.638  1.00  0.00    -0.000 C 
BRANCH   4   5
ATOM      5  C   UNL     1      -8.645  -7.530  91.528  1.00  0.00    -0.000 C 
BRANCH   5   6
ATOM      6  C   UNL     1      -7.708  -8.633  91.000  1.00  0.00    -0.000 C 
BRANCH   6   7
ATOM      7  C   UNL     1      -7.878  -8.920  89.491  1.00  0.00    -0.000 C 
BRANCH   7   8
ATOM      8  C   UNL     1      -7.942 -10.420  89.149  1.00  0.00    -0.003 C 
ATOM      9  C   UNL     1      -9.366 -10.895  88.858  1.00  0.00     0.004 C 
ENDBRANCH   7   8
ENDBRANCH   6   7
ENDBRANCH   5   6
ENDBRANCH   4   5
ENDBRANCH   3   4
ENDBRANCH   2   3
ENDBRANCH   1   2
BRANCH   1  10
ATOM     10  C   UNL     1     -12.677  -7.583  89.571  1.00  0.00     0.000 C 
BRANCH  10  11
ATOM     11  C   UNL     1     -12.923  -8.828  90.435  1.00  0.00     0.000 C 
BRANCH  11  12
ATOM     12  C   UNL     1     -11.993  -8.846  91.653  1.00  0.00     0.004 C 
BRANCH  12  13
ATOM     13  C   UNL     1     -11.322 -10.217  91.813  1.00  0.00     0.027 C 
BRANCH  13  14
ATOM     14  C   UNL     1     -10.597 -10.326  93.128  1.00  0.00    -0.027 C 
ATOM     15  C   UNL     1     -10.931 -11.165  94.119  1.00  0.00    -0.004 C 
BRANCH  15  16
ATOM     16  C   UNL     1     -12.107 -12.064  94.076  1.00  0.00     0.007 C 
ATOM     17  C   UNL     1     -13.314 -11.767  94.581  1.00  0.00     0.093 C 
BRANCH  17  18
ATOM     18  C   UNL     1     -13.650 -10.587  95.402  1.00  0.00     0.330 C 
ATOM     19  O   UNL     1     -13.749 -10.669  96.656  1.00  0.00    -0.247 OA
BRANCH  18  20
ATOM     20  O   UNL     1     -13.926  -9.380  94.753  1.00  0.00    -0.466 OA
ATOM     21  C   UNL     1     -13.235  -8.174  95.052  1.00  0.00     0.282 C 
ENDBRANCH  18  20
ENDBRANCH  17  18
ENDBRANCH  15  16
ENDBRANCH  13  14
ENDBRANCH  12  13
ENDBRANCH  11  12
ENDBRANCH  10  11
ENDBRANCH   1  10
TORSDOF 15
ENDMDL
MODEL 6
REMARK VINA RESULT:    -3.619      3.756      7.503
REMARK INTER + INTRA:          -9.666
REMARK INTER:                  -6.814
REMARK INTRA:                  -2.851
REMARK UNBOUND:                -2.873
REMARK SMILES CCCCCCCCCCCCCC=CC=CC(=O)OC
REMARK SMILES IDX 9 1 8 2 7 3 6 4 5 5 4 6 3 7 2 8 1 9 10 10 11 11 12 12 13 13
REMARK SMILES IDX 14 14 15 15 16 16 17 17 18 18 19 19 20 20 21 21
REMARK H PARENT
REMARK Flexibility Score: inf
ROOT
ATOM      1  C   UNL     1      -9.526  -7.797  92.445  1.00  0.00     0.000 C 
ENDROOT
BRANCH   1   2
ATOM      2  C   UNL     1     -10.570  -8.607  93.236  1.00  0.00     0.000 C 
BRANCH   2   3
ATOM      3  C   UNL     1     -10.209 -10.097  93.354  1.00  0.00     0.000 C 
BRANCH   3   4
ATOM      4  C   UNL     1     -11.447 -11.015  93.362  1.00  0.00    -0.000 C 
BRANCH   4   5
ATOM      5  C   UNL     1     -11.610 -11.886  94.622  1.00  0.00    -0.000 C 
BRANCH   5   6
ATOM      6  C   UNL     1     -12.882 -11.605  95.444  1.00  0.00    -0.000 C 
BRANCH   6   7
ATOM      7  C   UNL     1     -13.849 -10.606  94.769  1.00  0.00    -0.000 C 
BRANCH   7   8
ATOM      8  C   UNL     1     -14.030  -9.294  95.552  1.00  0.00    -0.003 C 
ATOM      9  C   UNL     1     -12.754  -8.859  96.273  1.00  0.00     0.004 C 
ENDBRANCH   7   8
ENDBRANCH   6   7
ENDBRANCH   5   6
ENDBRANCH   4   5
ENDBRANCH   3   4
ENDBRANCH   2   3
ENDBRANCH   1   2
BRANCH   1  10
ATOM     10  C   UNL     1      -8.358  -8.618  91.867  1.00  0.00     0.000 C 
BRANCH  10  11
ATOM     11  C   UNL     1      -7.817  -8.049  90.548  1.00  0.00     0.000 C 
BRANCH  11  12
ATOM     12  C   UNL     1      -7.818  -9.115  89.446  1.00  0.00     0.004 C 
BRANCH  12  13
ATOM     13  C   UNL     1      -8.554 -10.380  89.906  1.00  0.00     0.027 C 
BRANCH  13  14
ATOM     14  C   UNL     1      -9.481 -10.896  88.838  1.00  0.00    -0.027 C 
ATOM     15  C   UNL     1     -10.798 -10.645  88.780  1.00  0.00    -0.004 C 
BRANCH  15  16
ATOM     16  C   UNL     1     -11.533  -9.868  89.803  1.00  0.00     0.007 C 
ATOM     17  C   UNL     1     -11.910  -8.587  89.664  1.00  0.00     0.093 C 
BRANCH  17  18
ATOM     18  C   UNL     1     -11.530  -7.681  88.563  1.00  0.00     0.330 C 
ATOM     19  O   UNL     1     -12.147  -7.693  87.463  1.00  0.00    -0.247 OA
BRANCH  18  20
ATOM     20  O   UNL     1     -10.422  -6.848  88.738  1.00  0.00    -0.466 OA
ATOM     21  C   UNL     1     -10.510  -5.576  89.370  1.00  0.00     0.282 C 
ENDBRANCH  18  20
ENDBRANCH  17  18
ENDBRANCH  15  16
ENDBRANCH  13  14
ENDBRANCH  12  13
ENDBRANCH  11  12
ENDBRANCH  10  11
ENDBRANCH   1  10
TORSDOF 15
ENDMDL
MODEL 7
REMARK VINA RESULT:    -3.593      3.540      7.558
REMARK INTER + INTRA:          -9.616
REMARK INTER:                  -6.958
REMARK INTRA:                  -2.658
REMARK UNBOUND:                -2.873
REMARK SMILES CCCCCCCCCCCCCC=CC=CC(=O)OC
REMARK SMILES IDX 9 1 8 2 7 3 6 4 5 5 4 6 3 7 2 8 1 9 10 10 11 11 12 12 13 13
REMARK SMILES IDX 14 14 15 15 16 16 17 17 18 18 19 19 20 20 21 21
REMARK H PARENT
REMARK Flexibility Score: inf
ROOT
ATOM      1  C   UNL     1     -10.864  -8.345  94.090  1.00  0.00     0.000 C 
ENDROOT
BRANCH   1   2
ATOM      2  C   UNL     1     -12.012  -8.731  93.139  1.00  0.00     0.000 C 
BRANCH   2   3
ATOM      3  C   UNL     1     -12.446 -10.199  93.287  1.00  0.00     0.000 C 
BRANCH   3   4
ATOM      4  C   UNL     1     -11.274 -11.138  93.637  1.00  0.00    -0.000 C 
BRANCH   4   5
ATOM      5  C   UNL     1     -11.448 -11.947  94.936  1.00  0.00    -0.000 C 
BRANCH   5   6
ATOM      6  C   UNL     1     -12.717 -11.612  95.744  1.00  0.00    -0.000 C 
BRANCH   6   7
ATOM      7  C   UNL     1     -12.456 -10.679  96.948  1.00  0.00    -0.000 C 
BRANCH   7   8
ATOM      8  C   UNL     1     -13.379  -9.448  96.988  1.00  0.00    -0.003 C 
ATOM      9  C   UNL     1     -14.663  -9.649  96.182  1.00  0.00     0.004 C 
ENDBRANCH   7   8
ENDBRANCH   6   7
ENDBRANCH   5   6
ENDBRANCH   4   5
ENDBRANCH   3   4
ENDBRANCH   2   3
ENDBRANCH   1   2
BRANCH   1  10
ATOM     10  C   UNL     1      -9.632  -7.716  93.411  1.00  0.00     0.000 C 
BRANCH  10  11
ATOM     11  C   UNL     1      -8.464  -8.700  93.257  1.00  0.00     0.000 C 
BRANCH  11  12
ATOM     12  C   UNL     1      -7.486  -8.229  92.175  1.00  0.00     0.004 C 
BRANCH  12  13
ATOM     13  C   UNL     1      -8.229  -7.863  90.883  1.00  0.00     0.027 C 
BRANCH  13  14
ATOM     14  C   UNL     1      -7.933  -8.845  89.781  1.00  0.00    -0.027 C 
ATOM     15  C   UNL     1      -8.678  -9.923  89.494  1.00  0.00    -0.004 C 
BRANCH  15  16
ATOM     16  C   UNL     1      -9.873 -10.327  90.270  1.00  0.00     0.007 C 
ATOM     17  C   UNL     1     -11.136 -10.247  89.825  1.00  0.00     0.093 C 
BRANCH  17  18
ATOM     18  C   UNL     1     -11.580  -9.604  88.572  1.00  0.00     0.330 C 
ATOM     19  O   UNL     1     -11.854 -10.286  87.548  1.00  0.00    -0.247 OA
BRANCH  18  20
ATOM     20  O   UNL     1     -11.627  -8.208  88.521  1.00  0.00    -0.466 OA
ATOM     21  C   UNL     1     -12.805  -7.469  88.819  1.00  0.00     0.282 C 
ENDBRANCH  18  20
ENDBRANCH  17  18
ENDBRANCH  15  16
ENDBRANCH  13  14
ENDBRANCH  12  13
ENDBRANCH  11  12
ENDBRANCH  10  11
ENDBRANCH   1  10
TORSDOF 15
ENDMDL
MODEL 8
REMARK VINA RESULT:    -3.574      2.112      3.519
REMARK INTER + INTRA:          -9.581
REMARK INTER:                  -6.586
REMARK INTRA:                  -2.996
REMARK UNBOUND:                -2.873
REMARK SMILES CCCCCCCCCCCCCC=CC=CC(=O)OC
REMARK SMILES IDX 9 1 8 2 7 3 6 4 5 5 4 6 3 7 2 8 1 9 10 10 11 11 12 12 13 13
REMARK SMILES IDX 14 14 15 15 16 16 17 17 18 18 19 19 20 20 21 21
REMARK H PARENT
REMARK Flexibility Score: inf
ROOT
ATOM      1  C   UNL     1      -9.306  -9.807  90.476  1.00  0.00     0.000 C 
ENDROOT
BRANCH   1   2
ATOM      2  C   UNL     1      -8.047  -9.144  89.886  1.00  0.00     0.000 C 
BRANCH   2   3
ATOM      3  C   UNL     1      -7.627  -7.874  90.644  1.00  0.00     0.000 C 
BRANCH   3   4
ATOM      4  C   UNL     1      -8.815  -7.152  91.309  1.00  0.00    -0.000 C 
BRANCH   4   5
ATOM      5  C   UNL     1      -9.083  -5.723  90.801  1.00  0.00    -0.000 C 
BRANCH   5   6
ATOM      6  C   UNL     1     -10.427  -5.535  90.071  1.00  0.00    -0.000 C 
BRANCH   6   7
ATOM      7  C   UNL     1     -10.562  -6.390  88.791  1.00  0.00    -0.000 C 
BRANCH   7   8
ATOM      8  C   UNL     1     -11.977  -6.381  88.186  1.00  0.00    -0.003 C 
ATOM      9  C   UNL     1     -12.212  -7.545  87.223  1.00  0.00     0.004 C 
ENDBRANCH   7   8
ENDBRANCH   6   7
ENDBRANCH   5   6
ENDBRANCH   4   5
ENDBRANCH   3   4
ENDBRANCH   2   3
ENDBRANCH   1   2
BRANCH   1  10
ATOM     10  C   UNL     1     -10.466 -10.014  89.484  1.00  0.00     0.000 C 
BRANCH  10  11
ATOM     11  C   UNL     1     -11.811 -10.271  90.177  1.00  0.00     0.000 C 
BRANCH  11  12
ATOM     12  C   UNL     1     -12.391  -8.975  90.756  1.00  0.00     0.004 C 
BRANCH  12  13
ATOM     13  C   UNL     1     -12.803  -9.164  92.221  1.00  0.00     0.027 C 
BRANCH  13  14
ATOM     14  C   UNL     1     -11.713  -8.723  93.162  1.00  0.00    -0.027 C 
ATOM     15  C   UNL     1     -10.869  -9.549  93.798  1.00  0.00    -0.004 C 
BRANCH  15  16
ATOM     16  C   UNL     1     -10.937 -11.025  93.705  1.00  0.00     0.007 C 
ATOM     17  C   UNL     1     -11.781 -11.797  94.407  1.00  0.00     0.093 C 
BRANCH  17  18
ATOM     18  C   UNL     1     -12.666 -11.350  95.501  1.00  0.00     0.330 C 
ATOM     19  O   UNL     1     -12.326 -11.474  96.710  1.00  0.00    -0.247 OA
BRANCH  18  20
ATOM     20  O   UNL     1     -13.926 -10.843  95.174  1.00  0.00    -0.466 OA
ATOM     21  C   UNL     1     -14.433  -9.633  95.723  1.00  0.00     0.282 C 
ENDBRANCH  18  20
ENDBRANCH  17  18
ENDBRANCH  15  16
ENDBRANCH  13  14
ENDBRANCH  12  13
ENDBRANCH  11  12
ENDBRANCH  10  11
ENDBRANCH   1  10
TORSDOF 15
ENDMDL
MODEL 9
REMARK VINA RESULT:    -3.571      1.403      3.034
REMARK INTER + INTRA:          -9.575
REMARK INTER:                  -6.668
REMARK INTRA:                  -2.907
REMARK UNBOUND:                -2.873
REMARK SMILES CCCCCCCCCCCCCC=CC=CC(=O)OC
REMARK SMILES IDX 9 1 8 2 7 3 6 4 5 5 4 6 3 7 2 8 1 9 10 10 11 11 12 12 13 13
REMARK SMILES IDX 14 14 15 15 16 16 17 17 18 18 19 19 20 20 21 21
REMARK H PARENT
REMARK Flexibility Score: inf
ROOT
ATOM      1  C   UNL     1     -10.389  -9.454  89.804  1.00  0.00     0.000 C 
ENDROOT
BRANCH   1   2
ATOM      2  C   UNL     1      -9.028 -10.120  89.524  1.00  0.00     0.000 C 
BRANCH   2   3
ATOM      3  C   UNL     1      -7.841  -9.163  89.722  1.00  0.00     0.000 C 
BRANCH   3   4
ATOM      4  C   UNL     1      -8.250  -7.824  90.366  1.00  0.00    -0.000 C 
BRANCH   4   5
ATOM      5  C   UNL     1      -7.633  -7.546  91.750  1.00  0.00    -0.000 C 
BRANCH   5   6
ATOM      6  C   UNL     1      -7.672  -8.736  92.728  1.00  0.00    -0.000 C 
BRANCH   6   7
ATOM      7  C   UNL     1      -9.086  -9.053  93.263  1.00  0.00    -0.000 C 
BRANCH   7   8
ATOM      8  C   UNL     1      -9.781  -7.851  93.929  1.00  0.00    -0.003 C 
ATOM      9  C   UNL     1     -10.987  -7.354  93.131  1.00  0.00     0.004 C 
ENDBRANCH   7   8
ENDBRANCH   6   7
ENDBRANCH   5   6
ENDBRANCH   4   5
ENDBRANCH   3   4
ENDBRANCH   2   3
ENDBRANCH   1   2
BRANCH   1  10
ATOM     10  C   UNL     1     -11.357 -10.278  90.673  1.00  0.00     0.000 C 
BRANCH  10  11
ATOM     11  C   UNL     1     -12.787  -9.718  90.676  1.00  0.00     0.000 C 
BRANCH  11  12
ATOM     12  C   UNL     1     -13.461  -9.936  92.036  1.00  0.00     0.004 C 
BRANCH  12  13
ATOM     13  C   UNL     1     -12.529 -10.684  92.998  1.00  0.00     0.027 C 
BRANCH  13  14
ATOM     14  C   UNL     1     -13.308 -11.490  94.003  1.00  0.00    -0.027 C 
ATOM     15  C   UNL     1     -12.914 -11.733  95.262  1.00  0.00    -0.004 C 
BRANCH  15  16
ATOM     16  C   UNL     1     -11.617 -11.283  95.819  1.00  0.00     0.007 C 
ATOM     17  C   UNL     1     -11.462 -10.234  96.641  1.00  0.00     0.093 C 
BRANCH  17  18
ATOM     18  C   UNL     1     -12.501  -9.251  97.007  1.00  0.00     0.330 C 
ATOM     19  O   UNL     1     -13.211  -9.403  98.038  1.00  0.00    -0.247 OA
BRANCH  18  20
ATOM     20  O   UNL     1     -12.731  -8.174  96.147  1.00  0.00    -0.466 OA
ATOM     21  C   UNL     1     -13.907  -8.063  95.355  1.00  0.00     0.282 C 
ENDBRANCH  18  20
ENDBRANCH  17  18
ENDBRANCH  15  16
ENDBRANCH  13  14
ENDBRANCH  12  13
ENDBRANCH  11  12
ENDBRANCH  10  11
ENDBRANCH   1  10
TORSDOF 15
ENDMDL
