MODEL 1
REMARK VINA RESULT:    -4.327      0.000      0.000
REMARK INTER + INTRA:          -6.891
REMARK INTER:                  -6.351
REMARK INTRA:                  -0.540
REMARK UNBOUND:                -0.540
REMARK SMILES O=C([O-])CCCCCCCC(=O)[O-]
REMARK SMILES IDX 7 1 6 2 5 3 4 4 2 5 1 6 3 7 8 8 9 9 10 10 11 11 12 12 13 13
REMARK H PARENT
REMARK Flexibility Score: inf
ROOT
ATOM      1  C   UNL     1      -2.577   8.455  23.478  1.00  0.00     0.000 C 
ENDROOT
BRANCH   1   2
ATOM      2  C   UNL     1      -1.425   8.394  24.497  1.00  0.00     0.000 C 
BRANCH   2   3
ATOM      3  C   UNL     1      -0.555   9.665  24.489  1.00  0.00     0.006 C 
BRANCH   3   4
ATOM      4  C   UNL     1       0.937   9.411  24.221  1.00  0.00     0.053 C 
BRANCH   4   5
ATOM      5  C   UNL     1       1.794   9.816  25.382  1.00  0.00     0.041 C 
ATOM      6  O   UNL     1       1.673  10.961  25.890  1.00  0.00    -0.550 OA
ATOM      7  O   UNL     1       2.750   8.939  25.877  1.00  0.00    -0.550 OA
ENDBRANCH   4   5
ENDBRANCH   3   4
ENDBRANCH   2   3
ENDBRANCH   1   2
BRANCH   1   8
ATOM      8  C   UNL     1      -2.096   8.828  22.065  1.00  0.00     0.000 C 
BRANCH   8   9
ATOM      9  C   UNL     1      -3.046   9.803  21.353  1.00  0.00     0.006 C 
BRANCH   9  10
ATOM     10  C   UNL     1      -4.134  10.302  22.309  1.00  0.00     0.053 C 
BRANCH  10  11
ATOM     11  C   UNL     1      -3.912  11.743  22.649  1.00  0.00     0.041 C 
ATOM     12  O   UNL     1      -4.596  12.639  22.088  1.00  0.00    -0.550 OA
ATOM     13  O   UNL     1      -2.983  12.093  23.620  1.00  0.00    -0.550 OA
ENDBRANCH  10  11
ENDBRANCH   9  10
ENDBRANCH   8   9
ENDBRANCH   1   8
TORSDOF 8
ENDMDL
MODEL 2
REMARK VINA RESULT:    -4.282      2.153      2.632
REMARK INTER + INTRA:          -6.824
REMARK INTER:                  -6.244
REMARK INTRA:                  -0.580
REMARK UNBOUND:                -0.540
REMARK SMILES O=C([O-])CCCCCCCC(=O)[O-]
REMARK SMILES IDX 7 1 6 2 5 3 4 4 2 5 1 6 3 7 8 8 9 9 10 10 11 11 12 12 13 13
REMARK H PARENT
REMARK Flexibility Score: inf
ROOT
ATOM      1  C   UNL     1      -3.245   9.024  24.723  1.00  0.00     0.000 C 
ENDROOT
BRANCH   1   2
ATOM      2  C   UNL     1      -1.776   8.593  24.561  1.00  0.00     0.000 C 
BRANCH   2   3
ATOM      3  C   UNL     1      -0.911   8.954  25.784  1.00  0.00     0.006 C 
BRANCH   3   4
ATOM      4  C   UNL     1      -0.107  10.255  25.631  1.00  0.00     0.053 C 
BRANCH   4   5
ATOM      5  C   UNL     1       1.304   9.998  25.198  1.00  0.00     0.041 C 
ATOM      6  O   UNL     1       1.535   9.349  24.145  1.00  0.00    -0.550 OA
ATOM      7  O   UNL     1       2.363  10.447  25.977  1.00  0.00    -0.550 OA
ENDBRANCH   4   5
ENDBRANCH   3   4
ENDBRANCH   2   3
ENDBRANCH   1   2
BRANCH   1   8
ATOM      8  C   UNL     1      -3.562  10.330  23.976  1.00  0.00     0.000 C 
BRANCH   8   9
ATOM      9  C   UNL     1      -2.584  10.607  22.825  1.00  0.00     0.006 C 
BRANCH   9  10
ATOM     10  C   UNL     1      -3.290  10.496  21.470  1.00  0.00     0.053 C 
BRANCH  10  11
ATOM     11  C   UNL     1      -3.176   9.104  20.932  1.00  0.00     0.041 C 
ATOM     12  O   UNL     1      -2.097   8.465  21.053  1.00  0.00    -0.550 OA
ATOM     13  O   UNL     1      -4.274   8.495  20.340  1.00  0.00    -0.550 OA
ENDBRANCH  10  11
ENDBRANCH   9  10
ENDBRANCH   8   9
ENDBRANCH   1   8
TORSDOF 8
ENDMDL
MODEL 3
REMARK VINA RESULT:    -4.267      1.209      5.462
REMARK INTER + INTRA:          -6.802
REMARK INTER:                  -6.260
REMARK INTRA:                  -0.542
REMARK UNBOUND:                -0.540
REMARK SMILES O=C([O-])CCCCCCCC(=O)[O-]
REMARK SMILES IDX 7 1 6 2 5 3 4 4 2 5 1 6 3 7 8 8 9 9 10 10 11 11 12 12 13 13
REMARK H PARENT
REMARK Flexibility Score: inf
ROOT
ATOM      1  C   UNL     1      -2.323   8.197  23.377  1.00  0.00     0.000 C 
ENDROOT
BRANCH   1   2
ATOM      2  C   UNL     1      -1.990   9.148  22.214  1.00  0.00     0.000 C 
BRANCH   2   3
ATOM      3  C   UNL     1      -3.063   9.134  21.108  1.00  0.00     0.006 C 
BRANCH   3   4
ATOM      4  C   UNL     1      -4.290  10.012  21.404  1.00  0.00     0.053 C 
BRANCH   4   5
ATOM      5  C   UNL     1      -3.909  11.328  22.011  1.00  0.00     0.041 C 
ATOM      6  O   UNL     1      -3.261  12.171  21.338  1.00  0.00    -0.550 OA
ATOM      7  O   UNL     1      -4.239  11.606  23.331  1.00  0.00    -0.550 OA
ENDBRANCH   4   5
ENDBRANCH   3   4
ENDBRANCH   2   3
ENDBRANCH   1   2
BRANCH   1   8
ATOM      8  C   UNL     1      -2.462   8.933  24.720  1.00  0.00     0.000 C 
BRANCH   8   9
ATOM      9  C   UNL     1      -1.184   8.863  25.570  1.00  0.00     0.006 C 
BRANCH   9  10
ATOM     10  C   UNL     1      -0.267  10.055  25.277  1.00  0.00     0.053 C 
BRANCH  10  11
ATOM     11  C   UNL     1       1.079   9.581  24.828  1.00  0.00     0.041 C 
ATOM     12  O   UNL     1       1.260   9.224  23.633  1.00  0.00    -0.550 OA
ATOM     13  O   UNL     1       2.148   9.581  25.714  1.00  0.00    -0.550 OA
ENDBRANCH  10  11
ENDBRANCH   9  10
ENDBRANCH   8   9
ENDBRANCH   1   8
TORSDOF 8
ENDMDL
MODEL 4
REMARK VINA RESULT:    -4.218      2.567      3.535
REMARK INTER + INTRA:          -6.731
REMARK INTER:                  -5.789
REMARK INTRA:                  -0.942
REMARK UNBOUND:                -0.540
REMARK SMILES O=C([O-])CCCCCCCC(=O)[O-]
REMARK SMILES IDX 7 1 6 2 5 3 4 4 2 5 1 6 3 7 8 8 9 9 10 10 11 11 12 12 13 13
REMARK H PARENT
REMARK Flexibility Score: inf
ROOT
ATOM      1  C   UNL     1      -3.656  11.898  22.714  1.00  0.00     0.000 C 
ENDROOT
BRANCH   1   2
ATOM      2  C   UNL     1      -4.328  10.908  23.682  1.00  0.00     0.000 C 
BRANCH   2   3
ATOM      3  C   UNL     1      -3.498  10.665  24.957  1.00  0.00     0.006 C 
BRANCH   3   4
ATOM      4  C   UNL     1      -2.070  11.233  24.902  1.00  0.00     0.053 C 
BRANCH   4   5
ATOM      5  C   UNL     1      -1.089  10.363  25.628  1.00  0.00     0.041 C 
ATOM      6  O   UNL     1      -1.426   9.212  26.009  1.00  0.00    -0.550 OA
ATOM      7  O   UNL     1       0.184  10.839  25.912  1.00  0.00    -0.550 OA
ENDBRANCH   4   5
ENDBRANCH   3   4
ENDBRANCH   2   3
ENDBRANCH   1   2
BRANCH   1   8
ATOM      8  C   UNL     1      -3.243  11.239  21.388  1.00  0.00     0.000 C 
BRANCH   8   9
ATOM      9  C   UNL     1      -3.725   9.785  21.274  1.00  0.00     0.006 C 
BRANCH   9  10
ATOM     10  C   UNL     1      -2.551   8.841  20.994  1.00  0.00     0.053 C 
BRANCH  10  11
ATOM     11  C   UNL     1      -1.886   8.439  22.273  1.00  0.00     0.041 C 
ATOM     12  O   UNL     1      -0.704   8.801  22.513  1.00  0.00    -0.550 OA
ATOM     13  O   UNL     1      -2.588   7.708  23.222  1.00  0.00    -0.550 OA
ENDBRANCH  10  11
ENDBRANCH   9  10
ENDBRANCH   8   9
ENDBRANCH   1   8
TORSDOF 8
ENDMDL
MODEL 5
REMARK VINA RESULT:    -4.176      2.948      4.731
REMARK INTER + INTRA:          -6.668
REMARK INTER:                  -5.931
REMARK INTRA:                  -0.737
REMARK UNBOUND:                -0.540
REMARK SMILES O=C([O-])CCCCCCCC(=O)[O-]
REMARK SMILES IDX 7 1 6 2 5 3 4 4 2 5 1 6 3 7 8 8 9 9 10 10 11 11 12 12 13 13
REMARK H PARENT
REMARK Flexibility Score: inf
ROOT
ATOM      1  C   UNL     1      -4.011  11.945  22.566  1.00  0.00     0.000 C 
ENDROOT
BRANCH   1   2
ATOM      2  C   UNL     1      -3.204  11.262  21.448  1.00  0.00     0.000 C 
BRANCH   2   3
ATOM      3  C   UNL     1      -3.675   9.821  21.169  1.00  0.00     0.006 C 
BRANCH   3   4
ATOM      4  C   UNL     1      -2.537   8.810  20.963  1.00  0.00     0.053 C 
BRANCH   4   5
ATOM      5  C   UNL     1      -1.903   8.403  22.259  1.00  0.00     0.041 C 
ATOM      6  O   UNL     1      -2.559   7.740  23.104  1.00  0.00    -0.550 OA
ATOM      7  O   UNL     1      -0.600   8.788  22.546  1.00  0.00    -0.550 OA
ENDBRANCH   4   5
ENDBRANCH   3   4
ENDBRANCH   2   3
ENDBRANCH   1   2
BRANCH   1   8
ATOM      8  C   UNL     1      -4.270  11.012  23.761  1.00  0.00     0.000 C 
BRANCH   8   9
ATOM      9  C   UNL     1      -3.045  10.865  24.675  1.00  0.00     0.006 C 
BRANCH   9  10
ATOM     10  C   UNL     1      -3.359   9.958  25.868  1.00  0.00     0.053 C 
BRANCH  10  11
ATOM     11  C   UNL     1      -2.095   9.449  26.487  1.00  0.00     0.041 C 
ATOM     12  O   UNL     1      -2.111   8.951  27.644  1.00  0.00    -0.550 OA
ATOM     13  O   UNL     1      -0.907   9.479  25.768  1.00  0.00    -0.550 OA
ENDBRANCH  10  11
ENDBRANCH   9  10
ENDBRANCH   8   9
ENDBRANCH   1   8
TORSDOF 8
ENDMDL
MODEL 6
REMARK VINA RESULT:    -4.172      2.543      5.376
REMARK INTER + INTRA:          -6.663
REMARK INTER:                  -6.348
REMARK INTRA:                  -0.315
REMARK UNBOUND:                -0.540
REMARK SMILES O=C([O-])CCCCCCCC(=O)[O-]
REMARK SMILES IDX 7 1 6 2 5 3 4 4 2 5 1 6 3 7 8 8 9 9 10 10 11 11 12 12 13 13
REMARK H PARENT
REMARK Flexibility Score: inf
ROOT
ATOM      1  C   UNL     1      -0.191   9.197  23.852  1.00  0.00     0.000 C 
ENDROOT
BRANCH   1   2
ATOM      2  C   UNL     1      -1.716   9.070  24.012  1.00  0.00     0.000 C 
BRANCH   2   3
ATOM      3  C   UNL     1      -2.333   8.045  23.042  1.00  0.00     0.006 C 
BRANCH   3   4
ATOM      4  C   UNL     1      -2.079   8.345  21.556  1.00  0.00     0.053 C 
BRANCH   4   5
ATOM      5  C   UNL     1      -3.191   9.141  20.943  1.00  0.00     0.041 C 
ATOM      6  O   UNL     1      -4.131   8.559  20.344  1.00  0.00    -0.550 OA
ATOM      7  O   UNL     1      -3.168  10.528  21.006  1.00  0.00    -0.550 OA
ENDBRANCH   4   5
ENDBRANCH   3   4
ENDBRANCH   2   3
ENDBRANCH   1   2
BRANCH   1   8
ATOM      8  C   UNL     1       0.494   9.728  25.123  1.00  0.00     0.000 C 
BRANCH   8   9
ATOM      9  C   UNL     1      -0.310  10.844  25.807  1.00  0.00     0.006 C 
BRANCH   9  10
ATOM     10  C   UNL     1       0.611  11.979  26.264  1.00  0.00     0.053 C 
BRANCH  10  11
ATOM     11  C   UNL     1      -0.034  13.307  26.023  1.00  0.00     0.041 C 
ATOM     12  O   UNL     1      -1.283  13.435  26.132  1.00  0.00    -0.550 OA
ATOM     13  O   UNL     1       0.747  14.416  25.726  1.00  0.00    -0.550 OA
ENDBRANCH  10  11
ENDBRANCH   9  10
ENDBRANCH   8   9
ENDBRANCH   1   8
TORSDOF 8
ENDMDL
MODEL 7
REMARK VINA RESULT:    -4.154      2.503      5.231
REMARK INTER + INTRA:          -6.637
REMARK INTER:                  -6.123
REMARK INTRA:                  -0.514
REMARK UNBOUND:                -0.540
REMARK SMILES O=C([O-])CCCCCCCC(=O)[O-]
REMARK SMILES IDX 7 1 6 2 5 3 4 4 2 5 1 6 3 7 8 8 9 9 10 10 11 11 12 12 13 13
REMARK H PARENT
REMARK Flexibility Score: inf
ROOT
ATOM      1  C   UNL     1      -0.970   8.870  23.187  1.00  0.00     0.000 C 
ENDROOT
BRANCH   1   2
ATOM      2  C   UNL     1      -1.801   8.644  21.912  1.00  0.00     0.000 C 
BRANCH   2   3
ATOM      3  C   UNL     1      -3.192   9.304  21.983  1.00  0.00     0.006 C 
BRANCH   3   4
ATOM      4  C   UNL     1      -3.265  10.701  21.345  1.00  0.00     0.053 C 
BRANCH   4   5
ATOM      5  C   UNL     1      -3.607  11.761  22.348  1.00  0.00     0.041 C 
ATOM      6  O   UNL     1      -2.933  11.874  23.405  1.00  0.00    -0.550 OA
ATOM      7  O   UNL     1      -4.691  12.600  22.129  1.00  0.00    -0.550 OA
ENDBRANCH   4   5
ENDBRANCH   3   4
ENDBRANCH   2   3
ENDBRANCH   1   2
BRANCH   1   8
ATOM      8  C   UNL     1      -1.807   8.724  24.469  1.00  0.00     0.000 C 
BRANCH   8   9
ATOM      9  C   UNL     1      -1.118   9.335  25.699  1.00  0.00     0.006 C 
BRANCH   9  10
ATOM     10  C   UNL     1      -1.879   8.984  26.982  1.00  0.00     0.053 C 
BRANCH  10  11
ATOM     11  C   UNL     1      -2.485  10.213  27.584  1.00  0.00     0.041 C 
ATOM     12  O   UNL     1      -2.486  10.371  28.834  1.00  0.00    -0.550 OA
ATOM     13  O   UNL     1      -3.003  11.206  26.764  1.00  0.00    -0.550 OA
ENDBRANCH  10  11
ENDBRANCH   9  10
ENDBRANCH   8   9
ENDBRANCH   1   8
TORSDOF 8
ENDMDL
MODEL 8
REMARK VINA RESULT:    -4.134      2.358      3.119
REMARK INTER + INTRA:          -6.608
REMARK INTER:                  -5.852
REMARK INTRA:                  -0.756
REMARK UNBOUND:                -0.540
REMARK SMILES O=C([O-])CCCCCCCC(=O)[O-]
REMARK SMILES IDX 7 1 6 2 5 3 4 4 2 5 1 6 3 7 8 8 9 9 10 10 11 11 12 12 13 13
REMARK H PARENT
REMARK Flexibility Score: inf
ROOT
ATOM      1  C   UNL     1      -2.984   8.894  24.584  1.00  0.00     0.000 C 
ENDROOT
BRANCH   1   2
ATOM      2  C   UNL     1      -1.471   8.851  24.307  1.00  0.00     0.000 C 
BRANCH   2   3
ATOM      3  C   UNL     1      -0.629   9.262  25.530  1.00  0.00     0.006 C 
BRANCH   3   4
ATOM      4  C   UNL     1      -1.295  10.311  26.435  1.00  0.00     0.053 C 
BRANCH   4   5
ATOM      5  C   UNL     1      -0.833  11.702  26.121  1.00  0.00     0.041 C 
ATOM      6  O   UNL     1       0.294  12.099  26.515  1.00  0.00    -0.550 OA
ATOM      7  O   UNL     1      -1.663  12.569  25.422  1.00  0.00    -0.550 OA
ENDBRANCH   4   5
ENDBRANCH   3   4
ENDBRANCH   2   3
ENDBRANCH   1   2
BRANCH   1   8
ATOM      8  C   UNL     1      -3.739   9.800  23.597  1.00  0.00     0.000 C 
BRANCH   8   9
ATOM      9  C   UNL     1      -2.796  10.617  22.701  1.00  0.00     0.006 C 
BRANCH   9  10
ATOM     10  C   UNL     1      -3.186  10.479  21.227  1.00  0.00     0.053 C 
BRANCH  10  11
ATOM     11  C   UNL     1      -3.115   9.048  20.797  1.00  0.00     0.041 C 
ATOM     12  O   UNL     1      -4.133   8.477  20.324  1.00  0.00    -0.550 OA
ATOM     13  O   UNL     1      -1.912   8.358  20.874  1.00  0.00    -0.550 OA
ENDBRANCH  10  11
ENDBRANCH   9  10
ENDBRANCH   8   9
ENDBRANCH   1   8
TORSDOF 8
ENDMDL
MODEL 9
REMARK VINA RESULT:    -2.839      2.068      5.874
REMARK INTER + INTRA:          -4.707
REMARK INTER:                  -4.164
REMARK INTRA:                  -0.543
REMARK UNBOUND:                -0.540
REMARK SMILES O=C([O-])CCCCCCCC(=O)[O-]
REMARK SMILES IDX 7 1 6 2 5 3 4 4 2 5 1 6 3 7 8 8 9 9 10 10 11 11 12 12 13 13
REMARK H PARENT
REMARK Flexibility Score: inf
ROOT
ATOM      1  C   UNL     1      -1.753   8.253  23.735  1.00  0.00     0.000 C 
ENDROOT
BRANCH   1   2
ATOM      2  C   UNL     1      -1.825   9.094  22.448  1.00  0.00     0.000 C 
BRANCH   2   3
ATOM      3  C   UNL     1      -2.631  10.395  22.631  1.00  0.00     0.006 C 
BRANCH   3   4
ATOM      4  C   UNL     1      -3.881  10.497  21.742  1.00  0.00     0.053 C 
BRANCH   4   5
ATOM      5  C   UNL     1      -4.494   9.156  21.475  1.00  0.00     0.041 C 
ATOM      6  O   UNL     1      -5.125   8.556  22.384  1.00  0.00    -0.550 OA
ATOM      7  O   UNL     1      -4.337   8.555  20.233  1.00  0.00    -0.550 OA
ENDBRANCH   4   5
ENDBRANCH   3   4
ENDBRANCH   2   3
ENDBRANCH   1   2
BRANCH   1   8
ATOM      8  C   UNL     1      -2.061   9.078  24.996  1.00  0.00     0.000 C 
BRANCH   8   9
ATOM      9  C   UNL     1      -0.874   9.138  25.969  1.00  0.00     0.006 C 
BRANCH   9  10
ATOM     10  C   UNL     1       0.105  10.246  25.569  1.00  0.00     0.053 C 
BRANCH  10  11
ATOM     11  C   UNL     1       1.384   9.657  25.061  1.00  0.00     0.041 C 
ATOM     12  O   UNL     1       2.340   9.441  25.852  1.00  0.00    -0.550 OA
ATOM     13  O   UNL     1       1.503   9.301  23.724  1.00  0.00    -0.550 OA
ENDBRANCH  10  11
ENDBRANCH   9  10
ENDBRANCH   8   9
ENDBRANCH   1   8
TORSDOF 8
ENDMDL
