MODEL 1
REMARK VINA RESULT:    -2.065      0.000      0.000
REMARK INTER + INTRA:          -2.065
REMARK INTER:                  -2.065
REMARK INTRA:                   0.000
REMARK UNBOUND:                 0.000
REMARK SMILES CC(=O)[O-]
REMARK SMILES IDX 1 1 2 2 3 3 4 4
REMARK H PARENT
REMARK Flexibility Score: inf
ROOT
ATOM      1  C   UNL     1      25.368   2.173  17.407  1.00  0.00     0.063 C 
ATOM      2  C   UNL     1      25.208   0.697  17.545  1.00  0.00     0.038 C 
ATOM      3  O   UNL     1      25.559   0.119  18.606  1.00  0.00    -0.550 OA
ATOM      4  O   UNL     1      24.719  -0.052  16.482  1.00  0.00    -0.550 OA
ENDROOT
TORSDOF 0
ENDMDL
MODEL 2
REMARK VINA RESULT:    -2.049      8.523      9.039
REMARK INTER + INTRA:          -2.049
REMARK INTER:                  -2.049
REMARK INTRA:                   0.000
REMARK UNBOUND:                 0.000
REMARK SMILES CC(=O)[O-]
REMARK SMILES IDX 1 1 2 2 3 3 4 4
REMARK H PARENT
REMARK Flexibility Score: inf
ROOT
ATOM      1  C   UNL     1      29.125   3.214  10.981  1.00  0.00     0.063 C 
ATOM      2  C   UNL     1      28.728   2.845   9.591  1.00  0.00     0.038 C 
ATOM      3  O   UNL     1      28.625   1.634   9.265  1.00  0.00    -0.550 OA
ATOM      4  O   UNL     1      28.522   3.835   8.640  1.00  0.00    -0.550 OA
ENDROOT
TORSDOF 0
ENDMDL
MODEL 3
REMARK VINA RESULT:    -1.992      1.499      1.928
REMARK INTER + INTRA:          -1.992
REMARK INTER:                  -1.992
REMARK INTRA:                   0.000
REMARK UNBOUND:                 0.000
REMARK SMILES CC(=O)[O-]
REMARK SMILES IDX 1 1 2 2 3 3 4 4
REMARK H PARENT
REMARK Flexibility Score: inf
ROOT
ATOM      1  C   UNL     1      25.088   3.370  17.425  1.00  0.00     0.063 C 
ATOM      2  C   UNL     1      24.977   1.963  17.906  1.00  0.00     0.038 C 
ATOM      3  O   UNL     1      25.669   1.057  17.373  1.00  0.00    -0.550 OA
ATOM      4  O   UNL     1      24.071   1.639  18.907  1.00  0.00    -0.550 OA
ENDROOT
TORSDOF 0
ENDMDL
MODEL 4
REMARK VINA RESULT:    -1.988     11.142     11.780
REMARK INTER + INTRA:          -1.988
REMARK INTER:                  -1.988
REMARK INTRA:                   0.000
REMARK UNBOUND:                 0.000
REMARK SMILES CC(=O)[O-]
REMARK SMILES IDX 1 1 2 2 3 3 4 4
REMARK H PARENT
REMARK Flexibility Score: inf
ROOT
ATOM      1  C   UNL     1      25.586   8.764   8.926  1.00  0.00     0.063 C 
ATOM      2  C   UNL     1      26.472   7.767   8.261  1.00  0.00     0.038 C 
ATOM      3  O   UNL     1      26.828   7.936   7.066  1.00  0.00    -0.550 OA
ATOM      4  O   UNL     1      26.865   6.622   8.941  1.00  0.00    -0.550 OA
ENDROOT
TORSDOF 0
ENDMDL
MODEL 5
REMARK VINA RESULT:    -1.918      1.978      2.259
REMARK INTER + INTRA:          -1.918
REMARK INTER:                  -1.918
REMARK INTRA:                   0.000
REMARK UNBOUND:                 0.000
REMARK SMILES CC(=O)[O-]
REMARK SMILES IDX 1 1 2 2 3 3 4 4
REMARK H PARENT
REMARK Flexibility Score: inf
ROOT
ATOM      1  C   UNL     1      24.541  -0.542  16.356  1.00  0.00     0.063 C 
ATOM      2  C   UNL     1      25.087  -0.739  17.729  1.00  0.00     0.038 C 
ATOM      3  O   UNL     1      25.240  -1.902  18.187  1.00  0.00    -0.550 OA
ATOM      4  O   UNL     1      25.379   0.359  18.527  1.00  0.00    -0.550 OA
ENDROOT
TORSDOF 0
ENDMDL
MODEL 6
REMARK VINA RESULT:    -1.898      8.224      8.661
REMARK INTER + INTRA:          -1.898
REMARK INTER:                  -1.898
REMARK INTRA:                   0.000
REMARK UNBOUND:                 0.000
REMARK SMILES CC(=O)[O-]
REMARK SMILES IDX 1 1 2 2 3 3 4 4
REMARK H PARENT
REMARK Flexibility Score: inf
ROOT
ATOM      1  C   UNL     1      27.108   4.173  10.395  1.00  0.00     0.063 C 
ATOM      2  C   UNL     1      28.392   3.506  10.036  1.00  0.00     0.038 C 
ATOM      3  O   UNL     1      29.123   3.017  10.936  1.00  0.00    -0.550 OA
ATOM      4  O   UNL     1      28.811   3.469   8.713  1.00  0.00    -0.550 OA
ENDROOT
TORSDOF 0
ENDMDL
MODEL 7
REMARK VINA RESULT:    -1.898     10.523     10.934
REMARK INTER + INTRA:          -1.898
REMARK INTER:                  -1.898
REMARK INTRA:                   0.000
REMARK UNBOUND:                 0.000
REMARK SMILES CC(=O)[O-]
REMARK SMILES IDX 1 1 2 2 3 3 4 4
REMARK H PARENT
REMARK Flexibility Score: inf
ROOT
ATOM      1  C   UNL     1      26.946   7.921   7.768  1.00  0.00     0.063 C 
ATOM      2  C   UNL     1      26.599   6.760   8.636  1.00  0.00     0.038 C 
ATOM      3  O   UNL     1      27.281   5.703   8.579  1.00  0.00    -0.550 OA
ATOM      4  O   UNL     1      25.492   6.821   9.471  1.00  0.00    -0.550 OA
ENDROOT
TORSDOF 0
ENDMDL
MODEL 8
REMARK VINA RESULT:    -1.882     11.207     11.695
REMARK INTER + INTRA:          -1.882
REMARK INTER:                  -1.882
REMARK INTRA:                   0.000
REMARK UNBOUND:                 0.000
REMARK SMILES CC(=O)[O-]
REMARK SMILES IDX 1 1 2 2 3 3 4 4
REMARK H PARENT
REMARK Flexibility Score: inf
ROOT
ATOM      1  C   UNL     1      26.377   6.487   9.111  1.00  0.00     0.063 C 
ATOM      2  C   UNL     1      26.531   7.839   8.501  1.00  0.00     0.038 C 
ATOM      3  O   UNL     1      25.757   8.773   8.833  1.00  0.00    -0.550 OA
ATOM      4  O   UNL     1      27.496   8.057   7.526  1.00  0.00    -0.550 OA
ENDROOT
TORSDOF 0
ENDMDL
MODEL 9
REMARK VINA RESULT:    -1.850      9.793     10.256
REMARK INTER + INTRA:          -1.850
REMARK INTER:                  -1.850
REMARK INTRA:                   0.000
REMARK UNBOUND:                 0.000
REMARK SMILES CC(=O)[O-]
REMARK SMILES IDX 1 1 2 2 3 3 4 4
REMARK H PARENT
REMARK Flexibility Score: inf
ROOT
ATOM      1  C   UNL     1      28.312   2.322   6.734  1.00  0.00     0.063 C 
ATOM      2  C   UNL     1      28.448   2.673   8.176  1.00  0.00     0.038 C 
ATOM      3  O   UNL     1      28.466   1.765   9.048  1.00  0.00    -0.550 OA
ATOM      4  O   UNL     1      28.501   4.004   8.567  1.00  0.00    -0.550 OA
ENDROOT
TORSDOF 0
ENDMDL
