MODEL 1
REMARK VINA RESULT:    -4.684      0.000      0.000
REMARK INTER + INTRA:          -7.190
REMARK INTER:                  -6.600
REMARK INTRA:                  -0.590
REMARK UNBOUND:                -0.590
REMARK SMILES CCCCCCCCC(=O)[O-]
REMARK SMILES IDX 6 1 7 2 8 3 9 4 10 5 11 6 5 7 4 8 3 9 2 10 1 11
REMARK H PARENT
REMARK Flexibility Score: inf
ROOT
ATOM      1  C   UNL     1      15.991  74.531  71.279  1.00  0.00     0.000 C 
ENDROOT
BRANCH   1   2
ATOM      2  C   UNL     1      15.397  74.427  69.866  1.00  0.00     0.006 C 
BRANCH   2   3
ATOM      3  C   UNL     1      13.876  74.628  69.859  1.00  0.00     0.053 C 
BRANCH   3   4
ATOM      4  C   UNL     1      13.481  75.848  69.086  1.00  0.00     0.041 C 
ATOM      5  O   UNL     1      13.797  76.993  69.502  1.00  0.00    -0.550 OA
ATOM      6  O   UNL     1      12.790  75.718  67.887  1.00  0.00    -0.550 OA
ENDBRANCH   3   4
ENDBRANCH   2   3
ENDBRANCH   1   2
BRANCH   1   7
ATOM      7  C   UNL     1      14.930  74.977  72.291  1.00  0.00     0.000 C 
BRANCH   7   8
ATOM      8  C   UNL     1      15.350  76.272  72.996  1.00  0.00    -0.000 C 
BRANCH   8   9
ATOM      9  C   UNL     1      16.446  76.998  72.208  1.00  0.00    -0.000 C 
BRANCH   9  10
ATOM     10  C   UNL     1      17.628  77.360  73.115  1.00  0.00    -0.003 C 
ATOM     11  C   UNL     1      18.689  76.264  73.100  1.00  0.00     0.004 C 
ENDBRANCH   9  10
ENDBRANCH   8   9
ENDBRANCH   7   8
ENDBRANCH   1   7
TORSDOF 7
ENDMDL
MODEL 2
REMARK VINA RESULT:    -4.662      2.118      2.620
REMARK INTER + INTRA:          -7.160
REMARK INTER:                  -6.830
REMARK INTRA:                  -0.330
REMARK UNBOUND:                -0.590
REMARK SMILES CCCCCCCCC(=O)[O-]
REMARK SMILES IDX 6 1 7 2 8 3 9 4 10 5 11 6 5 7 4 8 3 9 2 10 1 11
REMARK H PARENT
REMARK Flexibility Score: inf
ROOT
ATOM      1  C   UNL     1      13.215  75.478  70.631  1.00  0.00     0.000 C 
ENDROOT
BRANCH   1   2
ATOM      2  C   UNL     1      13.698  74.821  69.329  1.00  0.00     0.006 C 
BRANCH   2   3
ATOM      3  C   UNL     1      14.324  73.442  69.572  1.00  0.00     0.053 C 
BRANCH   3   4
ATOM      4  C   UNL     1      15.190  73.016  68.426  1.00  0.00     0.041 C 
ATOM      5  O   UNL     1      15.398  73.799  67.463  1.00  0.00    -0.550 OA
ATOM      6  O   UNL     1      15.794  71.764  68.438  1.00  0.00    -0.550 OA
ENDBRANCH   3   4
ENDBRANCH   2   3
ENDBRANCH   1   2
BRANCH   1   7
ATOM      7  C   UNL     1      14.335  76.295  71.284  1.00  0.00     0.000 C 
BRANCH   7   8
ATOM      8  C   UNL     1      14.875  75.592  72.534  1.00  0.00    -0.000 C 
BRANCH   8   9
ATOM      9  C   UNL     1      16.401  75.710  72.618  1.00  0.00    -0.000 C 
BRANCH   9  10
ATOM     10  C   UNL     1      16.841  77.178  72.598  1.00  0.00    -0.003 C 
ATOM     11  C   UNL     1      18.203  77.354  73.261  1.00  0.00     0.004 C 
ENDBRANCH   9  10
ENDBRANCH   8   9
ENDBRANCH   7   8
ENDBRANCH   1   7
TORSDOF 7
ENDMDL
MODEL 3
REMARK VINA RESULT:    -4.614      2.572      4.971
REMARK INTER + INTRA:          -7.093
REMARK INTER:                  -6.547
REMARK INTRA:                  -0.546
REMARK UNBOUND:                -0.590
REMARK SMILES CCCCCCCCC(=O)[O-]
REMARK SMILES IDX 6 1 7 2 8 3 9 4 10 5 11 6 5 7 4 8 3 9 2 10 1 11
REMARK H PARENT
REMARK Flexibility Score: inf
ROOT
ATOM      1  C   UNL     1      13.539  76.776  70.372  1.00  0.00     0.000 C 
ENDROOT
BRANCH   1   2
ATOM      2  C   UNL     1      14.984  76.818  70.889  1.00  0.00     0.006 C 
BRANCH   2   3
ATOM      3  C   UNL     1      15.177  75.954  72.143  1.00  0.00     0.053 C 
BRANCH   3   4
ATOM      4  C   UNL     1      16.428  75.135  72.065  1.00  0.00     0.041 C 
ATOM      5  O   UNL     1      16.466  74.101  71.347  1.00  0.00    -0.550 OA
ATOM      6  O   UNL     1      17.564  75.531  72.762  1.00  0.00    -0.550 OA
ENDBRANCH   3   4
ENDBRANCH   2   3
ENDBRANCH   1   2
BRANCH   1   7
ATOM      7  C   UNL     1      13.150  75.359  69.936  1.00  0.00     0.000 C 
BRANCH   7   8
ATOM      8  C   UNL     1      13.463  75.132  68.452  1.00  0.00    -0.000 C 
BRANCH   8   9
ATOM      9  C   UNL     1      14.697  74.239  68.280  1.00  0.00    -0.000 C 
BRANCH   9  10
ATOM     10  C   UNL     1      14.433  72.826  68.812  1.00  0.00    -0.003 C 
ATOM     11  C   UNL     1      15.556  71.871  68.422  1.00  0.00     0.004 C 
ENDBRANCH   9  10
ENDBRANCH   8   9
ENDBRANCH   7   8
ENDBRANCH   1   7
TORSDOF 7
ENDMDL
MODEL 4
REMARK VINA RESULT:    -4.584      2.946      5.046
REMARK INTER + INTRA:          -7.050
REMARK INTER:                  -6.374
REMARK INTRA:                  -0.676
REMARK UNBOUND:                -0.590
REMARK SMILES CCCCCCCCC(=O)[O-]
REMARK SMILES IDX 6 1 7 2 8 3 9 4 10 5 11 6 5 7 4 8 3 9 2 10 1 11
REMARK H PARENT
REMARK Flexibility Score: inf
ROOT
ATOM      1  C   UNL     1      14.814  74.645  71.839  1.00  0.00     0.000 C 
ENDROOT
BRANCH   1   2
ATOM      2  C   UNL     1      15.480  75.467  72.953  1.00  0.00     0.006 C 
BRANCH   2   3
ATOM      3  C   UNL     1      16.267  76.662  72.402  1.00  0.00     0.053 C 
BRANCH   3   4
ATOM      4  C   UNL     1      17.675  76.683  72.912  1.00  0.00     0.041 C 
ATOM      5  O   UNL     1      18.341  75.617  72.980  1.00  0.00    -0.550 OA
ATOM      6  O   UNL     1      18.263  77.886  73.283  1.00  0.00    -0.550 OA
ENDBRANCH   3   4
ENDBRANCH   2   3
ENDBRANCH   1   2
BRANCH   1   7
ATOM      7  C   UNL     1      15.816  74.309  70.728  1.00  0.00     0.000 C 
BRANCH   7   8
ATOM      8  C   UNL     1      15.152  74.373  69.348  1.00  0.00    -0.000 C 
BRANCH   8   9
ATOM      9  C   UNL     1      13.661  74.708  69.469  1.00  0.00    -0.000 C 
BRANCH   9  10
ATOM     10  C   UNL     1      13.322  75.992  68.704  1.00  0.00    -0.003 C 
ATOM     11  C   UNL     1      13.646  77.230  69.533  1.00  0.00     0.004 C 
ENDBRANCH   9  10
ENDBRANCH   8   9
ENDBRANCH   7   8
ENDBRANCH   1   7
TORSDOF 7
ENDMDL
MODEL 5
REMARK VINA RESULT:    -4.581      1.694      2.088
REMARK INTER + INTRA:          -7.046
REMARK INTER:                  -6.698
REMARK INTRA:                  -0.349
REMARK UNBOUND:                -0.590
REMARK SMILES CCCCCCCCC(=O)[O-]
REMARK SMILES IDX 6 1 7 2 8 3 9 4 10 5 11 6 5 7 4 8 3 9 2 10 1 11
REMARK H PARENT
REMARK Flexibility Score: inf
ROOT
ATOM      1  C   UNL     1      14.329  76.479  70.773  1.00  0.00     0.000 C 
ENDROOT
BRANCH   1   2
ATOM      2  C   UNL     1      13.085  75.724  70.281  1.00  0.00     0.006 C 
BRANCH   2   3
ATOM      3  C   UNL     1      13.212  75.289  68.815  1.00  0.00     0.053 C 
BRANCH   3   4
ATOM      4  C   UNL     1      14.222  74.197  68.646  1.00  0.00     0.041 C 
ATOM      5  O   UNL     1      15.051  74.240  67.699  1.00  0.00    -0.550 OA
ATOM      6  O   UNL     1      14.269  73.146  69.554  1.00  0.00    -0.550 OA
ENDBRANCH   3   4
ENDBRANCH   2   3
ENDBRANCH   1   2
BRANCH   1   7
ATOM      7  C   UNL     1      14.795  75.945  72.132  1.00  0.00     0.000 C 
BRANCH   7   8
ATOM      8  C   UNL     1      16.325  75.870  72.200  1.00  0.00    -0.000 C 
BRANCH   8   9
ATOM      9  C   UNL     1      16.919  77.188  72.712  1.00  0.00    -0.000 C 
BRANCH   9  10
ATOM     10  C   UNL     1      18.368  76.997  73.172  1.00  0.00    -0.003 C 
ATOM     11  C   UNL     1      18.730  75.517  73.253  1.00  0.00     0.004 C 
ENDBRANCH   9  10
ENDBRANCH   8   9
ENDBRANCH   7   8
ENDBRANCH   1   7
TORSDOF 7
ENDMDL
MODEL 6
REMARK VINA RESULT:    -4.500      2.461      4.355
REMARK INTER + INTRA:          -6.932
REMARK INTER:                  -6.233
REMARK INTRA:                  -0.699
REMARK UNBOUND:                -0.590
REMARK SMILES CCCCCCCCC(=O)[O-]
REMARK SMILES IDX 6 1 7 2 8 3 9 4 10 5 11 6 5 7 4 8 3 9 2 10 1 11
REMARK H PARENT
REMARK Flexibility Score: inf
ROOT
ATOM      1  C   UNL     1      15.762  73.567  69.851  1.00  0.00     0.000 C 
ENDROOT
BRANCH   1   2
ATOM      2  C   UNL     1      15.301  74.262  71.141  1.00  0.00     0.006 C 
BRANCH   2   3
ATOM      3  C   UNL     1      16.459  74.947  71.877  1.00  0.00     0.053 C 
BRANCH   3   4
ATOM      4  C   UNL     1      16.004  76.171  72.611  1.00  0.00     0.041 C 
ATOM      5  O   UNL     1      16.721  77.206  72.624  1.00  0.00    -0.550 OA
ATOM      6  O   UNL     1      14.772  76.178  73.255  1.00  0.00    -0.550 OA
ENDBRANCH   3   4
ENDBRANCH   2   3
ENDBRANCH   1   2
BRANCH   1   7
ATOM      7  C   UNL     1      14.957  74.059  68.643  1.00  0.00     0.000 C 
BRANCH   7   8
ATOM      8  C   UNL     1      13.535  74.459  69.053  1.00  0.00    -0.000 C 
BRANCH   8   9
ATOM      9  C   UNL     1      13.193  75.868  68.554  1.00  0.00    -0.000 C 
BRANCH   9  10
ATOM     10  C   UNL     1      13.291  76.893  69.689  1.00  0.00    -0.003 C 
ATOM     11  C   UNL     1      14.609  77.658  69.630  1.00  0.00     0.004 C 
ENDBRANCH   9  10
ENDBRANCH   8   9
ENDBRANCH   7   8
ENDBRANCH   1   7
TORSDOF 7
ENDMDL
MODEL 7
REMARK VINA RESULT:    -4.356      1.269      2.131
REMARK INTER + INTRA:          -6.729
REMARK INTER:                  -6.282
REMARK INTRA:                  -0.446
REMARK UNBOUND:                -0.590
REMARK SMILES CCCCCCCCC(=O)[O-]
REMARK SMILES IDX 6 1 7 2 8 3 9 4 10 5 11 6 5 7 4 8 3 9 2 10 1 11
REMARK H PARENT
REMARK Flexibility Score: inf
ROOT
ATOM      1  C   UNL     1      14.352  73.684  69.216  1.00  0.00     0.000 C 
ENDROOT
BRANCH   1   2
ATOM      2  C   UNL     1      14.351  74.915  68.297  1.00  0.00     0.006 C 
BRANCH   2   3
ATOM      3  C   UNL     1      13.142  75.826  68.547  1.00  0.00     0.053 C 
BRANCH   3   4
ATOM      4  C   UNL     1      13.471  76.937  69.495  1.00  0.00     0.041 C 
ATOM      5  O   UNL     1      14.078  77.961  69.086  1.00  0.00    -0.550 OA
ATOM      6  O   UNL     1      13.079  76.855  70.826  1.00  0.00    -0.550 OA
ENDBRANCH   3   4
ENDBRANCH   2   3
ENDBRANCH   1   2
BRANCH   1   7
ATOM      7  C   UNL     1      15.591  73.672  70.118  1.00  0.00     0.000 C 
BRANCH   7   8
ATOM      8  C   UNL     1      15.309  74.372  71.452  1.00  0.00    -0.000 C 
BRANCH   8   9
ATOM      9  C   UNL     1      16.556  75.102  71.965  1.00  0.00    -0.000 C 
BRANCH   9  10
ATOM     10  C   UNL     1      16.209  76.516  72.444  1.00  0.00    -0.003 C 
ATOM     11  C   UNL     1      17.452  77.255  72.929  1.00  0.00     0.004 C 
ENDBRANCH   9  10
ENDBRANCH   8   9
ENDBRANCH   7   8
ENDBRANCH   1   7
TORSDOF 7
ENDMDL
MODEL 8
REMARK VINA RESULT:    -4.138      1.830      4.147
REMARK INTER + INTRA:          -6.421
REMARK INTER:                  -5.925
REMARK INTRA:                  -0.496
REMARK UNBOUND:                -0.590
REMARK SMILES CCCCCCCCC(=O)[O-]
REMARK SMILES IDX 6 1 7 2 8 3 9 4 10 5 11 6 5 7 4 8 3 9 2 10 1 11
REMARK H PARENT
REMARK Flexibility Score: inf
ROOT
ATOM      1  C   UNL     1      15.686  75.753  71.354  1.00  0.00     0.000 C 
ENDROOT
BRANCH   1   2
ATOM      2  C   UNL     1      14.420  76.576  71.630  1.00  0.00     0.006 C 
BRANCH   2   3
ATOM      3  C   UNL     1      13.277  76.224  70.670  1.00  0.00     0.053 C 
BRANCH   3   4
ATOM      4  C   UNL     1      13.461  76.865  69.329  1.00  0.00     0.041 C 
ATOM      5  O   UNL     1      13.171  76.235  68.279  1.00  0.00    -0.550 OA
ATOM      6  O   UNL     1      13.923  78.173  69.241  1.00  0.00    -0.550 OA
ENDBRANCH   3   4
ENDBRANCH   2   3
ENDBRANCH   1   2
BRANCH   1   7
ATOM      7  C   UNL     1      15.362  74.257  71.267  1.00  0.00     0.000 C 
BRANCH   7   8
ATOM      8  C   UNL     1      15.711  73.696  69.883  1.00  0.00    -0.000 C 
BRANCH   8   9
ATOM      9  C   UNL     1      14.497  73.013  69.243  1.00  0.00    -0.000 C 
BRANCH   9  10
ATOM     10  C   UNL     1      14.918  72.150  68.048  1.00  0.00    -0.003 C 
ATOM     11  C   UNL     1      15.940  71.096  68.462  1.00  0.00     0.004 C 
ENDBRANCH   9  10
ENDBRANCH   8   9
ENDBRANCH   7   8
ENDBRANCH   1   7
TORSDOF 7
ENDMDL
MODEL 9
REMARK VINA RESULT:    -3.764     16.020     18.386
REMARK INTER + INTRA:          -5.894
REMARK INTER:                  -5.583
REMARK INTRA:                  -0.312
REMARK UNBOUND:                -0.590
REMARK SMILES CCCCCCCCC(=O)[O-]
REMARK SMILES IDX 6 1 7 2 8 3 9 4 10 5 11 6 5 7 4 8 3 9 2 10 1 11
REMARK H PARENT
REMARK Flexibility Score: inf
ROOT
ATOM      1  C   UNL     1       4.609  85.951  61.928  1.00  0.00     0.000 C 
ENDROOT
BRANCH   1   2
ATOM      2  C   UNL     1       3.823  85.869  63.246  1.00  0.00     0.006 C 
BRANCH   2   3
ATOM      3  C   UNL     1       4.462  84.893  64.243  1.00  0.00     0.053 C 
BRANCH   3   4
ATOM      4  C   UNL     1       3.546  83.754  64.569  1.00  0.00     0.041 C 
ATOM      5  O   UNL     1       2.494  83.956  65.231  1.00  0.00    -0.550 OA
ATOM      6  O   UNL     1       3.838  82.474  64.113  1.00  0.00    -0.550 OA
ENDBRANCH   3   4
ENDBRANCH   2   3
ENDBRANCH   1   2
BRANCH   1   7
ATOM      7  C   UNL     1       4.417  87.316  61.257  1.00  0.00     0.000 C 
BRANCH   7   8
ATOM      8  C   UNL     1       3.344  88.140  61.978  1.00  0.00    -0.000 C 
BRANCH   8   9
ATOM      9  C   UNL     1       3.466  89.628  61.631  1.00  0.00    -0.000 C 
BRANCH   9  10
ATOM     10  C   UNL     1       3.691  89.826  60.128  1.00  0.00    -0.003 C 
ATOM     11  C   UNL     1       4.938  90.665  59.864  1.00  0.00     0.004 C 
ENDBRANCH   9  10
ENDBRANCH   8   9
ENDBRANCH   7   8
ENDBRANCH   1   7
TORSDOF 7
ENDMDL
