MODEL 1
REMARK VINA RESULT:    -4.105      0.000      0.000
REMARK INTER + INTRA:          -7.856
REMARK INTER:                  -6.986
REMARK INTRA:                  -0.870
REMARK UNBOUND:                -0.870
REMARK SMILES CCCCCCCCCCCCCC(=O)[O-]
REMARK SMILES IDX 8 1 9 2 10 3 11 4 12 5 13 6 14 7 15 8 16 9 7 10 6 11 5 12
REMARK SMILES IDX 4 13 3 14 2 15 1 16
REMARK H PARENT
REMARK Flexibility Score: inf
ROOT
ATOM      1  C   UNL     1      -3.777   7.547  -7.180  1.00  0.00     0.000 C 
ENDROOT
BRANCH   1   2
ATOM      2  C   UNL     1      -4.802   8.434  -7.896  1.00  0.00     0.000 C 
BRANCH   2   3
ATOM      3  C   UNL     1      -6.113   8.511  -7.099  1.00  0.00     0.000 C 
BRANCH   3   4
ATOM      4  C   UNL     1      -7.339   8.783  -7.984  1.00  0.00     0.000 C 
BRANCH   4   5
ATOM      5  C   UNL     1      -7.968   7.537  -8.638  1.00  0.00     0.006 C 
BRANCH   5   6
ATOM      6  C   UNL     1      -7.955   6.283  -7.743  1.00  0.00     0.053 C 
BRANCH   6   7
ATOM      7  C   UNL     1      -7.349   5.093  -8.426  1.00  0.00     0.041 C 
ATOM      8  O   UNL     1      -6.137   4.807  -8.247  1.00  0.00    -0.550 OA
ATOM      9  O   UNL     1      -8.115   4.325  -9.295  1.00  0.00    -0.550 OA
ENDBRANCH   6   7
ENDBRANCH   5   6
ENDBRANCH   4   5
ENDBRANCH   3   4
ENDBRANCH   2   3
ENDBRANCH   1   2
BRANCH   1  10
ATOM     10  C   UNL     1      -4.432   6.760  -6.038  1.00  0.00     0.000 C 
BRANCH  10  11
ATOM     11  C   UNL     1      -3.712   5.426  -5.804  1.00  0.00    -0.000 C 
BRANCH  11  12
ATOM     12  C   UNL     1      -3.324   5.263  -4.327  1.00  0.00    -0.000 C 
BRANCH  12  13
ATOM     13  C   UNL     1      -2.341   4.103  -4.097  1.00  0.00    -0.000 C 
BRANCH  13  14
ATOM     14  C   UNL     1      -2.805   3.146  -2.990  1.00  0.00    -0.000 C 
BRANCH  14  15
ATOM     15  C   UNL     1      -1.616   2.378  -2.398  1.00  0.00    -0.003 C 
ATOM     16  C   UNL     1      -0.786   3.268  -1.478  1.00  0.00     0.004 C 
ENDBRANCH  14  15
ENDBRANCH  13  14
ENDBRANCH  12  13
ENDBRANCH  11  12
ENDBRANCH  10  11
ENDBRANCH   1  10
TORSDOF 12
ENDMDL
MODEL 2
REMARK VINA RESULT:    -4.052      3.222      7.048
REMARK INTER + INTRA:          -7.766
REMARK INTER:                  -6.570
REMARK INTRA:                  -1.196
REMARK UNBOUND:                -0.870
REMARK SMILES CCCCCCCCCCCCCC(=O)[O-]
REMARK SMILES IDX 8 1 9 2 10 3 11 4 12 5 13 6 14 7 15 8 16 9 7 10 6 11 5 12
REMARK SMILES IDX 4 13 3 14 2 15 1 16
REMARK H PARENT
REMARK Flexibility Score: inf
ROOT
ATOM      1  C   UNL     1      -3.463   7.525  -7.668  1.00  0.00     0.000 C 
ENDROOT
BRANCH   1   2
ATOM      2  C   UNL     1      -4.027   7.163  -6.288  1.00  0.00     0.000 C 
BRANCH   2   3
ATOM      3  C   UNL     1      -3.836   5.669  -5.993  1.00  0.00     0.000 C 
BRANCH   3   4
ATOM      4  C   UNL     1      -3.436   5.391  -4.535  1.00  0.00     0.000 C 
BRANCH   4   5
ATOM      5  C   UNL     1      -2.480   4.199  -4.331  1.00  0.00     0.006 C 
BRANCH   5   6
ATOM      6  C   UNL     1      -2.778   3.363  -3.072  1.00  0.00     0.053 C 
BRANCH   6   7
ATOM      7  C   UNL     1      -1.550   2.713  -2.507  1.00  0.00     0.041 C 
ATOM      8  O   UNL     1      -1.145   1.613  -2.967  1.00  0.00    -0.550 OA
ATOM      9  O   UNL     1      -0.877   3.302  -1.443  1.00  0.00    -0.550 OA
ENDBRANCH   6   7
ENDBRANCH   5   6
ENDBRANCH   4   5
ENDBRANCH   3   4
ENDBRANCH   2   3
ENDBRANCH   1   2
BRANCH   1  10
ATOM     10  C   UNL     1      -3.918   8.925  -8.098  1.00  0.00     0.000 C 
BRANCH  10  11
ATOM     11  C   UNL     1      -5.044   8.843  -9.137  1.00  0.00    -0.000 C 
BRANCH  11  12
ATOM     12  C   UNL     1      -6.272   9.644  -8.679  1.00  0.00    -0.000 C 
BRANCH  12  13
ATOM     13  C   UNL     1      -7.108   8.896  -7.627  1.00  0.00    -0.000 C 
BRANCH  13  14
ATOM     14  C   UNL     1      -7.747   7.615  -8.182  1.00  0.00    -0.000 C 
BRANCH  14  15
ATOM     15  C   UNL     1      -7.444   6.415  -7.276  1.00  0.00    -0.003 C 
ATOM     16  C   UNL     1      -6.766   5.291  -8.055  1.00  0.00     0.004 C 
ENDBRANCH  14  15
ENDBRANCH  13  14
ENDBRANCH  12  13
ENDBRANCH  11  12
ENDBRANCH  10  11
ENDBRANCH   1  10
TORSDOF 12
ENDMDL
MODEL 3
REMARK VINA RESULT:    -4.009      1.126      1.785
REMARK INTER + INTRA:          -7.692
REMARK INTER:                  -6.897
REMARK INTRA:                  -0.795
REMARK UNBOUND:                -0.870
REMARK SMILES CCCCCCCCCCCCCC(=O)[O-]
REMARK SMILES IDX 8 1 9 2 10 3 11 4 12 5 13 6 14 7 15 8 16 9 7 10 6 11 5 12
REMARK SMILES IDX 4 13 3 14 2 15 1 16
REMARK H PARENT
REMARK Flexibility Score: inf
ROOT
ATOM      1  C   UNL     1      -4.276   7.088  -6.188  1.00  0.00     0.000 C 
ENDROOT
BRANCH   1   2
ATOM      2  C   UNL     1      -3.669   7.710  -7.451  1.00  0.00     0.000 C 
BRANCH   2   3
ATOM      3  C   UNL     1      -4.748   8.411  -8.290  1.00  0.00     0.000 C 
BRANCH   3   4
ATOM      4  C   UNL     1      -5.200   7.580  -9.502  1.00  0.00     0.000 C 
BRANCH   4   5
ATOM      5  C   UNL     1      -6.700   7.228  -9.536  1.00  0.00     0.006 C 
BRANCH   5   6
ATOM      6  C   UNL     1      -7.333   7.041  -8.144  1.00  0.00     0.053 C 
BRANCH   6   7
ATOM      7  C   UNL     1      -7.412   5.600  -7.736  1.00  0.00     0.041 C 
ATOM      8  O   UNL     1      -8.387   5.186  -7.055  1.00  0.00    -0.550 OA
ATOM      9  O   UNL     1      -6.387   4.724  -8.070  1.00  0.00    -0.550 OA
ENDBRANCH   6   7
ENDBRANCH   5   6
ENDBRANCH   4   5
ENDBRANCH   3   4
ENDBRANCH   2   3
ENDBRANCH   1   2
BRANCH   1  10
ATOM     10  C   UNL     1      -3.747   5.665  -5.967  1.00  0.00     0.000 C 
BRANCH  10  11
ATOM     11  C   UNL     1      -3.411   5.426  -4.490  1.00  0.00    -0.000 C 
BRANCH  11  12
ATOM     12  C   UNL     1      -2.609   4.129  -4.313  1.00  0.00    -0.000 C 
BRANCH  12  13
ATOM     13  C   UNL     1      -2.989   3.367  -3.032  1.00  0.00    -0.000 C 
BRANCH  13  14
ATOM     14  C   UNL     1      -1.763   2.842  -2.271  1.00  0.00    -0.000 C 
BRANCH  14  15
ATOM     15  C   UNL     1      -0.694   2.327  -3.243  1.00  0.00    -0.003 C 
ATOM     16  C   UNL     1      -0.736   0.806  -3.357  1.00  0.00     0.004 C 
ENDBRANCH  14  15
ENDBRANCH  13  14
ENDBRANCH  12  13
ENDBRANCH  11  12
ENDBRANCH  10  11
ENDBRANCH   1  10
TORSDOF 12
ENDMDL
MODEL 4
REMARK VINA RESULT:    -3.987      2.973      6.427
REMARK INTER + INTRA:          -7.655
REMARK INTER:                  -5.824
REMARK INTRA:                  -1.831
REMARK UNBOUND:                -0.870
REMARK SMILES CCCCCCCCCCCCCC(=O)[O-]
REMARK SMILES IDX 8 1 9 2 10 3 11 4 12 5 13 6 14 7 15 8 16 9 7 10 6 11 5 12
REMARK SMILES IDX 4 13 3 14 2 15 1 16
REMARK H PARENT
REMARK Flexibility Score: inf
ROOT
ATOM      1  C   UNL     1      -7.082   9.491  -8.049  1.00  0.00     0.000 C 
ENDROOT
BRANCH   1   2
ATOM      2  C   UNL     1      -6.048   9.420  -9.179  1.00  0.00     0.000 C 
BRANCH   2   3
ATOM      3  C   UNL     1      -5.216   8.133  -9.081  1.00  0.00     0.000 C 
BRANCH   3   4
ATOM      4  C   UNL     1      -3.752   8.392  -8.689  1.00  0.00     0.000 C 
BRANCH   4   5
ATOM      5  C   UNL     1      -3.397   8.065  -7.225  1.00  0.00     0.006 C 
BRANCH   5   6
ATOM      6  C   UNL     1      -4.500   7.305  -6.465  1.00  0.00     0.053 C 
BRANCH   6   7
ATOM      7  C   UNL     1      -4.014   6.009  -5.888  1.00  0.00     0.041 C 
ATOM      8  O   UNL     1      -4.102   4.945  -6.554  1.00  0.00    -0.550 OA
ATOM      9  O   UNL     1      -3.504   5.969  -4.596  1.00  0.00    -0.550 OA
ENDBRANCH   6   7
ENDBRANCH   5   6
ENDBRANCH   4   5
ENDBRANCH   3   4
ENDBRANCH   2   3
ENDBRANCH   1   2
BRANCH   1  10
ATOM     10  C   UNL     1      -8.503   9.622  -8.611  1.00  0.00     0.000 C 
BRANCH  10  11
ATOM     11  C   UNL     1      -8.622   8.931  -9.975  1.00  0.00    -0.000 C 
BRANCH  11  12
ATOM     12  C   UNL     1      -9.836   7.991 -10.011  1.00  0.00    -0.000 C 
BRANCH  12  13
ATOM     13  C   UNL     1      -9.531   6.607  -9.416  1.00  0.00    -0.000 C 
BRANCH  13  14
ATOM     14  C   UNL     1      -8.191   6.036  -9.903  1.00  0.00    -0.000 C 
BRANCH  14  15
ATOM     15  C   UNL     1      -7.450   5.328  -8.762  1.00  0.00    -0.003 C 
ATOM     16  C   UNL     1      -7.812   5.933  -7.409  1.00  0.00     0.004 C 
ENDBRANCH  14  15
ENDBRANCH  13  14
ENDBRANCH  12  13
ENDBRANCH  11  12
ENDBRANCH  10  11
ENDBRANCH   1  10
TORSDOF 12
ENDMDL
MODEL 5
REMARK VINA RESULT:    -3.754      3.474      6.031
REMARK INTER + INTRA:          -7.257
REMARK INTER:                  -6.204
REMARK INTRA:                  -1.053
REMARK UNBOUND:                -0.870
REMARK SMILES CCCCCCCCCCCCCC(=O)[O-]
REMARK SMILES IDX 8 1 9 2 10 3 11 4 12 5 13 6 14 7 15 8 16 9 7 10 6 11 5 12
REMARK SMILES IDX 4 13 3 14 2 15 1 16
REMARK H PARENT
REMARK Flexibility Score: inf
ROOT
ATOM      1  C   UNL     1      -7.673   8.377  -8.233  1.00  0.00     0.000 C 
ENDROOT
BRANCH   1   2
ATOM      2  C   UNL     1      -6.466   9.297  -8.452  1.00  0.00     0.000 C 
BRANCH   2   3
ATOM      3  C   UNL     1      -5.577   8.773  -9.590  1.00  0.00     0.000 C 
BRANCH   3   4
ATOM      4  C   UNL     1      -4.086   8.740  -9.220  1.00  0.00     0.000 C 
BRANCH   4   5
ATOM      5  C   UNL     1      -3.784   8.583  -7.716  1.00  0.00     0.006 C 
BRANCH   5   6
ATOM      6  C   UNL     1      -3.783   7.123  -7.225  1.00  0.00     0.053 C 
BRANCH   6   7
ATOM      7  C   UNL     1      -4.363   6.977  -5.850  1.00  0.00     0.041 C 
ATOM      8  O   UNL     1      -5.442   7.552  -5.552  1.00  0.00    -0.550 OA
ATOM      9  O   UNL     1      -3.689   6.239  -4.884  1.00  0.00    -0.550 OA
ENDBRANCH   6   7
ENDBRANCH   5   6
ENDBRANCH   4   5
ENDBRANCH   3   4
ENDBRANCH   2   3
ENDBRANCH   1   2
BRANCH   1  10
ATOM     10  C   UNL     1      -7.615   7.161  -9.165  1.00  0.00     0.000 C 
BRANCH  10  11
ATOM     11  C   UNL     1      -8.996   6.856  -9.759  1.00  0.00    -0.000 C 
BRANCH  11  12
ATOM     12  C   UNL     1      -9.769   5.869  -8.872  1.00  0.00    -0.000 C 
BRANCH  12  13
ATOM     13  C   UNL     1      -8.855   4.821  -8.216  1.00  0.00    -0.000 C 
BRANCH  13  14
ATOM     14  C   UNL     1      -9.060   4.725  -6.697  1.00  0.00    -0.000 C 
BRANCH  14  15
ATOM     15  C   UNL     1     -10.125   3.676  -6.353  1.00  0.00    -0.003 C 
ATOM     16  C   UNL     1      -9.821   2.997  -5.020  1.00  0.00     0.004 C 
ENDBRANCH  14  15
ENDBRANCH  13  14
ENDBRANCH  12  13
ENDBRANCH  11  12
ENDBRANCH  10  11
ENDBRANCH   1  10
TORSDOF 12
ENDMDL
MODEL 6
REMARK VINA RESULT:    -3.709      2.076      3.977
REMARK INTER + INTRA:          -7.181
REMARK INTER:                  -6.297
REMARK INTRA:                  -0.884
REMARK UNBOUND:                -0.870
REMARK SMILES CCCCCCCCCCCCCC(=O)[O-]
REMARK SMILES IDX 8 1 9 2 10 3 11 4 12 5 13 6 14 7 15 8 16 9 7 10 6 11 5 12
REMARK SMILES IDX 4 13 3 14 2 15 1 16
REMARK H PARENT
REMARK Flexibility Score: inf
ROOT
ATOM      1  C   UNL     1      -6.624   9.963  -7.974  1.00  0.00     0.000 C 
ENDROOT
BRANCH   1   2
ATOM      2  C   UNL     1      -8.019   9.386  -8.246  1.00  0.00     0.000 C 
BRANCH   2   3
ATOM      3  C   UNL     1      -7.938   8.181  -9.195  1.00  0.00     0.000 C 
BRANCH   3   4
ATOM      4  C   UNL     1      -9.316   7.706  -9.681  1.00  0.00     0.000 C 
BRANCH   4   5
ATOM      5  C   UNL     1      -9.613   6.210  -9.457  1.00  0.00     0.006 C 
BRANCH   5   6
ATOM      6  C   UNL     1      -8.378   5.298  -9.582  1.00  0.00     0.053 C 
BRANCH   6   7
ATOM      7  C   UNL     1      -7.791   4.937  -8.251  1.00  0.00     0.041 C 
ATOM      8  O   UNL     1      -8.483   5.034  -7.204  1.00  0.00    -0.550 OA
ATOM      9  O   UNL     1      -6.464   4.533  -8.162  1.00  0.00    -0.550 OA
ENDBRANCH   6   7
ENDBRANCH   5   6
ENDBRANCH   4   5
ENDBRANCH   3   4
ENDBRANCH   2   3
ENDBRANCH   1   2
BRANCH   1  10
ATOM     10  C   UNL     1      -5.804  10.054  -9.266  1.00  0.00     0.000 C 
BRANCH  10  11
ATOM     11  C   UNL     1      -4.338   9.681  -9.015  1.00  0.00    -0.000 C 
BRANCH  11  12
ATOM     12  C   UNL     1      -4.199   8.184  -8.699  1.00  0.00    -0.000 C 
BRANCH  12  13
ATOM     13  C   UNL     1      -3.658   7.926  -7.283  1.00  0.00    -0.000 C 
BRANCH  13  14
ATOM     14  C   UNL     1      -4.597   7.049  -6.443  1.00  0.00    -0.000 C 
BRANCH  14  15
ATOM     15  C   UNL     1      -3.957   5.686  -6.150  1.00  0.00    -0.003 C 
ATOM     16  C   UNL     1      -3.427   5.620  -4.720  1.00  0.00     0.004 C 
ENDBRANCH  14  15
ENDBRANCH  13  14
ENDBRANCH  12  13
ENDBRANCH  11  12
ENDBRANCH  10  11
ENDBRANCH   1  10
TORSDOF 12
ENDMDL
MODEL 7
REMARK VINA RESULT:    -3.703      3.355      7.253
REMARK INTER + INTRA:          -7.171
REMARK INTER:                  -5.951
REMARK INTRA:                  -1.220
REMARK UNBOUND:                -0.870
REMARK SMILES CCCCCCCCCCCCCC(=O)[O-]
REMARK SMILES IDX 8 1 9 2 10 3 11 4 12 5 13 6 14 7 15 8 16 9 7 10 6 11 5 12
REMARK SMILES IDX 4 13 3 14 2 15 1 16
REMARK H PARENT
REMARK Flexibility Score: inf
ROOT
ATOM      1  C   UNL     1      -5.171   5.270  -7.097  1.00  0.00     0.000 C 
ENDROOT
BRANCH   1   2
ATOM      2  C   UNL     1      -4.836   6.586  -6.386  1.00  0.00     0.000 C 
BRANCH   2   3
ATOM      3  C   UNL     1      -3.650   6.406  -5.427  1.00  0.00     0.000 C 
BRANCH   3   4
ATOM      4  C   UNL     1      -3.343   4.930  -5.124  1.00  0.00     0.000 C 
BRANCH   4   5
ATOM      5  C   UNL     1      -2.772   4.653  -3.719  1.00  0.00     0.006 C 
BRANCH   5   6
ATOM      6  C   UNL     1      -2.833   3.173  -3.297  1.00  0.00     0.053 C 
BRANCH   6   7
ATOM      7  C   UNL     1      -1.569   2.709  -2.637  1.00  0.00     0.041 C 
ATOM      8  O   UNL     1      -1.009   1.646  -3.013  1.00  0.00    -0.550 OA
ATOM      9  O   UNL     1      -1.032   3.429  -1.576  1.00  0.00    -0.550 OA
ENDBRANCH   6   7
ENDBRANCH   5   6
ENDBRANCH   4   5
ENDBRANCH   3   4
ENDBRANCH   2   3
ENDBRANCH   1   2
BRANCH   1  10
ATOM     10  C   UNL     1      -6.420   5.420  -7.975  1.00  0.00     0.000 C 
BRANCH  10  11
ATOM     11  C   UNL     1      -7.323   6.546  -7.459  1.00  0.00    -0.000 C 
BRANCH  11  12
ATOM     12  C   UNL     1      -7.701   7.510  -8.593  1.00  0.00    -0.000 C 
BRANCH  12  13
ATOM     13  C   UNL     1      -6.807   7.345  -9.833  1.00  0.00    -0.000 C 
BRANCH  13  14
ATOM     14  C   UNL     1      -5.897   8.559 -10.071  1.00  0.00    -0.000 C 
BRANCH  14  15
ATOM     15  C   UNL     1      -4.451   8.247  -9.668  1.00  0.00    -0.003 C 
ATOM     16  C   UNL     1      -3.914   9.286  -8.687  1.00  0.00     0.004 C 
ENDBRANCH  14  15
ENDBRANCH  13  14
ENDBRANCH  12  13
ENDBRANCH  11  12
ENDBRANCH  10  11
ENDBRANCH   1  10
TORSDOF 12
ENDMDL
MODEL 8
REMARK VINA RESULT:    -3.545      3.187      5.871
REMARK INTER + INTRA:          -6.903
REMARK INTER:                  -5.163
REMARK INTRA:                  -1.739
REMARK UNBOUND:                -0.870
REMARK SMILES CCCCCCCCCCCCCC(=O)[O-]
REMARK SMILES IDX 8 1 9 2 10 3 11 4 12 5 13 6 14 7 15 8 16 9 7 10 6 11 5 12
REMARK SMILES IDX 4 13 3 14 2 15 1 16
REMARK H PARENT
REMARK Flexibility Score: inf
ROOT
ATOM      1  C   UNL     1      -4.186   6.614  -6.190  1.00  0.00     0.000 C 
ENDROOT
BRANCH   1   2
ATOM      2  C   UNL     1      -5.670   6.638  -6.578  1.00  0.00     0.000 C 
BRANCH   2   3
ATOM      3  C   UNL     1      -6.014   5.461  -7.502  1.00  0.00     0.000 C 
BRANCH   3   4
ATOM      4  C   UNL     1      -6.428   5.908  -8.914  1.00  0.00     0.000 C 
BRANCH   4   5
ATOM      5  C   UNL     1      -7.879   5.573  -9.311  1.00  0.00     0.006 C 
BRANCH   5   6
ATOM      6  C   UNL     1      -8.912   5.836  -8.198  1.00  0.00     0.053 C 
BRANCH   6   7
ATOM      7  C   UNL     1      -9.583   4.581  -7.726  1.00  0.00     0.041 C 
ATOM      8  O   UNL     1      -9.716   4.356  -6.494  1.00  0.00    -0.550 OA
ATOM      9  O   UNL     1     -10.023   3.637  -8.646  1.00  0.00    -0.550 OA
ENDBRANCH   6   7
ENDBRANCH   5   6
ENDBRANCH   4   5
ENDBRANCH   3   4
ENDBRANCH   2   3
ENDBRANCH   1   2
BRANCH   1  10
ATOM     10  C   UNL     1      -3.332   7.340  -7.237  1.00  0.00     0.000 C 
BRANCH  10  11
ATOM     11  C   UNL     1      -3.973   8.672  -7.643  1.00  0.00    -0.000 C 
BRANCH  11  12
ATOM     12  C   UNL     1      -4.126   8.765  -9.169  1.00  0.00    -0.000 C 
BRANCH  12  13
ATOM     13  C   UNL     1      -5.113   9.863  -9.600  1.00  0.00    -0.000 C 
BRANCH  13  14
ATOM     14  C   UNL     1      -6.439   9.293 -10.125  1.00  0.00    -0.000 C 
BRANCH  14  15
ATOM     15  C   UNL     1      -7.628   9.869  -9.347  1.00  0.00    -0.003 C 
ATOM     16  C   UNL     1      -7.581   9.455  -7.879  1.00  0.00     0.004 C 
ENDBRANCH  14  15
ENDBRANCH  13  14
ENDBRANCH  12  13
ENDBRANCH  11  12
ENDBRANCH  10  11
ENDBRANCH   1  10
TORSDOF 12
ENDMDL
MODEL 9
REMARK VINA RESULT:    -3.497      3.430      4.412
REMARK INTER + INTRA:          -6.821
REMARK INTER:                  -5.057
REMARK INTRA:                  -1.764
REMARK UNBOUND:                -0.870
REMARK SMILES CCCCCCCCCCCCCC(=O)[O-]
REMARK SMILES IDX 8 1 9 2 10 3 11 4 12 5 13 6 14 7 15 8 16 9 7 10 6 11 5 12
REMARK SMILES IDX 4 13 3 14 2 15 1 16
REMARK H PARENT
REMARK Flexibility Score: inf
ROOT
ATOM      1  C   UNL     1      -5.703   8.581 -10.125  1.00  0.00     0.000 C 
ENDROOT
BRANCH   1   2
ATOM      2  C   UNL     1      -6.734   9.675  -9.821  1.00  0.00     0.000 C 
BRANCH   2   3
ATOM      3  C   UNL     1      -7.965   9.088  -9.116  1.00  0.00     0.000 C 
BRANCH   3   4
ATOM      4  C   UNL     1      -8.964   8.441 -10.089  1.00  0.00     0.000 C 
BRANCH   4   5
ATOM      5  C   UNL     1      -9.544   7.087  -9.634  1.00  0.00     0.006 C 
BRANCH   5   6
ATOM      6  C   UNL     1      -8.647   5.878  -9.959  1.00  0.00     0.053 C 
BRANCH   6   7
ATOM      7  C   UNL     1      -9.105   4.621  -9.281  1.00  0.00     0.041 C 
ATOM      8  O   UNL     1      -9.817   4.683  -8.244  1.00  0.00    -0.550 OA
ATOM      9  O   UNL     1      -8.709   3.382  -9.769  1.00  0.00    -0.550 OA
ENDBRANCH   6   7
ENDBRANCH   5   6
ENDBRANCH   4   5
ENDBRANCH   3   4
ENDBRANCH   2   3
ENDBRANCH   1   2
BRANCH   1  10
ATOM     10  C   UNL     1      -4.299   9.010  -9.682  1.00  0.00     0.000 C 
BRANCH  10  11
ATOM     11  C   UNL     1      -4.220   9.146  -8.156  1.00  0.00    -0.000 C 
BRANCH  11  12
ATOM     12  C   UNL     1      -3.384   8.011  -7.547  1.00  0.00    -0.000 C 
BRANCH  12  13
ATOM     13  C   UNL     1      -4.214   7.080  -6.648  1.00  0.00    -0.000 C 
BRANCH  13  14
ATOM     14  C   UNL     1      -5.662   7.562  -6.475  1.00  0.00    -0.000 C 
BRANCH  14  15
ATOM     15  C   UNL     1      -6.652   6.543  -7.052  1.00  0.00    -0.003 C 
ATOM     16  C   UNL     1      -5.938   5.269  -7.494  1.00  0.00     0.004 C 
ENDBRANCH  14  15
ENDBRANCH  13  14
ENDBRANCH  12  13
ENDBRANCH  11  12
ENDBRANCH  10  11
ENDBRANCH   1  10
TORSDOF 12
ENDMDL
