MODEL 1
REMARK VINA RESULT:    -5.411      0.000      0.000
REMARK INTER + INTRA:         -11.896
REMARK INTER:                  -9.840
REMARK INTRA:                  -2.055
REMARK UNBOUND:                -2.055
REMARK SMILES CCCCCC=CCC=CCCCCCCCC(=O)[O-]
REMARK SMILES IDX 11 1 12 2 13 3 14 4 15 5 16 6 17 7 18 8 19 9 20 10 10 11
REMARK SMILES IDX 9 12 8 13 7 14 6 15 5 16 4 17 3 18 2 19 1 20
REMARK H PARENT
REMARK Flexibility Score: inf
ROOT
ATOM      1  C   UNL     1      21.025  -3.782  35.842  1.00  0.00     0.027 C 
ENDROOT
BRANCH   1   2
ATOM      2  C   UNL     1      20.844  -4.986  36.778  1.00  0.00     0.004 C 
BRANCH   2   3
ATOM      3  C   UNL     1      21.810  -6.132  36.441  1.00  0.00     0.000 C 
BRANCH   3   4
ATOM      4  C   UNL     1      22.472  -6.683  37.714  1.00  0.00     0.000 C 
BRANCH   4   5
ATOM      5  C   UNL     1      22.611  -5.621  38.817  1.00  0.00     0.000 C 
BRANCH   5   6
ATOM      6  C   UNL     1      23.902  -4.798  38.688  1.00  0.00     0.006 C 
BRANCH   6   7
ATOM      7  C   UNL     1      25.129  -5.712  38.620  1.00  0.00     0.053 C 
BRANCH   7   8
ATOM      8  C   UNL     1      25.361  -6.375  39.942  1.00  0.00     0.041 C 
ATOM      9  O   UNL     1      25.344  -7.631  40.033  1.00  0.00    -0.550 OA
ATOM     10  O   UNL     1      25.643  -5.606  41.064  1.00  0.00    -0.550 OA
ENDBRANCH   7   8
ENDBRANCH   6   7
ENDBRANCH   5   6
ENDBRANCH   4   5
ENDBRANCH   3   4
ENDBRANCH   2   3
ENDBRANCH   1   2
BRANCH   1  11
ATOM     11  C   UNL     1      22.439  -3.677  35.324  1.00  0.00    -0.031 C 
ATOM     12  C   UNL     1      23.315  -2.730  35.700  1.00  0.00    -0.027 C 
BRANCH  12  13
ATOM     13  C   UNL     1      22.976  -1.611  36.653  1.00  0.00     0.054 C 
BRANCH  13  14
ATOM     14  C   UNL     1      22.979  -0.282  35.951  1.00  0.00    -0.027 C 
ATOM     15  C   UNL     1      22.005   0.058  35.095  1.00  0.00    -0.031 C 
BRANCH  15  16
ATOM     16  C   UNL     1      21.999   1.389  34.393  1.00  0.00     0.027 C 
BRANCH  16  17
ATOM     17  C   UNL     1      21.799   2.567  35.362  1.00  0.00     0.004 C 
BRANCH  17  18
ATOM     18  C   UNL     1      20.450   2.554  36.111  1.00  0.00     0.000 C 
BRANCH  18  19
ATOM     19  C   UNL     1      20.557   2.698  37.639  1.00  0.00    -0.003 C 
ATOM     20  C   UNL     1      20.567   1.354  38.366  1.00  0.00     0.004 C 
ENDBRANCH  18  19
ENDBRANCH  17  18
ENDBRANCH  16  17
ENDBRANCH  15  16
ENDBRANCH  13  14
ENDBRANCH  12  13
ENDBRANCH   1  11
TORSDOF 14
ENDMDL
MODEL 2
REMARK VINA RESULT:    -5.323      3.279      4.545
REMARK INTER + INTRA:         -11.735
REMARK INTER:                  -9.317
REMARK INTRA:                  -2.418
REMARK UNBOUND:                -2.055
REMARK SMILES CCCCCC=CCC=CCCCCCCCC(=O)[O-]
REMARK SMILES IDX 11 1 12 2 13 3 14 4 15 5 16 6 17 7 18 8 19 9 20 10 10 11
REMARK SMILES IDX 9 12 8 13 7 14 6 15 5 16 4 17 3 18 2 19 1 20
REMARK H PARENT
REMARK Flexibility Score: inf
ROOT
ATOM      1  C   UNL     1      19.203  -6.972  31.415  1.00  0.00     0.027 C 
ENDROOT
BRANCH   1   2
ATOM      2  C   UNL     1      19.429  -7.180  32.920  1.00  0.00     0.004 C 
BRANCH   2   3
ATOM      3  C   UNL     1      20.921  -7.182  33.287  1.00  0.00     0.000 C 
BRANCH   3   4
ATOM      4  C   UNL     1      21.169  -6.377  34.572  1.00  0.00     0.000 C 
BRANCH   4   5
ATOM      5  C   UNL     1      22.207  -5.260  34.381  1.00  0.00     0.000 C 
BRANCH   5   6
ATOM      6  C   UNL     1      22.614  -4.595  35.705  1.00  0.00     0.006 C 
BRANCH   6   7
ATOM      7  C   UNL     1      22.372  -5.538  36.887  1.00  0.00     0.053 C 
BRANCH   7   8
ATOM      8  C   UNL     1      23.639  -5.744  37.658  1.00  0.00     0.041 C 
ATOM      9  O   UNL     1      24.562  -4.890  37.602  1.00  0.00    -0.550 OA
ATOM     10  O   UNL     1      23.780  -6.858  38.476  1.00  0.00    -0.550 OA
ENDBRANCH   7   8
ENDBRANCH   6   7
ENDBRANCH   5   6
ENDBRANCH   4   5
ENDBRANCH   3   4
ENDBRANCH   2   3
ENDBRANCH   1   2
BRANCH   1  11
ATOM     11  C   UNL     1      20.369  -6.271  30.761  1.00  0.00    -0.031 C 
ATOM     12  C   UNL     1      20.461  -4.939  30.603  1.00  0.00    -0.027 C 
BRANCH  12  13
ATOM     13  C   UNL     1      19.376  -3.974  31.014  1.00  0.00     0.054 C 
BRANCH  13  14
ATOM     14  C   UNL     1      19.805  -3.148  32.195  1.00  0.00    -0.027 C 
ATOM     15  C   UNL     1      19.285  -3.351  33.414  1.00  0.00    -0.031 C 
BRANCH  15  16
ATOM     16  C   UNL     1      19.714  -2.532  34.601  1.00  0.00     0.027 C 
BRANCH  16  17
ATOM     17  C   UNL     1      20.836  -1.536  34.257  1.00  0.00     0.004 C 
BRANCH  17  18
ATOM     18  C   UNL     1      21.177  -0.545  35.390  1.00  0.00     0.000 C 
BRANCH  18  19
ATOM     19  C   UNL     1      22.671  -0.461  35.747  1.00  0.00    -0.003 C 
ATOM     20  C   UNL     1      23.056  -1.362  36.920  1.00  0.00     0.004 C 
ENDBRANCH  18  19
ENDBRANCH  17  18
ENDBRANCH  16  17
ENDBRANCH  15  16
ENDBRANCH  13  14
ENDBRANCH  12  13
ENDBRANCH   1  11
TORSDOF 14
ENDMDL
MODEL 3
REMARK VINA RESULT:    -5.292      4.936      6.609
REMARK INTER + INTRA:         -11.678
REMARK INTER:                  -9.140
REMARK INTRA:                  -2.538
REMARK UNBOUND:                -2.055
REMARK SMILES CCCCCC=CCC=CCCCCCCCC(=O)[O-]
REMARK SMILES IDX 11 1 12 2 13 3 14 4 15 5 16 6 17 7 18 8 19 9 20 10 10 11
REMARK SMILES IDX 9 12 8 13 7 14 6 15 5 16 4 17 3 18 2 19 1 20
REMARK H PARENT
REMARK Flexibility Score: inf
ROOT
ATOM      1  C   UNL     1      21.258  -5.656  30.162  1.00  0.00     0.027 C 
ENDROOT
BRANCH   1   2
ATOM      2  C   UNL     1      22.039  -6.417  31.244  1.00  0.00     0.004 C 
BRANCH   2   3
ATOM      3  C   UNL     1      22.552  -5.485  32.353  1.00  0.00     0.000 C 
BRANCH   3   4
ATOM      4  C   UNL     1      21.984  -5.896  33.719  1.00  0.00     0.000 C 
BRANCH   4   5
ATOM      5  C   UNL     1      20.943  -7.023  33.615  1.00  0.00     0.000 C 
BRANCH   5   6
ATOM      6  C   UNL     1      19.514  -6.538  33.900  1.00  0.00     0.006 C 
BRANCH   6   7
ATOM      7  C   UNL     1      18.482  -7.477  33.269  1.00  0.00     0.053 C 
BRANCH   7   8
ATOM      8  C   UNL     1      17.209  -7.461  34.057  1.00  0.00     0.041 C 
ATOM      9  O   UNL     1      16.647  -8.541  34.377  1.00  0.00    -0.550 OA
ATOM     10  O   UNL     1      16.669  -6.252  34.478  1.00  0.00    -0.550 OA
ENDBRANCH   7   8
ENDBRANCH   6   7
ENDBRANCH   5   6
ENDBRANCH   4   5
ENDBRANCH   3   4
ENDBRANCH   2   3
ENDBRANCH   1   2
BRANCH   1  11
ATOM     11  C   UNL     1      19.770  -5.695  30.408  1.00  0.00    -0.031 C 
ATOM     12  C   UNL     1      19.033  -4.629  30.765  1.00  0.00    -0.027 C 
BRANCH  12  13
ATOM     13  C   UNL     1      19.614  -3.261  31.022  1.00  0.00     0.054 C 
BRANCH  13  14
ATOM     14  C   UNL     1      19.339  -2.811  32.429  1.00  0.00    -0.027 C 
ATOM     15  C   UNL     1      20.316  -2.742  33.344  1.00  0.00    -0.031 C 
BRANCH  15  16
ATOM     16  C   UNL     1      20.048  -2.287  34.753  1.00  0.00     0.027 C 
BRANCH  16  17
ATOM     17  C   UNL     1      20.654  -0.905  35.053  1.00  0.00     0.004 C 
BRANCH  17  18
ATOM     18  C   UNL     1      21.834  -0.929  36.047  1.00  0.00     0.000 C 
BRANCH  18  19
ATOM     19  C   UNL     1      22.289  -2.334  36.477  1.00  0.00    -0.003 C 
ATOM     20  C   UNL     1      23.512  -2.829  35.705  1.00  0.00     0.004 C 
ENDBRANCH  18  19
ENDBRANCH  17  18
ENDBRANCH  16  17
ENDBRANCH  15  16
ENDBRANCH  13  14
ENDBRANCH  12  13
ENDBRANCH   1  11
TORSDOF 14
ENDMDL
MODEL 4
REMARK VINA RESULT:    -5.275      5.577      7.763
REMARK INTER + INTRA:         -11.647
REMARK INTER:                  -9.366
REMARK INTRA:                  -2.281
REMARK UNBOUND:                -2.055
REMARK SMILES CCCCCC=CCC=CCCCCCCCC(=O)[O-]
REMARK SMILES IDX 11 1 12 2 13 3 14 4 15 5 16 6 17 7 18 8 19 9 20 10 10 11
REMARK SMILES IDX 9 12 8 13 7 14 6 15 5 16 4 17 3 18 2 19 1 20
REMARK H PARENT
REMARK Flexibility Score: inf
ROOT
ATOM      1  C   UNL     1      19.735  -6.057  30.726  1.00  0.00     0.027 C 
ENDROOT
BRANCH   1   2
ATOM      2  C   UNL     1      18.822  -4.872  31.073  1.00  0.00     0.004 C 
BRANCH   2   3
ATOM      3  C   UNL     1      19.575  -3.532  31.044  1.00  0.00     0.000 C 
BRANCH   3   4
ATOM      4  C   UNL     1      19.827  -3.014  32.468  1.00  0.00     0.000 C 
BRANCH   4   5
ATOM      5  C   UNL     1      18.919  -3.683  33.512  1.00  0.00     0.000 C 
BRANCH   5   6
ATOM      6  C   UNL     1      17.989  -2.684  34.217  1.00  0.00     0.006 C 
BRANCH   6   7
ATOM      7  C   UNL     1      16.903  -2.180  33.261  1.00  0.00     0.053 C 
BRANCH   7   8
ATOM      8  C   UNL     1      16.219  -0.978  33.834  1.00  0.00     0.041 C 
ATOM      9  O   UNL     1      15.037  -0.703  33.501  1.00  0.00    -0.550 OA
ATOM     10  O   UNL     1      16.872  -0.189  34.773  1.00  0.00    -0.550 OA
ENDBRANCH   7   8
ENDBRANCH   6   7
ENDBRANCH   5   6
ENDBRANCH   4   5
ENDBRANCH   3   4
ENDBRANCH   2   3
ENDBRANCH   1   2
BRANCH   1  11
ATOM     11  C   UNL     1      21.028  -5.606  30.090  1.00  0.00    -0.031 C 
ATOM     12  C   UNL     1      22.249  -5.862  30.591  1.00  0.00    -0.027 C 
BRANCH  12  13
ATOM     13  C   UNL     1      22.481  -6.590  31.892  1.00  0.00     0.054 C 
BRANCH  13  14
ATOM     14  C   UNL     1      22.605  -5.624  33.037  1.00  0.00    -0.027 C 
ATOM     15  C   UNL     1      21.911  -5.792  34.172  1.00  0.00    -0.031 C 
BRANCH  15  16
ATOM     16  C   UNL     1      22.036  -4.832  35.323  1.00  0.00     0.027 C 
BRANCH  16  17
ATOM     17  C   UNL     1      22.397  -3.407  34.869  1.00  0.00     0.004 C 
BRANCH  17  18
ATOM     18  C   UNL     1      23.257  -2.615  35.875  1.00  0.00     0.000 C 
BRANCH  18  19
ATOM     19  C   UNL     1      23.009  -1.097  35.886  1.00  0.00    -0.003 C 
ATOM     20  C   UNL     1      21.758  -0.692  35.108  1.00  0.00     0.004 C 
ENDBRANCH  18  19
ENDBRANCH  17  18
ENDBRANCH  16  17
ENDBRANCH  15  16
ENDBRANCH  13  14
ENDBRANCH  12  13
ENDBRANCH   1  11
TORSDOF 14
ENDMDL
MODEL 5
REMARK VINA RESULT:    -5.260      5.270      8.135
REMARK INTER + INTRA:         -11.621
REMARK INTER:                  -8.660
REMARK INTRA:                  -2.961
REMARK UNBOUND:                -2.055
REMARK SMILES CCCCCC=CCC=CCCCCCCCC(=O)[O-]
REMARK SMILES IDX 11 1 12 2 13 3 14 4 15 5 16 6 17 7 18 8 19 9 20 10 10 11
REMARK SMILES IDX 9 12 8 13 7 14 6 15 5 16 4 17 3 18 2 19 1 20
REMARK H PARENT
REMARK Flexibility Score: inf
ROOT
ATOM      1  C   UNL     1      22.283  -6.210  30.897  1.00  0.00     0.027 C 
ENDROOT
BRANCH   1   2
ATOM      2  C   UNL     1      21.333  -5.371  30.029  1.00  0.00     0.004 C 
BRANCH   2   3
ATOM      3  C   UNL     1      19.897  -5.917  30.047  1.00  0.00     0.000 C 
BRANCH   3   4
ATOM      4  C   UNL     1      18.919  -4.867  30.594  1.00  0.00     0.000 C 
BRANCH   4   5
ATOM      5  C   UNL     1      19.632  -3.704  31.302  1.00  0.00     0.000 C 
BRANCH   5   6
ATOM      6  C   UNL     1      18.999  -3.358  32.658  1.00  0.00     0.006 C 
BRANCH   6   7
ATOM      7  C   UNL     1      20.077  -3.039  33.699  1.00  0.00     0.053 C 
BRANCH   7   8
ATOM      8  C   UNL     1      19.593  -3.379  35.074  1.00  0.00     0.041 C 
ATOM      9  O   UNL     1      20.230  -4.198  35.786  1.00  0.00    -0.550 OA
ATOM     10  O   UNL     1      18.463  -2.754  35.586  1.00  0.00    -0.550 OA
ENDBRANCH   7   8
ENDBRANCH   6   7
ENDBRANCH   5   6
ENDBRANCH   4   5
ENDBRANCH   3   4
ENDBRANCH   2   3
ENDBRANCH   1   2
BRANCH   1  11
ATOM     11  C   UNL     1      22.570  -5.547  32.222  1.00  0.00    -0.031 C 
ATOM     12  C   UNL     1      22.171  -6.028  33.412  1.00  0.00    -0.027 C 
BRANCH  12  13
ATOM     13  C   UNL     1      21.330  -7.271  33.570  1.00  0.00     0.054 C 
BRANCH  13  14
ATOM     14  C   UNL     1      19.867  -6.933  33.612  1.00  0.00    -0.027 C 
ATOM     15  C   UNL     1      18.948  -7.737  33.059  1.00  0.00    -0.031 C 
BRANCH  15  16
ATOM     16  C   UNL     1      17.481  -7.407  33.103  1.00  0.00     0.027 C 
BRANCH  16  17
ATOM     17  C   UNL     1      16.713  -8.263  34.126  1.00  0.00     0.004 C 
BRANCH  17  18
ATOM     18  C   UNL     1      16.131  -7.467  35.314  1.00  0.00     0.000 C 
BRANCH  18  19
ATOM     19  C   UNL     1      16.826  -6.123  35.594  1.00  0.00    -0.003 C 
ATOM     20  C   UNL     1      16.933  -5.806  37.085  1.00  0.00     0.004 C 
ENDBRANCH  18  19
ENDBRANCH  17  18
ENDBRANCH  16  17
ENDBRANCH  15  16
ENDBRANCH  13  14
ENDBRANCH  12  13
ENDBRANCH   1  11
TORSDOF 14
ENDMDL
MODEL 6
REMARK VINA RESULT:    -5.215      4.968      6.812
REMARK INTER + INTRA:         -11.539
REMARK INTER:                  -9.072
REMARK INTRA:                  -2.467
REMARK UNBOUND:                -2.055
REMARK SMILES CCCCCC=CCC=CCCCCCCCC(=O)[O-]
REMARK SMILES IDX 11 1 12 2 13 3 14 4 15 5 16 6 17 7 18 8 19 9 20 10 10 11
REMARK SMILES IDX 9 12 8 13 7 14 6 15 5 16 4 17 3 18 2 19 1 20
REMARK H PARENT
REMARK Flexibility Score: inf
ROOT
ATOM      1  C   UNL     1      22.631  -6.578  32.199  1.00  0.00     0.027 C 
ENDROOT
BRANCH   1   2
ATOM      2  C   UNL     1      22.123  -5.524  31.205  1.00  0.00     0.004 C 
BRANCH   2   3
ATOM      3  C   UNL     1      21.482  -6.161  29.962  1.00  0.00     0.000 C 
BRANCH   3   4
ATOM      4  C   UNL     1      19.964  -5.927  29.948  1.00  0.00     0.000 C 
BRANCH   4   5
ATOM      5  C   UNL     1      19.528  -4.803  30.902  1.00  0.00     0.000 C 
BRANCH   5   6
ATOM      6  C   UNL     1      18.133  -5.041  31.500  1.00  0.00     0.006 C 
BRANCH   6   7
ATOM      7  C   UNL     1      18.231  -5.772  32.843  1.00  0.00     0.053 C 
BRANCH   7   8
ATOM      8  C   UNL     1      17.732  -7.177  32.711  1.00  0.00     0.041 C 
ATOM      9  O   UNL     1      18.402  -8.031  32.075  1.00  0.00    -0.550 OA
ATOM     10  O   UNL     1      16.547  -7.554  33.332  1.00  0.00    -0.550 OA
ENDBRANCH   7   8
ENDBRANCH   6   7
ENDBRANCH   5   6
ENDBRANCH   4   5
ENDBRANCH   3   4
ENDBRANCH   2   3
ENDBRANCH   1   2
BRANCH   1  11
ATOM     11  C   UNL     1      21.584  -6.937  33.225  1.00  0.00    -0.031 C 
ATOM     12  C   UNL     1      21.434  -6.312  34.406  1.00  0.00    -0.027 C 
BRANCH  12  13
ATOM     13  C   UNL     1      22.336  -5.201  34.882  1.00  0.00     0.054 C 
BRANCH  13  14
ATOM     14  C   UNL     1      21.592  -3.898  34.967  1.00  0.00    -0.027 C 
ATOM     15  C   UNL     1      20.929  -3.402  33.913  1.00  0.00    -0.031 C 
BRANCH  15  16
ATOM     16  C   UNL     1      20.177  -2.102  33.994  1.00  0.00     0.027 C 
BRANCH  16  17
ATOM     17  C   UNL     1      20.272  -1.449  35.384  1.00  0.00     0.004 C 
BRANCH  17  18
ATOM     18  C   UNL     1      20.998  -0.087  35.400  1.00  0.00     0.000 C 
BRANCH  18  19
ATOM     19  C   UNL     1      22.530  -0.172  35.505  1.00  0.00    -0.003 C 
ATOM     20  C   UNL     1      23.002  -1.084  36.636  1.00  0.00     0.004 C 
ENDBRANCH  18  19
ENDBRANCH  17  18
ENDBRANCH  16  17
ENDBRANCH  15  16
ENDBRANCH  13  14
ENDBRANCH  12  13
ENDBRANCH   1  11
TORSDOF 14
ENDMDL
MODEL 7
REMARK VINA RESULT:    -5.214      4.878      6.835
REMARK INTER + INTRA:         -11.537
REMARK INTER:                  -9.404
REMARK INTRA:                  -2.133
REMARK UNBOUND:                -2.055
REMARK SMILES CCCCCC=CCC=CCCCCCCCC(=O)[O-]
REMARK SMILES IDX 11 1 12 2 13 3 14 4 15 5 16 6 17 7 18 8 19 9 20 10 10 11
REMARK SMILES IDX 9 12 8 13 7 14 6 15 5 16 4 17 3 18 2 19 1 20
REMARK H PARENT
REMARK Flexibility Score: inf
ROOT
ATOM      1  C   UNL     1      20.580  -6.251  30.804  1.00  0.00     0.027 C 
ENDROOT
BRANCH   1   2
ATOM      2  C   UNL     1      19.835  -5.004  30.306  1.00  0.00     0.004 C 
BRANCH   2   3
ATOM      3  C   UNL     1      19.621  -3.972  31.424  1.00  0.00     0.000 C 
BRANCH   3   4
ATOM      4  C   UNL     1      18.174  -4.014  31.939  1.00  0.00     0.000 C 
BRANCH   4   5
ATOM      5  C   UNL     1      18.088  -4.329  33.441  1.00  0.00     0.000 C 
BRANCH   5   6
ATOM      6  C   UNL     1      18.287  -5.822  33.745  1.00  0.00     0.006 C 
BRANCH   6   7
ATOM      7  C   UNL     1      17.463  -6.690  32.789  1.00  0.00     0.053 C 
BRANCH   7   8
ATOM      8  C   UNL     1      17.399  -8.100  33.287  1.00  0.00     0.041 C 
ATOM      9  O   UNL     1      16.788  -8.369  34.354  1.00  0.00    -0.550 OA
ATOM     10  O   UNL     1      17.975  -9.125  32.546  1.00  0.00    -0.550 OA
ENDBRANCH   7   8
ENDBRANCH   6   7
ENDBRANCH   5   6
ENDBRANCH   4   5
ENDBRANCH   3   4
ENDBRANCH   2   3
ENDBRANCH   1   2
BRANCH   1  11
ATOM     11  C   UNL     1      22.066  -6.013  30.917  1.00  0.00    -0.031 C 
ATOM     12  C   UNL     1      22.719  -5.835  32.079  1.00  0.00    -0.027 C 
BRANCH  12  13
ATOM     13  C   UNL     1      22.034  -5.795  33.423  1.00  0.00     0.054 C 
BRANCH  13  14
ATOM     14  C   UNL     1      22.107  -4.421  34.027  1.00  0.00    -0.027 C 
ATOM     15  C   UNL     1      21.320  -4.066  35.053  1.00  0.00    -0.031 C 
BRANCH  15  16
ATOM     16  C   UNL     1      21.392  -2.694  35.665  1.00  0.00     0.027 C 
BRANCH  16  17
ATOM     17  C   UNL     1      22.831  -2.156  35.742  1.00  0.00     0.004 C 
BRANCH  17  18
ATOM     18  C   UNL     1      22.940  -0.618  35.694  1.00  0.00     0.000 C 
BRANCH  18  19
ATOM     19  C   UNL     1      21.772   0.091  34.985  1.00  0.00    -0.003 C 
ATOM     20  C   UNL     1      21.961   1.605  34.892  1.00  0.00     0.004 C 
ENDBRANCH  18  19
ENDBRANCH  17  18
ENDBRANCH  16  17
ENDBRANCH  15  16
ENDBRANCH  13  14
ENDBRANCH  12  13
ENDBRANCH   1  11
TORSDOF 14
ENDMDL
MODEL 8
REMARK VINA RESULT:    -5.164     10.673     13.803
REMARK INTER + INTRA:         -11.446
REMARK INTER:                  -8.783
REMARK INTRA:                  -2.662
REMARK UNBOUND:                -2.055
REMARK SMILES CCCCCC=CCC=CCCCCCCCC(=O)[O-]
REMARK SMILES IDX 11 1 12 2 13 3 14 4 15 5 16 6 17 7 18 8 19 9 20 10 10 11
REMARK SMILES IDX 9 12 8 13 7 14 6 15 5 16 4 17 3 18 2 19 1 20
REMARK H PARENT
REMARK Flexibility Score: inf
ROOT
ATOM      1  C   UNL     1      23.105  10.743  45.621  1.00  0.00     0.027 C 
ENDROOT
BRANCH   1   2
ATOM      2  C   UNL     1      24.451  10.159  45.166  1.00  0.00     0.004 C 
BRANCH   2   3
ATOM      3  C   UNL     1      24.408   9.668  43.711  1.00  0.00     0.000 C 
BRANCH   3   4
ATOM      4  C   UNL     1      25.561   8.693  43.428  1.00  0.00     0.000 C 
BRANCH   4   5
ATOM      5  C   UNL     1      26.131   8.061  44.708  1.00  0.00     0.000 C 
BRANCH   5   6
ATOM      6  C   UNL     1      27.440   7.296  44.460  1.00  0.00     0.006 C 
BRANCH   6   7
ATOM      7  C   UNL     1      27.700   7.130  42.960  1.00  0.00     0.053 C 
BRANCH   7   8
ATOM      8  C   UNL     1      29.087   6.620  42.723  1.00  0.00     0.041 C 
ATOM      9  O   UNL     1      29.597   6.678  41.573  1.00  0.00    -0.550 OA
ATOM     10  O   UNL     1      29.835   6.122  43.783  1.00  0.00    -0.550 OA
ENDBRANCH   7   8
ENDBRANCH   6   7
ENDBRANCH   5   6
ENDBRANCH   4   5
ENDBRANCH   3   4
ENDBRANCH   2   3
ENDBRANCH   1   2
BRANCH   1  11
ATOM     11  C   UNL     1      22.547  10.010  46.817  1.00  0.00    -0.031 C 
ATOM     12  C   UNL     1      21.688   8.978  46.740  1.00  0.00    -0.027 C 
BRANCH  12  13
ATOM     13  C   UNL     1      21.125   8.456  45.441  1.00  0.00     0.054 C 
BRANCH  13  14
ATOM     14  C   UNL     1      21.521   7.023  45.218  1.00  0.00    -0.027 C 
ATOM     15  C   UNL     1      22.808   6.650  45.190  1.00  0.00    -0.031 C 
BRANCH  15  16
ATOM     16  C   UNL     1      23.211   5.217  44.973  1.00  0.00     0.027 C 
BRANCH  16  17
ATOM     17  C   UNL     1      24.113   5.037  43.739  1.00  0.00     0.004 C 
BRANCH  17  18
ATOM     18  C   UNL     1      23.489   5.528  42.416  1.00  0.00     0.000 C 
BRANCH  18  19
ATOM     19  C   UNL     1      24.503   5.891  41.318  1.00  0.00    -0.003 C 
ATOM     20  C   UNL     1      23.967   6.922  40.327  1.00  0.00     0.004 C 
ENDBRANCH  18  19
ENDBRANCH  17  18
ENDBRANCH  16  17
ENDBRANCH  15  16
ENDBRANCH  13  14
ENDBRANCH  12  13
ENDBRANCH   1  11
TORSDOF 14
ENDMDL
MODEL 9
REMARK VINA RESULT:    -5.104      4.718      6.673
REMARK INTER + INTRA:         -11.338
REMARK INTER:                  -9.083
REMARK INTRA:                  -2.254
REMARK UNBOUND:                -2.055
REMARK SMILES CCCCCC=CCC=CCCCCCCCC(=O)[O-]
REMARK SMILES IDX 11 1 12 2 13 3 14 4 15 5 16 6 17 7 18 8 19 9 20 10 10 11
REMARK SMILES IDX 9 12 8 13 7 14 6 15 5 16 4 17 3 18 2 19 1 20
REMARK H PARENT
REMARK Flexibility Score: inf
ROOT
ATOM      1  C   UNL     1      20.811  -6.337  31.636  1.00  0.00     0.027 C 
ENDROOT
BRANCH   1   2
ATOM      2  C   UNL     1      20.059  -5.471  30.615  1.00  0.00     0.004 C 
BRANCH   2   3
ATOM      3  C   UNL     1      18.987  -4.591  31.278  1.00  0.00     0.000 C 
BRANCH   3   4
ATOM      4  C   UNL     1      19.463  -3.134  31.384  1.00  0.00     0.000 C 
BRANCH   4   5
ATOM      5  C   UNL     1      19.950  -2.771  32.796  1.00  0.00     0.000 C 
BRANCH   5   6
ATOM      6  C   UNL     1      18.862  -2.956  33.864  1.00  0.00     0.006 C 
BRANCH   6   7
ATOM      7  C   UNL     1      17.723  -1.951  33.664  1.00  0.00     0.053 C 
BRANCH   7   8
ATOM      8  C   UNL     1      17.378  -1.287  34.961  1.00  0.00     0.041 C 
ATOM      9  O   UNL     1      18.275  -0.728  35.645  1.00  0.00    -0.550 OA
ATOM     10  O   UNL     1      16.057  -1.244  35.390  1.00  0.00    -0.550 OA
ENDBRANCH   7   8
ENDBRANCH   6   7
ENDBRANCH   5   6
ENDBRANCH   4   5
ENDBRANCH   3   4
ENDBRANCH   2   3
ENDBRANCH   1   2
BRANCH   1  11
ATOM     11  C   UNL     1      22.140  -5.733  32.019  1.00  0.00    -0.031 C 
ATOM     12  C   UNL     1      22.495  -5.419  33.277  1.00  0.00    -0.027 C 
BRANCH  12  13
ATOM     13  C   UNL     1      21.582  -5.582  34.467  1.00  0.00     0.054 C 
BRANCH  13  14
ATOM     14  C   UNL     1      21.997  -4.680  35.595  1.00  0.00    -0.027 C 
ATOM     15  C   UNL     1      22.599  -3.505  35.364  1.00  0.00    -0.031 C 
BRANCH  15  16
ATOM     16  C   UNL     1      23.012  -2.595  36.489  1.00  0.00     0.027 C 
BRANCH  16  17
ATOM     17  C   UNL     1      23.040  -1.114  36.071  1.00  0.00     0.004 C 
BRANCH  17  18
ATOM     18  C   UNL     1      21.879  -0.690  35.148  1.00  0.00     0.000 C 
BRANCH  18  19
ATOM     19  C   UNL     1      21.898   0.788  34.722  1.00  0.00    -0.003 C 
ATOM     20  C   UNL     1      21.079   1.687  35.647  1.00  0.00     0.004 C 
ENDBRANCH  18  19
ENDBRANCH  17  18
ENDBRANCH  16  17
ENDBRANCH  15  16
ENDBRANCH  13  14
ENDBRANCH  12  13
ENDBRANCH   1  11
TORSDOF 14
ENDMDL
