MODEL 1
REMARK VINA RESULT:    -0.699      0.000      0.000
REMARK INTER + INTRA:          -1.357
REMARK INTER:                  -1.599
REMARK INTRA:                   0.242
REMARK UNBOUND:                 0.242
REMARK SMILES CCCCCCCCCCCCCCCCCCCCCCCC(=O)[O-]
REMARK SMILES IDX 13 1 14 2 15 3 16 4 17 5 18 6 19 7 20 8 21 9 22 10 23 11
REMARK SMILES IDX 24 12 25 13 26 14 12 15 11 16 10 17 9 18 8 19 7 20 6 21 5 22
REMARK SMILES IDX 4 23 3 24 2 25 1 26
REMARK H PARENT
REMARK Flexibility Score: inf
ROOT
ATOM      1  C   UNL     1      19.148   7.106 -12.945  1.00  0.00     0.000 C 
ENDROOT
BRANCH   1   2
ATOM      2  C   UNL     1      19.611   5.764 -13.539  1.00  0.00     0.000 C 
BRANCH   2   3
ATOM      3  C   UNL     1      21.105   5.484 -13.290  1.00  0.00     0.000 C 
BRANCH   3   4
ATOM      4  C   UNL     1      21.665   6.077 -11.984  1.00  0.00     0.000 C 
BRANCH   4   5
ATOM      5  C   UNL     1      22.762   7.125 -12.223  1.00  0.00     0.000 C 
BRANCH   5   6
ATOM      6  C   UNL     1      23.782   6.626 -13.257  1.00  0.00     0.000 C 
BRANCH   6   7
ATOM      7  C   UNL     1      23.792   5.095 -13.396  1.00  0.00     0.000 C 
BRANCH   7   8
ATOM      8  C   UNL     1      25.066   4.507 -14.038  1.00  0.00     0.000 C 
BRANCH   8   9
ATOM      9  C   UNL     1      25.889   5.493 -14.888  1.00  0.00     0.000 C 
BRANCH   9  10
ATOM     10  C   UNL     1      27.391   5.171 -15.000  1.00  0.00     0.006 C 
BRANCH  10  11
ATOM     11  C   UNL     1      27.795   3.837 -14.343  1.00  0.00     0.053 C 
BRANCH  11  12
ATOM     12  C   UNL     1      29.048   3.260 -14.930  1.00  0.00     0.041 C 
ATOM     13  O   UNL     1      29.414   3.585 -16.089  1.00  0.00    -0.550 OA
ATOM     14  O   UNL     1      29.794   2.337 -14.208  1.00  0.00    -0.550 OA
ENDBRANCH  11  12
ENDBRANCH  10  11
ENDBRANCH   9  10
ENDBRANCH   8   9
ENDBRANCH   7   8
ENDBRANCH   6   7
ENDBRANCH   5   6
ENDBRANCH   4   5
ENDBRANCH   3   4
ENDBRANCH   2   3
ENDBRANCH   1   2
BRANCH   1  15
ATOM     15  C   UNL     1      19.078   7.084 -11.410  1.00  0.00     0.000 C 
BRANCH  15  16
ATOM     16  C   UNL     1      17.987   6.137 -10.881  1.00  0.00     0.000 C 
BRANCH  16  17
ATOM     17  C   UNL     1      18.530   4.731 -10.576  1.00  0.00     0.000 C 
BRANCH  17  18
ATOM     18  C   UNL     1      17.446   3.646 -10.687  1.00  0.00    -0.000 C 
BRANCH  18  19
ATOM     19  C   UNL     1      17.544   2.838 -11.993  1.00  0.00    -0.000 C 
BRANCH  19  20
ATOM     20  C   UNL     1      18.902   2.935 -12.718  1.00  0.00    -0.000 C 
BRANCH  20  21
ATOM     21  C   UNL     1      18.975   2.205 -14.074  1.00  0.00    -0.000 C 
BRANCH  21  22
ATOM     22  C   UNL     1      18.341   0.803 -14.090  1.00  0.00    -0.000 C 
BRANCH  22  23
ATOM     23  C   UNL     1      17.327   0.620 -15.232  1.00  0.00    -0.000 C 
BRANCH  23  24
ATOM     24  C   UNL     1      17.210  -0.854 -15.676  1.00  0.00    -0.000 C 
BRANCH  24  25
ATOM     25  C   UNL     1      17.073  -1.029 -17.198  1.00  0.00    -0.003 C 
ATOM     26  C   UNL     1      16.926   0.296 -17.944  1.00  0.00     0.004 C 
ENDBRANCH  24  25
ENDBRANCH  23  24
ENDBRANCH  22  23
ENDBRANCH  21  22
ENDBRANCH  20  21
ENDBRANCH  19  20
ENDBRANCH  18  19
ENDBRANCH  17  18
ENDBRANCH  16  17
ENDBRANCH  15  16
ENDBRANCH   1  15
TORSDOF 22
ENDMDL
MODEL 2
REMARK VINA RESULT:     0.417      5.800      7.882
REMARK INTER + INTRA:           1.196
REMARK INTER:                   2.840
REMARK INTRA:                  -1.645
REMARK UNBOUND:                 0.242
REMARK SMILES CCCCCCCCCCCCCCCCCCCCCCCC(=O)[O-]
REMARK SMILES IDX 13 1 14 2 15 3 16 4 17 5 18 6 19 7 20 8 21 9 22 10 23 11
REMARK SMILES IDX 24 12 25 13 26 14 12 15 11 16 10 17 9 18 8 19 7 20 6 21 5 22
REMARK SMILES IDX 4 23 3 24 2 25 1 26
REMARK H PARENT
REMARK Flexibility Score: inf
ROOT
ATOM      1  C   UNL     1      19.612   1.539 -15.269  1.00  0.00     0.000 C 
ENDROOT
BRANCH   1   2
ATOM      2  C   UNL     1      20.951   1.836 -15.966  1.00  0.00     0.000 C 
BRANCH   2   3
ATOM      3  C   UNL     1      21.268   0.842 -17.099  1.00  0.00     0.000 C 
BRANCH   3   4
ATOM      4  C   UNL     1      22.699   0.274 -17.079  1.00  0.00     0.000 C 
BRANCH   4   5
ATOM      5  C   UNL     1      23.202  -0.135 -18.472  1.00  0.00     0.000 C 
BRANCH   5   6
ATOM      6  C   UNL     1      23.623  -1.612 -18.490  1.00  0.00     0.000 C 
BRANCH   6   7
ATOM      7  C   UNL     1      24.760  -1.923 -17.503  1.00  0.00     0.000 C 
BRANCH   7   8
ATOM      8  C   UNL     1      25.569  -3.198 -17.820  1.00  0.00     0.000 C 
BRANCH   8   9
ATOM      9  C   UNL     1      26.812  -2.985 -18.704  1.00  0.00     0.000 C 
BRANCH   9  10
ATOM     10  C   UNL     1      26.573  -3.123 -20.220  1.00  0.00     0.006 C 
BRANCH  10  11
ATOM     11  C   UNL     1      25.534  -4.196 -20.594  1.00  0.00     0.053 C 
BRANCH  11  12
ATOM     12  C   UNL     1      26.160  -5.434 -21.161  1.00  0.00     0.041 C 
ATOM     13  O   UNL     1      27.055  -5.347 -22.042  1.00  0.00    -0.550 OA
ATOM     14  O   UNL     1      25.732  -6.687 -20.740  1.00  0.00    -0.550 OA
ENDBRANCH  11  12
ENDBRANCH  10  11
ENDBRANCH   9  10
ENDBRANCH   8   9
ENDBRANCH   7   8
ENDBRANCH   6   7
ENDBRANCH   5   6
ENDBRANCH   4   5
ENDBRANCH   3   4
ENDBRANCH   2   3
ENDBRANCH   1   2
BRANCH   1  15
ATOM     15  C   UNL     1      19.281   2.552 -14.162  1.00  0.00     0.000 C 
BRANCH  15  16
ATOM     16  C   UNL     1      20.137   3.828 -14.251  1.00  0.00     0.000 C 
BRANCH  16  17
ATOM     17  C   UNL     1      20.526   4.370 -12.867  1.00  0.00     0.000 C 
BRANCH  17  18
ATOM     18  C   UNL     1      21.745   5.306 -12.924  1.00  0.00    -0.000 C 
BRANCH  18  19
ATOM     19  C   UNL     1      21.686   6.427 -11.870  1.00  0.00    -0.000 C 
BRANCH  19  20
ATOM     20  C   UNL     1      21.464   5.946 -10.421  1.00  0.00    -0.000 C 
BRANCH  20  21
ATOM     21  C   UNL     1      20.139   6.398  -9.776  1.00  0.00    -0.000 C 
BRANCH  21  22
ATOM     22  C   UNL     1      19.083   6.922 -10.765  1.00  0.00    -0.000 C 
BRANCH  22  23
ATOM     23  C   UNL     1      17.859   5.997 -10.876  1.00  0.00    -0.000 C 
BRANCH  23  24
ATOM     24  C   UNL     1      18.196   4.538 -10.500  1.00  0.00    -0.000 C 
BRANCH  24  25
ATOM     25  C   UNL     1      17.102   3.532 -10.896  1.00  0.00    -0.003 C 
ATOM     26  C   UNL     1      15.701   4.140 -10.905  1.00  0.00     0.004 C 
ENDBRANCH  24  25
ENDBRANCH  23  24
ENDBRANCH  22  23
ENDBRANCH  21  22
ENDBRANCH  20  21
ENDBRANCH  19  20
ENDBRANCH  18  19
ENDBRANCH  17  18
ENDBRANCH  16  17
ENDBRANCH  15  16
ENDBRANCH   1  15
TORSDOF 22
ENDMDL
MODEL 3
REMARK VINA RESULT:     0.418      5.029      7.397
REMARK INTER + INTRA:           1.197
REMARK INTER:                   2.705
REMARK INTRA:                  -1.508
REMARK UNBOUND:                 0.242
REMARK SMILES CCCCCCCCCCCCCCCCCCCCCCCC(=O)[O-]
REMARK SMILES IDX 13 1 14 2 15 3 16 4 17 5 18 6 19 7 20 8 21 9 22 10 23 11
REMARK SMILES IDX 24 12 25 13 26 14 12 15 11 16 10 17 9 18 8 19 7 20 6 21 5 22
REMARK SMILES IDX 4 23 3 24 2 25 1 26
REMARK H PARENT
REMARK Flexibility Score: inf
ROOT
ATOM      1  C   UNL     1      19.084   2.287 -14.495  1.00  0.00     0.000 C 
ENDROOT
BRANCH   1   2
ATOM      2  C   UNL     1      18.514   1.068 -15.242  1.00  0.00     0.000 C 
BRANCH   2   3
ATOM      3  C   UNL     1      19.331   0.701 -16.495  1.00  0.00     0.000 C 
BRANCH   3   4
ATOM      4  C   UNL     1      20.811   1.121 -16.448  1.00  0.00     0.000 C 
BRANCH   4   5
ATOM      5  C   UNL     1      21.628   0.577 -17.629  1.00  0.00     0.000 C 
BRANCH   5   6
ATOM      6  C   UNL     1      23.088   0.330 -17.219  1.00  0.00     0.000 C 
BRANCH   6   7
ATOM      7  C   UNL     1      23.692  -0.921 -17.878  1.00  0.00     0.000 C 
BRANCH   7   8
ATOM      8  C   UNL     1      24.243  -1.974 -16.895  1.00  0.00     0.000 C 
BRANCH   8   9
ATOM      9  C   UNL     1      25.418  -2.816 -17.425  1.00  0.00     0.000 C 
BRANCH   9  10
ATOM     10  C   UNL     1      25.030  -4.175 -18.040  1.00  0.00     0.006 C 
BRANCH  10  11
ATOM     11  C   UNL     1      24.639  -4.098 -19.528  1.00  0.00     0.053 C 
BRANCH  11  12
ATOM     12  C   UNL     1      25.829  -4.035 -20.437  1.00  0.00     0.041 C 
ATOM     13  O   UNL     1      26.114  -5.013 -21.177  1.00  0.00    -0.550 OA
ATOM     14  O   UNL     1      26.643  -2.910 -20.443  1.00  0.00    -0.550 OA
ENDBRANCH  11  12
ENDBRANCH  10  11
ENDBRANCH   9  10
ENDBRANCH   8   9
ENDBRANCH   7   8
ENDBRANCH   6   7
ENDBRANCH   5   6
ENDBRANCH   4   5
ENDBRANCH   3   4
ENDBRANCH   2   3
ENDBRANCH   1   2
BRANCH   1  15
ATOM     15  C   UNL     1      18.753   2.271 -12.994  1.00  0.00     0.000 C 
BRANCH  15  16
ATOM     16  C   UNL     1      18.613   3.685 -12.403  1.00  0.00     0.000 C 
BRANCH  16  17
ATOM     17  C   UNL     1      17.582   3.745 -11.265  1.00  0.00     0.000 C 
BRANCH  17  18
ATOM     18  C   UNL     1      17.359   5.176 -10.749  1.00  0.00    -0.000 C 
BRANCH  18  19
ATOM     19  C   UNL     1      18.312   6.197 -11.395  1.00  0.00    -0.000 C 
BRANCH  19  20
ATOM     20  C   UNL     1      19.086   7.085 -10.399  1.00  0.00    -0.000 C 
BRANCH  20  21
ATOM     21  C   UNL     1      20.231   6.382  -9.645  1.00  0.00    -0.000 C 
BRANCH  21  22
ATOM     22  C   UNL     1      21.645   6.841 -10.042  1.00  0.00    -0.000 C 
BRANCH  22  23
ATOM     23  C   UNL     1      21.942   6.633 -11.537  1.00  0.00    -0.000 C 
BRANCH  23  24
ATOM     24  C   UNL     1      21.989   5.138 -11.919  1.00  0.00    -0.000 C 
BRANCH  24  25
ATOM     25  C   UNL     1      22.526   4.882 -13.338  1.00  0.00    -0.003 C 
ATOM     26  C   UNL     1      23.980   5.313 -13.516  1.00  0.00     0.004 C 
ENDBRANCH  24  25
ENDBRANCH  23  24
ENDBRANCH  22  23
ENDBRANCH  21  22
ENDBRANCH  20  21
ENDBRANCH  19  20
ENDBRANCH  18  19
ENDBRANCH  17  18
ENDBRANCH  16  17
ENDBRANCH  15  16
ENDBRANCH   1  15
TORSDOF 22
ENDMDL
MODEL 4
REMARK VINA RESULT:     0.505      4.940      6.758
REMARK INTER + INTRA:           1.396
REMARK INTER:                   2.661
REMARK INTRA:                  -1.265
REMARK UNBOUND:                 0.242
REMARK SMILES CCCCCCCCCCCCCCCCCCCCCCCC(=O)[O-]
REMARK SMILES IDX 13 1 14 2 15 3 16 4 17 5 18 6 19 7 20 8 21 9 22 10 23 11
REMARK SMILES IDX 24 12 25 13 26 14 12 15 11 16 10 17 9 18 8 19 7 20 6 21 5 22
REMARK SMILES IDX 4 23 3 24 2 25 1 26
REMARK H PARENT
REMARK Flexibility Score: inf
ROOT
ATOM      1  C   UNL     1      23.871   4.902 -13.743  1.00  0.00     0.000 C 
ENDROOT
BRANCH   1   2
ATOM      2  C   UNL     1      25.358   4.926 -14.139  1.00  0.00     0.000 C 
BRANCH   2   3
ATOM      3  C   UNL     1      25.909   3.528 -14.474  1.00  0.00     0.000 C 
BRANCH   3   4
ATOM      4  C   UNL     1      24.859   2.403 -14.480  1.00  0.00     0.000 C 
BRANCH   4   5
ATOM      5  C   UNL     1      25.422   1.058 -14.965  1.00  0.00     0.000 C 
BRANCH   5   6
ATOM      6  C   UNL     1      24.338   0.235 -15.676  1.00  0.00     0.000 C 
BRANCH   6   7
ATOM      7  C   UNL     1      24.710  -1.251 -15.816  1.00  0.00     0.000 C 
BRANCH   7   8
ATOM      8  C   UNL     1      24.698  -1.794 -17.259  1.00  0.00     0.000 C 
BRANCH   8   9
ATOM      9  C   UNL     1      25.606  -3.012 -17.510  1.00  0.00     0.000 C 
BRANCH   9  10
ATOM     10  C   UNL     1      26.598  -2.864 -18.680  1.00  0.00     0.006 C 
BRANCH  10  11
ATOM     11  C   UNL     1      26.008  -3.240 -20.052  1.00  0.00     0.053 C 
BRANCH  11  12
ATOM     12  C   UNL     1      24.784  -4.099 -19.939  1.00  0.00     0.041 C 
ATOM     13  O   UNL     1      23.639  -3.588 -20.045  1.00  0.00    -0.550 OA
ATOM     14  O   UNL     1      24.908  -5.458 -19.684  1.00  0.00    -0.550 OA
ENDBRANCH  11  12
ENDBRANCH  10  11
ENDBRANCH   9  10
ENDBRANCH   8   9
ENDBRANCH   7   8
ENDBRANCH   6   7
ENDBRANCH   5   6
ENDBRANCH   4   5
ENDBRANCH   3   4
ENDBRANCH   2   3
ENDBRANCH   1   2
BRANCH   1  15
ATOM     15  C   UNL     1      23.427   6.186 -13.025  1.00  0.00     0.000 C 
BRANCH  15  16
ATOM     16  C   UNL     1      22.089   6.017 -12.284  1.00  0.00     0.000 C 
BRANCH  16  17
ATOM     17  C   UNL     1      21.851   7.125 -11.245  1.00  0.00     0.000 C 
BRANCH  17  18
ATOM     18  C   UNL     1      21.740   6.574  -9.814  1.00  0.00    -0.000 C 
BRANCH  18  19
ATOM     19  C   UNL     1      20.322   6.079  -9.474  1.00  0.00    -0.000 C 
BRANCH  19  20
ATOM     20  C   UNL     1      19.179   6.967 -10.006  1.00  0.00    -0.000 C 
BRANCH  20  21
ATOM     21  C   UNL     1      18.274   6.307 -11.065  1.00  0.00    -0.000 C 
BRANCH  21  22
ATOM     22  C   UNL     1      17.834   4.870 -10.737  1.00  0.00    -0.000 C 
BRANCH  22  23
ATOM     23  C   UNL     1      18.231   3.861 -11.828  1.00  0.00    -0.000 C 
BRANCH  23  24
ATOM     24  C   UNL     1      19.384   4.383 -12.712  1.00  0.00    -0.000 C 
BRANCH  24  25
ATOM     25  C   UNL     1      19.860   3.368 -13.765  1.00  0.00    -0.003 C 
ATOM     26  C   UNL     1      18.929   2.164 -13.902  1.00  0.00     0.004 C 
ENDBRANCH  24  25
ENDBRANCH  23  24
ENDBRANCH  22  23
ENDBRANCH  21  22
ENDBRANCH  20  21
ENDBRANCH  19  20
ENDBRANCH  18  19
ENDBRANCH  17  18
ENDBRANCH  16  17
ENDBRANCH  15  16
ENDBRANCH   1  15
TORSDOF 22
ENDMDL
MODEL 5
REMARK VINA RESULT:     0.649      6.240      8.939
REMARK INTER + INTRA:           1.726
REMARK INTER:                   3.026
REMARK INTRA:                  -1.300
REMARK UNBOUND:                 0.242
REMARK SMILES CCCCCCCCCCCCCCCCCCCCCCCC(=O)[O-]
REMARK SMILES IDX 13 1 14 2 15 3 16 4 17 5 18 6 19 7 20 8 21 9 22 10 23 11
REMARK SMILES IDX 24 12 25 13 26 14 12 15 11 16 10 17 9 18 8 19 7 20 6 21 5 22
REMARK SMILES IDX 4 23 3 24 2 25 1 26
REMARK H PARENT
REMARK Flexibility Score: inf
ROOT
ATOM      1  C   UNL     1      25.144   4.369 -14.133  1.00  0.00     0.000 C 
ENDROOT
BRANCH   1   2
ATOM      2  C   UNL     1      25.038   5.901 -14.229  1.00  0.00     0.000 C 
BRANCH   2   3
ATOM      3  C   UNL     1      23.898   6.475 -13.367  1.00  0.00     0.000 C 
BRANCH   3   4
ATOM      4  C   UNL     1      22.902   5.430 -12.833  1.00  0.00     0.000 C 
BRANCH   4   5
ATOM      5  C   UNL     1      21.595   6.054 -12.321  1.00  0.00     0.000 C 
BRANCH   5   6
ATOM      6  C   UNL     1      21.848   6.908 -11.070  1.00  0.00     0.000 C 
BRANCH   6   7
ATOM      7  C   UNL     1      21.615   6.135  -9.761  1.00  0.00     0.000 C 
BRANCH   7   8
ATOM      8  C   UNL     1      20.141   6.023  -9.322  1.00  0.00     0.000 C 
BRANCH   8   9
ATOM      9  C   UNL     1      19.185   7.047  -9.962  1.00  0.00     0.000 C 
BRANCH   9  10
ATOM     10  C   UNL     1      17.979   6.446 -10.709  1.00  0.00     0.006 C 
BRANCH  10  11
ATOM     11  C   UNL     1      18.174   4.977 -11.129  1.00  0.00     0.053 C 
BRANCH  11  12
ATOM     12  C   UNL     1      16.966   4.133 -10.856  1.00  0.00     0.041 C 
ATOM     13  O   UNL     1      15.921   4.653 -10.386  1.00  0.00    -0.550 OA
ATOM     14  O   UNL     1      17.005   2.764 -11.091  1.00  0.00    -0.550 OA
ENDBRANCH  11  12
ENDBRANCH  10  11
ENDBRANCH   9  10
ENDBRANCH   8   9
ENDBRANCH   7   8
ENDBRANCH   6   7
ENDBRANCH   5   6
ENDBRANCH   4   5
ENDBRANCH   3   4
ENDBRANCH   2   3
ENDBRANCH   1   2
BRANCH   1  15
ATOM     15  C   UNL     1      26.566   3.854 -14.407  1.00  0.00     0.000 C 
BRANCH  15  16
ATOM     16  C   UNL     1      26.595   2.359 -14.772  1.00  0.00     0.000 C 
BRANCH  16  17
ATOM     17  C   UNL     1      25.188   1.790 -15.017  1.00  0.00     0.000 C 
BRANCH  17  18
ATOM     18  C   UNL     1      25.178   0.252 -15.070  1.00  0.00    -0.000 C 
BRANCH  18  19
ATOM     19  C   UNL     1      24.348  -0.297 -16.244  1.00  0.00    -0.000 C 
BRANCH  19  20
ATOM     20  C   UNL     1      24.292  -1.836 -16.337  1.00  0.00    -0.000 C 
BRANCH  20  21
ATOM     21  C   UNL     1      25.547  -2.503 -16.932  1.00  0.00    -0.000 C 
BRANCH  21  22
ATOM     22  C   UNL     1      25.285  -3.406 -18.150  1.00  0.00    -0.000 C 
BRANCH  22  23
ATOM     23  C   UNL     1      25.403  -2.654 -19.487  1.00  0.00    -0.000 C 
BRANCH  23  24
ATOM     24  C   UNL     1      25.917  -3.565 -20.623  1.00  0.00    -0.000 C 
BRANCH  24  25
ATOM     25  C   UNL     1      25.464  -5.028 -20.491  1.00  0.00    -0.003 C 
ATOM     26  C   UNL     1      26.324  -5.999 -21.298  1.00  0.00     0.004 C 
ENDBRANCH  24  25
ENDBRANCH  23  24
ENDBRANCH  22  23
ENDBRANCH  21  22
ENDBRANCH  20  21
ENDBRANCH  19  20
ENDBRANCH  18  19
ENDBRANCH  17  18
ENDBRANCH  16  17
ENDBRANCH  15  16
ENDBRANCH   1  15
TORSDOF 22
ENDMDL
MODEL 6
REMARK VINA RESULT:     0.736      6.829      9.390
REMARK INTER + INTRA:           1.924
REMARK INTER:                   2.919
REMARK INTRA:                  -0.995
REMARK UNBOUND:                 0.242
REMARK SMILES CCCCCCCCCCCCCCCCCCCCCCCC(=O)[O-]
REMARK SMILES IDX 13 1 14 2 15 3 16 4 17 5 18 6 19 7 20 8 21 9 22 10 23 11
REMARK SMILES IDX 24 12 25 13 26 14 12 15 11 16 10 17 9 18 8 19 7 20 6 21 5 22
REMARK SMILES IDX 4 23 3 24 2 25 1 26
REMARK H PARENT
REMARK Flexibility Score: inf
ROOT
ATOM      1  C   UNL     1      24.857   2.570 -14.532  1.00  0.00     0.000 C 
ENDROOT
BRANCH   1   2
ATOM      2  C   UNL     1      25.935   3.663 -14.429  1.00  0.00     0.000 C 
BRANCH   2   3
ATOM      3  C   UNL     1      25.341   5.079 -14.318  1.00  0.00     0.000 C 
BRANCH   3   4
ATOM      4  C   UNL     1      23.979   5.155 -13.605  1.00  0.00     0.000 C 
BRANCH   4   5
ATOM      5  C   UNL     1      23.570   6.591 -13.241  1.00  0.00     0.000 C 
BRANCH   5   6
ATOM      6  C   UNL     1      22.396   6.592 -12.251  1.00  0.00     0.000 C 
BRANCH   6   7
ATOM      7  C   UNL     1      21.568   5.297 -12.302  1.00  0.00     0.000 C 
BRANCH   7   8
ATOM      8  C   UNL     1      20.171   5.441 -12.940  1.00  0.00     0.000 C 
BRANCH   8   9
ATOM      9  C   UNL     1      19.336   6.631 -12.432  1.00  0.00     0.000 C 
BRANCH   9  10
ATOM     10  C   UNL     1      18.496   6.356 -11.171  1.00  0.00     0.006 C 
BRANCH  10  11
ATOM     11  C   UNL     1      18.563   4.897 -10.681  1.00  0.00     0.053 C 
BRANCH  11  12
ATOM     12  C   UNL     1      17.227   4.217 -10.704  1.00  0.00     0.041 C 
ATOM     13  O   UNL     1      16.205   4.813 -10.275  1.00  0.00    -0.550 OA
ATOM     14  O   UNL     1      17.117   2.913 -11.167  1.00  0.00    -0.550 OA
ENDBRANCH  11  12
ENDBRANCH  10  11
ENDBRANCH   9  10
ENDBRANCH   8   9
ENDBRANCH   7   8
ENDBRANCH   6   7
ENDBRANCH   5   6
ENDBRANCH   4   5
ENDBRANCH   3   4
ENDBRANCH   2   3
ENDBRANCH   1   2
BRANCH   1  15
ATOM     15  C   UNL     1      25.443   1.186 -14.852  1.00  0.00     0.000 C 
BRANCH  15  16
ATOM     16  C   UNL     1      24.518   0.344 -15.748  1.00  0.00     0.000 C 
BRANCH  16  17
ATOM     17  C   UNL     1      24.942  -1.133 -15.803  1.00  0.00     0.000 C 
BRANCH  17  18
ATOM     18  C   UNL     1      24.458  -1.835 -17.083  1.00  0.00    -0.000 C 
BRANCH  18  19
ATOM     19  C   UNL     1      24.989  -3.274 -17.210  1.00  0.00    -0.000 C 
BRANCH  19  20
ATOM     20  C   UNL     1      24.491  -4.044 -18.450  1.00  0.00    -0.000 C 
BRANCH  20  21
ATOM     21  C   UNL     1      24.128  -3.168 -19.665  1.00  0.00    -0.000 C 
BRANCH  21  22
ATOM     22  C   UNL     1      25.315  -2.431 -20.309  1.00  0.00    -0.000 C 
BRANCH  22  23
ATOM     23  C   UNL     1      26.326  -3.386 -20.964  1.00  0.00    -0.000 C 
BRANCH  23  24
ATOM     24  C   UNL     1      25.644  -4.637 -21.559  1.00  0.00    -0.000 C 
BRANCH  24  25
ATOM     25  C   UNL     1      26.424  -5.939 -21.313  1.00  0.00    -0.003 C 
ATOM     26  C   UNL     1      25.544  -7.081 -20.809  1.00  0.00     0.004 C 
ENDBRANCH  24  25
ENDBRANCH  23  24
ENDBRANCH  22  23
ENDBRANCH  21  22
ENDBRANCH  20  21
ENDBRANCH  19  20
ENDBRANCH  18  19
ENDBRANCH  17  18
ENDBRANCH  16  17
ENDBRANCH  15  16
ENDBRANCH   1  15
TORSDOF 22
ENDMDL
MODEL 7
REMARK VINA RESULT:     0.783      5.971      8.400
REMARK INTER + INTRA:           2.033
REMARK INTER:                   3.140
REMARK INTRA:                  -1.107
REMARK UNBOUND:                 0.242
REMARK SMILES CCCCCCCCCCCCCCCCCCCCCCCC(=O)[O-]
REMARK SMILES IDX 13 1 14 2 15 3 16 4 17 5 18 6 19 7 20 8 21 9 22 10 23 11
REMARK SMILES IDX 24 12 25 13 26 14 12 15 11 16 10 17 9 18 8 19 7 20 6 21 5 22
REMARK SMILES IDX 4 23 3 24 2 25 1 26
REMARK H PARENT
REMARK Flexibility Score: inf
ROOT
ATOM      1  C   UNL     1      19.141   0.742 -16.182  1.00  0.00     0.000 C 
ENDROOT
BRANCH   1   2
ATOM      2  C   UNL     1      20.602   1.210 -16.293  1.00  0.00     0.000 C 
BRANCH   2   3
ATOM      3  C   UNL     1      21.288   0.726 -17.584  1.00  0.00     0.000 C 
BRANCH   3   4
ATOM      4  C   UNL     1      22.679   0.098 -17.381  1.00  0.00     0.000 C 
BRANCH   4   5
ATOM      5  C   UNL     1      23.469  -0.048 -18.691  1.00  0.00     0.000 C 
BRANCH   5   6
ATOM      6  C   UNL     1      24.061  -1.459 -18.820  1.00  0.00     0.000 C 
BRANCH   6   7
ATOM      7  C   UNL     1      24.733  -1.704 -20.181  1.00  0.00     0.000 C 
BRANCH   7   8
ATOM      8  C   UNL     1      25.910  -2.700 -20.157  1.00  0.00     0.000 C 
BRANCH   8   9
ATOM      9  C   UNL     1      26.283  -3.245 -18.765  1.00  0.00     0.000 C 
BRANCH   9  10
ATOM     10  C   UNL     1      25.640  -4.595 -18.394  1.00  0.00     0.006 C 
BRANCH  10  11
ATOM     11  C   UNL     1      24.824  -5.234 -19.533  1.00  0.00     0.053 C 
BRANCH  11  12
ATOM     12  C   UNL     1      25.648  -6.141 -20.396  1.00  0.00     0.041 C 
ATOM     13  O   UNL     1      26.506  -5.663 -21.183  1.00  0.00    -0.550 OA
ATOM     14  O   UNL     1      25.444  -7.515 -20.356  1.00  0.00    -0.550 OA
ENDBRANCH  11  12
ENDBRANCH  10  11
ENDBRANCH   9  10
ENDBRANCH   8   9
ENDBRANCH   7   8
ENDBRANCH   6   7
ENDBRANCH   5   6
ENDBRANCH   4   5
ENDBRANCH   3   4
ENDBRANCH   2   3
ENDBRANCH   1   2
BRANCH   1  15
ATOM     15  C   UNL     1      18.468   1.199 -14.878  1.00  0.00     0.000 C 
BRANCH  15  16
ATOM     16  C   UNL     1      19.237   2.335 -14.182  1.00  0.00     0.000 C 
BRANCH  16  17
ATOM     17  C   UNL     1      18.672   2.657 -12.789  1.00  0.00     0.000 C 
BRANCH  17  18
ATOM     18  C   UNL     1      18.960   4.105 -12.358  1.00  0.00    -0.000 C 
BRANCH  18  19
ATOM     19  C   UNL     1      18.298   4.471 -11.018  1.00  0.00    -0.000 C 
BRANCH  19  20
ATOM     20  C   UNL     1      17.924   5.959 -10.861  1.00  0.00    -0.000 C 
BRANCH  20  21
ATOM     21  C   UNL     1      19.117   6.922 -10.699  1.00  0.00    -0.000 C 
BRANCH  21  22
ATOM     22  C   UNL     1      20.287   6.368  -9.866  1.00  0.00    -0.000 C 
BRANCH  22  23
ATOM     23  C   UNL     1      21.654   6.897 -10.333  1.00  0.00    -0.000 C 
BRANCH  23  24
ATOM     24  C   UNL     1      21.854   6.730 -11.855  1.00  0.00    -0.000 C 
BRANCH  24  25
ATOM     25  C   UNL     1      22.384   5.343 -12.257  1.00  0.00    -0.003 C 
ATOM     26  C   UNL     1      23.437   5.399 -13.361  1.00  0.00     0.004 C 
ENDBRANCH  24  25
ENDBRANCH  23  24
ENDBRANCH  22  23
ENDBRANCH  21  22
ENDBRANCH  20  21
ENDBRANCH  19  20
ENDBRANCH  18  19
ENDBRANCH  17  18
ENDBRANCH  16  17
ENDBRANCH  15  16
ENDBRANCH   1  15
TORSDOF 22
ENDMDL
MODEL 8
REMARK VINA RESULT:     0.800      4.795      7.306
REMARK INTER + INTRA:           2.071
REMARK INTER:                   3.922
REMARK INTRA:                  -1.851
REMARK UNBOUND:                 0.242
REMARK SMILES CCCCCCCCCCCCCCCCCCCCCCCC(=O)[O-]
REMARK SMILES IDX 13 1 14 2 15 3 16 4 17 5 18 6 19 7 20 8 21 9 22 10 23 11
REMARK SMILES IDX 24 12 25 13 26 14 12 15 11 16 10 17 9 18 8 19 7 20 6 21 5 22
REMARK SMILES IDX 4 23 3 24 2 25 1 26
REMARK H PARENT
REMARK Flexibility Score: inf
ROOT
ATOM      1  C   UNL     1      18.925   1.954 -13.624  1.00  0.00     0.000 C 
ENDROOT
BRANCH   1   2
ATOM      2  C   UNL     1      18.643   2.035 -15.134  1.00  0.00     0.000 C 
BRANCH   2   3
ATOM      3  C   UNL     1      18.677   0.658 -15.823  1.00  0.00     0.000 C 
BRANCH   3   4
ATOM      4  C   UNL     1      19.560   0.587 -17.082  1.00  0.00     0.000 C 
BRANCH   4   5
ATOM      5  C   UNL     1      21.051   0.808 -16.784  1.00  0.00     0.000 C 
BRANCH   5   6
ATOM      6  C   UNL     1      21.927   0.196 -17.887  1.00  0.00     0.000 C 
BRANCH   6   7
ATOM      7  C   UNL     1      23.395   0.029 -17.462  1.00  0.00     0.000 C 
BRANCH   7   8
ATOM      8  C   UNL     1      24.199  -1.001 -18.281  1.00  0.00     0.000 C 
BRANCH   8   9
ATOM      9  C   UNL     1      24.657  -2.248 -17.501  1.00  0.00     0.000 C 
BRANCH   9  10
ATOM     10  C   UNL     1      24.550  -3.580 -18.268  1.00  0.00     0.006 C 
BRANCH  10  11
ATOM     11  C   UNL     1      24.542  -3.420 -19.800  1.00  0.00     0.053 C 
BRANCH  11  12
ATOM     12  C   UNL     1      25.913  -3.515 -20.398  1.00  0.00     0.041 C 
ATOM     13  O   UNL     1      26.767  -2.618 -20.173  1.00  0.00    -0.550 OA
ATOM     14  O   UNL     1      26.237  -4.577 -21.232  1.00  0.00    -0.550 OA
ENDBRANCH  11  12
ENDBRANCH  10  11
ENDBRANCH   9  10
ENDBRANCH   8   9
ENDBRANCH   7   8
ENDBRANCH   6   7
ENDBRANCH   5   6
ENDBRANCH   4   5
ENDBRANCH   3   4
ENDBRANCH   2   3
ENDBRANCH   1   2
BRANCH   1  15
ATOM     15  C   UNL     1      19.220   3.327 -13.000  1.00  0.00     0.000 C 
BRANCH  15  16
ATOM     16  C   UNL     1      20.143   4.190 -13.878  1.00  0.00     0.000 C 
BRANCH  16  17
ATOM     17  C   UNL     1      21.290   4.824 -13.075  1.00  0.00     0.000 C 
BRANCH  17  18
ATOM     18  C   UNL     1      21.054   6.317 -12.792  1.00  0.00    -0.000 C 
BRANCH  18  19
ATOM     19  C   UNL     1      22.128   6.925 -11.871  1.00  0.00    -0.000 C 
BRANCH  19  20
ATOM     20  C   UNL     1      21.694   7.116 -10.404  1.00  0.00    -0.000 C 
BRANCH  20  21
ATOM     21  C   UNL     1      21.433   5.813  -9.622  1.00  0.00    -0.000 C 
BRANCH  21  22
ATOM     22  C   UNL     1      19.950   5.429  -9.480  1.00  0.00    -0.000 C 
BRANCH  22  23
ATOM     23  C   UNL     1      18.999   6.530  -9.980  1.00  0.00    -0.000 C 
BRANCH  23  24
ATOM     24  C   UNL     1      17.899   5.972 -10.909  1.00  0.00    -0.000 C 
BRANCH  24  25
ATOM     25  C   UNL     1      16.798   5.199 -10.164  1.00  0.00    -0.003 C 
ATOM     26  C   UNL     1      16.182   4.078 -10.999  1.00  0.00     0.004 C 
ENDBRANCH  24  25
ENDBRANCH  23  24
ENDBRANCH  22  23
ENDBRANCH  21  22
ENDBRANCH  20  21
ENDBRANCH  19  20
ENDBRANCH  18  19
ENDBRANCH  17  18
ENDBRANCH  16  17
ENDBRANCH  15  16
ENDBRANCH   1  15
TORSDOF 22
ENDMDL
MODEL 9
REMARK VINA RESULT:     0.833      6.389      8.681
REMARK INTER + INTRA:           2.146
REMARK INTER:                   3.519
REMARK INTRA:                  -1.373
REMARK UNBOUND:                 0.242
REMARK SMILES CCCCCCCCCCCCCCCCCCCCCCCC(=O)[O-]
REMARK SMILES IDX 13 1 14 2 15 3 16 4 17 5 18 6 19 7 20 8 21 9 22 10 23 11
REMARK SMILES IDX 24 12 25 13 26 14 12 15 11 16 10 17 9 18 8 19 7 20 6 21 5 22
REMARK SMILES IDX 4 23 3 24 2 25 1 26
REMARK H PARENT
REMARK Flexibility Score: inf
ROOT
ATOM      1  C   UNL     1      18.520   1.130 -14.299  1.00  0.00     0.000 C 
ENDROOT
BRANCH   1   2
ATOM      2  C   UNL     1      18.904   2.309 -13.388  1.00  0.00     0.000 C 
BRANCH   2   3
ATOM      3  C   UNL     1      19.746   3.375 -14.114  1.00  0.00     0.000 C 
BRANCH   3   4
ATOM      4  C   UNL     1      20.172   4.568 -13.240  1.00  0.00     0.000 C 
BRANCH   4   5
ATOM      5  C   UNL     1      21.621   5.011 -13.491  1.00  0.00     0.000 C 
BRANCH   5   6
ATOM      6  C   UNL     1      22.314   5.392 -12.175  1.00  0.00     0.000 C 
BRANCH   6   7
ATOM      7  C   UNL     1      21.818   6.730 -11.603  1.00  0.00     0.000 C 
BRANCH   7   8
ATOM      8  C   UNL     1      21.318   6.671 -10.145  1.00  0.00     0.000 C 
BRANCH   8   9
ATOM      9  C   UNL     1      19.788   6.717  -9.973  1.00  0.00     0.000 C 
BRANCH   9  10
ATOM     10  C   UNL     1      19.044   5.422 -10.351  1.00  0.00     0.006 C 
BRANCH  10  11
ATOM     11  C   UNL     1      17.545   5.623 -10.640  1.00  0.00     0.053 C 
BRANCH  11  12
ATOM     12  C   UNL     1      16.805   4.328 -10.790  1.00  0.00     0.041 C 
ATOM     13  O   UNL     1      17.332   3.249 -10.412  1.00  0.00    -0.550 OA
ATOM     14  O   UNL     1      15.547   4.308 -11.377  1.00  0.00    -0.550 OA
ENDBRANCH  11  12
ENDBRANCH  10  11
ENDBRANCH   9  10
ENDBRANCH   8   9
ENDBRANCH   7   8
ENDBRANCH   6   7
ENDBRANCH   5   6
ENDBRANCH   4   5
ENDBRANCH   3   4
ENDBRANCH   2   3
ENDBRANCH   1   2
BRANCH   1  15
ATOM     15  C   UNL     1      18.742   1.434 -15.789  1.00  0.00     0.000 C 
BRANCH  15  16
ATOM     16  C   UNL     1      19.773   0.494 -16.438  1.00  0.00     0.000 C 
BRANCH  16  17
ATOM     17  C   UNL     1      21.068   1.226 -16.827  1.00  0.00     0.000 C 
BRANCH  17  18
ATOM     18  C   UNL     1      21.882   0.457 -17.882  1.00  0.00    -0.000 C 
BRANCH  18  19
ATOM     19  C   UNL     1      23.167  -0.164 -17.305  1.00  0.00    -0.000 C 
BRANCH  19  20
ATOM     20  C   UNL     1      23.989  -1.004 -18.305  1.00  0.00    -0.000 C 
BRANCH  20  21
ATOM     21  C   UNL     1      24.732  -2.208 -17.694  1.00  0.00    -0.000 C 
BRANCH  21  22
ATOM     22  C   UNL     1      24.784  -3.458 -18.590  1.00  0.00    -0.000 C 
BRANCH  22  23
ATOM     23  C   UNL     1      25.044  -3.123 -20.068  1.00  0.00    -0.000 C 
BRANCH  23  24
ATOM     24  C   UNL     1      26.051  -4.096 -20.718  1.00  0.00    -0.000 C 
BRANCH  24  25
ATOM     25  C   UNL     1      26.024  -5.507 -20.106  1.00  0.00    -0.003 C 
ATOM     26  C   UNL     1      25.918  -6.614 -21.154  1.00  0.00     0.004 C 
ENDBRANCH  24  25
ENDBRANCH  23  24
ENDBRANCH  22  23
ENDBRANCH  21  22
ENDBRANCH  20  21
ENDBRANCH  19  20
ENDBRANCH  18  19
ENDBRANCH  17  18
ENDBRANCH  16  17
ENDBRANCH  15  16
ENDBRANCH   1  15
TORSDOF 22
ENDMDL
