MODEL 1
REMARK VINA RESULT:    -5.233      0.000      0.000
REMARK INTER + INTRA:          -5.571
REMARK INTER:                  -5.539
REMARK INTRA:                  -0.032
REMARK UNBOUND:                -0.032
REMARK SMILES COc1ccc2ccc(=O)oc2c1
REMARK SMILES IDX 3 1 13 2 12 3 6 4 5 5 4 6 7 7 8 8 9 9 10 10 11 11 2 12 1 13
REMARK H PARENT
REMARK Flexibility Score: inf
ROOT
ATOM      1  C   UNL     1      23.163   5.815 -20.917  1.00  0.00     0.122 A 
ATOM      2  C   UNL     1      22.510   6.993 -20.504  1.00  0.00     0.094 A 
ATOM      3  C   UNL     1      23.159   7.900 -19.660  1.00  0.00     0.142 A 
ATOM      4  C   UNL     1      24.473   7.635 -19.219  1.00  0.00     0.018 A 
ATOM      5  C   UNL     1      25.123   6.463 -19.629  1.00  0.00     0.016 A 
ATOM      6  C   UNL     1      24.468   5.561 -20.472  1.00  0.00     0.047 A 
ATOM      7  C   UNL     1      25.095   8.561 -18.376  1.00  0.00     0.019 A 
ATOM      8  C   UNL     1      24.405   9.711 -17.998  1.00  0.00     0.094 A 
ATOM      9  C   UNL     1      23.105   9.910 -18.473  1.00  0.00     0.336 A 
ATOM     10  O   UNL     1      22.465  10.943 -18.142  1.00  0.00    -0.246 OA
ATOM     11  O   UNL     1      22.536   9.012 -19.274  1.00  0.00    -0.423 OA
ENDROOT
BRANCH   1  12
ATOM     12  O   UNL     1      22.555   4.874 -21.761  1.00  0.00    -0.497 OA
ATOM     13  C   UNL     1      22.990   4.585 -23.086  1.00  0.00     0.278 C 
ENDBRANCH   1  12
TORSDOF 1
ENDMDL
MODEL 2
REMARK VINA RESULT:    -5.050      6.179      8.494
REMARK INTER + INTRA:          -5.376
REMARK INTER:                  -5.341
REMARK INTRA:                  -0.036
REMARK UNBOUND:                -0.032
REMARK SMILES COc1ccc2ccc(=O)oc2c1
REMARK SMILES IDX 3 1 13 2 12 3 6 4 5 5 4 6 7 7 8 8 9 9 10 10 11 11 2 12 1 13
REMARK H PARENT
REMARK Flexibility Score: inf
ROOT
ATOM      1  C   UNL     1      22.040   1.183 -22.354  1.00  0.00     0.122 A 
ATOM      2  C   UNL     1      21.849   1.349 -20.968  1.00  0.00     0.094 A 
ATOM      3  C   UNL     1      21.094   0.419 -20.245  1.00  0.00     0.142 A 
ATOM      4  C   UNL     1      20.523  -0.690 -20.905  1.00  0.00     0.018 A 
ATOM      5  C   UNL     1      20.713  -0.855 -22.283  1.00  0.00     0.016 A 
ATOM      6  C   UNL     1      21.468   0.078 -23.000  1.00  0.00     0.047 A 
ATOM      7  C   UNL     1      19.774  -1.602 -20.155  1.00  0.00     0.019 A 
ATOM      8  C   UNL     1      19.615  -1.392 -18.786  1.00  0.00     0.094 A 
ATOM      9  C   UNL     1      20.210  -0.271 -18.198  1.00  0.00     0.336 A 
ATOM     10  O   UNL     1      20.077  -0.064 -16.963  1.00  0.00    -0.246 OA
ATOM     11  O   UNL     1      20.917   0.581 -18.936  1.00  0.00    -0.423 OA
ENDROOT
BRANCH   1  12
ATOM     12  O   UNL     1      22.788   2.088 -23.123  1.00  0.00    -0.497 OA
ATOM     13  C   UNL     1      22.647   3.504 -23.060  1.00  0.00     0.278 C 
ENDBRANCH   1  12
TORSDOF 1
ENDMDL
MODEL 3
REMARK VINA RESULT:    -4.977     21.625     22.460
REMARK INTER + INTRA:          -5.300
REMARK INTER:                  -5.268
REMARK INTRA:                  -0.032
REMARK UNBOUND:                -0.032
REMARK SMILES COc1ccc2ccc(=O)oc2c1
REMARK SMILES IDX 3 1 13 2 12 3 6 4 5 5 4 6 7 7 8 8 9 9 10 10 11 11 2 12 1 13
REMARK H PARENT
REMARK Flexibility Score: inf
ROOT
ATOM      1  C   UNL     1      11.467  -6.096  -9.991  1.00  0.00     0.122 A 
ATOM      2  C   UNL     1      11.121  -6.334  -8.645  1.00  0.00     0.094 A 
ATOM      3  C   UNL     1       9.807  -6.131  -8.209  1.00  0.00     0.142 A 
ATOM      4  C   UNL     1       8.824  -5.687  -9.120  1.00  0.00     0.018 A 
ATOM      5  C   UNL     1       9.167  -5.451 -10.457  1.00  0.00     0.016 A 
ATOM      6  C   UNL     1      10.482  -5.655 -10.886  1.00  0.00     0.047 A 
ATOM      7  C   UNL     1       7.520  -5.494  -8.653  1.00  0.00     0.019 A 
ATOM      8  C   UNL     1       7.230  -5.743  -7.313  1.00  0.00     0.094 A 
ATOM      9  C   UNL     1       8.254  -6.182  -6.467  1.00  0.00     0.336 A 
ATOM     10  O   UNL     1       8.012  -6.412  -5.253  1.00  0.00    -0.246 OA
ATOM     11  O   UNL     1       9.487  -6.357  -6.937  1.00  0.00    -0.423 OA
ENDROOT
BRANCH   1  12
ATOM     12  O   UNL     1      12.769  -6.284 -10.476  1.00  0.00    -0.497 OA
ATOM     13  C   UNL     1      13.624  -5.232 -10.912  1.00  0.00     0.278 C 
ENDBRANCH   1  12
TORSDOF 1
ENDMDL
MODEL 4
REMARK VINA RESULT:    -4.950     21.885     22.844
REMARK INTER + INTRA:          -5.271
REMARK INTER:                  -5.238
REMARK INTRA:                  -0.033
REMARK UNBOUND:                -0.032
REMARK SMILES COc1ccc2ccc(=O)oc2c1
REMARK SMILES IDX 3 1 13 2 12 3 6 4 5 5 4 6 7 7 8 8 9 9 10 10 11 11 2 12 1 13
REMARK H PARENT
REMARK Flexibility Score: inf
ROOT
ATOM      1  C   UNL     1       8.393  -6.530  -7.057  1.00  0.00     0.122 A 
ATOM      2  C   UNL     1       9.774  -6.528  -7.341  1.00  0.00     0.094 A 
ATOM      3  C   UNL     1      10.232  -6.140  -8.604  1.00  0.00     0.142 A 
ATOM      4  C   UNL     1       9.310  -5.748  -9.599  1.00  0.00     0.018 A 
ATOM      5  C   UNL     1       7.938  -5.750  -9.316  1.00  0.00     0.016 A 
ATOM      6  C   UNL     1       7.486  -6.139  -8.052  1.00  0.00     0.047 A 
ATOM      7  C   UNL     1       9.800  -5.366 -10.851  1.00  0.00     0.019 A 
ATOM      8  C   UNL     1      11.175  -5.382 -11.081  1.00  0.00     0.094 A 
ATOM      9  C   UNL     1      12.030  -5.782 -10.049  1.00  0.00     0.336 A 
ATOM     10  O   UNL     1      13.275  -5.803 -10.238  1.00  0.00    -0.246 OA
ATOM     11  O   UNL     1      11.537  -6.141  -8.867  1.00  0.00    -0.423 OA
ENDROOT
BRANCH   1  12
ATOM     12  O   UNL     1       7.884  -6.911  -5.807  1.00  0.00    -0.497 OA
ATOM     13  C   UNL     1       7.492  -8.238  -5.469  1.00  0.00     0.278 C 
ENDBRANCH   1  12
TORSDOF 1
ENDMDL
MODEL 5
REMARK VINA RESULT:    -4.851     23.165     23.887
REMARK INTER + INTRA:          -5.166
REMARK INTER:                  -5.130
REMARK INTRA:                  -0.036
REMARK UNBOUND:                -0.032
REMARK SMILES COc1ccc2ccc(=O)oc2c1
REMARK SMILES IDX 3 1 13 2 12 3 6 4 5 5 4 6 7 7 8 8 9 9 10 10 11 11 2 12 1 13
REMARK H PARENT
REMARK Flexibility Score: inf
ROOT
ATOM      1  C   UNL     1       8.284  -6.316 -10.446  1.00  0.00     0.122 A 
ATOM      2  C   UNL     1       8.324  -5.492  -9.303  1.00  0.00     0.094 A 
ATOM      3  C   UNL     1       8.169  -6.047  -8.028  1.00  0.00     0.142 A 
ATOM      4  C   UNL     1       7.973  -7.438  -7.885  1.00  0.00     0.018 A 
ATOM      5  C   UNL     1       7.934  -8.257  -9.021  1.00  0.00     0.016 A 
ATOM      6  C   UNL     1       8.088  -7.695 -10.292  1.00  0.00     0.047 A 
ATOM      7  C   UNL     1       7.822  -7.962  -6.598  1.00  0.00     0.019 A 
ATOM      8  C   UNL     1       7.869  -7.104  -5.501  1.00  0.00     0.094 A 
ATOM      9  C   UNL     1       8.067  -5.737  -5.717  1.00  0.00     0.336 A 
ATOM     10  O   UNL     1       8.113  -4.946  -4.739  1.00  0.00    -0.246 OA
ATOM     11  O   UNL     1       8.207  -5.264  -6.953  1.00  0.00    -0.423 OA
ENDROOT
BRANCH   1  12
ATOM     12  O   UNL     1       8.433  -5.807 -11.745  1.00  0.00    -0.497 OA
ATOM     13  C   UNL     1       7.809  -4.618 -12.219  1.00  0.00     0.278 C 
ENDBRANCH   1  12
TORSDOF 1
ENDMDL
MODEL 6
REMARK VINA RESULT:    -4.783     22.535     23.279
REMARK INTER + INTRA:          -5.094
REMARK INTER:                  -5.055
REMARK INTRA:                  -0.039
REMARK UNBOUND:                -0.032
REMARK SMILES COc1ccc2ccc(=O)oc2c1
REMARK SMILES IDX 3 1 13 2 12 3 6 4 5 5 4 6 7 7 8 8 9 9 10 10 11 11 2 12 1 13
REMARK H PARENT
REMARK Flexibility Score: inf
ROOT
ATOM      1  C   UNL     1      11.274  -7.119  -9.535  1.00  0.00     0.122 A 
ATOM      2  C   UNL     1      10.814  -6.169  -8.601  1.00  0.00     0.094 A 
ATOM      3  C   UNL     1       9.818  -6.511  -7.680  1.00  0.00     0.142 A 
ATOM      4  C   UNL     1       9.273  -7.814  -7.684  1.00  0.00     0.018 A 
ATOM      5  C   UNL     1       9.731  -8.758  -8.611  1.00  0.00     0.016 A 
ATOM      6  C   UNL     1      10.726  -8.409  -9.529  1.00  0.00     0.047 A 
ATOM      7  C   UNL     1       8.280  -8.125  -6.750  1.00  0.00     0.019 A 
ATOM      8  C   UNL     1       7.860  -7.148  -5.849  1.00  0.00     0.094 A 
ATOM      9  C   UNL     1       8.444  -5.879  -5.902  1.00  0.00     0.336 A 
ATOM     10  O   UNL     1       8.077  -4.983  -5.096  1.00  0.00    -0.246 OA
ATOM     11  O   UNL     1       9.387  -5.609  -6.801  1.00  0.00    -0.423 OA
ENDROOT
BRANCH   1  12
ATOM     12  O   UNL     1      12.269  -6.825 -10.478  1.00  0.00    -0.497 OA
ATOM     13  C   UNL     1      13.029  -5.620 -10.496  1.00  0.00     0.278 C 
ENDBRANCH   1  12
TORSDOF 1
ENDMDL
MODEL 7
REMARK VINA RESULT:    -4.634     18.384     19.209
REMARK INTER + INTRA:          -4.936
REMARK INTER:                  -4.903
REMARK INTRA:                  -0.034
REMARK UNBOUND:                -0.032
REMARK SMILES COc1ccc2ccc(=O)oc2c1
REMARK SMILES IDX 3 1 13 2 12 3 6 4 5 5 4 6 7 7 8 8 9 9 10 10 11 11 2 12 1 13
REMARK H PARENT
REMARK Flexibility Score: inf
ROOT
ATOM      1  C   UNL     1      11.297   2.800  -3.562  1.00  0.00     0.122 A 
ATOM      2  C   UNL     1      11.698   2.385  -4.848  1.00  0.00     0.094 A 
ATOM      3  C   UNL     1      12.816   2.963  -5.458  1.00  0.00     0.142 A 
ATOM      4  C   UNL     1      13.548   3.965  -4.783  1.00  0.00     0.018 A 
ATOM      5  C   UNL     1      13.150   4.377  -3.505  1.00  0.00     0.016 A 
ATOM      6  C   UNL     1      12.031   3.796  -2.901  1.00  0.00     0.047 A 
ATOM      7  C   UNL     1      14.660   4.523  -5.419  1.00  0.00     0.019 A 
ATOM      8  C   UNL     1      15.015   4.078  -6.692  1.00  0.00     0.094 A 
ATOM      9  C   UNL     1      14.244   3.081  -7.301  1.00  0.00     0.336 A 
ATOM     10  O   UNL     1      14.548   2.666  -8.450  1.00  0.00    -0.246 OA
ATOM     11  O   UNL     1      13.189   2.567  -6.673  1.00  0.00    -0.423 OA
ENDROOT
BRANCH   1  12
ATOM     12  O   UNL     1      10.184   2.252  -2.908  1.00  0.00    -0.497 OA
ATOM     13  C   UNL     1       8.836   2.429  -3.333  1.00  0.00     0.278 C 
ENDBRANCH   1  12
TORSDOF 1
ENDMDL
MODEL 8
REMARK VINA RESULT:    -4.560     18.010     18.605
REMARK INTER + INTRA:          -4.858
REMARK INTER:                  -4.825
REMARK INTRA:                  -0.033
REMARK UNBOUND:                -0.032
REMARK SMILES COc1ccc2ccc(=O)oc2c1
REMARK SMILES IDX 3 1 13 2 12 3 6 4 5 5 4 6 7 7 8 8 9 9 10 10 11 11 2 12 1 13
REMARK H PARENT
REMARK Flexibility Score: inf
ROOT
ATOM      1  C   UNL     1      13.922   3.135  -7.280  1.00  0.00     0.122 A 
ATOM      2  C   UNL     1      12.739   2.611  -6.723  1.00  0.00     0.094 A 
ATOM      3  C   UNL     1      12.353   2.966  -5.426  1.00  0.00     0.142 A 
ATOM      4  C   UNL     1      13.151   3.853  -4.672  1.00  0.00     0.018 A 
ATOM      5  C   UNL     1      14.327   4.375  -5.226  1.00  0.00     0.016 A 
ATOM      6  C   UNL     1      14.708   4.015  -6.522  1.00  0.00     0.047 A 
ATOM      7  C   UNL     1      12.738   4.189  -3.379  1.00  0.00     0.019 A 
ATOM      8  C   UNL     1      11.559   3.642  -2.875  1.00  0.00     0.094 A 
ATOM      9  C   UNL     1      10.817   2.770  -3.679  1.00  0.00     0.336 A 
ATOM     10  O   UNL     1       9.750   2.266  -3.241  1.00  0.00    -0.246 OA
ATOM     11  O   UNL     1      11.234   2.467  -4.906  1.00  0.00    -0.423 OA
ENDROOT
BRANCH   1  12
ATOM     12  O   UNL     1      14.352   2.809  -8.575  1.00  0.00    -0.497 OA
ATOM     13  C   UNL     1      15.312   1.800  -8.872  1.00  0.00     0.278 C 
ENDBRANCH   1  12
TORSDOF 1
ENDMDL
