MODEL 1
REMARK VINA RESULT:    -3.304      0.000      0.000
REMARK INTER + INTRA:          -8.581
REMARK INTER:                  -6.395
REMARK INTRA:                  -2.185
REMARK UNBOUND:                -2.185
REMARK SMILES CCCCCCCCCCCCCCCCCC(=O)[O-]
REMARK SMILES IDX 10 1 11 2 12 3 13 4 14 5 15 6 16 7 17 8 18 9 19 10 20 11
REMARK SMILES IDX 9 12 8 13 7 14 6 15 5 16 4 17 3 18 2 19 1 20
REMARK H PARENT
REMARK Flexibility Score: inf
ROOT
ATOM      1  C   UNL     1      59.728  20.851  52.229  1.00  0.00     0.000 C 
ENDROOT
BRANCH   1   2
ATOM      2  C   UNL     1      60.861  20.617  51.210  1.00  0.00     0.000 C 
BRANCH   2   3
ATOM      3  C   UNL     1      60.394  20.360  49.764  1.00  0.00     0.000 C 
BRANCH   3   4
ATOM      4  C   UNL     1      60.748  21.468  48.755  1.00  0.00     0.000 C 
BRANCH   4   5
ATOM      5  C   UNL     1      61.151  22.807  49.412  1.00  0.00     0.000 C 
BRANCH   5   6
ATOM      6  C   UNL     1      59.942  23.715  49.683  1.00  0.00     0.000 C 
BRANCH   6   7
ATOM      7  C   UNL     1      60.365  25.188  49.771  1.00  0.00     0.006 C 
BRANCH   7   8
ATOM      8  C   UNL     1      59.248  26.138  49.320  1.00  0.00     0.053 C 
BRANCH   8   9
ATOM      9  C   UNL     1      59.798  27.385  48.696  1.00  0.00     0.041 C 
ATOM     10  O   UNL     1      61.040  27.520  48.537  1.00  0.00    -0.550 OA
ATOM     11  O   UNL     1      58.938  28.391  48.270  1.00  0.00    -0.550 OA
ENDBRANCH   8   9
ENDBRANCH   7   8
ENDBRANCH   6   7
ENDBRANCH   5   6
ENDBRANCH   4   5
ENDBRANCH   3   4
ENDBRANCH   2   3
ENDBRANCH   1   2
BRANCH   1  12
ATOM     12  C   UNL     1      59.552  19.731  53.273  1.00  0.00     0.000 C 
BRANCH  12  13
ATOM     13  C   UNL     1      58.163  19.057  53.233  1.00  0.00    -0.000 C 
BRANCH  13  14
ATOM     14  C   UNL     1      57.319  19.530  52.038  1.00  0.00    -0.000 C 
BRANCH  14  15
ATOM     15  C   UNL     1      56.769  18.364  51.195  1.00  0.00    -0.000 C 
BRANCH  15  16
ATOM     16  C   UNL     1      57.376  18.284  49.779  1.00  0.00    -0.000 C 
BRANCH  16  17
ATOM     17  C   UNL     1      58.349  17.100  49.629  1.00  0.00    -0.000 C 
BRANCH  17  18
ATOM     18  C   UNL     1      58.337  16.161  50.850  1.00  0.00    -0.000 C 
BRANCH  18  19
ATOM     19  C   UNL     1      59.710  15.960  51.520  1.00  0.00    -0.003 C 
ATOM     20  C   UNL     1      60.777  16.918  50.983  1.00  0.00     0.004 C 
ENDBRANCH  18  19
ENDBRANCH  17  18
ENDBRANCH  16  17
ENDBRANCH  15  16
ENDBRANCH  14  15
ENDBRANCH  13  14
ENDBRANCH  12  13
ENDBRANCH   1  12
TORSDOF 16
ENDMDL
MODEL 2
REMARK VINA RESULT:    -3.291      0.907      2.260
REMARK INTER + INTRA:          -8.554
REMARK INTER:                  -6.536
REMARK INTRA:                  -2.018
REMARK UNBOUND:                -2.185
REMARK SMILES CCCCCCCCCCCCCCCCCC(=O)[O-]
REMARK SMILES IDX 10 1 11 2 12 3 13 4 14 5 15 6 16 7 17 8 18 9 19 10 20 11
REMARK SMILES IDX 9 12 8 13 7 14 6 15 5 16 4 17 3 18 2 19 1 20
REMARK H PARENT
REMARK Flexibility Score: inf
ROOT
ATOM      1  C   UNL     1      60.676  19.924  52.288  1.00  0.00     0.000 C 
ENDROOT
BRANCH   1   2
ATOM      2  C   UNL     1      59.952  20.550  51.080  1.00  0.00     0.000 C 
BRANCH   2   3
ATOM      3  C   UNL     1      60.615  20.285  49.714  1.00  0.00     0.000 C 
BRANCH   3   4
ATOM      4  C   UNL     1      60.698  21.506  48.779  1.00  0.00     0.000 C 
BRANCH   4   5
ATOM      5  C   UNL     1      61.171  22.800  49.478  1.00  0.00     0.000 C 
BRANCH   5   6
ATOM      6  C   UNL     1      60.032  23.811  49.674  1.00  0.00     0.000 C 
BRANCH   6   7
ATOM      7  C   UNL     1      60.459  25.217  49.230  1.00  0.00     0.006 C 
BRANCH   7   8
ATOM      8  C   UNL     1      59.255  26.139  48.995  1.00  0.00     0.053 C 
BRANCH   8   9
ATOM      9  C   UNL     1      59.661  27.581  48.940  1.00  0.00     0.041 C 
ATOM     10  O   UNL     1      58.964  28.412  48.300  1.00  0.00    -0.550 OA
ATOM     11  O   UNL     1      60.799  28.012  49.612  1.00  0.00    -0.550 OA
ENDBRANCH   8   9
ENDBRANCH   7   8
ENDBRANCH   6   7
ENDBRANCH   5   6
ENDBRANCH   4   5
ENDBRANCH   3   4
ENDBRANCH   2   3
ENDBRANCH   1   2
BRANCH   1  12
ATOM     12  C   UNL     1      60.631  18.385  52.347  1.00  0.00     0.000 C 
BRANCH  12  13
ATOM     13  C   UNL     1      59.633  17.834  53.390  1.00  0.00    -0.000 C 
BRANCH  13  14
ATOM     14  C   UNL     1      59.034  16.483  52.968  1.00  0.00    -0.000 C 
BRANCH  14  15
ATOM     15  C   UNL     1      59.374  16.104  51.515  1.00  0.00    -0.000 C 
BRANCH  15  16
ATOM     16  C   UNL     1      58.171  16.191  50.554  1.00  0.00    -0.000 C 
BRANCH  16  17
ATOM     17  C   UNL     1      58.215  17.458  49.681  1.00  0.00    -0.000 C 
BRANCH  17  18
ATOM     18  C   UNL     1      56.942  18.317  49.814  1.00  0.00    -0.000 C 
BRANCH  18  19
ATOM     19  C   UNL     1      56.218  18.183  51.167  1.00  0.00    -0.003 C 
ATOM     20  C   UNL     1      56.544  19.328  52.130  1.00  0.00     0.004 C 
ENDBRANCH  18  19
ENDBRANCH  17  18
ENDBRANCH  16  17
ENDBRANCH  15  16
ENDBRANCH  14  15
ENDBRANCH  13  14
ENDBRANCH  12  13
ENDBRANCH   1  12
TORSDOF 16
ENDMDL
MODEL 3
REMARK VINA RESULT:    -3.238      3.828      8.158
REMARK INTER + INTRA:          -8.451
REMARK INTER:                  -6.425
REMARK INTRA:                  -2.026
REMARK UNBOUND:                -2.185
REMARK SMILES CCCCCCCCCCCCCCCCCC(=O)[O-]
REMARK SMILES IDX 10 1 11 2 12 3 13 4 14 5 15 6 16 7 17 8 18 9 19 10 20 11
REMARK SMILES IDX 9 12 8 13 7 14 6 15 5 16 4 17 3 18 2 19 1 20
REMARK H PARENT
REMARK Flexibility Score: inf
ROOT
ATOM      1  C   UNL     1      60.134  24.248  49.854  1.00  0.00     0.000 C 
ENDROOT
BRANCH   1   2
ATOM      2  C   UNL     1      61.579  23.790  50.138  1.00  0.00     0.000 C 
BRANCH   2   3
ATOM      3  C   UNL     1      61.925  22.377  49.630  1.00  0.00     0.000 C 
BRANCH   3   4
ATOM      4  C   UNL     1      61.009  21.840  48.514  1.00  0.00     0.000 C 
BRANCH   4   5
ATOM      5  C   UNL     1      60.309  20.508  48.865  1.00  0.00     0.000 C 
BRANCH   5   6
ATOM      6  C   UNL     1      60.050  20.360  50.372  1.00  0.00     0.000 C 
BRANCH   6   7
ATOM      7  C   UNL     1      59.952  18.882  50.773  1.00  0.00     0.006 C 
BRANCH   7   8
ATOM      8  C   UNL     1      59.419  18.007  49.631  1.00  0.00     0.053 C 
BRANCH   8   9
ATOM      9  C   UNL     1      58.033  17.510  49.912  1.00  0.00     0.041 C 
ATOM     10  O   UNL     1      57.053  18.299  49.851  1.00  0.00    -0.550 OA
ATOM     11  O   UNL     1      57.820  16.172  50.220  1.00  0.00    -0.550 OA
ENDBRANCH   8   9
ENDBRANCH   7   8
ENDBRANCH   6   7
ENDBRANCH   5   6
ENDBRANCH   4   5
ENDBRANCH   3   4
ENDBRANCH   2   3
ENDBRANCH   1   2
BRANCH   1  12
ATOM     12  C   UNL     1      59.262  24.458  51.107  1.00  0.00     0.000 C 
BRANCH  12  13
ATOM     13  C   UNL     1      57.791  24.806  50.787  1.00  0.00    -0.000 C 
BRANCH  13  14
ATOM     14  C   UNL     1      57.655  25.657  49.514  1.00  0.00    -0.000 C 
BRANCH  14  15
ATOM     15  C   UNL     1      56.877  26.965  49.749  1.00  0.00    -0.000 C 
BRANCH  15  16
ATOM     16  C   UNL     1      57.747  28.233  49.629  1.00  0.00    -0.000 C 
BRANCH  16  17
ATOM     17  C   UNL     1      59.191  27.910  49.199  1.00  0.00    -0.000 C 
BRANCH  17  18
ATOM     18  C   UNL     1      60.233  28.333  50.251  1.00  0.00    -0.000 C 
BRANCH  18  19
ATOM     19  C   UNL     1      61.616  27.674  50.085  1.00  0.00    -0.003 C 
ATOM     20  C   UNL     1      61.885  27.215  48.650  1.00  0.00     0.004 C 
ENDBRANCH  18  19
ENDBRANCH  17  18
ENDBRANCH  16  17
ENDBRANCH  15  16
ENDBRANCH  14  15
ENDBRANCH  13  14
ENDBRANCH  12  13
ENDBRANCH   1  12
TORSDOF 16
ENDMDL
MODEL 4
REMARK VINA RESULT:    -3.230      4.242      9.250
REMARK INTER + INTRA:          -8.436
REMARK INTER:                  -7.696
REMARK INTRA:                  -0.740
REMARK UNBOUND:                -2.185
REMARK SMILES CCCCCCCCCCCCCCCCCC(=O)[O-]
REMARK SMILES IDX 10 1 11 2 12 3 13 4 14 5 15 6 16 7 17 8 18 9 19 10 20 11
REMARK SMILES IDX 9 12 8 13 7 14 6 15 5 16 4 17 3 18 2 19 1 20
REMARK H PARENT
REMARK Flexibility Score: inf
ROOT
ATOM      1  C   UNL     1      60.512  23.667  49.466  1.00  0.00     0.000 C 
ENDROOT
BRANCH   1   2
ATOM      2  C   UNL     1      61.872  22.942  49.433  1.00  0.00     0.000 C 
BRANCH   2   3
ATOM      3  C   UNL     1      61.820  21.483  48.940  1.00  0.00     0.000 C 
BRANCH   3   4
ATOM      4  C   UNL     1      60.417  20.847  48.925  1.00  0.00     0.000 C 
BRANCH   4   5
ATOM      5  C   UNL     1      60.053  20.100  50.227  1.00  0.00     0.000 C 
BRANCH   5   6
ATOM      6  C   UNL     1      59.936  18.582  50.020  1.00  0.00     0.000 C 
BRANCH   6   7
ATOM      7  C   UNL     1      58.819  18.245  49.022  1.00  0.00     0.006 C 
BRANCH   7   8
ATOM      8  C   UNL     1      57.750  17.334  49.638  1.00  0.00     0.053 C 
BRANCH   8   9
ATOM      9  C   UNL     1      56.698  18.120  50.360  1.00  0.00     0.041 C 
ATOM     10  O   UNL     1      56.898  18.511  51.540  1.00  0.00    -0.550 OA
ATOM     11  O   UNL     1      55.505  18.442  49.723  1.00  0.00    -0.550 OA
ENDBRANCH   8   9
ENDBRANCH   7   8
ENDBRANCH   6   7
ENDBRANCH   5   6
ENDBRANCH   4   5
ENDBRANCH   3   4
ENDBRANCH   2   3
ENDBRANCH   1   2
BRANCH   1  12
ATOM     12  C   UNL     1      60.597  25.206  49.493  1.00  0.00     0.000 C 
BRANCH  12  13
ATOM     13  C   UNL     1      59.319  25.907  48.982  1.00  0.00    -0.000 C 
BRANCH  13  14
ATOM     14  C   UNL     1      59.549  27.396  48.680  1.00  0.00    -0.000 C 
BRANCH  14  15
ATOM     15  C   UNL     1      58.386  28.289  49.149  1.00  0.00    -0.000 C 
BRANCH  15  16
ATOM     16  C   UNL     1      57.190  27.500  49.719  1.00  0.00    -0.000 C 
BRANCH  16  17
ATOM     17  C   UNL     1      55.981  28.407  50.012  1.00  0.00    -0.000 C 
BRANCH  17  18
ATOM     18  C   UNL     1      56.368  29.685  50.779  1.00  0.00    -0.000 C 
BRANCH  18  19
ATOM     19  C   UNL     1      55.485  30.910  50.473  1.00  0.00    -0.003 C 
ATOM     20  C   UNL     1      55.331  31.845  51.676  1.00  0.00     0.004 C 
ENDBRANCH  18  19
ENDBRANCH  17  18
ENDBRANCH  16  17
ENDBRANCH  15  16
ENDBRANCH  14  15
ENDBRANCH  13  14
ENDBRANCH  12  13
ENDBRANCH   1  12
TORSDOF 16
ENDMDL
MODEL 5
REMARK VINA RESULT:    -3.187      3.357      7.666
REMARK INTER + INTRA:          -8.353
REMARK INTER:                  -6.951
REMARK INTRA:                  -1.401
REMARK UNBOUND:                -2.185
REMARK SMILES CCCCCCCCCCCCCCCCCC(=O)[O-]
REMARK SMILES IDX 10 1 11 2 12 3 13 4 14 5 15 6 16 7 17 8 18 9 19 10 20 11
REMARK SMILES IDX 9 12 8 13 7 14 6 15 5 16 4 17 3 18 2 19 1 20
REMARK H PARENT
REMARK Flexibility Score: inf
ROOT
ATOM      1  C   UNL     1      60.254  18.885  51.780  1.00  0.00     0.000 C 
ENDROOT
BRANCH   1   2
ATOM      2  C   UNL     1      60.288  17.646  50.863  1.00  0.00     0.000 C 
BRANCH   2   3
ATOM      3  C   UNL     1      59.381  16.482  51.308  1.00  0.00     0.000 C 
BRANCH   3   4
ATOM      4  C   UNL     1      58.107  16.287  50.465  1.00  0.00     0.000 C 
BRANCH   4   5
ATOM      5  C   UNL     1      57.708  17.527  49.635  1.00  0.00     0.000 C 
BRANCH   5   6
ATOM      6  C   UNL     1      56.374  18.136  50.093  1.00  0.00     0.000 C 
BRANCH   6   7
ATOM      7  C   UNL     1      56.489  18.715  51.511  1.00  0.00     0.006 C 
BRANCH   7   8
ATOM      8  C   UNL     1      55.136  18.746  52.233  1.00  0.00     0.053 C 
BRANCH   8   9
ATOM      9  C   UNL     1      54.756  20.137  52.643  1.00  0.00     0.041 C 
ATOM     10  O   UNL     1      55.646  21.007  52.834  1.00  0.00    -0.550 OA
ATOM     11  O   UNL     1      53.417  20.479  52.793  1.00  0.00    -0.550 OA
ENDBRANCH   8   9
ENDBRANCH   7   8
ENDBRANCH   6   7
ENDBRANCH   5   6
ENDBRANCH   4   5
ENDBRANCH   3   4
ENDBRANCH   2   3
ENDBRANCH   1   2
BRANCH   1  12
ATOM     12  C   UNL     1      59.937  20.213  51.065  1.00  0.00     0.000 C 
BRANCH  12  13
ATOM     13  C   UNL     1      60.248  20.193  49.552  1.00  0.00    -0.000 C 
BRANCH  13  14
ATOM     14  C   UNL     1      60.749  21.552  49.040  1.00  0.00    -0.000 C 
BRANCH  14  15
ATOM     15  C   UNL     1      60.426  22.710  50.001  1.00  0.00    -0.000 C 
BRANCH  15  16
ATOM     16  C   UNL     1      60.751  24.103  49.424  1.00  0.00    -0.000 C 
BRANCH  16  17
ATOM     17  C   UNL     1      59.521  25.029  49.409  1.00  0.00    -0.000 C 
BRANCH  17  18
ATOM     18  C   UNL     1      59.865  26.481  49.792  1.00  0.00    -0.000 C 
BRANCH  18  19
ATOM     19  C   UNL     1      59.643  27.512  48.668  1.00  0.00    -0.003 C 
ATOM     20  C   UNL     1      58.412  28.391  48.905  1.00  0.00     0.004 C 
ENDBRANCH  18  19
ENDBRANCH  17  18
ENDBRANCH  16  17
ENDBRANCH  15  16
ENDBRANCH  14  15
ENDBRANCH  13  14
ENDBRANCH  12  13
ENDBRANCH   1  12
TORSDOF 16
ENDMDL
MODEL 6
REMARK VINA RESULT:    -3.184     12.334     14.303
REMARK INTER + INTRA:          -8.347
REMARK INTER:                  -5.720
REMARK INTRA:                  -2.627
REMARK UNBOUND:                -2.185
REMARK SMILES CCCCCCCCCCCCCCCCCC(=O)[O-]
REMARK SMILES IDX 10 1 11 2 12 3 13 4 14 5 15 6 16 7 17 8 18 9 19 10 20 11
REMARK SMILES IDX 9 12 8 13 7 14 6 15 5 16 4 17 3 18 2 19 1 20
REMARK H PARENT
REMARK Flexibility Score: inf
ROOT
ATOM      1  C   UNL     1      61.002  28.803  58.726  1.00  0.00     0.000 C 
ENDROOT
BRANCH   1   2
ATOM      2  C   UNL     1      60.370  30.121  59.218  1.00  0.00     0.000 C 
BRANCH   2   3
ATOM      3  C   UNL     1      60.427  31.286  58.210  1.00  0.00     0.000 C 
BRANCH   3   4
ATOM      4  C   UNL     1      61.797  31.508  57.542  1.00  0.00     0.000 C 
BRANCH   4   5
ATOM      5  C   UNL     1      62.216  32.992  57.448  1.00  0.00     0.000 C 
BRANCH   5   6
ATOM      6  C   UNL     1      61.337  33.906  58.316  1.00  0.00     0.000 C 
BRANCH   6   7
ATOM      7  C   UNL     1      62.189  34.938  59.069  1.00  0.00     0.006 C 
BRANCH   7   8
ATOM      8  C   UNL     1      63.419  34.302  59.729  1.00  0.00     0.053 C 
BRANCH   8   9
ATOM      9  C   UNL     1      63.738  34.944  61.044  1.00  0.00     0.041 C 
ATOM     10  O   UNL     1      64.869  34.778  61.573  1.00  0.00    -0.550 OA
ATOM     11  O   UNL     1      62.796  35.746  61.678  1.00  0.00    -0.550 OA
ENDBRANCH   8   9
ENDBRANCH   7   8
ENDBRANCH   6   7
ENDBRANCH   5   6
ENDBRANCH   4   5
ENDBRANCH   3   4
ENDBRANCH   2   3
ENDBRANCH   1   2
BRANCH   1  12
ATOM     12  C   UNL     1      61.987  28.148  59.712  1.00  0.00     0.000 C 
BRANCH  12  13
ATOM     13  C   UNL     1      62.225  28.977  60.994  1.00  0.00    -0.000 C 
BRANCH  13  14
ATOM     14  C   UNL     1      63.679  29.461  61.116  1.00  0.00    -0.000 C 
BRANCH  14  15
ATOM     15  C   UNL     1      63.943  30.764  60.340  1.00  0.00    -0.000 C 
BRANCH  15  16
ATOM     16  C   UNL     1      64.960  30.605  59.191  1.00  0.00    -0.000 C 
BRANCH  16  17
ATOM     17  C   UNL     1      65.624  29.216  59.189  1.00  0.00    -0.000 C 
BRANCH  17  18
ATOM     18  C   UNL     1      65.245  28.378  57.953  1.00  0.00    -0.000 C 
BRANCH  18  19
ATOM     19  C   UNL     1      65.140  26.862  58.212  1.00  0.00    -0.003 C 
ATOM     20  C   UNL     1      65.390  26.493  59.677  1.00  0.00     0.004 C 
ENDBRANCH  18  19
ENDBRANCH  17  18
ENDBRANCH  16  17
ENDBRANCH  15  16
ENDBRANCH  14  15
ENDBRANCH  13  14
ENDBRANCH  12  13
ENDBRANCH   1  12
TORSDOF 16
ENDMDL
MODEL 7
REMARK VINA RESULT:    -3.175      4.324      8.610
REMARK INTER + INTRA:          -8.331
REMARK INTER:                  -5.609
REMARK INTRA:                  -2.722
REMARK UNBOUND:                -2.185
REMARK SMILES CCCCCCCCCCCCCCCCCC(=O)[O-]
REMARK SMILES IDX 10 1 11 2 12 3 13 4 14 5 15 6 16 7 17 8 18 9 19 10 20 11
REMARK SMILES IDX 9 12 8 13 7 14 6 15 5 16 4 17 3 18 2 19 1 20
REMARK H PARENT
REMARK Flexibility Score: inf
ROOT
ATOM      1  C   UNL     1      56.964  28.179  51.262  1.00  0.00     0.000 C 
ENDROOT
BRANCH   1   2
ATOM      2  C   UNL     1      56.972  27.920  49.742  1.00  0.00     0.000 C 
BRANCH   2   3
ATOM      3  C   UNL     1      58.136  28.579  48.976  1.00  0.00     0.000 C 
BRANCH   3   4
ATOM      4  C   UNL     1      59.281  27.627  48.580  1.00  0.00     0.000 C 
BRANCH   4   5
ATOM      5  C   UNL     1      59.101  26.182  49.096  1.00  0.00     0.000 C 
BRANCH   5   6
ATOM      6  C   UNL     1      60.433  25.425  49.196  1.00  0.00     0.000 C 
BRANCH   6   7
ATOM      7  C   UNL     1      60.265  24.111  49.973  1.00  0.00     0.006 C 
BRANCH   7   8
ATOM      8  C   UNL     1      61.349  23.086  49.616  1.00  0.00     0.053 C 
BRANCH   8   9
ATOM      9  C   UNL     1      60.764  21.738  49.320  1.00  0.00     0.041 C 
ATOM     10  O   UNL     1      60.826  21.263  48.156  1.00  0.00    -0.550 OA
ATOM     11  O   UNL     1      60.169  20.997  50.334  1.00  0.00    -0.550 OA
ENDBRANCH   8   9
ENDBRANCH   7   8
ENDBRANCH   6   7
ENDBRANCH   5   6
ENDBRANCH   4   5
ENDBRANCH   3   4
ENDBRANCH   2   3
ENDBRANCH   1   2
BRANCH   1  12
ATOM     12  C   UNL     1      57.720  29.444  51.709  1.00  0.00     0.000 C 
BRANCH  12  13
ATOM     13  C   UNL     1      58.968  29.150  52.572  1.00  0.00    -0.000 C 
BRANCH  13  14
ATOM     14  C   UNL     1      59.319  27.654  52.599  1.00  0.00    -0.000 C 
BRANCH  14  15
ATOM     15  C   UNL     1      60.802  27.382  52.285  1.00  0.00    -0.000 C 
BRANCH  15  16
ATOM     16  C   UNL     1      61.433  28.418  51.333  1.00  0.00    -0.000 C 
BRANCH  16  17
ATOM     17  C   UNL     1      62.752  27.915  50.717  1.00  0.00    -0.000 C 
BRANCH  17  18
ATOM     18  C   UNL     1      63.040  28.538  49.338  1.00  0.00    -0.000 C 
BRANCH  18  19
ATOM     19  C   UNL     1      63.137  27.523  48.183  1.00  0.00    -0.003 C 
ATOM     20  C   UNL     1      63.949  26.279  48.554  1.00  0.00     0.004 C 
ENDBRANCH  18  19
ENDBRANCH  17  18
ENDBRANCH  16  17
ENDBRANCH  15  16
ENDBRANCH  14  15
ENDBRANCH  13  14
ENDBRANCH  12  13
ENDBRANCH   1  12
TORSDOF 16
ENDMDL
MODEL 8
REMARK VINA RESULT:    -3.168      3.863      8.019
REMARK INTER + INTRA:          -8.316
REMARK INTER:                  -6.843
REMARK INTRA:                  -1.473
REMARK UNBOUND:                -2.185
REMARK SMILES CCCCCCCCCCCCCCCCCC(=O)[O-]
REMARK SMILES IDX 10 1 11 2 12 3 13 4 14 5 15 6 16 7 17 8 18 9 19 10 20 11
REMARK SMILES IDX 9 12 8 13 7 14 6 15 5 16 4 17 3 18 2 19 1 20
REMARK H PARENT
REMARK Flexibility Score: inf
ROOT
ATOM      1  C   UNL     1      60.457  23.662  49.416  1.00  0.00     0.000 C 
ENDROOT
BRANCH   1   2
ATOM      2  C   UNL     1      61.735  22.906  49.832  1.00  0.00     0.000 C 
BRANCH   2   3
ATOM      3  C   UNL     1      61.772  21.419  49.426  1.00  0.00     0.000 C 
BRANCH   3   4
ATOM      4  C   UNL     1      60.406  20.804  49.071  1.00  0.00     0.000 C 
BRANCH   4   5
ATOM      5  C   UNL     1      59.790  19.951  50.202  1.00  0.00     0.000 C 
BRANCH   5   6
ATOM      6  C   UNL     1      59.922  18.443  49.940  1.00  0.00     0.000 C 
BRANCH   6   7
ATOM      7  C   UNL     1      58.734  17.918  49.121  1.00  0.00     0.006 C 
BRANCH   7   8
ATOM      8  C   UNL     1      57.777  17.072  49.969  1.00  0.00     0.053 C 
BRANCH   8   9
ATOM      9  C   UNL     1      56.644  17.889  50.513  1.00  0.00     0.041 C 
ATOM     10  O   UNL     1      55.829  18.442  49.729  1.00  0.00    -0.550 OA
ATOM     11  O   UNL     1      56.476  18.023  51.886  1.00  0.00    -0.550 OA
ENDBRANCH   8   9
ENDBRANCH   7   8
ENDBRANCH   6   7
ENDBRANCH   5   6
ENDBRANCH   4   5
ENDBRANCH   3   4
ENDBRANCH   2   3
ENDBRANCH   1   2
BRANCH   1  12
ATOM     12  C   UNL     1      60.582  25.198  49.420  1.00  0.00     0.000 C 
BRANCH  12  13
ATOM     13  C   UNL     1      59.297  25.926  48.967  1.00  0.00    -0.000 C 
BRANCH  13  14
ATOM     14  C   UNL     1      59.465  27.454  48.951  1.00  0.00    -0.000 C 
BRANCH  14  15
ATOM     15  C   UNL     1      58.146  28.204  49.206  1.00  0.00    -0.000 C 
BRANCH  15  16
ATOM     16  C   UNL     1      57.007  27.299  49.719  1.00  0.00    -0.000 C 
BRANCH  16  17
ATOM     17  C   UNL     1      56.743  27.492  51.224  1.00  0.00    -0.000 C 
BRANCH  17  18
ATOM     18  C   UNL     1      57.262  26.318  52.075  1.00  0.00    -0.000 C 
BRANCH  18  19
ATOM     19  C   UNL     1      56.933  24.922  51.512  1.00  0.00    -0.003 C 
ATOM     20  C   UNL     1      57.873  23.834  52.036  1.00  0.00     0.004 C 
ENDBRANCH  18  19
ENDBRANCH  17  18
ENDBRANCH  16  17
ENDBRANCH  15  16
ENDBRANCH  14  15
ENDBRANCH  13  14
ENDBRANCH  12  13
ENDBRANCH   1  12
TORSDOF 16
ENDMDL
MODEL 9
REMARK VINA RESULT:    -3.117      6.687      9.193
REMARK INTER + INTRA:          -8.218
REMARK INTER:                  -5.181
REMARK INTRA:                  -3.037
REMARK UNBOUND:                -2.185
REMARK SMILES CCCCCCCCCCCCCCCCCC(=O)[O-]
REMARK SMILES IDX 10 1 11 2 12 3 13 4 14 5 15 6 16 7 17 8 18 9 19 10 20 11
REMARK SMILES IDX 9 12 8 13 7 14 6 15 5 16 4 17 3 18 2 19 1 20
REMARK H PARENT
REMARK Flexibility Score: inf
ROOT
ATOM      1  C   UNL     1      58.024  28.340  49.319  1.00  0.00     0.000 C 
ENDROOT
BRANCH   1   2
ATOM      2  C   UNL     1      59.297  27.823  48.621  1.00  0.00     0.000 C 
BRANCH   2   3
ATOM      3  C   UNL     1      59.614  26.334  48.864  1.00  0.00     0.000 C 
BRANCH   3   4
ATOM      4  C   UNL     1      61.025  26.046  49.408  1.00  0.00     0.000 C 
BRANCH   4   5
ATOM      5  C   UNL     1      61.231  26.478  50.877  1.00  0.00     0.000 C 
BRANCH   5   6
ATOM      6  C   UNL     1      62.148  27.703  51.005  1.00  0.00     0.000 C 
BRANCH   6   7
ATOM      7  C   UNL     1      61.479  28.811  51.830  1.00  0.00     0.006 C 
BRANCH   7   8
ATOM      8  C   UNL     1      61.117  30.031  50.973  1.00  0.00     0.053 C 
BRANCH   8   9
ATOM      9  C   UNL     1      62.336  30.702  50.418  1.00  0.00     0.041 C 
ATOM     10  O   UNL     1      63.198  31.192  51.195  1.00  0.00    -0.550 OA
ATOM     11  O   UNL     1      62.533  30.768  49.044  1.00  0.00    -0.550 OA
ENDBRANCH   8   9
ENDBRANCH   7   8
ENDBRANCH   6   7
ENDBRANCH   5   6
ENDBRANCH   4   5
ENDBRANCH   3   4
ENDBRANCH   2   3
ENDBRANCH   1   2
BRANCH   1  12
ATOM     12  C   UNL     1      57.047  27.244  49.785  1.00  0.00     0.000 C 
BRANCH  12  13
ATOM     13  C   UNL     1      56.802  27.239  51.310  1.00  0.00    -0.000 C 
BRANCH  13  14
ATOM     14  C   UNL     1      57.950  27.900  52.090  1.00  0.00    -0.000 C 
BRANCH  14  15
ATOM     15  C   UNL     1      57.474  29.048  52.998  1.00  0.00    -0.000 C 
BRANCH  15  16
ATOM     16  C   UNL     1      57.779  30.451  52.434  1.00  0.00    -0.000 C 
BRANCH  16  17
ATOM     17  C   UNL     1      56.497  31.235  52.099  1.00  0.00    -0.000 C 
BRANCH  17  18
ATOM     18  C   UNL     1      55.215  30.433  52.393  1.00  0.00    -0.000 C 
BRANCH  18  19
ATOM     19  C   UNL     1      54.376  30.086  51.148  1.00  0.00    -0.003 C 
ATOM     20  C   UNL     1      55.090  30.426  49.838  1.00  0.00     0.004 C 
ENDBRANCH  18  19
ENDBRANCH  17  18
ENDBRANCH  16  17
ENDBRANCH  15  16
ENDBRANCH  14  15
ENDBRANCH  13  14
ENDBRANCH  12  13
ENDBRANCH   1  12
TORSDOF 16
ENDMDL
