MODEL 1
REMARK VINA RESULT:    -5.149      0.000      0.000
REMARK INTER + INTRA:         -11.060
REMARK INTER:                  -9.664
REMARK INTRA:                  -1.396
REMARK UNBOUND:                -1.396
REMARK SMILES O=C([O-])CCCCCCCCCCCCCCC(=O)[O-]
REMARK SMILES IDX 10 1 9 2 8 3 7 4 6 5 5 6 4 7 2 8 1 9 3 10 11 11 12 12 13 13
REMARK SMILES IDX 14 14 15 15 16 16 17 17 18 18 19 19 20 20
REMARK H PARENT
REMARK Flexibility Score: inf
ROOT
ATOM      1  C   UNL     1     -20.630  40.679  89.199  1.00  0.00     0.000 C 
ENDROOT
BRANCH   1   2
ATOM      2  C   UNL     1     -19.491  40.478  90.215  1.00  0.00     0.000 C 
BRANCH   2   3
ATOM      3  C   UNL     1     -18.350  39.554  89.744  1.00  0.00     0.000 C 
BRANCH   3   4
ATOM      4  C   UNL     1     -18.331  38.155  90.387  1.00  0.00     0.000 C 
BRANCH   4   5
ATOM      5  C   UNL     1     -19.069  37.065  89.588  1.00  0.00     0.000 C 
BRANCH   5   6
ATOM      6  C   UNL     1     -18.283  35.739  89.476  1.00  0.00     0.006 C 
BRANCH   6   7
ATOM      7  C   UNL     1     -16.965  35.900  88.708  1.00  0.00     0.053 C 
BRANCH   7   8
ATOM      8  C   UNL     1     -16.703  34.696  87.863  1.00  0.00     0.041 C 
ATOM      9  O   UNL     1     -16.376  33.604  88.398  1.00  0.00    -0.550 OA
ATOM     10  O   UNL     1     -16.866  34.764  86.484  1.00  0.00    -0.550 OA
ENDBRANCH   7   8
ENDBRANCH   6   7
ENDBRANCH   5   6
ENDBRANCH   4   5
ENDBRANCH   3   4
ENDBRANCH   2   3
ENDBRANCH   1   2
BRANCH   1  11
ATOM     11  C   UNL     1     -20.135  40.733  87.747  1.00  0.00     0.000 C 
BRANCH  11  12
ATOM     12  C   UNL     1     -21.023  39.881  86.833  1.00  0.00     0.000 C 
BRANCH  12  13
ATOM     13  C   UNL     1     -20.582  38.410  86.853  1.00  0.00     0.000 C 
BRANCH  13  14
ATOM     14  C   UNL     1     -19.274  38.167  86.080  1.00  0.00     0.000 C 
BRANCH  14  15
ATOM     15  C   UNL     1     -19.453  37.802  84.592  1.00  0.00     0.000 C 
BRANCH  15  16
ATOM     16  C   UNL     1     -18.354  36.895  84.002  1.00  0.00     0.006 C 
BRANCH  16  17
ATOM     17  C   UNL     1     -17.420  37.599  83.005  1.00  0.00     0.053 C 
BRANCH  17  18
ATOM     18  C   UNL     1     -17.075  36.716  81.845  1.00  0.00     0.041 C 
ATOM     19  O   UNL     1     -17.233  37.127  80.665  1.00  0.00    -0.550 OA
ATOM     20  O   UNL     1     -16.548  35.450  82.067  1.00  0.00    -0.550 OA
ENDBRANCH  17  18
ENDBRANCH  16  17
ENDBRANCH  15  16
ENDBRANCH  14  15
ENDBRANCH  13  14
ENDBRANCH  12  13
ENDBRANCH  11  12
ENDBRANCH   1  11
TORSDOF 15
ENDMDL
MODEL 2
REMARK VINA RESULT:    -5.116      7.955     11.255
REMARK INTER + INTRA:         -10.998
REMARK INTER:                  -9.719
REMARK INTRA:                  -1.279
REMARK UNBOUND:                -1.396
REMARK SMILES O=C([O-])CCCCCCCCCCCCCCC(=O)[O-]
REMARK SMILES IDX 10 1 9 2 8 3 7 4 6 5 5 6 4 7 2 8 1 9 3 10 11 11 12 12 13 13
REMARK SMILES IDX 14 14 15 15 16 16 17 17 18 18 19 19 20 20
REMARK H PARENT
REMARK Flexibility Score: inf
ROOT
ATOM      1  C   UNL     1     -23.082  44.895  87.447  1.00  0.00     0.000 C 
ENDROOT
BRANCH   1   2
ATOM      2  C   UNL     1     -21.977  44.706  88.502  1.00  0.00     0.000 C 
BRANCH   2   3
ATOM      3  C   UNL     1     -20.643  44.153  87.961  1.00  0.00     0.000 C 
BRANCH   3   4
ATOM      4  C   UNL     1     -20.740  43.410  86.616  1.00  0.00     0.000 C 
BRANCH   4   5
ATOM      5  C   UNL     1     -19.482  43.501  85.733  1.00  0.00     0.000 C 
BRANCH   5   6
ATOM      6  C   UNL     1     -19.319  44.863  85.022  1.00  0.00     0.006 C 
BRANCH   6   7
ATOM      7  C   UNL     1     -20.648  45.405  84.478  1.00  0.00     0.053 C 
BRANCH   7   8
ATOM      8  C   UNL     1     -20.451  46.003  83.122  1.00  0.00     0.041 C 
ATOM      9  O   UNL     1     -21.441  46.217  82.374  1.00  0.00    -0.550 OA
ATOM     10  O   UNL     1     -19.179  46.369  82.701  1.00  0.00    -0.550 OA
ENDBRANCH   7   8
ENDBRANCH   6   7
ENDBRANCH   5   6
ENDBRANCH   4   5
ENDBRANCH   3   4
ENDBRANCH   2   3
ENDBRANCH   1   2
BRANCH   1  11
ATOM     11  C   UNL     1     -23.322  46.368  87.088  1.00  0.00     0.000 C 
BRANCH  11  12
ATOM     12  C   UNL     1     -24.730  46.572  86.517  1.00  0.00     0.000 C 
BRANCH  12  13
ATOM     13  C   UNL     1     -25.764  45.745  87.295  1.00  0.00     0.000 C 
BRANCH  13  14
ATOM     14  C   UNL     1     -26.254  46.451  88.573  1.00  0.00     0.000 C 
BRANCH  14  15
ATOM     15  C   UNL     1     -25.836  45.774  89.894  1.00  0.00     0.000 C 
BRANCH  15  16
ATOM     16  C   UNL     1     -27.000  45.277  90.774  1.00  0.00     0.006 C 
BRANCH  16  17
ATOM     17  C   UNL     1     -26.908  43.794  91.167  1.00  0.00     0.053 C 
BRANCH  17  18
ATOM     18  C   UNL     1     -28.046  42.997  90.606  1.00  0.00     0.041 C 
ATOM     19  O   UNL     1     -28.040  42.644  89.398  1.00  0.00    -0.550 OA
ATOM     20  O   UNL     1     -29.099  42.616  91.428  1.00  0.00    -0.550 OA
ENDBRANCH  17  18
ENDBRANCH  16  17
ENDBRANCH  15  16
ENDBRANCH  14  15
ENDBRANCH  13  14
ENDBRANCH  12  13
ENDBRANCH  11  12
ENDBRANCH   1  11
TORSDOF 15
ENDMDL
MODEL 3
REMARK VINA RESULT:    -5.058      1.173      5.835
REMARK INTER + INTRA:         -10.890
REMARK INTER:                  -9.803
REMARK INTRA:                  -1.087
REMARK UNBOUND:                -1.396
REMARK SMILES O=C([O-])CCCCCCCCCCCCCCC(=O)[O-]
REMARK SMILES IDX 10 1 9 2 8 3 7 4 6 5 5 6 4 7 2 8 1 9 3 10 11 11 12 12 13 13
REMARK SMILES IDX 14 14 15 15 16 16 17 17 18 18 19 19 20 20
REMARK H PARENT
REMARK Flexibility Score: inf
ROOT
ATOM      1  C   UNL     1     -19.950  40.009  86.802  1.00  0.00     0.000 C 
ENDROOT
BRANCH   1   2
ATOM      2  C   UNL     1     -19.877  38.496  86.526  1.00  0.00     0.000 C 
BRANCH   2   3
ATOM      3  C   UNL     1     -19.835  38.104  85.035  1.00  0.00     0.000 C 
BRANCH   3   4
ATOM      4  C   UNL     1     -18.740  37.089  84.656  1.00  0.00     0.000 C 
BRANCH   4   5
ATOM      5  C   UNL     1     -18.413  37.021  83.152  1.00  0.00     0.000 C 
BRANCH   5   6
ATOM      6  C   UNL     1     -17.262  36.048  82.812  1.00  0.00     0.006 C 
BRANCH   6   7
ATOM      7  C   UNL     1     -16.860  36.108  81.332  1.00  0.00     0.053 C 
BRANCH   7   8
ATOM      8  C   UNL     1     -17.907  35.466  80.480  1.00  0.00     0.041 C 
ATOM      9  O   UNL     1     -18.388  34.348  80.801  1.00  0.00    -0.550 OA
ATOM     10  O   UNL     1     -18.388  36.125  79.355  1.00  0.00    -0.550 OA
ENDBRANCH   7   8
ENDBRANCH   6   7
ENDBRANCH   5   6
ENDBRANCH   4   5
ENDBRANCH   3   4
ENDBRANCH   2   3
ENDBRANCH   1   2
BRANCH   1  11
ATOM     11  C   UNL     1     -19.779  40.355  88.288  1.00  0.00     0.000 C 
BRANCH  11  12
ATOM     12  C   UNL     1     -20.803  39.605  89.147  1.00  0.00     0.000 C 
BRANCH  12  13
ATOM     13  C   UNL     1     -20.166  39.105  90.452  1.00  0.00     0.000 C 
BRANCH  13  14
ATOM     14  C   UNL     1     -18.824  38.384  90.223  1.00  0.00     0.000 C 
BRANCH  14  15
ATOM     15  C   UNL     1     -18.940  36.948  89.673  1.00  0.00     0.000 C 
BRANCH  15  16
ATOM     16  C   UNL     1     -17.630  36.348  89.125  1.00  0.00     0.006 C 
BRANCH  16  17
ATOM     17  C   UNL     1     -17.583  34.812  89.137  1.00  0.00     0.053 C 
BRANCH  17  18
ATOM     18  C   UNL     1     -16.650  34.274  88.096  1.00  0.00     0.041 C 
ATOM     19  O   UNL     1     -15.862  33.332  88.375  1.00  0.00    -0.550 OA
ATOM     20  O   UNL     1     -16.673  34.791  86.807  1.00  0.00    -0.550 OA
ENDBRANCH  17  18
ENDBRANCH  16  17
ENDBRANCH  15  16
ENDBRANCH  14  15
ENDBRANCH  13  14
ENDBRANCH  12  13
ENDBRANCH  11  12
ENDBRANCH   1  11
TORSDOF 15
ENDMDL
MODEL 4
REMARK VINA RESULT:    -5.038      3.671      7.321
REMARK INTER + INTRA:         -10.852
REMARK INTER:                  -9.910
REMARK INTRA:                  -0.942
REMARK UNBOUND:                -1.396
REMARK SMILES O=C([O-])CCCCCCCCCCCCCCC(=O)[O-]
REMARK SMILES IDX 10 1 9 2 8 3 7 4 6 5 5 6 4 7 2 8 1 9 3 10 11 11 12 12 13 13
REMARK SMILES IDX 14 14 15 15 16 16 17 17 18 18 19 19 20 20
REMARK H PARENT
REMARK Flexibility Score: inf
ROOT
ATOM      1  C   UNL     1     -19.029  37.258  84.616  1.00  0.00     0.000 C 
ENDROOT
BRANCH   1   2
ATOM      2  C   UNL     1     -18.123  37.794  83.492  1.00  0.00     0.000 C 
BRANCH   2   3
ATOM      3  C   UNL     1     -16.769  37.071  83.342  1.00  0.00     0.000 C 
BRANCH   3   4
ATOM      4  C   UNL     1     -16.817  35.545  83.541  1.00  0.00     0.000 C 
BRANCH   4   5
ATOM      5  C   UNL     1     -17.331  34.749  82.327  1.00  0.00     0.000 C 
BRANCH   5   6
ATOM      6  C   UNL     1     -16.997  35.403  80.968  1.00  0.00     0.006 C 
BRANCH   6   7
ATOM      7  C   UNL     1     -18.239  35.613  80.094  1.00  0.00     0.053 C 
BRANCH   7   8
ATOM      8  C   UNL     1     -18.222  36.975  79.479  1.00  0.00     0.041 C 
ATOM      9  O   UNL     1     -17.250  37.750  79.682  1.00  0.00    -0.550 OA
ATOM     10  O   UNL     1     -19.256  37.374  78.641  1.00  0.00    -0.550 OA
ENDBRANCH   7   8
ENDBRANCH   6   7
ENDBRANCH   5   6
ENDBRANCH   4   5
ENDBRANCH   3   4
ENDBRANCH   2   3
ENDBRANCH   1   2
BRANCH   1  11
ATOM     11  C   UNL     1     -19.844  38.361  85.306  1.00  0.00     0.000 C 
BRANCH  11  12
ATOM     12  C   UNL     1     -19.878  38.151  86.824  1.00  0.00     0.000 C 
BRANCH  12  13
ATOM     13  C   UNL     1     -20.543  39.342  87.529  1.00  0.00     0.000 C 
BRANCH  13  14
ATOM     14  C   UNL     1     -20.012  40.700  87.036  1.00  0.00     0.000 C 
BRANCH  14  15
ATOM     15  C   UNL     1     -20.828  41.925  87.495  1.00  0.00     0.000 C 
BRANCH  15  16
ATOM     16  C   UNL     1     -20.415  43.266  86.857  1.00  0.00     0.006 C 
BRANCH  16  17
ATOM     17  C   UNL     1     -19.355  43.141  85.750  1.00  0.00     0.053 C 
BRANCH  17  18
ATOM     18  C   UNL     1     -18.854  44.480  85.303  1.00  0.00     0.041 C 
ATOM     19  O   UNL     1     -17.708  44.876  85.645  1.00  0.00    -0.550 OA
ATOM     20  O   UNL     1     -19.640  45.278  84.482  1.00  0.00    -0.550 OA
ENDBRANCH  17  18
ENDBRANCH  16  17
ENDBRANCH  15  16
ENDBRANCH  14  15
ENDBRANCH  13  14
ENDBRANCH  12  13
ENDBRANCH  11  12
ENDBRANCH   1  11
TORSDOF 15
ENDMDL
MODEL 5
REMARK VINA RESULT:    -5.036      7.921     10.169
REMARK INTER + INTRA:         -10.848
REMARK INTER:                  -9.309
REMARK INTRA:                  -1.540
REMARK UNBOUND:                -1.396
REMARK SMILES O=C([O-])CCCCCCCCCCCCCCC(=O)[O-]
REMARK SMILES IDX 10 1 9 2 8 3 7 4 6 5 5 6 4 7 2 8 1 9 3 10 11 11 12 12 13 13
REMARK SMILES IDX 14 14 15 15 16 16 17 17 18 18 19 19 20 20
REMARK H PARENT
REMARK Flexibility Score: inf
ROOT
ATOM      1  C   UNL     1     -24.984  46.949  86.403  1.00  0.00     0.000 C 
ENDROOT
BRANCH   1   2
ATOM      2  C   UNL     1     -25.834  46.005  87.272  1.00  0.00     0.000 C 
BRANCH   2   3
ATOM      3  C   UNL     1     -26.432  46.644  88.541  1.00  0.00     0.000 C 
BRANCH   3   4
ATOM      4  C   UNL     1     -25.929  46.053  89.871  1.00  0.00     0.000 C 
BRANCH   4   5
ATOM      5  C   UNL     1     -25.246  44.678  89.752  1.00  0.00     0.000 C 
BRANCH   5   6
ATOM      6  C   UNL     1     -25.685  43.671  90.837  1.00  0.00     0.006 C 
BRANCH   6   7
ATOM      7  C   UNL     1     -27.114  43.927  91.334  1.00  0.00     0.053 C 
BRANCH   7   8
ATOM      8  C   UNL     1     -28.063  42.945  90.725  1.00  0.00     0.041 C 
ATOM      9  O   UNL     1     -29.100  42.596  91.347  1.00  0.00    -0.550 OA
ATOM     10  O   UNL     1     -27.827  42.450  89.448  1.00  0.00    -0.550 OA
ENDBRANCH   7   8
ENDBRANCH   6   7
ENDBRANCH   5   6
ENDBRANCH   4   5
ENDBRANCH   3   4
ENDBRANCH   2   3
ENDBRANCH   1   2
BRANCH   1  11
ATOM     11  C   UNL     1     -23.482  46.638  86.473  1.00  0.00     0.000 C 
BRANCH  11  12
ATOM     12  C   UNL     1     -22.920  46.958  87.864  1.00  0.00     0.000 C 
BRANCH  12  13
ATOM     13  C   UNL     1     -21.880  45.911  88.290  1.00  0.00     0.000 C 
BRANCH  13  14
ATOM     14  C   UNL     1     -22.207  44.498  87.774  1.00  0.00     0.000 C 
BRANCH  14  15
ATOM     15  C   UNL     1     -21.050  43.785  87.046  1.00  0.00     0.000 C 
BRANCH  15  16
ATOM     16  C   UNL     1     -19.993  44.718  86.423  1.00  0.00     0.006 C 
BRANCH  16  17
ATOM     17  C   UNL     1     -19.243  44.115  85.224  1.00  0.00     0.053 C 
BRANCH  17  18
ATOM     18  C   UNL     1     -18.048  44.934  84.844  1.00  0.00     0.041 C 
ATOM     19  O   UNL     1     -17.044  44.982  85.602  1.00  0.00    -0.550 OA
ATOM     20  O   UNL     1     -18.030  45.619  83.635  1.00  0.00    -0.550 OA
ENDBRANCH  17  18
ENDBRANCH  16  17
ENDBRANCH  15  16
ENDBRANCH  14  15
ENDBRANCH  13  14
ENDBRANCH  12  13
ENDBRANCH  11  12
ENDBRANCH   1  11
TORSDOF 15
ENDMDL
MODEL 6
REMARK VINA RESULT:    -4.999      7.790     10.056
REMARK INTER + INTRA:         -10.779
REMARK INTER:                  -9.581
REMARK INTRA:                  -1.199
REMARK UNBOUND:                -1.396
REMARK SMILES O=C([O-])CCCCCCCCCCCCCCC(=O)[O-]
REMARK SMILES IDX 10 1 9 2 8 3 7 4 6 5 5 6 4 7 2 8 1 9 3 10 11 11 12 12 13 13
REMARK SMILES IDX 14 14 15 15 16 16 17 17 18 18 19 19 20 20
REMARK H PARENT
REMARK Flexibility Score: inf
ROOT
ATOM      1  C   UNL     1     -23.361  45.285  87.311  1.00  0.00     0.000 C 
ENDROOT
BRANCH   1   2
ATOM      2  C   UNL     1     -24.610  46.184  87.254  1.00  0.00     0.000 C 
BRANCH   2   3
ATOM      3  C   UNL     1     -25.877  45.585  87.896  1.00  0.00     0.000 C 
BRANCH   3   4
ATOM      4  C   UNL     1     -26.604  46.506  88.894  1.00  0.00     0.000 C 
BRANCH   4   5
ATOM      5  C   UNL     1     -26.851  45.890  90.284  1.00  0.00     0.000 C 
BRANCH   5   6
ATOM      6  C   UNL     1     -26.116  44.550  90.507  1.00  0.00     0.006 C 
BRANCH   6   7
ATOM      7  C   UNL     1     -26.885  43.605  91.440  1.00  0.00     0.053 C 
BRANCH   7   8
ATOM      8  C   UNL     1     -27.991  42.925  90.699  1.00  0.00     0.041 C 
ATOM      9  O   UNL     1     -29.150  42.882  91.188  1.00  0.00    -0.550 OA
ATOM     10  O   UNL     1     -27.754  42.380  89.443  1.00  0.00    -0.550 OA
ENDBRANCH   7   8
ENDBRANCH   6   7
ENDBRANCH   5   6
ENDBRANCH   4   5
ENDBRANCH   3   4
ENDBRANCH   2   3
ENDBRANCH   1   2
BRANCH   1  11
ATOM     11  C   UNL     1     -23.574  44.018  88.152  1.00  0.00     0.000 C 
BRANCH  11  12
ATOM     12  C   UNL     1     -22.233  43.388  88.545  1.00  0.00     0.000 C 
BRANCH  12  13
ATOM     13  C   UNL     1     -21.092  43.936  87.676  1.00  0.00     0.000 C 
BRANCH  13  14
ATOM     14  C   UNL     1     -20.564  42.905  86.662  1.00  0.00     0.000 C 
BRANCH  14  15
ATOM     15  C   UNL     1     -19.472  43.427  85.708  1.00  0.00     0.000 C 
BRANCH  15  16
ATOM     16  C   UNL     1     -19.588  44.917  85.329  1.00  0.00     0.006 C 
BRANCH  16  17
ATOM     17  C   UNL     1     -20.803  45.254  84.451  1.00  0.00     0.053 C 
BRANCH  17  18
ATOM     18  C   UNL     1     -20.400  45.921  83.172  1.00  0.00     0.041 C 
ATOM     19  O   UNL     1     -19.182  46.102  82.906  1.00  0.00    -0.550 OA
ATOM     20  O   UNL     1     -21.368  46.315  82.257  1.00  0.00    -0.550 OA
ENDBRANCH  17  18
ENDBRANCH  16  17
ENDBRANCH  15  16
ENDBRANCH  14  15
ENDBRANCH  13  14
ENDBRANCH  12  13
ENDBRANCH  11  12
ENDBRANCH   1  11
TORSDOF 15
ENDMDL
MODEL 7
REMARK VINA RESULT:    -4.994      7.527     10.053
REMARK INTER + INTRA:         -10.770
REMARK INTER:                  -8.990
REMARK INTRA:                  -1.780
REMARK UNBOUND:                -1.396
REMARK SMILES O=C([O-])CCCCCCCCCCCCCCC(=O)[O-]
REMARK SMILES IDX 10 1 9 2 8 3 7 4 6 5 5 6 4 7 2 8 1 9 3 10 11 11 12 12 13 13
REMARK SMILES IDX 14 14 15 15 16 16 17 17 18 18 19 19 20 20
REMARK H PARENT
REMARK Flexibility Score: inf
ROOT
ATOM      1  C   UNL     1     -23.957  46.583  86.520  1.00  0.00     0.000 C 
ENDROOT
BRANCH   1   2
ATOM      2  C   UNL     1     -25.482  46.769  86.618  1.00  0.00     0.000 C 
BRANCH   2   3
ATOM      3  C   UNL     1     -26.180  45.899  87.682  1.00  0.00     0.000 C 
BRANCH   3   4
ATOM      4  C   UNL     1     -26.617  46.648  88.956  1.00  0.00     0.000 C 
BRANCH   4   5
ATOM      5  C   UNL     1     -26.253  45.945  90.277  1.00  0.00     0.000 C 
BRANCH   5   6
ATOM      6  C   UNL     1     -26.103  44.413  90.144  1.00  0.00     0.006 C 
BRANCH   6   7
ATOM      7  C   UNL     1     -26.906  43.649  91.205  1.00  0.00     0.053 C 
BRANCH   7   8
ATOM      8  C   UNL     1     -28.077  42.962  90.579  1.00  0.00     0.041 C 
ATOM      9  O   UNL     1     -28.046  42.638  89.363  1.00  0.00    -0.550 OA
ATOM     10  O   UNL     1     -29.186  42.636  91.350  1.00  0.00    -0.550 OA
ENDBRANCH   7   8
ENDBRANCH   6   7
ENDBRANCH   5   6
ENDBRANCH   4   5
ENDBRANCH   3   4
ENDBRANCH   2   3
ENDBRANCH   1   2
BRANCH   1  11
ATOM     11  C   UNL     1     -23.217  47.032  87.788  1.00  0.00     0.000 C 
BRANCH  11  12
ATOM     12  C   UNL     1     -22.424  45.872  88.401  1.00  0.00     0.000 C 
BRANCH  12  13
ATOM     13  C   UNL     1     -22.531  44.612  87.530  1.00  0.00     0.000 C 
BRANCH  13  14
ATOM     14  C   UNL     1     -23.004  43.377  88.319  1.00  0.00     0.000 C 
BRANCH  14  15
ATOM     15  C   UNL     1     -22.111  42.984  89.513  1.00  0.00     0.000 C 
BRANCH  15  16
ATOM     16  C   UNL     1     -21.171  41.788  89.263  1.00  0.00     0.006 C 
BRANCH  16  17
ATOM     17  C   UNL     1     -21.350  41.116  87.893  1.00  0.00     0.053 C 
BRANCH  17  18
ATOM     18  C   UNL     1     -20.138  41.279  87.028  1.00  0.00     0.041 C 
ATOM     19  O   UNL     1     -19.372  40.302  86.817  1.00  0.00    -0.550 OA
ATOM     20  O   UNL     1     -19.871  42.503  86.428  1.00  0.00    -0.550 OA
ENDBRANCH  17  18
ENDBRANCH  16  17
ENDBRANCH  15  16
ENDBRANCH  14  15
ENDBRANCH  13  14
ENDBRANCH  12  13
ENDBRANCH  11  12
ENDBRANCH   1  11
TORSDOF 15
ENDMDL
MODEL 8
REMARK VINA RESULT:    -4.978      7.652     10.580
REMARK INTER + INTRA:         -10.739
REMARK INTER:                  -9.181
REMARK INTRA:                  -1.558
REMARK UNBOUND:                -1.396
REMARK SMILES O=C([O-])CCCCCCCCCCCCCCC(=O)[O-]
REMARK SMILES IDX 10 1 9 2 8 3 7 4 6 5 5 6 4 7 2 8 1 9 3 10 11 11 12 12 13 13
REMARK SMILES IDX 14 14 15 15 16 16 17 17 18 18 19 19 20 20
REMARK H PARENT
REMARK Flexibility Score: inf
ROOT
ATOM      1  C   UNL     1     -22.748  46.637  87.169  1.00  0.00     0.000 C 
ENDROOT
BRANCH   1   2
ATOM      2  C   UNL     1     -21.400  46.574  86.428  1.00  0.00     0.000 C 
BRANCH   2   3
ATOM      3  C   UNL     1     -21.451  45.925  85.030  1.00  0.00     0.000 C 
BRANCH   3   4
ATOM      4  C   UNL     1     -20.617  44.640  84.875  1.00  0.00     0.000 C 
BRANCH   4   5
ATOM      5  C   UNL     1     -19.911  44.167  86.159  1.00  0.00     0.000 C 
BRANCH   5   6
ATOM      6  C   UNL     1     -20.130  42.670  86.472  1.00  0.00     0.006 C 
BRANCH   6   7
ATOM      7  C   UNL     1     -21.377  42.424  87.330  1.00  0.00     0.053 C 
BRANCH   7   8
ATOM      8  C   UNL     1     -20.987  42.073  88.730  1.00  0.00     0.041 C 
ATOM      9  O   UNL     1     -19.927  41.430  88.950  1.00  0.00    -0.550 OA
ATOM     10  O   UNL     1     -21.768  42.498  89.798  1.00  0.00    -0.550 OA
ENDBRANCH   7   8
ENDBRANCH   6   7
ENDBRANCH   5   6
ENDBRANCH   4   5
ENDBRANCH   3   4
ENDBRANCH   2   3
ENDBRANCH   1   2
BRANCH   1  11
ATOM     11  C   UNL     1     -22.833  45.648  88.341  1.00  0.00     0.000 C 
BRANCH  11  12
ATOM     12  C   UNL     1     -24.160  44.881  88.316  1.00  0.00     0.000 C 
BRANCH  12  13
ATOM     13  C   UNL     1     -25.264  45.711  87.645  1.00  0.00     0.000 C 
BRANCH  13  14
ATOM     14  C   UNL     1     -26.110  46.507  88.656  1.00  0.00     0.000 C 
BRANCH  14  15
ATOM     15  C   UNL     1     -26.031  46.007  90.112  1.00  0.00     0.000 C 
BRANCH  15  16
ATOM     16  C   UNL     1     -27.310  45.328  90.642  1.00  0.00     0.006 C 
BRANCH  16  17
ATOM     17  C   UNL     1     -27.113  43.872  91.095  1.00  0.00     0.053 C 
BRANCH  17  18
ATOM     18  C   UNL     1     -28.175  42.969  90.548  1.00  0.00     0.041 C 
ATOM     19  O   UNL     1     -29.213  42.730  91.219  1.00  0.00    -0.550 OA
ATOM     20  O   UNL     1     -28.033  42.417  89.281  1.00  0.00    -0.550 OA
ENDBRANCH  17  18
ENDBRANCH  16  17
ENDBRANCH  15  16
ENDBRANCH  14  15
ENDBRANCH  13  14
ENDBRANCH  12  13
ENDBRANCH  11  12
ENDBRANCH   1  11
TORSDOF 15
ENDMDL
MODEL 9
REMARK VINA RESULT:    -4.887      7.158      9.672
REMARK INTER + INTRA:         -10.568
REMARK INTER:                  -9.664
REMARK INTRA:                  -0.904
REMARK UNBOUND:                -1.396
REMARK SMILES O=C([O-])CCCCCCCCCCCCCCC(=O)[O-]
REMARK SMILES IDX 10 1 9 2 8 3 7 4 6 5 5 6 4 7 2 8 1 9 3 10 11 11 12 12 13 13
REMARK SMILES IDX 14 14 15 15 16 16 17 17 18 18 19 19 20 20
REMARK H PARENT
REMARK Flexibility Score: inf
ROOT
ATOM      1  C   UNL     1     -23.639  45.554  87.875  1.00  0.00     0.000 C 
ENDROOT
BRANCH   1   2
ATOM      2  C   UNL     1     -24.961  46.010  87.231  1.00  0.00     0.000 C 
BRANCH   2   3
ATOM      3  C   UNL     1     -26.236  45.606  87.997  1.00  0.00     0.000 C 
BRANCH   3   4
ATOM      4  C   UNL     1     -26.661  46.573  89.117  1.00  0.00     0.000 C 
BRANCH   4   5
ATOM      5  C   UNL     1     -26.638  45.973  90.536  1.00  0.00     0.000 C 
BRANCH   5   6
ATOM      6  C   UNL     1     -25.948  44.594  90.615  1.00  0.00     0.006 C 
BRANCH   6   7
ATOM      7  C   UNL     1     -26.776  43.565  91.396  1.00  0.00     0.053 C 
BRANCH   7   8
ATOM      8  C   UNL     1     -27.911  43.066  90.561  1.00  0.00     0.041 C 
ATOM      9  O   UNL     1     -27.685  42.430  89.498  1.00  0.00    -0.550 OA
ATOM     10  O   UNL     1     -29.222  43.260  90.980  1.00  0.00    -0.550 OA
ENDBRANCH   7   8
ENDBRANCH   6   7
ENDBRANCH   5   6
ENDBRANCH   4   5
ENDBRANCH   3   4
ENDBRANCH   2   3
ENDBRANCH   1   2
BRANCH   1  11
ATOM     11  C   UNL     1     -22.434  45.698  86.934  1.00  0.00     0.000 C 
BRANCH  11  12
ATOM     12  C   UNL     1     -21.429  44.561  87.151  1.00  0.00     0.000 C 
BRANCH  12  13
ATOM     13  C   UNL     1     -20.500  44.409  85.938  1.00  0.00     0.000 C 
BRANCH  13  14
ATOM     14  C   UNL     1     -19.836  43.022  85.864  1.00  0.00     0.000 C 
BRANCH  14  15
ATOM     15  C   UNL     1     -20.233  42.047  86.990  1.00  0.00     0.000 C 
BRANCH  15  16
ATOM     16  C   UNL     1     -19.456  40.715  87.009  1.00  0.00     0.006 C 
BRANCH  16  17
ATOM     17  C   UNL     1     -19.227  40.135  88.414  1.00  0.00     0.053 C 
BRANCH  17  18
ATOM     18  C   UNL     1     -20.320  39.193  88.815  1.00  0.00     0.041 C 
ATOM     19  O   UNL     1     -20.974  39.392  89.872  1.00  0.00    -0.550 OA
ATOM     20  O   UNL     1     -20.638  38.112  88.003  1.00  0.00    -0.550 OA
ENDBRANCH  17  18
ENDBRANCH  16  17
ENDBRANCH  15  16
ENDBRANCH  14  15
ENDBRANCH  13  14
ENDBRANCH  12  13
ENDBRANCH  11  12
ENDBRANCH   1  11
TORSDOF 15
ENDMDL
