MODEL 1
REMARK VINA RESULT:    -3.590      0.000      0.000
REMARK INTER + INTRA:          -4.259
REMARK INTER:                  -4.220
REMARK INTRA:                  -0.039
REMARK UNBOUND:                -0.039
REMARK SMILES CCCCC(=O)[O-]
REMARK SMILES IDX 4 1 5 2 6 3 7 4 3 5 2 6 1 7
REMARK H PARENT
REMARK Flexibility Score: inf
ROOT
ATOM      1  C   UNL     1     -17.326  57.472   0.881  1.00  0.00     0.053 C 
ENDROOT
BRANCH   1   2
ATOM      2  C   UNL     1     -18.072  56.700  -0.160  1.00  0.00     0.041 C 
ATOM      3  O   UNL     1     -19.170  56.149   0.123  1.00  0.00    -0.550 OA
ATOM      4  O   UNL     1     -17.583  56.629  -1.458  1.00  0.00    -0.550 OA
ENDBRANCH   1   2
BRANCH   1   5
ATOM      5  C   UNL     1     -15.847  57.601   0.494  1.00  0.00     0.006 C 
BRANCH   5   6
ATOM      6  C   UNL     1     -15.334  59.045   0.597  1.00  0.00    -0.003 C 
ATOM      7  C   UNL     1     -13.928  59.131   1.192  1.00  0.00     0.004 C 
ENDBRANCH   5   6
ENDBRANCH   1   5
TORSDOF 3
ENDMDL
MODEL 2
REMARK VINA RESULT:    -3.392      4.522      5.125
REMARK INTER + INTRA:          -4.026
REMARK INTER:                  -3.954
REMARK INTRA:                  -0.072
REMARK UNBOUND:                -0.039
REMARK SMILES CCCCC(=O)[O-]
REMARK SMILES IDX 4 1 5 2 6 3 7 4 3 5 2 6 1 7
REMARK H PARENT
REMARK Flexibility Score: inf
ROOT
ATOM      1  C   UNL     1     -18.868  54.132  -3.215  1.00  0.00     0.053 C 
ENDROOT
BRANCH   1   2
ATOM      2  C   UNL     1     -19.229  53.364  -1.985  1.00  0.00     0.041 C 
ATOM      3  O   UNL     1     -18.576  53.528  -0.920  1.00  0.00    -0.550 OA
ATOM      4  O   UNL     1     -20.318  52.502  -1.997  1.00  0.00    -0.550 OA
ENDBRANCH   1   2
BRANCH   1   5
ATOM      5  C   UNL     1     -19.433  55.557  -3.142  1.00  0.00     0.006 C 
BRANCH   5   6
ATOM      6  C   UNL     1     -18.426  56.617  -3.615  1.00  0.00    -0.003 C 
ATOM      7  C   UNL     1     -16.982  56.117  -3.580  1.00  0.00     0.004 C 
ENDBRANCH   5   6
ENDBRANCH   1   5
TORSDOF 3
ENDMDL
MODEL 3
REMARK VINA RESULT:    -3.360      4.648      5.221
REMARK INTER + INTRA:          -3.988
REMARK INTER:                  -3.916
REMARK INTRA:                  -0.072
REMARK UNBOUND:                -0.039
REMARK SMILES CCCCC(=O)[O-]
REMARK SMILES IDX 4 1 5 2 6 3 7 4 3 5 2 6 1 7
REMARK H PARENT
REMARK Flexibility Score: inf
ROOT
ATOM      1  C   UNL     1     -18.841  53.725  -3.229  1.00  0.00     0.053 C 
ENDROOT
BRANCH   1   2
ATOM      2  C   UNL     1     -19.959  53.356  -2.307  1.00  0.00     0.041 C 
ATOM      3  O   UNL     1     -19.972  52.229  -1.744  1.00  0.00    -0.550 OA
ATOM      4  O   UNL     1     -20.964  54.274  -2.029  1.00  0.00    -0.550 OA
ENDBRANCH   1   2
BRANCH   1   5
ATOM      5  C   UNL     1     -17.760  54.508  -2.472  1.00  0.00     0.006 C 
BRANCH   5   6
ATOM      6  C   UNL     1     -17.223  55.701  -3.277  1.00  0.00    -0.003 C 
ATOM      7  C   UNL     1     -18.328  56.658  -3.723  1.00  0.00     0.004 C 
ENDBRANCH   5   6
ENDBRANCH   1   5
TORSDOF 3
ENDMDL
MODEL 4
REMARK VINA RESULT:    -3.335      3.830      5.422
REMARK INTER + INTRA:          -3.960
REMARK INTER:                  -3.879
REMARK INTRA:                  -0.081
REMARK UNBOUND:                -0.039
REMARK SMILES CCCCC(=O)[O-]
REMARK SMILES IDX 4 1 5 2 6 3 7 4 3 5 2 6 1 7
REMARK H PARENT
REMARK Flexibility Score: inf
ROOT
ATOM      1  C   UNL     1     -17.607  56.022  -3.752  1.00  0.00     0.053 C 
ENDROOT
BRANCH   1   2
ATOM      2  C   UNL     1     -17.094  55.600  -2.412  1.00  0.00     0.041 C 
ATOM      3  O   UNL     1     -16.714  54.414  -2.223  1.00  0.00    -0.550 OA
ATOM      4  O   UNL     1     -16.988  56.529  -1.384  1.00  0.00    -0.550 OA
ENDBRANCH   1   2
BRANCH   1   5
ATOM      5  C   UNL     1     -19.006  56.637  -3.621  1.00  0.00     0.006 C 
BRANCH   5   6
ATOM      6  C   UNL     1     -20.020  55.670  -2.992  1.00  0.00    -0.003 C 
ATOM      7  C   UNL     1     -21.469  56.082  -3.251  1.00  0.00     0.004 C 
ENDBRANCH   5   6
ENDBRANCH   1   5
TORSDOF 3
ENDMDL
MODEL 5
REMARK VINA RESULT:    -3.304      4.872      5.970
REMARK INTER + INTRA:          -3.923
REMARK INTER:                  -3.826
REMARK INTRA:                  -0.097
REMARK UNBOUND:                -0.039
REMARK SMILES CCCCC(=O)[O-]
REMARK SMILES IDX 4 1 5 2 6 3 7 4 3 5 2 6 1 7
REMARK H PARENT
REMARK Flexibility Score: inf
ROOT
ATOM      1  C   UNL     1     -18.242  54.764  -2.916  1.00  0.00     0.053 C 
ENDROOT
BRANCH   1   2
ATOM      2  C   UNL     1     -18.770  56.092  -3.355  1.00  0.00     0.041 C 
ATOM      3  O   UNL     1     -20.009  56.318  -3.341  1.00  0.00    -0.550 OA
ATOM      4  O   UNL     1     -17.892  57.099  -3.734  1.00  0.00    -0.550 OA
ENDBRANCH   1   2
BRANCH   1   5
ATOM      5  C   UNL     1     -19.263  53.657  -3.211  1.00  0.00     0.006 C 
BRANCH   5   6
ATOM      6  C   UNL     1     -19.677  52.884  -1.950  1.00  0.00    -0.003 C 
ATOM      7  C   UNL     1     -21.092  53.226  -1.485  1.00  0.00     0.004 C 
ENDBRANCH   5   6
ENDBRANCH   1   5
TORSDOF 3
ENDMDL
MODEL 6
REMARK VINA RESULT:    -3.273      4.061      4.808
REMARK INTER + INTRA:          -3.886
REMARK INTER:                  -3.814
REMARK INTRA:                  -0.072
REMARK UNBOUND:                -0.039
REMARK SMILES CCCCC(=O)[O-]
REMARK SMILES IDX 4 1 5 2 6 3 7 4 3 5 2 6 1 7
REMARK H PARENT
REMARK Flexibility Score: inf
ROOT
ATOM      1  C   UNL     1     -16.869  54.557  -2.246  1.00  0.00     0.053 C 
ENDROOT
BRANCH   1   2
ATOM      2  C   UNL     1     -16.792  54.185  -0.800  1.00  0.00     0.041 C 
ATOM      3  O   UNL     1     -17.845  54.070  -0.117  1.00  0.00    -0.550 OA
ATOM      4  O   UNL     1     -15.561  53.914  -0.216  1.00  0.00    -0.550 OA
ENDBRANCH   1   2
BRANCH   1   5
ATOM      5  C   UNL     1     -18.281  54.303  -2.791  1.00  0.00     0.006 C 
BRANCH   5   6
ATOM      6  C   UNL     1     -18.951  55.582  -3.316  1.00  0.00    -0.003 C 
ATOM      7  C   UNL     1     -17.942  56.604  -3.840  1.00  0.00     0.004 C 
ENDBRANCH   5   6
ENDBRANCH   1   5
TORSDOF 3
ENDMDL
MODEL 7
REMARK VINA RESULT:    -3.210      4.516      4.930
REMARK INTER + INTRA:          -3.812
REMARK INTER:                  -3.742
REMARK INTRA:                  -0.070
REMARK UNBOUND:                -0.039
REMARK SMILES CCCCC(=O)[O-]
REMARK SMILES IDX 4 1 5 2 6 3 7 4 3 5 2 6 1 7
REMARK H PARENT
REMARK Flexibility Score: inf
ROOT
ATOM      1  C   UNL     1     -19.547  56.039  -2.403  1.00  0.00     0.053 C 
ENDROOT
BRANCH   1   2
ATOM      2  C   UNL     1     -20.597  55.070  -2.843  1.00  0.00     0.041 C 
ATOM      3  O   UNL     1     -20.410  53.831  -2.716  1.00  0.00    -0.550 OA
ATOM      4  O   UNL     1     -21.804  55.535  -3.350  1.00  0.00    -0.550 OA
ENDBRANCH   1   2
BRANCH   1   5
ATOM      5  C   UNL     1     -18.812  56.622  -3.617  1.00  0.00     0.006 C 
BRANCH   5   6
ATOM      6  C   UNL     1     -17.388  56.065  -3.769  1.00  0.00    -0.003 C 
ATOM      7  C   UNL     1     -16.987  55.147  -2.616  1.00  0.00     0.004 C 
ENDBRANCH   5   6
ENDBRANCH   1   5
TORSDOF 3
ENDMDL
MODEL 8
REMARK VINA RESULT:    -3.201      5.199      5.897
REMARK INTER + INTRA:          -3.801
REMARK INTER:                  -3.778
REMARK INTRA:                  -0.023
REMARK UNBOUND:                -0.039
REMARK SMILES CCCCC(=O)[O-]
REMARK SMILES IDX 4 1 5 2 6 3 7 4 3 5 2 6 1 7
REMARK H PARENT
REMARK Flexibility Score: inf
ROOT
ATOM      1  C   UNL     1     -21.552  55.840  -3.320  1.00  0.00     0.053 C 
ENDROOT
BRANCH   1   2
ATOM      2  C   UNL     1     -22.487  55.098  -2.420  1.00  0.00     0.041 C 
ATOM      3  O   UNL     1     -23.731  55.155  -2.612  1.00  0.00    -0.550 OA
ATOM      4  O   UNL     1     -21.985  54.303  -1.398  1.00  0.00    -0.550 OA
ENDBRANCH   1   2
BRANCH   1   5
ATOM      5  C   UNL     1     -20.096  55.494  -2.981  1.00  0.00     0.006 C 
BRANCH   5   6
ATOM      6  C   UNL     1     -19.111  56.586  -3.425  1.00  0.00    -0.003 C 
ATOM      7  C   UNL     1     -17.856  56.017  -4.087  1.00  0.00     0.004 C 
ENDBRANCH   5   6
ENDBRANCH   1   5
TORSDOF 3
ENDMDL
MODEL 9
REMARK VINA RESULT:    -3.199      4.801      6.150
REMARK INTER + INTRA:          -3.799
REMARK INTER:                  -3.765
REMARK INTRA:                  -0.034
REMARK UNBOUND:                -0.039
REMARK SMILES CCCCC(=O)[O-]
REMARK SMILES IDX 4 1 5 2 6 3 7 4 3 5 2 6 1 7
REMARK H PARENT
REMARK Flexibility Score: inf
ROOT
ATOM      1  C   UNL     1     -19.657  54.959  -2.958  1.00  0.00     0.053 C 
ENDROOT
BRANCH   1   2
ATOM      2  C   UNL     1     -18.298  55.531  -3.205  1.00  0.00     0.041 C 
ATOM      3  O   UNL     1     -17.272  54.931  -2.787  1.00  0.00    -0.550 OA
ATOM      4  O   UNL     1     -18.158  56.701  -3.940  1.00  0.00    -0.550 OA
ENDBRANCH   1   2
BRANCH   1   5
ATOM      5  C   UNL     1     -19.584  53.430  -2.850  1.00  0.00     0.006 C 
BRANCH   5   6
ATOM      6  C   UNL     1     -20.538  52.867  -1.786  1.00  0.00    -0.003 C 
ATOM      7  C   UNL     1     -19.890  51.780  -0.929  1.00  0.00     0.004 C 
ENDBRANCH   5   6
ENDBRANCH   1   5
TORSDOF 3
ENDMDL
