MODEL 1
REMARK VINA RESULT:    -4.153      0.000      0.000
REMARK INTER + INTRA:          -7.387
REMARK INTER:                  -6.338
REMARK INTRA:                  -1.049
REMARK UNBOUND:                -1.049
REMARK SMILES O=C([O-])CCCCCCCCC(=O)[O-]
REMARK SMILES IDX 7 1 6 2 5 3 4 4 2 5 1 6 3 7 8 8 9 9 10 10 11 11 12 12 13 13
REMARK SMILES IDX 14 14
REMARK H PARENT
REMARK Flexibility Score: inf
ROOT
ATOM      1  C   UNL     1     -15.777  44.157  29.979  1.00  0.00     0.000 C 
ENDROOT
BRANCH   1   2
ATOM      2  C   UNL     1     -14.500  44.958  30.279  1.00  0.00     0.000 C 
BRANCH   2   3
ATOM      3  C   UNL     1     -13.558  44.229  31.249  1.00  0.00     0.006 C 
BRANCH   3   4
ATOM      4  C   UNL     1     -13.919  44.543  32.704  1.00  0.00     0.053 C 
BRANCH   4   5
ATOM      5  C   UNL     1     -14.584  43.366  33.344  1.00  0.00     0.041 C 
ATOM      6  O   UNL     1     -15.332  43.527  34.345  1.00  0.00    -0.550 OA
ATOM      7  O   UNL     1     -14.418  42.095  32.807  1.00  0.00    -0.550 OA
ENDBRANCH   4   5
ENDBRANCH   3   4
ENDBRANCH   2   3
ENDBRANCH   1   2
BRANCH   1   8
ATOM      8  C   UNL     1     -17.058  44.934  30.320  1.00  0.00     0.000 C 
BRANCH   8   9
ATOM      9  C   UNL     1     -17.745  44.340  31.557  1.00  0.00     0.000 C 
BRANCH   9  10
ATOM     10  C   UNL     1     -17.719  42.808  31.517  1.00  0.00     0.006 C 
BRANCH  10  11
ATOM     11  C   UNL     1     -18.247  42.216  32.828  1.00  0.00     0.053 C 
BRANCH  11  12
ATOM     12  C   UNL     1     -17.711  40.834  33.033  1.00  0.00     0.041 C 
ATOM     13  O   UNL     1     -17.739  39.998  32.092  1.00  0.00    -0.550 OA
ATOM     14  O   UNL     1     -17.136  40.485  34.247  1.00  0.00    -0.550 OA
ENDBRANCH  11  12
ENDBRANCH  10  11
ENDBRANCH   9  10
ENDBRANCH   8   9
ENDBRANCH   1   8
TORSDOF 9
ENDMDL
MODEL 2
REMARK VINA RESULT:    -4.134      1.832      4.522
REMARK INTER + INTRA:          -7.358
REMARK INTER:                  -6.629
REMARK INTRA:                  -0.730
REMARK UNBOUND:                -1.049
REMARK SMILES O=C([O-])CCCCCCCCC(=O)[O-]
REMARK SMILES IDX 7 1 6 2 5 3 4 4 2 5 1 6 3 7 8 8 9 9 10 10 11 11 12 12 13 13
REMARK SMILES IDX 14 14
REMARK H PARENT
REMARK Flexibility Score: inf
ROOT
ATOM      1  C   UNL     1     -16.025  44.280  29.802  1.00  0.00     0.000 C 
ENDROOT
BRANCH   1   2
ATOM      2  C   UNL     1     -17.097  45.060  30.579  1.00  0.00     0.000 C 
BRANCH   2   3
ATOM      3  C   UNL     1     -17.351  44.484  31.980  1.00  0.00     0.006 C 
BRANCH   3   4
ATOM      4  C   UNL     1     -18.647  43.669  32.011  1.00  0.00     0.053 C 
BRANCH   4   5
ATOM      5  C   UNL     1     -19.187  43.596  33.404  1.00  0.00     0.041 C 
ATOM      6  O   UNL     1     -19.172  42.506  34.034  1.00  0.00    -0.550 OA
ATOM      7  O   UNL     1     -19.664  44.744  34.027  1.00  0.00    -0.550 OA
ENDBRANCH   4   5
ENDBRANCH   3   4
ENDBRANCH   2   3
ENDBRANCH   1   2
BRANCH   1   8
ATOM      8  C   UNL     1     -14.605  44.542  30.328  1.00  0.00     0.000 C 
BRANCH   8   9
ATOM      9  C   UNL     1     -13.978  43.254  30.878  1.00  0.00     0.000 C 
BRANCH   9  10
ATOM     10  C   UNL     1     -13.311  43.505  32.236  1.00  0.00     0.006 C 
BRANCH  10  11
ATOM     11  C   UNL     1     -13.624  44.914  32.749  1.00  0.00     0.053 C 
BRANCH  11  12
ATOM     12  C   UNL     1     -14.264  44.851  34.100  1.00  0.00     0.041 C 
ATOM     13  O   UNL     1     -14.880  43.814  34.461  1.00  0.00    -0.550 OA
ATOM     14  O   UNL     1     -14.137  45.917  34.980  1.00  0.00    -0.550 OA
ENDBRANCH  11  12
ENDBRANCH  10  11
ENDBRANCH   9  10
ENDBRANCH   8   9
ENDBRANCH   1   8
TORSDOF 9
ENDMDL
MODEL 3
REMARK VINA RESULT:    -4.117      1.769      2.356
REMARK INTER + INTRA:          -7.332
REMARK INTER:                  -6.620
REMARK INTRA:                  -0.712
REMARK UNBOUND:                -1.049
REMARK SMILES O=C([O-])CCCCCCCCC(=O)[O-]
REMARK SMILES IDX 7 1 6 2 5 3 4 4 2 5 1 6 3 7 8 8 9 9 10 10 11 11 12 12 13 13
REMARK SMILES IDX 14 14
REMARK H PARENT
REMARK Flexibility Score: inf
ROOT
ATOM      1  C   UNL     1     -14.656  44.690  30.636  1.00  0.00     0.000 C 
ENDROOT
BRANCH   1   2
ATOM      2  C   UNL     1     -13.910  43.415  31.062  1.00  0.00     0.000 C 
BRANCH   2   3
ATOM      3  C   UNL     1     -13.246  43.550  32.440  1.00  0.00     0.006 C 
BRANCH   3   4
ATOM      4  C   UNL     1     -13.383  44.978  32.977  1.00  0.00     0.053 C 
BRANCH   4   5
ATOM      5  C   UNL     1     -14.212  44.993  34.222  1.00  0.00     0.041 C 
ATOM      6  O   UNL     1     -14.221  46.010  34.966  1.00  0.00    -0.550 OA
ATOM      7  O   UNL     1     -15.015  43.904  34.537  1.00  0.00    -0.550 OA
ENDBRANCH   4   5
ENDBRANCH   3   4
ENDBRANCH   2   3
ENDBRANCH   1   2
BRANCH   1   8
ATOM      8  C   UNL     1     -15.932  44.389  29.834  1.00  0.00     0.000 C 
BRANCH   8   9
ATOM      9  C   UNL     1     -17.158  45.034  30.494  1.00  0.00     0.000 C 
BRANCH   9  10
ATOM     10  C   UNL     1     -17.320  44.552  31.941  1.00  0.00     0.006 C 
BRANCH  10  11
ATOM     11  C   UNL     1     -18.256  43.342  32.014  1.00  0.00     0.053 C 
BRANCH  11  12
ATOM     12  C   UNL     1     -19.068  43.383  33.271  1.00  0.00     0.041 C 
ATOM     13  O   UNL     1     -19.399  44.488  33.775  1.00  0.00    -0.550 OA
ATOM     14  O   UNL     1     -19.500  42.202  33.858  1.00  0.00    -0.550 OA
ENDBRANCH  11  12
ENDBRANCH  10  11
ENDBRANCH   9  10
ENDBRANCH   8   9
ENDBRANCH   1   8
TORSDOF 9
ENDMDL
MODEL 4
REMARK VINA RESULT:    -4.034      1.468      4.304
REMARK INTER + INTRA:          -7.205
REMARK INTER:                  -6.232
REMARK INTRA:                  -0.973
REMARK UNBOUND:                -1.049
REMARK SMILES O=C([O-])CCCCCCCCC(=O)[O-]
REMARK SMILES IDX 7 1 6 2 5 3 4 4 2 5 1 6 3 7 8 8 9 9 10 10 11 11 12 12 13 13
REMARK SMILES IDX 14 14
REMARK H PARENT
REMARK Flexibility Score: inf
ROOT
ATOM      1  C   UNL     1     -17.719  44.155  31.954  1.00  0.00     0.000 C 
ENDROOT
BRANCH   1   2
ATOM      2  C   UNL     1     -16.921  44.306  33.258  1.00  0.00     0.000 C 
BRANCH   2   3
ATOM      3  C   UNL     1     -16.417  42.961  33.803  1.00  0.00     0.006 C 
BRANCH   3   4
ATOM      4  C   UNL     1     -16.419  41.891  32.707  1.00  0.00     0.053 C 
BRANCH   4   5
ATOM      5  C   UNL     1     -17.166  40.677  33.162  1.00  0.00     0.041 C 
ATOM      6  O   UNL     1     -17.217  40.385  34.386  1.00  0.00    -0.550 OA
ATOM      7  O   UNL     1     -17.849  39.893  32.239  1.00  0.00    -0.550 OA
ENDBRANCH   4   5
ENDBRANCH   3   4
ENDBRANCH   2   3
ENDBRANCH   1   2
BRANCH   1   8
ATOM      8  C   UNL     1     -17.127  44.977  30.798  1.00  0.00     0.000 C 
BRANCH   8   9
ATOM      9  C   UNL     1     -16.622  44.060  29.677  1.00  0.00     0.000 C 
BRANCH   9  10
ATOM     10  C   UNL     1     -15.120  43.791  29.821  1.00  0.00     0.006 C 
BRANCH  10  11
ATOM     11  C   UNL     1     -14.413  44.974  30.490  1.00  0.00     0.053 C 
BRANCH  11  12
ATOM     12  C   UNL     1     -13.388  44.488  31.466  1.00  0.00     0.041 C 
ATOM     13  O   UNL     1     -13.448  44.837  32.675  1.00  0.00    -0.550 OA
ATOM     14  O   UNL     1     -12.395  43.611  31.052  1.00  0.00    -0.550 OA
ENDBRANCH  11  12
ENDBRANCH  10  11
ENDBRANCH   9  10
ENDBRANCH   8   9
ENDBRANCH   1   8
TORSDOF 9
ENDMDL
MODEL 5
REMARK VINA RESULT:    -4.010      2.207      2.877
REMARK INTER + INTRA:          -7.169
REMARK INTER:                  -6.336
REMARK INTRA:                  -0.833
REMARK UNBOUND:                -1.049
REMARK SMILES O=C([O-])CCCCCCCCC(=O)[O-]
REMARK SMILES IDX 7 1 6 2 5 3 4 4 2 5 1 6 3 7 8 8 9 9 10 10 11 11 12 12 13 13
REMARK SMILES IDX 14 14
REMARK H PARENT
REMARK Flexibility Score: inf
ROOT
ATOM      1  C   UNL     1     -18.052  43.966  32.158  1.00  0.00     0.000 C 
ENDROOT
BRANCH   1   2
ATOM      2  C   UNL     1     -16.669  44.608  32.348  1.00  0.00     0.000 C 
BRANCH   2   3
ATOM      3  C   UNL     1     -15.580  43.579  32.687  1.00  0.00     0.006 C 
BRANCH   3   4
ATOM      4  C   UNL     1     -15.002  43.833  34.083  1.00  0.00     0.053 C 
BRANCH   4   5
ATOM      5  C   UNL     1     -14.108  45.032  34.070  1.00  0.00     0.041 C 
ATOM      6  O   UNL     1     -13.232  45.161  33.173  1.00  0.00    -0.550 OA
ATOM      7  O   UNL     1     -14.273  46.034  35.019  1.00  0.00    -0.550 OA
ENDBRANCH   4   5
ENDBRANCH   3   4
ENDBRANCH   2   3
ENDBRANCH   1   2
BRANCH   1   8
ATOM      8  C   UNL     1     -18.787  43.737  33.488  1.00  0.00     0.000 C 
BRANCH   8   9
ATOM      9  C   UNL     1     -18.740  42.258  33.893  1.00  0.00     0.000 C 
BRANCH   9  10
ATOM     10  C   UNL     1     -18.570  41.358  32.663  1.00  0.00     0.006 C 
BRANCH  10  11
ATOM     11  C   UNL     1     -17.440  40.346  32.877  1.00  0.00     0.053 C 
BRANCH  11  12
ATOM     12  C   UNL     1     -17.035  39.730  31.574  1.00  0.00     0.041 C 
ATOM     13  O   UNL     1     -16.367  40.394  30.740  1.00  0.00    -0.550 OA
ATOM     14  O   UNL     1     -17.354  38.406  31.303  1.00  0.00    -0.550 OA
ENDBRANCH  11  12
ENDBRANCH  10  11
ENDBRANCH   9  10
ENDBRANCH   8   9
ENDBRANCH   1   8
TORSDOF 9
ENDMDL
MODEL 6
REMARK VINA RESULT:    -3.997      1.247      4.502
REMARK INTER + INTRA:          -7.149
REMARK INTER:                  -6.345
REMARK INTRA:                  -0.804
REMARK UNBOUND:                -1.049
REMARK SMILES O=C([O-])CCCCCCCCC(=O)[O-]
REMARK SMILES IDX 7 1 6 2 5 3 4 4 2 5 1 6 3 7 8 8 9 9 10 10 11 11 12 12 13 13
REMARK SMILES IDX 14 14
REMARK H PARENT
REMARK Flexibility Score: inf
ROOT
ATOM      1  C   UNL     1     -16.055  43.785  30.139  1.00  0.00     0.000 C 
ENDROOT
BRANCH   1   2
ATOM      2  C   UNL     1     -17.368  44.013  30.904  1.00  0.00     0.000 C 
BRANCH   2   3
ATOM      3  C   UNL     1     -17.711  42.854  31.852  1.00  0.00     0.006 C 
BRANCH   3   4
ATOM      4  C   UNL     1     -16.898  41.603  31.504  1.00  0.00     0.053 C 
BRANCH   4   5
ATOM      5  C   UNL     1     -17.373  40.431  32.302  1.00  0.00     0.041 C 
ATOM      6  O   UNL     1     -17.265  40.432  33.557  1.00  0.00    -0.550 OA
ATOM      7  O   UNL     1     -17.980  39.355  31.665  1.00  0.00    -0.550 OA
ENDBRANCH   4   5
ENDBRANCH   3   4
ENDBRANCH   2   3
ENDBRANCH   1   2
BRANCH   1   8
ATOM      8  C   UNL     1     -15.001  44.863  30.436  1.00  0.00     0.000 C 
BRANCH   8   9
ATOM      9  C   UNL     1     -13.706  44.233  30.962  1.00  0.00     0.000 C 
BRANCH   9  10
ATOM     10  C   UNL     1     -13.846  43.837  32.437  1.00  0.00     0.006 C 
BRANCH  10  11
ATOM     11  C   UNL     1     -13.400  44.978  33.356  1.00  0.00     0.053 C 
BRANCH  11  12
ATOM     12  C   UNL     1     -14.510  45.374  34.279  1.00  0.00     0.041 C 
ATOM     13  O   UNL     1     -14.299  46.197  35.207  1.00  0.00    -0.550 OA
ATOM     14  O   UNL     1     -15.789  44.871  34.082  1.00  0.00    -0.550 OA
ENDBRANCH  11  12
ENDBRANCH  10  11
ENDBRANCH   9  10
ENDBRANCH   8   9
ENDBRANCH   1   8
TORSDOF 9
ENDMDL
MODEL 7
REMARK VINA RESULT:    -3.975      2.022      3.121
REMARK INTER + INTRA:          -7.116
REMARK INTER:                  -6.350
REMARK INTRA:                  -0.766
REMARK UNBOUND:                -1.049
REMARK SMILES O=C([O-])CCCCCCCCC(=O)[O-]
REMARK SMILES IDX 7 1 6 2 5 3 4 4 2 5 1 6 3 7 8 8 9 9 10 10 11 11 12 12 13 13
REMARK SMILES IDX 14 14
REMARK H PARENT
REMARK Flexibility Score: inf
ROOT
ATOM      1  C   UNL     1     -15.764  44.575  33.688  1.00  0.00     0.000 C 
ENDROOT
BRANCH   1   2
ATOM      2  C   UNL     1     -14.371  44.565  33.039  1.00  0.00     0.000 C 
BRANCH   2   3
ATOM      3  C   UNL     1     -14.367  43.894  31.657  1.00  0.00     0.006 C 
BRANCH   3   4
ATOM      4  C   UNL     1     -14.732  44.898  30.560  1.00  0.00     0.053 C 
BRANCH   4   5
ATOM      5  C   UNL     1     -16.085  44.592  29.999  1.00  0.00     0.041 C 
ATOM      6  O   UNL     1     -16.211  43.753  29.067  1.00  0.00    -0.550 OA
ATOM      7  O   UNL     1     -17.215  45.196  30.537  1.00  0.00    -0.550 OA
ENDBRANCH   4   5
ENDBRANCH   3   4
ENDBRANCH   2   3
ENDBRANCH   1   2
BRANCH   1   8
ATOM      8  C   UNL     1     -16.414  43.183  33.717  1.00  0.00     0.000 C 
BRANCH   8   9
ATOM      9  C   UNL     1     -17.924  43.277  33.462  1.00  0.00     0.000 C 
BRANCH   9  10
ATOM     10  C   UNL     1     -18.548  41.882  33.337  1.00  0.00     0.006 C 
BRANCH  10  11
ATOM     11  C   UNL     1     -17.465  40.801  33.268  1.00  0.00     0.053 C 
BRANCH  11  12
ATOM     12  C   UNL     1     -17.406  40.207  31.895  1.00  0.00     0.041 C 
ATOM     13  O   UNL     1     -17.915  39.077  31.672  1.00  0.00    -0.550 OA
ATOM     14  O   UNL     1     -16.834  40.922  30.852  1.00  0.00    -0.550 OA
ENDBRANCH  11  12
ENDBRANCH  10  11
ENDBRANCH   9  10
ENDBRANCH   8   9
ENDBRANCH   1   8
TORSDOF 9
ENDMDL
MODEL 8
REMARK VINA RESULT:    -3.964      2.771      3.939
REMARK INTER + INTRA:          -7.098
REMARK INTER:                  -6.209
REMARK INTRA:                  -0.889
REMARK UNBOUND:                -1.049
REMARK SMILES O=C([O-])CCCCCCCCC(=O)[O-]
REMARK SMILES IDX 7 1 6 2 5 3 4 4 2 5 1 6 3 7 8 8 9 9 10 10 11 11 12 12 13 13
REMARK SMILES IDX 14 14
REMARK H PARENT
REMARK Flexibility Score: inf
ROOT
ATOM      1  C   UNL     1     -17.143  44.905  30.896  1.00  0.00     0.000 C 
ENDROOT
BRANCH   1   2
ATOM      2  C   UNL     1     -16.526  44.420  29.575  1.00  0.00     0.000 C 
BRANCH   2   3
ATOM      3  C   UNL     1     -15.163  43.739  29.772  1.00  0.00     0.006 C 
BRANCH   3   4
ATOM      4  C   UNL     1     -14.197  44.655  30.529  1.00  0.00     0.053 C 
BRANCH   4   5
ATOM      5  C   UNL     1     -12.801  44.124  30.450  1.00  0.00     0.041 C 
ATOM      6  O   UNL     1     -11.820  44.914  30.480  1.00  0.00    -0.550 OA
ATOM      7  O   UNL     1     -12.579  42.753  30.393  1.00  0.00    -0.550 OA
ENDBRANCH   4   5
ENDBRANCH   3   4
ENDBRANCH   2   3
ENDBRANCH   1   2
BRANCH   1   8
ATOM      8  C   UNL     1     -18.071  43.860  31.535  1.00  0.00     0.000 C 
BRANCH   8   9
ATOM      9  C   UNL     1     -17.578  43.472  32.935  1.00  0.00     0.000 C 
BRANCH   9  10
ATOM     10  C   UNL     1     -16.660  44.555  33.514  1.00  0.00     0.006 C 
BRANCH  10  11
ATOM     11  C   UNL     1     -15.346  43.949  34.017  1.00  0.00     0.053 C 
BRANCH  11  12
ATOM     12  C   UNL     1     -14.351  45.027  34.311  1.00  0.00     0.041 C 
ATOM     13  O   UNL     1     -14.693  46.043  34.971  1.00  0.00    -0.550 OA
ATOM     14  O   UNL     1     -13.032  44.887  33.899  1.00  0.00    -0.550 OA
ENDBRANCH  11  12
ENDBRANCH  10  11
ENDBRANCH   9  10
ENDBRANCH   8   9
ENDBRANCH   1   8
TORSDOF 9
ENDMDL
MODEL 9
REMARK VINA RESULT:    -3.958      2.036      4.475
REMARK INTER + INTRA:          -7.089
REMARK INTER:                  -6.135
REMARK INTRA:                  -0.954
REMARK UNBOUND:                -1.049
REMARK SMILES O=C([O-])CCCCCCCCC(=O)[O-]
REMARK SMILES IDX 7 1 6 2 5 3 4 4 2 5 1 6 3 7 8 8 9 9 10 10 11 11 12 12 13 13
REMARK SMILES IDX 14 14
REMARK H PARENT
REMARK Flexibility Score: inf
ROOT
ATOM      1  C   UNL     1     -14.180  44.024  34.133  1.00  0.00     0.000 C 
ENDROOT
BRANCH   1   2
ATOM      2  C   UNL     1     -15.582  43.460  33.853  1.00  0.00     0.000 C 
BRANCH   2   3
ATOM      3  C   UNL     1     -16.657  44.554  33.782  1.00  0.00     0.006 C 
BRANCH   3   4
ATOM      4  C   UNL     1     -17.673  44.253  32.675  1.00  0.00     0.053 C 
BRANCH   4   5
ATOM      5  C   UNL     1     -18.487  43.048  33.025  1.00  0.00     0.041 C 
ATOM      6  O   UNL     1     -19.389  43.124  33.901  1.00  0.00    -0.550 OA
ATOM      7  O   UNL     1     -18.286  41.851  32.348  1.00  0.00    -0.550 OA
ENDBRANCH   4   5
ENDBRANCH   3   4
ENDBRANCH   2   3
ENDBRANCH   1   2
BRANCH   1   8
ATOM      8  C   UNL     1     -13.681  44.953  33.016  1.00  0.00     0.000 C 
BRANCH   8   9
ATOM      9  C   UNL     1     -12.791  44.191  32.026  1.00  0.00     0.000 C 
BRANCH   9  10
ATOM     10  C   UNL     1     -13.210  44.476  30.579  1.00  0.00     0.006 C 
BRANCH  10  11
ATOM     11  C   UNL     1     -14.679  44.906  30.508  1.00  0.00     0.053 C 
BRANCH  11  12
ATOM     12  C   UNL     1     -15.516  43.816  29.915  1.00  0.00     0.041 C 
ATOM     13  O   UNL     1     -16.266  44.057  28.933  1.00  0.00    -0.550 OA
ATOM     14  O   UNL     1     -15.431  42.524  30.416  1.00  0.00    -0.550 OA
ENDBRANCH  11  12
ENDBRANCH  10  11
ENDBRANCH   9  10
ENDBRANCH   8   9
ENDBRANCH   1   8
TORSDOF 9
ENDMDL
