MODEL 1
REMARK VINA RESULT:    -3.224      0.000      0.000
REMARK INTER + INTRA:          -3.938
REMARK INTER:                  -3.790
REMARK INTRA:                  -0.148
REMARK UNBOUND:                -0.148
REMARK SMILES O=C([O-])CCC(=O)[O-]
REMARK SMILES IDX 4 1 2 2 1 3 3 4 5 5 6 6 7 7 8 8
REMARK H PARENT
REMARK Flexibility Score: inf
ROOT
ATOM      1  C   UNL     1      44.152  27.123   3.003  1.00  0.00     0.059 C 
ENDROOT
BRANCH   1   2
ATOM      2  C   UNL     1      45.082  26.413   3.935  1.00  0.00     0.042 C 
ATOM      3  O   UNL     1      45.227  25.165   3.857  1.00  0.00    -0.550 OA
ATOM      4  O   UNL     1      45.752  27.125   4.923  1.00  0.00    -0.550 OA
ENDBRANCH   1   2
BRANCH   1   5
ATOM      5  C   UNL     1      44.890  28.232   2.253  1.00  0.00     0.059 C 
BRANCH   5   6
ATOM      6  C   UNL     1      45.704  27.658   1.136  1.00  0.00     0.042 C 
ATOM      7  O   UNL     1      45.137  27.233   0.094  1.00  0.00    -0.550 OA
ATOM      8  O   UNL     1      47.081  27.546   1.265  1.00  0.00    -0.550 OA
ENDBRANCH   5   6
ENDBRANCH   1   5
TORSDOF 3
ENDMDL
MODEL 2
REMARK VINA RESULT:    -3.109      0.241      3.519
REMARK INTER + INTRA:          -3.803
REMARK INTER:                  -3.650
REMARK INTRA:                  -0.153
REMARK UNBOUND:                -0.148
REMARK SMILES O=C([O-])CCC(=O)[O-]
REMARK SMILES IDX 4 1 2 2 1 3 3 4 5 5 6 6 7 7 8 8
REMARK H PARENT
REMARK Flexibility Score: inf
ROOT
ATOM      1  C   UNL     1      44.794  28.267   2.372  1.00  0.00     0.059 C 
ENDROOT
BRANCH   1   2
ATOM      2  C   UNL     1      45.705  27.837   1.266  1.00  0.00     0.042 C 
ATOM      3  O   UNL     1      46.931  28.119   1.311  1.00  0.00    -0.550 OA
ATOM      4  O   UNL     1      45.191  27.168   0.162  1.00  0.00    -0.550 OA
ENDBRANCH   1   2
BRANCH   1   5
ATOM      5  C   UNL     1      44.155  27.049   3.042  1.00  0.00     0.059 C 
BRANCH   5   6
ATOM      6  C   UNL     1      45.137  26.375   3.948  1.00  0.00     0.042 C 
ATOM      7  O   UNL     1      45.342  25.136   3.849  1.00  0.00    -0.550 OA
ATOM      8  O   UNL     1      45.788  27.104   4.934  1.00  0.00    -0.550 OA
ENDBRANCH   5   6
ENDBRANCH   1   5
TORSDOF 3
ENDMDL
MODEL 3
REMARK VINA RESULT:    -2.950      4.622      6.324
REMARK INTER + INTRA:          -3.616
REMARK INTER:                  -3.589
REMARK INTRA:                  -0.026
REMARK UNBOUND:                -0.148
REMARK SMILES O=C([O-])CCC(=O)[O-]
REMARK SMILES IDX 4 1 2 2 1 3 3 4 5 5 6 6 7 7 8 8
REMARK H PARENT
REMARK Flexibility Score: inf
ROOT
ATOM      1  C   UNL     1      44.682  28.184  -2.866  1.00  0.00     0.059 C 
ENDROOT
BRANCH   1   2
ATOM      2  C   UNL     1      45.646  27.602  -1.881  1.00  0.00     0.042 C 
ATOM      3  O   UNL     1      46.782  27.215  -2.261  1.00  0.00    -0.550 OA
ATOM      4  O   UNL     1      45.271  27.441  -0.554  1.00  0.00    -0.550 OA
ENDBRANCH   1   2
BRANCH   1   5
ATOM      5  C   UNL     1      43.950  27.073  -3.620  1.00  0.00     0.059 C 
BRANCH   5   6
ATOM      6  C   UNL     1      42.997  27.655  -4.616  1.00  0.00     0.042 C 
ATOM      7  O   UNL     1      43.321  27.731  -5.832  1.00  0.00    -0.550 OA
ATOM      8  O   UNL     1      41.774  28.158  -4.197  1.00  0.00    -0.550 OA
ENDBRANCH   5   6
ENDBRANCH   1   5
TORSDOF 3
ENDMDL
MODEL 4
REMARK VINA RESULT:    -2.948     23.022     23.794
REMARK INTER + INTRA:          -3.614
REMARK INTER:                  -3.545
REMARK INTRA:                  -0.068
REMARK UNBOUND:                -0.148
REMARK SMILES O=C([O-])CCC(=O)[O-]
REMARK SMILES IDX 4 1 2 2 1 3 3 4 5 5 6 6 7 7 8 8
REMARK H PARENT
REMARK Flexibility Score: inf
ROOT
ATOM      1  C   UNL     1      29.200  10.166  -4.669  1.00  0.00     0.059 C 
ENDROOT
BRANCH   1   2
ATOM      2  C   UNL     1      28.234  10.996  -3.885  1.00  0.00     0.042 C 
ATOM      3  O   UNL     1      28.488  12.205  -3.643  1.00  0.00    -0.550 OA
ATOM      4  O   UNL     1      27.075  10.421  -3.379  1.00  0.00    -0.550 OA
ENDBRANCH   1   2
BRANCH   1   5
ATOM      5  C   UNL     1      29.824  10.992  -5.795  1.00  0.00     0.059 C 
BRANCH   5   6
ATOM      6  C   UNL     1      31.305  10.783  -5.840  1.00  0.00     0.042 C 
ATOM      7  O   UNL     1      31.838   9.877  -5.144  1.00  0.00    -0.550 OA
ATOM      8  O   UNL     1      32.103  11.619  -6.609  1.00  0.00    -0.550 OA
ENDBRANCH   5   6
ENDBRANCH   1   5
TORSDOF 3
ENDMDL
MODEL 5
REMARK VINA RESULT:    -2.942      4.640      6.890
REMARK INTER + INTRA:          -3.606
REMARK INTER:                  -3.579
REMARK INTRA:                  -0.027
REMARK UNBOUND:                -0.148
REMARK SMILES O=C([O-])CCC(=O)[O-]
REMARK SMILES IDX 4 1 2 2 1 3 3 4 5 5 6 6 7 7 8 8
REMARK H PARENT
REMARK Flexibility Score: inf
ROOT
ATOM      1  C   UNL     1      43.999  27.093  -3.697  1.00  0.00     0.059 C 
ENDROOT
BRANCH   1   2
ATOM      2  C   UNL     1      43.010  27.686  -4.650  1.00  0.00     0.042 C 
ATOM      3  O   UNL     1      43.294  27.795  -5.872  1.00  0.00    -0.550 OA
ATOM      4  O   UNL     1      41.793  28.164  -4.181  1.00  0.00    -0.550 OA
ENDBRANCH   1   2
BRANCH   1   5
ATOM      5  C   UNL     1      44.660  28.189  -2.861  1.00  0.00     0.059 C 
BRANCH   5   6
ATOM      6  C   UNL     1      45.631  27.594  -1.890  1.00  0.00     0.042 C 
ATOM      7  O   UNL     1      46.760  27.198  -2.286  1.00  0.00    -0.550 OA
ATOM      8  O   UNL     1      45.272  27.430  -0.559  1.00  0.00    -0.550 OA
ENDBRANCH   5   6
ENDBRANCH   1   5
TORSDOF 3
ENDMDL
MODEL 6
REMARK VINA RESULT:    -2.893      5.349      7.450
REMARK INTER + INTRA:          -3.549
REMARK INTER:                  -3.477
REMARK INTRA:                  -0.072
REMARK UNBOUND:                -0.148
REMARK SMILES O=C([O-])CCC(=O)[O-]
REMARK SMILES IDX 4 1 2 2 1 3 3 4 5 5 6 6 7 7 8 8
REMARK H PARENT
REMARK Flexibility Score: inf
ROOT
ATOM      1  C   UNL     1      43.415  27.689  -4.949  1.00  0.00     0.059 C 
ENDROOT
BRANCH   1   2
ATOM      2  C   UNL     1      42.311  28.680  -4.753  1.00  0.00     0.042 C 
ATOM      3  O   UNL     1      41.441  28.845  -5.648  1.00  0.00    -0.550 OA
ATOM      4  O   UNL     1      42.272  29.456  -3.602  1.00  0.00    -0.550 OA
ENDBRANCH   1   2
BRANCH   1   5
ATOM      5  C   UNL     1      43.667  26.906  -3.660  1.00  0.00     0.059 C 
BRANCH   5   6
ATOM      6  C   UNL     1      44.904  27.402  -2.979  1.00  0.00     0.042 C 
ATOM      7  O   UNL     1      45.753  28.076  -3.622  1.00  0.00    -0.550 OA
ATOM      8  O   UNL     1      45.144  27.080  -1.651  1.00  0.00    -0.550 OA
ENDBRANCH   5   6
ENDBRANCH   1   5
TORSDOF 3
ENDMDL
MODEL 7
REMARK VINA RESULT:    -2.888     23.070     23.984
REMARK INTER + INTRA:          -3.543
REMARK INTER:                  -3.471
REMARK INTRA:                  -0.072
REMARK UNBOUND:                -0.148
REMARK SMILES O=C([O-])CCC(=O)[O-]
REMARK SMILES IDX 4 1 2 2 1 3 3 4 5 5 6 6 7 7 8 8
REMARK H PARENT
REMARK Flexibility Score: inf
ROOT
ATOM      1  C   UNL     1      30.225  10.325  -5.258  1.00  0.00     0.059 C 
ENDROOT
BRANCH   1   2
ATOM      2  C   UNL     1      31.090  10.969  -6.294  1.00  0.00     0.042 C 
ATOM      3  O   UNL     1      30.591  11.774  -7.125  1.00  0.00    -0.550 OA
ATOM      4  O   UNL     1      32.439  10.645  -6.374  1.00  0.00    -0.550 OA
ENDBRANCH   1   2
BRANCH   1   5
ATOM      5  C   UNL     1      28.778  10.799  -5.398  1.00  0.00     0.059 C 
BRANCH   5   6
ATOM      6  C   UNL     1      28.252  11.274  -4.081  1.00  0.00     0.042 C 
ATOM      7  O   UNL     1      28.483  12.451  -3.694  1.00  0.00    -0.550 OA
ATOM      8  O   UNL     1      27.551  10.404  -3.257  1.00  0.00    -0.550 OA
ENDBRANCH   5   6
ENDBRANCH   1   5
TORSDOF 3
ENDMDL
MODEL 8
REMARK VINA RESULT:    -2.775      2.277      3.587
REMARK INTER + INTRA:          -3.410
REMARK INTER:                  -3.350
REMARK INTRA:                  -0.060
REMARK UNBOUND:                -0.148
REMARK SMILES O=C([O-])CCC(=O)[O-]
REMARK SMILES IDX 4 1 2 2 1 3 3 4 5 5 6 6 7 7 8 8
REMARK H PARENT
REMARK Flexibility Score: inf
ROOT
ATOM      1  C   UNL     1      46.425  26.710   5.730  1.00  0.00     0.059 C 
ENDROOT
BRANCH   1   2
ATOM      2  C   UNL     1      45.983  27.228   7.062  1.00  0.00     0.042 C 
ATOM      3  O   UNL     1      45.591  28.419   7.180  1.00  0.00    -0.550 OA
ATOM      4  O   UNL     1      46.050  26.410   8.183  1.00  0.00    -0.550 OA
ENDBRANCH   1   2
BRANCH   1   5
ATOM      5  C   UNL     1      45.628  27.375   4.606  1.00  0.00     0.059 C 
BRANCH   5   6
ATOM      6  C   UNL     1      45.005  26.339   3.723  1.00  0.00     0.042 C 
ATOM      7  O   UNL     1      45.302  25.123   3.868  1.00  0.00    -0.550 OA
ATOM      8  O   UNL     1      44.136  26.720   2.710  1.00  0.00    -0.550 OA
ENDBRANCH   5   6
ENDBRANCH   1   5
TORSDOF 3
ENDMDL
MODEL 9
REMARK VINA RESULT:    -2.767      2.264      4.557
REMARK INTER + INTRA:          -3.401
REMARK INTER:                  -3.341
REMARK INTRA:                  -0.059
REMARK UNBOUND:                -0.148
REMARK SMILES O=C([O-])CCC(=O)[O-]
REMARK SMILES IDX 4 1 2 2 1 3 3 4 5 5 6 6 7 7 8 8
REMARK H PARENT
REMARK Flexibility Score: inf
ROOT
ATOM      1  C   UNL     1      45.612  27.410   4.591  1.00  0.00     0.059 C 
ENDROOT
BRANCH   1   2
ATOM      2  C   UNL     1      45.000  26.361   3.718  1.00  0.00     0.042 C 
ATOM      3  O   UNL     1      45.300  25.149   3.880  1.00  0.00    -0.550 OA
ATOM      4  O   UNL     1      44.136  26.726   2.694  1.00  0.00    -0.550 OA
ENDBRANCH   1   2
BRANCH   1   5
ATOM      5  C   UNL     1      46.408  26.764   5.726  1.00  0.00     0.059 C 
BRANCH   5   6
ATOM      6  C   UNL     1      45.949  27.287   7.051  1.00  0.00     0.042 C 
ATOM      7  O   UNL     1      45.587  28.488   7.167  1.00  0.00    -0.550 OA
ATOM      8  O   UNL     1      45.969  26.464   8.169  1.00  0.00    -0.550 OA
ENDBRANCH   5   6
ENDBRANCH   1   5
TORSDOF 3
ENDMDL
