MODEL 1
REMARK VINA RESULT:    -3.753      0.000      0.000
REMARK INTER + INTRA:          -4.114
REMARK INTER:                  -4.082
REMARK INTRA:                  -0.032
REMARK UNBOUND:                -0.032
REMARK SMILES COc1ccccc1O
REMARK SMILES IDX 3 1 4 2 5 3 6 4 7 5 8 6 2 7 1 8 9 9
REMARK H PARENT 9 10
REMARK Flexibility Score: inf
ROOT
ATOM      1  C   UNL     1     -10.319  39.569  -4.655  1.00  0.00     0.160 A 
ATOM      2  C   UNL     1      -9.104  39.966  -4.061  1.00  0.00     0.050 A 
ATOM      3  C   UNL     1      -8.828  39.634  -2.731  1.00  0.00     0.004 A 
ATOM      4  C   UNL     1      -9.757  38.905  -1.983  1.00  0.00     0.004 A 
ATOM      5  C   UNL     1     -10.964  38.508  -2.564  1.00  0.00     0.050 A 
ATOM      6  C   UNL     1     -11.248  38.838  -3.897  1.00  0.00     0.157 A 
ENDROOT
BRANCH   1   7
ATOM      7  O   UNL     1     -10.639  39.881  -5.986  1.00  0.00    -0.493 OA
ATOM      8  C   UNL     1      -9.707  39.862  -7.063  1.00  0.00     0.278 C 
ENDBRANCH   1   7
BRANCH   6   9
ATOM      9  O   UNL     1     -12.452  38.441  -4.478  1.00  0.00    -0.504 OA
ATOM     10  H   UNL     1     -13.172  39.113  -4.717  1.00  0.00     0.293 HD
ENDBRANCH   6   9
TORSDOF 2
ENDMDL
MODEL 2
REMARK VINA RESULT:    -3.509      5.304      7.092
REMARK INTER + INTRA:          -3.849
REMARK INTER:                  -3.806
REMARK INTRA:                  -0.043
REMARK UNBOUND:                -0.032
REMARK SMILES COc1ccccc1O
REMARK SMILES IDX 3 1 4 2 5 3 6 4 7 5 8 6 2 7 1 8 9 9
REMARK H PARENT 9 10
REMARK Flexibility Score: inf
ROOT
ATOM      1  C   UNL     1     -11.802  34.849   0.960  1.00  0.00     0.160 A 
ATOM      2  C   UNL     1     -12.437  35.825   1.756  1.00  0.00     0.050 A 
ATOM      3  C   UNL     1     -12.302  37.183   1.449  1.00  0.00     0.004 A 
ATOM      4  C   UNL     1     -11.536  37.580   0.350  1.00  0.00     0.004 A 
ATOM      5  C   UNL     1     -10.903  36.621  -0.444  1.00  0.00     0.050 A 
ATOM      6  C   UNL     1     -11.034  35.257  -0.142  1.00  0.00     0.157 A 
ENDROOT
BRANCH   1   7
ATOM      7  O   UNL     1     -11.909  33.477   1.231  1.00  0.00    -0.493 OA
ATOM      8  C   UNL     1     -13.003  32.660   0.826  1.00  0.00     0.278 C 
ENDBRANCH   1   7
BRANCH   6   9
ATOM      9  O   UNL     1     -10.403  34.299  -0.934  1.00  0.00    -0.504 OA
ATOM     10  H   UNL     1     -10.217  34.463  -1.917  1.00  0.00     0.293 HD
ENDBRANCH   6   9
TORSDOF 2
ENDMDL
MODEL 3
REMARK VINA RESULT:    -3.450      5.971      7.405
REMARK INTER + INTRA:          -3.785
REMARK INTER:                  -3.742
REMARK INTRA:                  -0.043
REMARK UNBOUND:                -0.032
REMARK SMILES COc1ccccc1O
REMARK SMILES IDX 3 1 4 2 5 3 6 4 7 5 8 6 2 7 1 8 9 9
REMARK H PARENT 9 10
REMARK Flexibility Score: inf
ROOT
ATOM      1  C   UNL     1      -9.246  34.889   1.241  1.00  0.00     0.160 A 
ATOM      2  C   UNL     1      -8.158  35.344   2.013  1.00  0.00     0.050 A 
ATOM      3  C   UNL     1      -6.985  35.780   1.390  1.00  0.00     0.004 A 
ATOM      4  C   UNL     1      -6.885  35.767  -0.004  1.00  0.00     0.004 A 
ATOM      5  C   UNL     1      -7.957  35.317  -0.777  1.00  0.00     0.050 A 
ATOM      6  C   UNL     1      -9.137  34.878  -0.159  1.00  0.00     0.157 A 
ENDROOT
BRANCH   1   7
ATOM      7  O   UNL     1     -10.442  34.441   1.823  1.00  0.00    -0.493 OA
ATOM      8  C   UNL     1     -10.550  33.295   2.661  1.00  0.00     0.278 C 
ENDBRANCH   1   7
BRANCH   6   9
ATOM      9  O   UNL     1     -10.209  34.429  -0.930  1.00  0.00    -0.504 OA
ATOM     10  H   UNL     1     -10.138  33.596  -1.503  1.00  0.00     0.293 HD
ENDBRANCH   6   9
TORSDOF 2
ENDMDL
MODEL 4
REMARK VINA RESULT:    -3.426      4.638      5.990
REMARK INTER + INTRA:          -3.758
REMARK INTER:                  -3.720
REMARK INTRA:                  -0.038
REMARK UNBOUND:                -0.032
REMARK SMILES COc1ccccc1O
REMARK SMILES IDX 3 1 4 2 5 3 6 4 7 5 8 6 2 7 1 8 9 9
REMARK H PARENT 9 10
REMARK Flexibility Score: inf
ROOT
ATOM      1  C   UNL     1     -11.086  36.397   0.043  1.00  0.00     0.160 A 
ATOM      2  C   UNL     1     -11.937  37.016   0.982  1.00  0.00     0.050 A 
ATOM      3  C   UNL     1     -12.739  36.242   1.825  1.00  0.00     0.004 A 
ATOM      4  C   UNL     1     -12.700  34.848   1.744  1.00  0.00     0.004 A 
ATOM      5  C   UNL     1     -11.861  34.225   0.817  1.00  0.00     0.050 A 
ATOM      6  C   UNL     1     -11.054  34.995  -0.033  1.00  0.00     0.157 A 
ENDROOT
BRANCH   1   7
ATOM      7  O   UNL     1     -10.264  37.134  -0.824  1.00  0.00    -0.493 OA
ATOM      8  C   UNL     1     -10.727  38.172  -1.681  1.00  0.00     0.278 C 
ENDBRANCH   1   7
BRANCH   6   9
ATOM      9  O   UNL     1     -10.214  34.375  -0.957  1.00  0.00    -0.504 OA
ATOM     10  H   UNL     1      -9.639  33.580  -0.701  1.00  0.00     0.293 HD
ENDBRANCH   6   9
TORSDOF 2
ENDMDL
MODEL 5
REMARK VINA RESULT:    -3.362     16.022     17.247
REMARK INTER + INTRA:          -3.688
REMARK INTER:                  -3.648
REMARK INTRA:                  -0.040
REMARK UNBOUND:                -0.032
REMARK SMILES COc1ccccc1O
REMARK SMILES IDX 3 1 4 2 5 3 6 4 7 5 8 6 2 7 1 8 9 9
REMARK H PARENT 9 10
REMARK Flexibility Score: inf
ROOT
ATOM      1  C   UNL     1     -23.777  31.328 -11.981  1.00  0.00     0.160 A 
ATOM      2  C   UNL     1     -22.750  30.741 -12.748  1.00  0.00     0.050 A 
ATOM      3  C   UNL     1     -21.666  31.510 -13.182  1.00  0.00     0.004 A 
ATOM      4  C   UNL     1     -21.594  32.867 -12.856  1.00  0.00     0.004 A 
ATOM      5  C   UNL     1     -22.607  33.457 -12.097  1.00  0.00     0.050 A 
ATOM      6  C   UNL     1     -23.698  32.692 -11.659  1.00  0.00     0.157 A 
ENDROOT
BRANCH   1   7
ATOM      7  O   UNL     1     -24.883  30.595 -11.525  1.00  0.00    -0.493 OA
ATOM      8  C   UNL     1     -24.796  29.426 -10.717  1.00  0.00     0.278 C 
ENDBRANCH   1   7
BRANCH   6   9
ATOM      9  O   UNL     1     -24.708  33.281 -10.900  1.00  0.00    -0.504 OA
ATOM     10  H   UNL     1     -24.871  33.014  -9.935  1.00  0.00     0.293 HD
ENDBRANCH   6   9
TORSDOF 2
ENDMDL
MODEL 6
REMARK VINA RESULT:    -3.344      1.436      3.170
REMARK INTER + INTRA:          -3.669
REMARK INTER:                  -3.625
REMARK INTRA:                  -0.044
REMARK UNBOUND:                -0.032
REMARK SMILES COc1ccccc1O
REMARK SMILES IDX 3 1 4 2 5 3 6 4 7 5 8 6 2 7 1 8 9 9
REMARK H PARENT 9 10
REMARK Flexibility Score: inf
ROOT
ATOM      1  C   UNL     1     -10.107  39.160  -3.305  1.00  0.00     0.160 A 
ATOM      2  C   UNL     1      -8.843  39.786  -3.315  1.00  0.00     0.050 A 
ATOM      3  C   UNL     1      -8.386  40.432  -4.468  1.00  0.00     0.004 A 
ATOM      4  C   UNL     1      -9.179  40.461  -5.617  1.00  0.00     0.004 A 
ATOM      5  C   UNL     1     -10.432  39.843  -5.617  1.00  0.00     0.050 A 
ATOM      6  C   UNL     1     -10.898  39.192  -4.464  1.00  0.00     0.157 A 
ENDROOT
BRANCH   1   7
ATOM      7  O   UNL     1     -10.606  38.500  -2.171  1.00  0.00    -0.493 OA
ATOM      8  C   UNL     1     -10.953  39.147  -0.951  1.00  0.00     0.278 C 
ENDBRANCH   1   7
BRANCH   6   9
ATOM      9  O   UNL     1     -12.149  38.577  -4.462  1.00  0.00    -0.504 OA
ATOM     10  H   UNL     1     -13.002  39.110  -4.341  1.00  0.00     0.293 HD
ENDBRANCH   6   9
TORSDOF 2
ENDMDL
MODEL 7
REMARK VINA RESULT:    -3.339      8.709      9.510
REMARK INTER + INTRA:          -3.663
REMARK INTER:                  -3.636
REMARK INTRA:                  -0.027
REMARK UNBOUND:                -0.032
REMARK SMILES COc1ccccc1O
REMARK SMILES IDX 3 1 4 2 5 3 6 4 7 5 8 6 2 7 1 8 9 9
REMARK H PARENT 9 10
REMARK Flexibility Score: inf
ROOT
ATOM      1  C   UNL     1     -14.236  38.745 -12.014  1.00  0.00     0.160 A 
ATOM      2  C   UNL     1     -14.541  39.981 -11.407  1.00  0.00     0.050 A 
ATOM      3  C   UNL     1     -13.943  41.159 -11.866  1.00  0.00     0.004 A 
ATOM      4  C   UNL     1     -13.040  41.118 -12.930  1.00  0.00     0.004 A 
ATOM      5  C   UNL     1     -12.731  39.898 -13.538  1.00  0.00     0.050 A 
ATOM      6  C   UNL     1     -13.327  38.713 -13.083  1.00  0.00     0.157 A 
ENDROOT
BRANCH   1   7
ATOM      7  O   UNL     1     -14.812  37.539 -11.587  1.00  0.00    -0.493 OA
ATOM      8  C   UNL     1     -15.944  37.447 -10.729  1.00  0.00     0.278 C 
ENDBRANCH   1   7
BRANCH   6   9
ATOM      9  O   UNL     1     -13.020  37.495 -13.690  1.00  0.00    -0.504 OA
ATOM     10  H   UNL     1     -13.746  36.860 -14.000  1.00  0.00     0.293 HD
ENDBRANCH   6   9
TORSDOF 2
ENDMDL
MODEL 8
REMARK VINA RESULT:    -3.263     15.485     16.550
REMARK INTER + INTRA:          -3.581
REMARK INTER:                  -3.553
REMARK INTRA:                  -0.028
REMARK UNBOUND:                -0.032
REMARK SMILES COc1ccccc1O
REMARK SMILES IDX 3 1 4 2 5 3 6 4 7 5 8 6 2 7 1 8 9 9
REMARK H PARENT 9 10
REMARK Flexibility Score: inf
ROOT
ATOM      1  C   UNL     1     -22.819  33.294 -12.474  1.00  0.00     0.160 A 
ATOM      2  C   UNL     1     -21.904  32.501 -13.197  1.00  0.00     0.050 A 
ATOM      3  C   UNL     1     -22.018  31.108 -13.189  1.00  0.00     0.004 A 
ATOM      4  C   UNL     1     -23.042  30.492 -12.466  1.00  0.00     0.004 A 
ATOM      5  C   UNL     1     -23.954  31.269 -11.746  1.00  0.00     0.050 A 
ATOM      6  C   UNL     1     -23.845  32.667 -11.748  1.00  0.00     0.157 A 
ENDROOT
BRANCH   1   7
ATOM      7  O   UNL     1     -22.742  34.695 -12.452  1.00  0.00    -0.493 OA
ATOM      8  C   UNL     1     -21.586  35.443 -12.812  1.00  0.00     0.278 C 
ENDBRANCH   1   7
BRANCH   6   9
ATOM      9  O   UNL     1     -24.755  33.443 -11.031  1.00  0.00    -0.504 OA
ATOM     10  H   UNL     1     -25.244  34.219 -11.462  1.00  0.00     0.293 HD
ENDBRANCH   6   9
TORSDOF 2
ENDMDL
MODEL 9
REMARK VINA RESULT:    -3.257     15.718     16.861
REMARK INTER + INTRA:          -3.575
REMARK INTER:                  -3.528
REMARK INTRA:                  -0.046
REMARK UNBOUND:                -0.032
REMARK SMILES COc1ccccc1O
REMARK SMILES IDX 3 1 4 2 5 3 6 4 7 5 8 6 2 7 1 8 9 9
REMARK H PARENT 9 10
REMARK Flexibility Score: inf
ROOT
ATOM      1  C   UNL     1     -23.633  32.842 -11.852  1.00  0.00     0.160 A 
ATOM      2  C   UNL     1     -24.005  31.487 -11.970  1.00  0.00     0.050 A 
ATOM      3  C   UNL     1     -23.139  30.567 -12.569  1.00  0.00     0.004 A 
ATOM      4  C   UNL     1     -21.898  30.986 -13.054  1.00  0.00     0.004 A 
ATOM      5  C   UNL     1     -21.520  32.327 -12.941  1.00  0.00     0.050 A 
ATOM      6  C   UNL     1     -22.384  33.255 -12.342  1.00  0.00     0.157 A 
ENDROOT
BRANCH   1   7
ATOM      7  O   UNL     1     -24.470  33.800 -11.259  1.00  0.00    -0.493 OA
ATOM      8  C   UNL     1     -25.587  34.402 -11.905  1.00  0.00     0.278 C 
ENDBRANCH   1   7
BRANCH   6   9
ATOM      9  O   UNL     1     -22.007  34.593 -12.229  1.00  0.00    -0.504 OA
ATOM     10  H   UNL     1     -21.841  35.022 -11.326  1.00  0.00     0.293 HD
ENDBRANCH   6   9
TORSDOF 2
ENDMDL
