MODEL 1
REMARK VINA RESULT:    -4.523      0.000      0.000
REMARK INTER + INTRA:          -5.262
REMARK INTER:                  -5.051
REMARK INTRA:                  -0.211
REMARK UNBOUND:                -0.211
REMARK SMILES CC(C)c1ccc(C(=O)[O-])cc1
REMARK SMILES IDX 7 1 6 2 11 3 5 4 12 5 4 6 8 7 9 8 10 9 2 10 1 11 3 12
REMARK H PARENT
REMARK Flexibility Score: inf
ROOT
ATOM      1  C   UNL     1      18.501  32.511  53.478  1.00  0.00    -0.003 A 
ATOM      2  C   UNL     1      18.438  32.899  54.828  1.00  0.00     0.010 A 
ATOM      3  C   UNL     1      19.423  31.522  53.097  1.00  0.00     0.010 A 
ATOM      4  C   UNL     1      19.279  32.310  55.776  1.00  0.00     0.004 A 
ATOM      5  C   UNL     1      20.263  30.933  54.045  1.00  0.00     0.004 A 
ATOM      6  C   UNL     1      20.201  31.321  55.396  1.00  0.00    -0.045 A 
ENDROOT
BRANCH   1   7
ATOM      7  C   UNL     1      17.612  33.132  52.471  1.00  0.00     0.071 C 
ATOM      8  O   UNL     1      17.705  32.818  51.255  1.00  0.00    -0.545 OA
ATOM      9  O   UNL     1      16.663  34.072  52.854  1.00  0.00    -0.545 OA
ENDBRANCH   1   7
BRANCH   6  10
ATOM     10  C   UNL     1      21.109  30.690  56.436  1.00  0.00     0.013 C 
ATOM     11  C   UNL     1      22.095  31.717  57.005  1.00  0.00     0.012 C 
ATOM     12  C   UNL     1      20.294  30.029  57.554  1.00  0.00     0.012 C 
ENDBRANCH   6  10
TORSDOF 2
ENDMDL
MODEL 2
REMARK VINA RESULT:    -4.495      0.587      2.016
REMARK INTER + INTRA:          -5.231
REMARK INTER:                  -5.018
REMARK INTRA:                  -0.213
REMARK UNBOUND:                -0.211
REMARK SMILES CC(C)c1ccc(C(=O)[O-])cc1
REMARK SMILES IDX 7 1 6 2 11 3 5 4 12 5 4 6 8 7 9 8 10 9 2 10 1 11 3 12
REMARK H PARENT
REMARK Flexibility Score: inf
ROOT
ATOM      1  C   UNL     1      18.662  32.390  53.779  1.00  0.00    -0.003 A 
ATOM      2  C   UNL     1      19.611  31.387  53.512  1.00  0.00     0.010 A 
ATOM      3  C   UNL     1      18.554  32.892  55.087  1.00  0.00     0.010 A 
ATOM      4  C   UNL     1      20.433  30.898  54.531  1.00  0.00     0.004 A 
ATOM      5  C   UNL     1      19.376  32.403  56.105  1.00  0.00     0.004 A 
ATOM      6  C   UNL     1      20.325  31.399  55.838  1.00  0.00    -0.045 A 
ENDROOT
BRANCH   1   7
ATOM      7  C   UNL     1      17.790  32.911  52.703  1.00  0.00     0.071 C 
ATOM      8  O   UNL     1      16.846  33.701  52.970  1.00  0.00    -0.545 OA
ATOM      9  O   UNL     1      18.000  32.534  51.382  1.00  0.00    -0.545 OA
ENDBRANCH   1   7
BRANCH   6  10
ATOM     10  C   UNL     1      21.224  30.859  56.935  1.00  0.00     0.013 C 
ATOM     11  C   UNL     1      20.481  29.837  57.805  1.00  0.00     0.012 C 
ATOM     12  C   UNL     1      22.508  30.257  56.353  1.00  0.00     0.012 C 
ENDBRANCH   6  10
TORSDOF 2
ENDMDL
MODEL 3
REMARK VINA RESULT:    -4.411      3.538      5.364
REMARK INTER + INTRA:          -5.138
REMARK INTER:                  -4.934
REMARK INTRA:                  -0.204
REMARK UNBOUND:                -0.211
REMARK SMILES CC(C)c1ccc(C(=O)[O-])cc1
REMARK SMILES IDX 7 1 6 2 11 3 5 4 12 5 4 6 8 7 9 8 10 9 2 10 1 11 3 12
REMARK H PARENT
REMARK Flexibility Score: inf
ROOT
ATOM      1  C   UNL     1      20.693  30.992  56.526  1.00  0.00    -0.003 A 
ATOM      2  C   UNL     1      21.191  30.468  55.320  1.00  0.00     0.010 A 
ATOM      3  C   UNL     1      19.645  31.927  56.479  1.00  0.00     0.010 A 
ATOM      4  C   UNL     1      20.654  30.872  54.095  1.00  0.00     0.004 A 
ATOM      5  C   UNL     1      19.108  32.330  55.254  1.00  0.00     0.004 A 
ATOM      6  C   UNL     1      19.607  31.806  54.047  1.00  0.00    -0.045 A 
ENDROOT
BRANCH   1   7
ATOM      7  C   UNL     1      21.259  30.568  57.825  1.00  0.00     0.071 C 
ATOM      8  O   UNL     1      20.971  29.442  58.313  1.00  0.00    -0.545 OA
ATOM      9  O   UNL     1      22.116  31.407  58.527  1.00  0.00    -0.545 OA
ENDBRANCH   1   7
BRANCH   6  10
ATOM     10  C   UNL     1      19.033  32.236  52.710  1.00  0.00     0.013 C 
ATOM     11  C   UNL     1      17.612  32.792  52.870  1.00  0.00     0.012 C 
ATOM     12  C   UNL     1      19.947  33.252  52.015  1.00  0.00     0.012 C 
ENDBRANCH   6  10
TORSDOF 2
ENDMDL
MODEL 4
REMARK VINA RESULT:    -4.408      3.500      5.169
REMARK INTER + INTRA:          -5.134
REMARK INTER:                  -4.929
REMARK INTRA:                  -0.205
REMARK UNBOUND:                -0.211
REMARK SMILES CC(C)c1ccc(C(=O)[O-])cc1
REMARK SMILES IDX 7 1 6 2 11 3 5 4 12 5 4 6 8 7 9 8 10 9 2 10 1 11 3 12
REMARK H PARENT
REMARK Flexibility Score: inf
ROOT
ATOM      1  C   UNL     1      20.673  31.056  56.424  1.00  0.00    -0.003 A 
ATOM      2  C   UNL     1      19.600  31.964  56.394  1.00  0.00     0.010 A 
ATOM      3  C   UNL     1      21.191  30.575  55.210  1.00  0.00     0.010 A 
ATOM      4  C   UNL     1      19.057  32.381  55.175  1.00  0.00     0.004 A 
ATOM      5  C   UNL     1      20.649  30.994  53.992  1.00  0.00     0.004 A 
ATOM      6  C   UNL     1      19.575  31.902  53.961  1.00  0.00    -0.045 A 
ENDROOT
BRANCH   1   7
ATOM      7  C   UNL     1      21.249  30.610  57.712  1.00  0.00     0.071 C 
ATOM      8  O   UNL     1      20.902  29.513  58.224  1.00  0.00    -0.545 OA
ATOM      9  O   UNL     1      22.183  31.398  58.375  1.00  0.00    -0.545 OA
ENDBRANCH   1   7
BRANCH   6  10
ATOM     10  C   UNL     1      18.977  32.364  52.645  1.00  0.00     0.013 C 
ATOM     11  C   UNL     1      17.572  32.943  52.850  1.00  0.00     0.012 C 
ATOM     12  C   UNL     1      19.893  33.375  51.945  1.00  0.00     0.012 C 
ENDBRANCH   6  10
TORSDOF 2
ENDMDL
MODEL 5
REMARK VINA RESULT:    -4.393      3.739      5.518
REMARK INTER + INTRA:          -5.117
REMARK INTER:                  -4.896
REMARK INTRA:                  -0.221
REMARK UNBOUND:                -0.211
REMARK SMILES CC(C)c1ccc(C(=O)[O-])cc1
REMARK SMILES IDX 7 1 6 2 11 3 5 4 12 5 4 6 8 7 9 8 10 9 2 10 1 11 3 12
REMARK H PARENT
REMARK Flexibility Score: inf
ROOT
ATOM      1  C   UNL     1      21.072  30.524  56.660  1.00  0.00    -0.003 A 
ATOM      2  C   UNL     1      21.424  30.572  55.300  1.00  0.00     0.010 A 
ATOM      3  C   UNL     1      19.931  31.222  57.092  1.00  0.00     0.010 A 
ATOM      4  C   UNL     1      20.652  31.301  54.392  1.00  0.00     0.004 A 
ATOM      5  C   UNL     1      19.159  31.950  56.184  1.00  0.00     0.004 A 
ATOM      6  C   UNL     1      19.511  31.998  54.822  1.00  0.00    -0.045 A 
ENDROOT
BRANCH   1   7
ATOM      7  C   UNL     1      21.888  29.754  57.625  1.00  0.00     0.071 C 
ATOM      8  O   UNL     1      21.532  29.656  58.830  1.00  0.00    -0.545 OA
ATOM      9  O   UNL     1      23.059  29.129  57.216  1.00  0.00    -0.545 OA
ENDBRANCH   1   7
BRANCH   6  10
ATOM     10  C   UNL     1      18.681  32.786  53.826  1.00  0.00     0.013 C 
ATOM     11  C   UNL     1      18.626  32.075  52.468  1.00  0.00     0.012 C 
ATOM     12  C   UNL     1      17.271  33.051  54.366  1.00  0.00     0.012 C 
ENDBRANCH   6  10
TORSDOF 2
ENDMDL
MODEL 6
REMARK VINA RESULT:    -4.389      4.715      6.369
REMARK INTER + INTRA:          -5.113
REMARK INTER:                  -4.904
REMARK INTRA:                  -0.209
REMARK UNBOUND:                -0.211
REMARK SMILES CC(C)c1ccc(C(=O)[O-])cc1
REMARK SMILES IDX 7 1 6 2 11 3 5 4 12 5 4 6 8 7 9 8 10 9 2 10 1 11 3 12
REMARK H PARENT
REMARK Flexibility Score: inf
ROOT
ATOM      1  C   UNL     1      22.116  30.602  58.784  1.00  0.00    -0.003 A 
ATOM      2  C   UNL     1      22.542  31.670  57.975  1.00  0.00     0.010 A 
ATOM      3  C   UNL     1      20.992  29.857  58.390  1.00  0.00     0.010 A 
ATOM      4  C   UNL     1      21.858  31.987  56.798  1.00  0.00     0.004 A 
ATOM      5  C   UNL     1      20.308  30.173  57.213  1.00  0.00     0.004 A 
ATOM      6  C   UNL     1      20.734  31.242  56.403  1.00  0.00    -0.045 A 
ENDROOT
BRANCH   1   7
ATOM      7  C   UNL     1      22.837  30.265  60.031  1.00  0.00     0.071 C 
ATOM      8  O   UNL     1      23.146  29.071  60.289  1.00  0.00    -0.545 OA
ATOM      9  O   UNL     1      23.182  31.261  60.937  1.00  0.00    -0.545 OA
ENDBRANCH   1   7
BRANCH   6  10
ATOM     10  C   UNL     1      20.001  31.596  55.123  1.00  0.00     0.013 C 
ATOM     11  C   UNL     1      20.311  33.034  54.687  1.00  0.00     0.012 C 
ATOM     12  C   UNL     1      20.326  30.600  54.004  1.00  0.00     0.012 C 
ENDBRANCH   6  10
TORSDOF 2
ENDMDL
MODEL 7
REMARK VINA RESULT:    -4.372      4.814      6.497
REMARK INTER + INTRA:          -5.093
REMARK INTER:                  -4.886
REMARK INTRA:                  -0.207
REMARK UNBOUND:                -0.211
REMARK SMILES CC(C)c1ccc(C(=O)[O-])cc1
REMARK SMILES IDX 7 1 6 2 11 3 5 4 12 5 4 6 8 7 9 8 10 9 2 10 1 11 3 12
REMARK H PARENT
REMARK Flexibility Score: inf
ROOT
ATOM      1  C   UNL     1      22.468  29.902  58.400  1.00  0.00    -0.003 A 
ATOM      2  C   UNL     1      21.072  29.737  58.377  1.00  0.00     0.010 A 
ATOM      3  C   UNL     1      23.094  30.555  57.325  1.00  0.00     0.010 A 
ATOM      4  C   UNL     1      20.318  30.215  57.302  1.00  0.00     0.004 A 
ATOM      5  C   UNL     1      22.340  31.034  56.250  1.00  0.00     0.004 A 
ATOM      6  C   UNL     1      20.943  30.869  56.226  1.00  0.00    -0.045 A 
ENDROOT
BRANCH   1   7
ATOM      7  C   UNL     1      23.270  29.397  59.537  1.00  0.00     0.071 C 
ATOM      8  O   UNL     1      22.749  29.254  60.675  1.00  0.00    -0.545 OA
ATOM      9  O   UNL     1      24.610  29.074  59.364  1.00  0.00    -0.545 OA
ENDBRANCH   1   7
BRANCH   6  10
ATOM     10  C   UNL     1      20.112  31.383  55.065  1.00  0.00     0.013 C 
ATOM     11  C   UNL     1      20.544  32.798  54.661  1.00  0.00     0.012 C 
ATOM     12  C   UNL     1      20.178  30.425  53.870  1.00  0.00     0.012 C 
ENDBRANCH   6  10
TORSDOF 2
ENDMDL
MODEL 8
REMARK VINA RESULT:    -4.303      2.441      3.758
REMARK INTER + INTRA:          -5.017
REMARK INTER:                  -4.806
REMARK INTRA:                  -0.211
REMARK UNBOUND:                -0.211
REMARK SMILES CC(C)c1ccc(C(=O)[O-])cc1
REMARK SMILES IDX 7 1 6 2 11 3 5 4 12 5 4 6 8 7 9 8 10 9 2 10 1 11 3 12
REMARK H PARENT
REMARK Flexibility Score: inf
ROOT
ATOM      1  C   UNL     1      20.246  31.542  56.473  1.00  0.00    -0.003 A 
ATOM      2  C   UNL     1      21.601  31.910  56.391  1.00  0.00     0.010 A 
ATOM      3  C   UNL     1      19.884  30.457  57.289  1.00  0.00     0.010 A 
ATOM      4  C   UNL     1      22.571  31.207  57.110  1.00  0.00     0.004 A 
ATOM      5  C   UNL     1      20.855  29.755  58.008  1.00  0.00     0.004 A 
ATOM      6  C   UNL     1      22.211  30.123  57.926  1.00  0.00    -0.045 A 
ENDROOT
BRANCH   1   7
ATOM      7  C   UNL     1      19.215  32.283  55.713  1.00  0.00     0.071 C 
ATOM      8  O   UNL     1      19.327  32.442  54.468  1.00  0.00    -0.545 OA
ATOM      9  O   UNL     1      18.107  32.814  56.363  1.00  0.00    -0.545 OA
ENDBRANCH   1   7
BRANCH   6  10
ATOM     10  C   UNL     1      23.275  29.369  58.702  1.00  0.00     0.013 C 
ATOM     11  C   UNL     1      24.676  29.909  58.386  1.00  0.00     0.012 C 
ATOM     12  C   UNL     1      22.996  29.409  60.208  1.00  0.00     0.012 C 
ENDBRANCH   6  10
TORSDOF 2
ENDMDL
MODEL 9
REMARK VINA RESULT:    -4.175      1.541      2.035
REMARK INTER + INTRA:          -4.873
REMARK INTER:                  -4.673
REMARK INTRA:                  -0.200
REMARK UNBOUND:                -0.211
REMARK SMILES CC(C)c1ccc(C(=O)[O-])cc1
REMARK SMILES IDX 7 1 6 2 11 3 5 4 12 5 4 6 8 7 9 8 10 9 2 10 1 11 3 12
REMARK H PARENT
REMARK Flexibility Score: inf
ROOT
ATOM      1  C   UNL     1      20.213  32.530  53.702  1.00  0.00    -0.003 A 
ATOM      2  C   UNL     1      20.612  33.368  54.758  1.00  0.00     0.010 A 
ATOM      3  C   UNL     1      20.306  31.137  53.867  1.00  0.00     0.010 A 
ATOM      4  C   UNL     1      21.094  32.825  55.952  1.00  0.00     0.004 A 
ATOM      5  C   UNL     1      20.787  30.595  55.061  1.00  0.00     0.004 A 
ATOM      6  C   UNL     1      21.187  31.433  56.118  1.00  0.00    -0.045 A 
ENDROOT
BRANCH   1   7
ATOM      7  C   UNL     1      19.703  33.100  52.436  1.00  0.00     0.071 C 
ATOM      8  O   UNL     1      20.454  33.790  51.696  1.00  0.00    -0.545 OA
ATOM      9  O   UNL     1      18.387  32.883  52.046  1.00  0.00    -0.545 OA
ENDBRANCH   1   7
BRANCH   6  10
ATOM     10  C   UNL     1      21.712  30.857  57.420  1.00  0.00     0.013 C 
ATOM     11  C   UNL     1      20.705  29.879  58.037  1.00  0.00     0.012 C 
ATOM     12  C   UNL     1      23.077  30.190  57.220  1.00  0.00     0.012 C 
ENDBRANCH   6  10
TORSDOF 2
ENDMDL
