MODEL 1
REMARK VINA RESULT:    -4.004      0.000      0.000
REMARK INTER + INTRA:          -7.686
REMARK INTER:                  -6.344
REMARK INTRA:                  -1.342
REMARK UNBOUND:                -1.342
REMARK SMILES CCCCCCCCCCCC(=O)[O-]
REMARK SMILES IDX 7 1 8 2 9 3 10 4 11 5 12 6 13 7 14 8 6 9 5 10 4 11 3 12 2 13
REMARK SMILES IDX 1 14
REMARK H PARENT
REMARK Flexibility Score: inf
ROOT
ATOM      1  C   UNL     1      20.388  -6.074 -17.198  1.00  0.00     0.000 C 
ENDROOT
BRANCH   1   2
ATOM      2  C   UNL     1      18.902  -6.034 -17.610  1.00  0.00     0.000 C 
BRANCH   2   3
ATOM      3  C   UNL     1      17.906  -6.013 -16.438  1.00  0.00     0.000 C 
BRANCH   3   4
ATOM      4  C   UNL     1      17.096  -4.706 -16.366  1.00  0.00     0.006 C 
BRANCH   4   5
ATOM      5  C   UNL     1      16.440  -4.358 -17.707  1.00  0.00     0.053 C 
BRANCH   5   6
ATOM      6  C   UNL     1      16.615  -2.910 -18.050  1.00  0.00     0.041 C 
ATOM      7  O   UNL     1      17.320  -2.166 -17.319  1.00  0.00    -0.550 OA
ATOM      8  O   UNL     1      15.971  -2.375 -19.158  1.00  0.00    -0.550 OA
ENDBRANCH   5   6
ENDBRANCH   4   5
ENDBRANCH   3   4
ENDBRANCH   2   3
ENDBRANCH   1   2
BRANCH   1   9
ATOM      9  C   UNL     1      21.255  -4.928 -17.758  1.00  0.00     0.000 C 
BRANCH   9  10
ATOM     10  C   UNL     1      20.549  -3.564 -17.867  1.00  0.00    -0.000 C 
BRANCH  10  11
ATOM     11  C   UNL     1      20.949  -2.783 -19.130  1.00  0.00    -0.000 C 
BRANCH  11  12
ATOM     12  C   UNL     1      19.747  -2.446 -20.032  1.00  0.00    -0.000 C 
BRANCH  12  13
ATOM     13  C   UNL     1      19.103  -3.653 -20.737  1.00  0.00    -0.003 C 
ATOM     14  C   UNL     1      20.088  -4.440 -21.599  1.00  0.00     0.004 C 
ENDBRANCH  12  13
ENDBRANCH  11  12
ENDBRANCH  10  11
ENDBRANCH   9  10
ENDBRANCH   1   9
TORSDOF 10
ENDMDL
MODEL 2
REMARK VINA RESULT:    -3.966      1.989      3.610
REMARK INTER + INTRA:          -7.627
REMARK INTER:                  -6.260
REMARK INTRA:                  -1.367
REMARK UNBOUND:                -1.342
REMARK SMILES CCCCCCCCCCCC(=O)[O-]
REMARK SMILES IDX 7 1 8 2 9 3 10 4 11 5 12 6 13 7 14 8 6 9 5 10 4 11 3 12 2 13
REMARK SMILES IDX 1 14
REMARK H PARENT
REMARK Flexibility Score: inf
ROOT
ATOM      1  C   UNL     1      17.222  -6.100 -16.398  1.00  0.00     0.000 C 
ENDROOT
BRANCH   1   2
ATOM      2  C   UNL     1      18.353  -6.159 -17.444  1.00  0.00     0.000 C 
BRANCH   2   3
ATOM      3  C   UNL     1      19.728  -6.566 -16.887  1.00  0.00     0.000 C 
BRANCH   3   4
ATOM      4  C   UNL     1      20.840  -5.566 -17.251  1.00  0.00     0.006 C 
BRANCH   4   5
ATOM      5  C   UNL     1      20.514  -4.778 -18.525  1.00  0.00     0.053 C 
BRANCH   5   6
ATOM      6  C   UNL     1      20.842  -3.324 -18.375  1.00  0.00     0.041 C 
ATOM      7  O   UNL     1      20.878  -2.796 -17.233  1.00  0.00    -0.550 OA
ATOM      8  O   UNL     1      21.075  -2.544 -19.501  1.00  0.00    -0.550 OA
ENDBRANCH   5   6
ENDBRANCH   4   5
ENDBRANCH   3   4
ENDBRANCH   2   3
ENDBRANCH   1   2
BRANCH   1   9
ATOM      9  C   UNL     1      16.762  -4.680 -16.007  1.00  0.00     0.000 C 
BRANCH   9  10
ATOM     10  C   UNL     1      16.206  -3.830 -17.163  1.00  0.00    -0.000 C 
BRANCH  10  11
ATOM     11  C   UNL     1      17.076  -2.601 -17.474  1.00  0.00    -0.000 C 
BRANCH  11  12
ATOM     12  C   UNL     1      17.416  -2.470 -18.970  1.00  0.00    -0.000 C 
BRANCH  12  13
ATOM     13  C   UNL     1      17.049  -3.691 -19.831  1.00  0.00    -0.003 C 
ATOM     14  C   UNL     1      17.974  -3.878 -21.032  1.00  0.00     0.004 C 
ENDBRANCH  12  13
ENDBRANCH  11  12
ENDBRANCH  10  11
ENDBRANCH   9  10
ENDBRANCH   1   9
TORSDOF 10
ENDMDL
MODEL 3
REMARK VINA RESULT:    -3.953     10.071     12.350
REMARK INTER + INTRA:          -7.605
REMARK INTER:                  -6.040
REMARK INTRA:                  -1.565
REMARK UNBOUND:                -1.342
REMARK SMILES CCCCCCCCCCCC(=O)[O-]
REMARK SMILES IDX 7 1 8 2 9 3 10 4 11 5 12 6 13 7 14 8 6 9 5 10 4 11 3 12 2 13
REMARK SMILES IDX 1 14
REMARK H PARENT
REMARK Flexibility Score: inf
ROOT
ATOM      1  C   UNL     1       6.604  -5.876 -25.620  1.00  0.00     0.000 C 
ENDROOT
BRANCH   1   2
ATOM      2  C   UNL     1       6.875  -4.641 -24.739  1.00  0.00     0.000 C 
BRANCH   2   3
ATOM      3  C   UNL     1       7.594  -3.482 -25.452  1.00  0.00     0.000 C 
BRANCH   3   4
ATOM      4  C   UNL     1       9.093  -3.412 -25.115  1.00  0.00     0.006 C 
BRANCH   4   5
ATOM      5  C   UNL     1       9.364  -3.659 -23.626  1.00  0.00     0.053 C 
BRANCH   5   6
ATOM      6  C   UNL     1      10.831  -3.646 -23.322  1.00  0.00     0.041 C 
ATOM      7  O   UNL     1      11.260  -4.135 -22.244  1.00  0.00    -0.550 OA
ATOM      8  O   UNL     1      11.721  -3.062 -24.214  1.00  0.00    -0.550 OA
ENDBRANCH   5   6
ENDBRANCH   4   5
ENDBRANCH   3   4
ENDBRANCH   2   3
ENDBRANCH   1   2
BRANCH   1   9
ATOM      9  C   UNL     1       7.338  -7.164 -25.189  1.00  0.00     0.000 C 
BRANCH   9  10
ATOM     10  C   UNL     1       8.874  -7.095 -25.251  1.00  0.00    -0.000 C 
BRANCH  10  11
ATOM     11  C   UNL     1       9.541  -7.390 -23.897  1.00  0.00    -0.000 C 
BRANCH  11  12
ATOM     12  C   UNL     1       8.524  -7.611 -22.763  1.00  0.00    -0.000 C 
BRANCH  12  13
ATOM     13  C   UNL     1       8.503  -6.513 -21.684  1.00  0.00    -0.003 C 
ATOM     14  C   UNL     1       7.093  -6.035 -21.343  1.00  0.00     0.004 C 
ENDBRANCH  12  13
ENDBRANCH  11  12
ENDBRANCH  10  11
ENDBRANCH   9  10
ENDBRANCH   1   9
TORSDOF 10
ENDMDL
MODEL 4
REMARK VINA RESULT:    -3.914      1.528      4.250
REMARK INTER + INTRA:          -7.543
REMARK INTER:                  -6.195
REMARK INTRA:                  -1.348
REMARK UNBOUND:                -1.342
REMARK SMILES CCCCCCCCCCCC(=O)[O-]
REMARK SMILES IDX 7 1 8 2 9 3 10 4 11 5 12 6 13 7 14 8 6 9 5 10 4 11 3 12 2 13
REMARK SMILES IDX 1 14
REMARK H PARENT
REMARK Flexibility Score: inf
ROOT
ATOM      1  C   UNL     1      20.804  -5.434 -17.566  1.00  0.00     0.000 C 
ENDROOT
BRANCH   1   2
ATOM      2  C   UNL     1      20.293  -3.980 -17.530  1.00  0.00     0.000 C 
BRANCH   2   3
ATOM      3  C   UNL     1      21.116  -2.984 -18.364  1.00  0.00     0.000 C 
BRANCH   3   4
ATOM      4  C   UNL     1      20.820  -3.078 -19.870  1.00  0.00     0.006 C 
BRANCH   4   5
ATOM      5  C   UNL     1      19.374  -2.689 -20.201  1.00  0.00     0.053 C 
BRANCH   5   6
ATOM      6  C   UNL     1      18.586  -3.861 -20.701  1.00  0.00     0.041 C 
ATOM      7  O   UNL     1      17.375  -3.724 -21.017  1.00  0.00    -0.550 OA
ATOM      8  O   UNL     1      19.180  -5.114 -20.784  1.00  0.00    -0.550 OA
ENDBRANCH   5   6
ENDBRANCH   4   5
ENDBRANCH   3   4
ENDBRANCH   2   3
ENDBRANCH   1   2
BRANCH   1   9
ATOM      9  C   UNL     1      19.777  -6.503 -17.136  1.00  0.00     0.000 C 
BRANCH   9  10
ATOM     10  C   UNL     1      18.313  -6.181 -17.485  1.00  0.00    -0.000 C 
BRANCH  10  11
ATOM     11  C   UNL     1      17.408  -6.091 -16.245  1.00  0.00    -0.000 C 
BRANCH  11  12
ATOM     12  C   UNL     1      16.724  -4.720 -16.100  1.00  0.00    -0.000 C 
BRANCH  12  13
ATOM     13  C   UNL     1      16.437  -3.991 -17.425  1.00  0.00    -0.003 C 
ATOM     14  C   UNL     1      16.901  -2.536 -17.421  1.00  0.00     0.004 C 
ENDBRANCH  12  13
ENDBRANCH  11  12
ENDBRANCH  10  11
ENDBRANCH   9  10
ENDBRANCH   1   9
TORSDOF 10
ENDMDL
MODEL 5
REMARK VINA RESULT:    -3.892      1.367      1.933
REMARK INTER + INTRA:          -7.510
REMARK INTER:                  -6.108
REMARK INTRA:                  -1.402
REMARK UNBOUND:                -1.342
REMARK SMILES CCCCCCCCCCCC(=O)[O-]
REMARK SMILES IDX 7 1 8 2 9 3 10 4 11 5 12 6 13 7 14 8 6 9 5 10 4 11 3 12 2 13
REMARK SMILES IDX 1 14
REMARK H PARENT
REMARK Flexibility Score: inf
ROOT
ATOM      1  C   UNL     1      18.852  -6.050 -17.661  1.00  0.00     0.000 C 
ENDROOT
BRANCH   1   2
ATOM      2  C   UNL     1      17.746  -6.042 -16.586  1.00  0.00     0.000 C 
BRANCH   2   3
ATOM      3  C   UNL     1      16.998  -4.706 -16.438  1.00  0.00     0.000 C 
BRANCH   3   4
ATOM      4  C   UNL     1      17.565  -3.600 -17.344  1.00  0.00     0.006 C 
BRANCH   4   5
ATOM      5  C   UNL     1      16.485  -2.965 -18.227  1.00  0.00     0.053 C 
BRANCH   5   6
ATOM      6  C   UNL     1      15.664  -4.004 -18.930  1.00  0.00     0.041 C 
ATOM      7  O   UNL     1      16.167  -4.689 -19.858  1.00  0.00    -0.550 OA
ATOM      8  O   UNL     1      14.333  -4.190 -18.581  1.00  0.00    -0.550 OA
ENDBRANCH   5   6
ENDBRANCH   4   5
ENDBRANCH   3   4
ENDBRANCH   2   3
ENDBRANCH   1   2
BRANCH   1   9
ATOM      9  C   UNL     1      20.288  -6.215 -17.124  1.00  0.00     0.000 C 
BRANCH   9  10
ATOM     10  C   UNL     1      21.245  -5.051 -17.443  1.00  0.00    -0.000 C 
BRANCH  10  11
ATOM     11  C   UNL     1      21.061  -4.500 -18.867  1.00  0.00    -0.000 C 
BRANCH  11  12
ATOM     12  C   UNL     1      20.941  -2.965 -18.905  1.00  0.00    -0.000 C 
BRANCH  12  13
ATOM     13  C   UNL     1      20.075  -2.407 -20.048  1.00  0.00    -0.003 C 
ATOM     14  C   UNL     1      19.344  -3.496 -20.832  1.00  0.00     0.004 C 
ENDBRANCH  12  13
ENDBRANCH  11  12
ENDBRANCH  10  11
ENDBRANCH   9  10
ENDBRANCH   1   9
TORSDOF 10
ENDMDL
MODEL 6
REMARK VINA RESULT:    -3.887      1.891      2.973
REMARK INTER + INTRA:          -7.502
REMARK INTER:                  -6.428
REMARK INTRA:                  -1.074
REMARK UNBOUND:                -1.342
REMARK SMILES CCCCCCCCCCCC(=O)[O-]
REMARK SMILES IDX 7 1 8 2 9 3 10 4 11 5 12 6 13 7 14 8 6 9 5 10 4 11 3 12 2 13
REMARK SMILES IDX 1 14
REMARK H PARENT
REMARK Flexibility Score: inf
ROOT
ATOM      1  C   UNL     1      21.181  -3.163 -18.980  1.00  0.00     0.000 C 
ENDROOT
BRANCH   1   2
ATOM      2  C   UNL     1      20.265  -3.025 -17.747  1.00  0.00     0.000 C 
BRANCH   2   3
ATOM      3  C   UNL     1      18.931  -3.784 -17.844  1.00  0.00     0.000 C 
BRANCH   3   4
ATOM      4  C   UNL     1      17.711  -2.882 -17.590  1.00  0.00     0.006 C 
BRANCH   4   5
ATOM      5  C   UNL     1      17.173  -2.257 -18.883  1.00  0.00     0.053 C 
BRANCH   5   6
ATOM      6  C   UNL     1      15.880  -2.887 -19.305  1.00  0.00     0.041 C 
ATOM      7  O   UNL     1      15.600  -4.060 -18.948  1.00  0.00    -0.550 OA
ATOM      8  O   UNL     1      15.001  -2.187 -20.122  1.00  0.00    -0.550 OA
ENDBRANCH   5   6
ENDBRANCH   4   5
ENDBRANCH   3   4
ENDBRANCH   2   3
ENDBRANCH   1   2
BRANCH   1   9
ATOM      9  C   UNL     1      20.605  -2.593 -20.293  1.00  0.00     0.000 C 
BRANCH   9  10
ATOM     10  C   UNL     1      20.892  -3.430 -21.553  1.00  0.00    -0.000 C 
BRANCH  10  11
ATOM     11  C   UNL     1      19.970  -4.653 -21.682  1.00  0.00    -0.000 C 
BRANCH  11  12
ATOM     12  C   UNL     1      18.476  -4.289 -21.602  1.00  0.00    -0.000 C 
BRANCH  12  13
ATOM     13  C   UNL     1      17.565  -5.058 -22.576  1.00  0.00    -0.003 C 
ATOM     14  C   UNL     1      16.495  -4.178 -23.218  1.00  0.00     0.004 C 
ENDBRANCH  12  13
ENDBRANCH  11  12
ENDBRANCH  10  11
ENDBRANCH   9  10
ENDBRANCH   1   9
TORSDOF 10
ENDMDL
MODEL 7
REMARK VINA RESULT:    -3.874      2.605      5.035
REMARK INTER + INTRA:          -7.481
REMARK INTER:                  -6.137
REMARK INTRA:                  -1.344
REMARK UNBOUND:                -1.342
REMARK SMILES CCCCCCCCCCCC(=O)[O-]
REMARK SMILES IDX 7 1 8 2 9 3 10 4 11 5 12 6 13 7 14 8 6 9 5 10 4 11 3 12 2 13
REMARK SMILES IDX 1 14
REMARK H PARENT
REMARK Flexibility Score: inf
ROOT
ATOM      1  C   UNL     1      16.839  -2.622 -17.507  1.00  0.00     0.000 C 
ENDROOT
BRANCH   1   2
ATOM      2  C   UNL     1      17.439  -2.629 -18.928  1.00  0.00     0.000 C 
BRANCH   2   3
ATOM      3  C   UNL     1      18.967  -2.802 -18.984  1.00  0.00     0.000 C 
BRANCH   3   4
ATOM      4  C   UNL     1      19.520  -2.758 -20.419  1.00  0.00     0.006 C 
BRANCH   4   5
ATOM      5  C   UNL     1      20.940  -3.331 -20.509  1.00  0.00     0.053 C 
BRANCH   5   6
ATOM      6  C   UNL     1      20.958  -4.652 -21.218  1.00  0.00     0.041 C 
ATOM      7  O   UNL     1      21.703  -5.581 -20.810  1.00  0.00    -0.550 OA
ATOM      8  O   UNL     1      20.178  -4.844 -22.351  1.00  0.00    -0.550 OA
ENDBRANCH   5   6
ENDBRANCH   4   5
ENDBRANCH   3   4
ENDBRANCH   2   3
ENDBRANCH   1   2
BRANCH   1   9
ATOM      9  C   UNL     1      16.073  -3.902 -17.113  1.00  0.00     0.000 C 
BRANCH   9  10
ATOM     10  C   UNL     1      16.743  -4.758 -16.023  1.00  0.00    -0.000 C 
BRANCH  10  11
ATOM     11  C   UNL     1      17.236  -6.116 -16.548  1.00  0.00    -0.000 C 
BRANCH  11  12
ATOM     12  C   UNL     1      18.762  -6.163 -16.749  1.00  0.00    -0.000 C 
BRANCH  12  13
ATOM     13  C   UNL     1      19.221  -6.429 -18.193  1.00  0.00    -0.003 C 
ATOM     14  C   UNL     1      18.072  -6.411 -19.200  1.00  0.00     0.004 C 
ENDBRANCH  12  13
ENDBRANCH  11  12
ENDBRANCH  10  11
ENDBRANCH   9  10
ENDBRANCH   1   9
TORSDOF 10
ENDMDL
MODEL 8
REMARK VINA RESULT:    -3.852      2.630      4.235
REMARK INTER + INTRA:          -7.446
REMARK INTER:                  -6.087
REMARK INTRA:                  -1.359
REMARK UNBOUND:                -1.342
REMARK SMILES CCCCCCCCCCCC(=O)[O-]
REMARK SMILES IDX 7 1 8 2 9 3 10 4 11 5 12 6 13 7 14 8 6 9 5 10 4 11 3 12 2 13
REMARK SMILES IDX 1 14
REMARK H PARENT
REMARK Flexibility Score: inf
ROOT
ATOM      1  C   UNL     1      20.888  -3.219 -20.369  1.00  0.00     0.000 C 
ENDROOT
BRANCH   1   2
ATOM      2  C   UNL     1      19.701  -2.261 -20.143  1.00  0.00     0.000 C 
BRANCH   2   3
ATOM      3  C   UNL     1      18.716  -2.698 -19.045  1.00  0.00     0.000 C 
BRANCH   3   4
ATOM      4  C   UNL     1      19.286  -3.800 -18.136  1.00  0.00     0.006 C 
BRANCH   4   5
ATOM      5  C   UNL     1      18.515  -5.119 -18.273  1.00  0.00     0.053 C 
BRANCH   5   6
ATOM      6  C   UNL     1      19.364  -6.297 -17.901  1.00  0.00     0.041 C 
ATOM      7  O   UNL     1      19.658  -6.512 -16.697  1.00  0.00    -0.550 OA
ATOM      8  O   UNL     1      19.859  -7.137 -18.891  1.00  0.00    -0.550 OA
ENDBRANCH   5   6
ENDBRANCH   4   5
ENDBRANCH   3   4
ENDBRANCH   2   3
ENDBRANCH   1   2
BRANCH   1   9
ATOM      9  C   UNL     1      21.003  -3.796 -21.795  1.00  0.00     0.000 C 
BRANCH   9  10
ATOM     10  C   UNL     1      20.612  -5.278 -21.937  1.00  0.00    -0.000 C 
BRANCH  10  11
ATOM     11  C   UNL     1      19.302  -5.478 -22.717  1.00  0.00    -0.000 C 
BRANCH  11  12
ATOM     12  C   UNL     1      18.052  -5.392 -21.822  1.00  0.00    -0.000 C 
BRANCH  12  13
ATOM     13  C   UNL     1      17.144  -4.178 -22.085  1.00  0.00    -0.003 C 
ATOM     14  C   UNL     1      16.453  -4.230 -23.446  1.00  0.00     0.004 C 
ENDBRANCH  12  13
ENDBRANCH  11  12
ENDBRANCH  10  11
ENDBRANCH   9  10
ENDBRANCH   1   9
TORSDOF 10
ENDMDL
MODEL 9
REMARK VINA RESULT:    -3.820     10.559     12.268
REMARK INTER + INTRA:          -7.395
REMARK INTER:                  -6.217
REMARK INTRA:                  -1.178
REMARK UNBOUND:                -1.342
REMARK SMILES CCCCCCCCCCCC(=O)[O-]
REMARK SMILES IDX 7 1 8 2 9 3 10 4 11 5 12 6 13 7 14 8 6 9 5 10 4 11 3 12 2 13
REMARK SMILES IDX 1 14
REMARK H PARENT
REMARK Flexibility Score: inf
ROOT
ATOM      1  C   UNL     1       8.214  -4.853 -22.511  1.00  0.00     0.000 C 
ENDROOT
BRANCH   1   2
ATOM      2  C   UNL     1       7.616  -4.398 -23.857  1.00  0.00     0.000 C 
BRANCH   2   3
ATOM      3  C   UNL     1       8.651  -4.062 -24.944  1.00  0.00     0.000 C 
BRANCH   3   4
ATOM      4  C   UNL     1      10.026  -3.687 -24.365  1.00  0.00     0.006 C 
BRANCH   4   5
ATOM      5  C   UNL     1      11.074  -3.461 -25.461  1.00  0.00     0.053 C 
BRANCH   5   6
ATOM      6  C   UNL     1      11.695  -4.750 -25.906  1.00  0.00     0.041 C 
ATOM      7  O   UNL     1      12.101  -5.585 -25.057  1.00  0.00    -0.550 OA
ATOM      8  O   UNL     1      11.858  -5.012 -27.261  1.00  0.00    -0.550 OA
ENDBRANCH   5   6
ENDBRANCH   4   5
ENDBRANCH   3   4
ENDBRANCH   2   3
ENDBRANCH   1   2
BRANCH   1   9
ATOM      9  C   UNL     1       7.258  -5.660 -21.608  1.00  0.00     0.000 C 
BRANCH   9  10
ATOM     10  C   UNL     1       7.739  -7.077 -21.244  1.00  0.00    -0.000 C 
BRANCH  10  11
ATOM     11  C   UNL     1       6.881  -8.181 -21.882  1.00  0.00    -0.000 C 
BRANCH  11  12
ATOM     12  C   UNL     1       7.273  -8.478 -23.341  1.00  0.00    -0.000 C 
BRANCH  12  13
ATOM     13  C   UNL     1       8.786  -8.471 -23.624  1.00  0.00    -0.003 C 
ATOM     14  C   UNL     1       9.154  -7.713 -24.898  1.00  0.00     0.004 C 
ENDBRANCH  12  13
ENDBRANCH  11  12
ENDBRANCH  10  11
ENDBRANCH   9  10
ENDBRANCH   1   9
TORSDOF 10
ENDMDL
