MODEL 1
REMARK VINA RESULT:    -4.915      0.000      0.000
REMARK INTER + INTRA:          -6.644
REMARK INTER:                  -6.927
REMARK INTRA:                   0.283
REMARK UNBOUND:                 0.283
REMARK SMILES CC1=CCC(=C(C)C)C(=O)CC(C)=CCC1
REMARK SMILES IDX 12 1 14 2 13 3 15 4 16 5 2 6 1 7 3 8 11 10 9 11 10 12 5 13
REMARK SMILES IDX 6 14 7 15 8 16 4 17
REMARK H PARENT
REMARK Flexibility Score: 60.00
ROOT
ATOM      1  C   UNL     1     211.574 151.625 182.428  1.00  0.00    -0.070 C 
ATOM      2  C   UNL     1     211.125 152.621 183.222  1.00  0.00    -0.027 C 
ATOM      3  C   UNL     1     210.630 151.071 181.389  1.00  0.00     0.039 C 
ENDROOT
BRANCH   2   4
ATOM      4  C   UNL     1     211.882 153.239 184.378  1.00  0.00     0.032 C 
BRANCH   4   5
ATOM      5  C   UNL     1     213.145 154.028 183.978  1.00  0.00     0.034 C 
BRANCH   5   6
ATOM      6  C   UNL     1     212.931 154.925 182.772  1.00  0.00    -0.077 C 
ATOM      7  C   UNL     1     212.000 156.102 182.929  1.00  0.00     0.039 C 
ATOM      8  C   UNL     1     213.466 154.700 181.546  1.00  0.00    -0.023 CG0
ATOM      9  G   UNL     1     214.435 153.600 181.160  1.00  0.00     0.000 G0
ENDBRANCH   5   6
ENDBRANCH   4   5
ENDBRANCH   2   4
BRANCH   1  10
ATOM     10  C   UNL     1     212.935 150.980 182.591  1.00  0.00     0.111 C 
BRANCH  10  11
ATOM     11  C   UNL     1     213.779 151.142 181.354  1.00  0.00     0.163 C 
ATOM     12  O   UNL     1     214.547 150.196 181.030  1.00  0.00    -0.294 OA
BRANCH  11  13
ATOM     13  C   UNL     1     213.782 152.397 180.545  1.00  0.00    -0.002 C 
ATOM     14  C   UNL     1     213.271 152.412 179.277  1.00  0.00    -0.069 C 
ATOM     15  C   UNL     1     212.548 151.211 178.708  1.00  0.00     0.039 C 
ATOM     16  C   UNL     1     213.401 153.620 178.376  1.00  0.00     0.039 C 
BRANCH  13  17
ATOM     17  C   UNL     1     214.457 153.615 181.154  1.00  0.00     0.066 CG0
ATOM     18  G   UNL     1     213.461 154.685 181.557  1.00  0.00     0.000 G0
ENDBRANCH  13  17
ENDBRANCH  11  13
ENDBRANCH  10  11
ENDBRANCH   1  10
TORSDOF 0
ENDMDL
MODEL 2
REMARK VINA RESULT:    -4.651      1.921      4.634
REMARK INTER + INTRA:          -6.271
REMARK INTER:                  -6.735
REMARK INTRA:                   0.464
REMARK UNBOUND:                 0.283
REMARK SMILES CC1=CCC(=C(C)C)C(=O)CC(C)=CCC1
REMARK SMILES IDX 12 1 14 2 13 3 15 4 16 5 2 6 1 7 3 8 11 10 9 11 10 12 5 13
REMARK SMILES IDX 6 14 7 15 8 16 4 17
REMARK H PARENT
REMARK Flexibility Score: 60.00
ROOT
ATOM      1  C   UNL     1     214.378 153.525 180.798  1.00  0.00    -0.070 C 
ATOM      2  C   UNL     1     214.552 153.455 179.460  1.00  0.00    -0.027 C 
ATOM      3  C   UNL     1     213.651 154.724 181.353  1.00  0.00     0.039 C 
ENDROOT
BRANCH   2   4
ATOM      4  C   UNL     1     215.335 152.388 178.726  1.00  0.00     0.032 C 
BRANCH   4   5
ATOM      5  C   UNL     1     214.495 151.192 178.234  1.00  0.00     0.034 C 
BRANCH   5   6
ATOM      6  C   UNL     1     213.000 151.455 178.275  1.00  0.00    -0.077 C 
ATOM      7  C   UNL     1     212.376 152.145 177.088  1.00  0.00     0.039 C 
ATOM      8  C   UNL     1     212.203 151.172 179.334  1.00  0.00    -0.023 CG0
ATOM      9  G   UNL     1     212.602 150.469 180.617  1.00  0.00     0.000 G0
ENDBRANCH   5   6
ENDBRANCH   4   5
ENDBRANCH   2   4
BRANCH   1  10
ATOM     10  C   UNL     1     214.956 152.513 181.766  1.00  0.00     0.111 C 
BRANCH  10  11
ATOM     11  C   UNL     1     213.873 151.736 182.470  1.00  0.00     0.163 C 
ATOM     12  O   UNL     1     214.111 151.302 183.629  1.00  0.00    -0.294 OA
BRANCH  11  13
ATOM     13  C   UNL     1     212.568 151.414 181.819  1.00  0.00    -0.002 C 
ATOM     14  C   UNL     1     211.393 151.883 182.341  1.00  0.00    -0.069 C 
ATOM     15  C   UNL     1     211.383 152.866 183.491  1.00  0.00     0.039 C 
ATOM     16  C   UNL     1     210.049 151.448 181.802  1.00  0.00     0.039 C 
BRANCH  13  17
ATOM     17  C   UNL     1     212.598 150.475 180.626  1.00  0.00     0.066 CG0
ATOM     18  G   UNL     1     212.207 151.169 179.335  1.00  0.00     0.000 G0
ENDBRANCH  13  17
ENDBRANCH  11  13
ENDBRANCH  10  11
ENDBRANCH   1  10
TORSDOF 0
ENDMDL
MODEL 3
REMARK VINA RESULT:    -4.312      1.742      4.498
REMARK INTER + INTRA:          -5.794
REMARK INTER:                  -5.966
REMARK INTRA:                   0.172
REMARK UNBOUND:                 0.283
REMARK SMILES CC1=CCC(=C(C)C)C(=O)CC(C)=CCC1
REMARK SMILES IDX 12 1 14 2 13 3 15 4 16 5 2 6 1 7 3 8 11 10 9 11 10 12 5 13
REMARK SMILES IDX 6 14 7 15 8 16 4 17
REMARK H PARENT
REMARK Flexibility Score: 60.00
ROOT
ATOM      1  C   UNL     1     214.117 152.357 179.450  1.00  0.00    -0.070 C 
ATOM      2  C   UNL     1     213.452 151.201 179.238  1.00  0.00    -0.027 C 
ATOM      3  C   UNL     1     215.580 152.406 179.086  1.00  0.00     0.039 C 
ENDROOT
BRANCH   2   4
ATOM      4  C   UNL     1     212.015 150.925 179.624  1.00  0.00     0.032 C 
BRANCH   4   5
ATOM      5  C   UNL     1     211.801 150.560 181.108  1.00  0.00     0.034 C 
BRANCH   5   6
ATOM      6  C   UNL     1     210.647 151.311 181.747  1.00  0.00    -0.077 C 
ATOM      7  C   UNL     1     209.254 151.013 181.249  1.00  0.00     0.039 C 
ATOM      8  C   UNL     1     210.791 152.279 182.685  1.00  0.00    -0.023 CG0
ATOM      9  G   UNL     1     212.080 152.732 183.342  1.00  0.00     0.000 G0
ENDBRANCH   5   6
ENDBRANCH   4   5
ENDBRANCH   2   4
BRANCH   1  10
ATOM     10  C   UNL     1     213.493 153.565 180.119  1.00  0.00     0.111 C 
BRANCH  10  11
ATOM     11  C   UNL     1     213.774 153.588 181.599  1.00  0.00     0.163 C 
ATOM     12  O   UNL     1     214.930 153.275 181.989  1.00  0.00    -0.294 OA
BRANCH  11  13
ATOM     13  C   UNL     1     212.720 153.906 182.608  1.00  0.00    -0.002 C 
ATOM     14  C   UNL     1     212.413 155.204 182.914  1.00  0.00    -0.069 C 
ATOM     15  C   UNL     1     213.011 156.355 182.134  1.00  0.00     0.039 C 
ATOM     16  C   UNL     1     211.469 155.559 184.040  1.00  0.00     0.039 C 
BRANCH  13  17
ATOM     17  C   UNL     1     212.082 152.737 183.340  1.00  0.00     0.066 CG0
ATOM     18  G   UNL     1     210.790 152.285 182.689  1.00  0.00     0.000 G0
ENDBRANCH  13  17
ENDBRANCH  11  13
ENDBRANCH  10  11
ENDBRANCH   1  10
TORSDOF 0
ENDMDL
MODEL 4
REMARK VINA RESULT:    -4.312      1.880      3.545
REMARK INTER + INTRA:          -5.794
REMARK INTER:                  -6.239
REMARK INTRA:                   0.445
REMARK UNBOUND:                 0.283
REMARK SMILES CC1=CCC(=C(C)C)C(=O)CC(C)=CCC1
REMARK SMILES IDX 12 1 14 2 13 3 15 4 16 5 2 6 1 7 3 8 11 10 9 11 10 12 5 13
REMARK SMILES IDX 6 14 7 15 8 16 4 17
REMARK H PARENT
REMARK Flexibility Score: 60.00
ROOT
ATOM      1  C   UNL     1     212.585 153.899 183.671  1.00  0.00    -0.070 C 
ATOM      2  C   UNL     1     212.614 152.597 184.031  1.00  0.00    -0.027 C 
ATOM      3  C   UNL     1     212.980 154.925 184.703  1.00  0.00     0.039 C 
ENDROOT
BRANCH   2   4
ATOM      4  C   UNL     1     212.164 151.433 183.175  1.00  0.00     0.032 C 
BRANCH   4   5
ATOM      5  C   UNL     1     213.265 150.402 182.854  1.00  0.00     0.034 C 
BRANCH   5   6
ATOM      6  C   UNL     1     214.535 151.033 182.312  1.00  0.00    -0.077 C 
ATOM      7  C   UNL     1     215.808 150.830 183.095  1.00  0.00     0.039 C 
ATOM      8  C   UNL     1     214.587 151.823 181.211  1.00  0.00    -0.023 CG0
ATOM      9  G   UNL     1     213.447 152.150 180.266  1.00  0.00     0.000 G0
ENDBRANCH   5   6
ENDBRANCH   4   5
ENDBRANCH   2   4
BRANCH   1  10
ATOM     10  C   UNL     1     212.089 154.378 182.322  1.00  0.00     0.111 C 
BRANCH  10  11
ATOM     11  C   UNL     1     213.212 154.486 181.323  1.00  0.00     0.163 C 
ATOM     12  O   UNL     1     214.111 155.345 181.531  1.00  0.00    -0.294 OA
BRANCH  11  13
ATOM     13  C   UNL     1     213.258 153.661 180.079  1.00  0.00    -0.002 C 
ATOM     14  C   UNL     1     213.039 154.231 178.855  1.00  0.00    -0.069 C 
ATOM     15  C   UNL     1     212.901 155.730 178.701  1.00  0.00     0.039 C 
ATOM     16  C   UNL     1     212.922 153.402 177.596  1.00  0.00     0.039 C 
BRANCH  13  17
ATOM     17  C   UNL     1     213.461 152.164 180.243  1.00  0.00     0.066 CG0
ATOM     18  G   UNL     1     214.580 151.837 181.212  1.00  0.00     0.000 G0
ENDBRANCH  13  17
ENDBRANCH  11  13
ENDBRANCH  10  11
ENDBRANCH   1  10
TORSDOF 0
ENDMDL
MODEL 5
REMARK VINA RESULT:    -4.255      1.486      4.037
REMARK INTER + INTRA:          -5.714
REMARK INTER:                  -6.116
REMARK INTRA:                   0.402
REMARK UNBOUND:                 0.283
REMARK SMILES CC1=CCC(=C(C)C)C(=O)CC(C)=CCC1
REMARK SMILES IDX 12 1 14 2 13 3 15 4 16 5 2 6 1 7 3 8 11 10 9 11 10 12 5 13
REMARK SMILES IDX 6 14 7 15 8 16 4 17
REMARK H PARENT
REMARK Flexibility Score: 60.00
ROOT
ATOM      1  C   UNL     1     212.915 150.839 183.153  1.00  0.00    -0.070 C 
ATOM      2  C   UNL     1     212.649 150.440 181.890  1.00  0.00    -0.027 C 
ATOM      3  C   UNL     1     213.641 149.875 184.058  1.00  0.00     0.039 C 
ENDROOT
BRANCH   2   4
ATOM      4  C   UNL     1     211.851 151.220 180.867  1.00  0.00     0.032 C 
BRANCH   4   5
ATOM      5  C   UNL     1     212.652 151.672 179.629  1.00  0.00     0.034 C 
BRANCH   5   6
ATOM      6  C   UNL     1     214.014 152.246 179.975  1.00  0.00    -0.077 C 
ATOM      7  C   UNL     1     215.232 151.447 179.582  1.00  0.00     0.039 C 
ATOM      8  C   UNL     1     214.206 153.392 180.673  1.00  0.00    -0.023 CG0
ATOM      9  G   UNL     1     213.142 154.360 181.153  1.00  0.00     0.000 G0
ENDBRANCH   5   6
ENDBRANCH   4   5
ENDBRANCH   2   4
BRANCH   1  10
ATOM     10  C   UNL     1     212.440 152.158 183.726  1.00  0.00     0.111 C 
BRANCH  10  11
ATOM     11  C   UNL     1     213.432 153.263 183.473  1.00  0.00     0.163 C 
ATOM     12  O   UNL     1     214.574 153.169 183.999  1.00  0.00    -0.294 OA
BRANCH  11  13
ATOM     13  C   UNL     1     213.088 154.482 182.681  1.00  0.00    -0.002 C 
ATOM     14  C   UNL     1     212.668 155.625 183.304  1.00  0.00    -0.069 C 
ATOM     15  C   UNL     1     212.689 155.749 184.812  1.00  0.00     0.039 C 
ATOM     16  C   UNL     1     212.162 156.819 182.528  1.00  0.00     0.039 C 
BRANCH  13  17
ATOM     17  C   UNL     1     213.131 154.363 181.167  1.00  0.00     0.066 CG0
ATOM     18  G   UNL     1     214.217 153.415 180.694  1.00  0.00     0.000 G0
ENDBRANCH  13  17
ENDBRANCH  11  13
ENDBRANCH  10  11
ENDBRANCH   1  10
TORSDOF 0
ENDMDL
MODEL 6
REMARK VINA RESULT:    -4.218      2.137      3.917
REMARK INTER + INTRA:          -5.662
REMARK INTER:                  -6.016
REMARK INTRA:                   0.354
REMARK UNBOUND:                 0.283
REMARK SMILES CC1=CCC(=C(C)C)C(=O)CC(C)=CCC1
REMARK SMILES IDX 12 1 14 2 13 3 15 4 16 5 2 6 1 7 3 8 11 10 9 11 10 12 5 13
REMARK SMILES IDX 6 14 7 15 8 16 4 17
REMARK H PARENT
REMARK Flexibility Score: 60.00
ROOT
ATOM      1  C   UNL     1     211.901 155.675 184.028  1.00  0.00    -0.070 C 
ATOM      2  C   UNL     1     211.594 154.485 184.590  1.00  0.00    -0.027 C 
ATOM      3  C   UNL     1     212.391 156.777 184.934  1.00  0.00     0.039 C 
ENDROOT
BRANCH   2   4
ATOM      4  C   UNL     1     211.000 153.295 183.868  1.00  0.00     0.032 C 
BRANCH   4   5
ATOM      5  C   UNL     1     212.031 152.277 183.339  1.00  0.00     0.034 C 
BRANCH   5   6
ATOM      6  C   UNL     1     211.897 152.010 181.850  1.00  0.00    -0.077 C 
ATOM      7  C   UNL     1     210.875 150.992 181.409  1.00  0.00     0.039 C 
ATOM      8  C   UNL     1     212.680 152.575 180.899  1.00  0.00    -0.023 CG0
ATOM      9  G   UNL     1     213.751 153.629 181.104  1.00  0.00     0.000 G0
ENDBRANCH   5   6
ENDBRANCH   4   5
ENDBRANCH   2   4
BRANCH   1  10
ATOM     10  C   UNL     1     211.689 155.981 182.560  1.00  0.00     0.111 C 
BRANCH  10  11
ATOM     11  C   UNL     1     212.992 156.003 181.803  1.00  0.00     0.163 C 
ATOM     12  O   UNL     1     213.826 156.906 182.081  1.00  0.00    -0.294 OA
BRANCH  11  13
ATOM     13  C   UNL     1     213.295 155.039 180.703  1.00  0.00    -0.002 C 
ATOM     14  C   UNL     1     213.076 155.379 179.396  1.00  0.00    -0.069 C 
ATOM     15  C   UNL     1     212.674 156.784 179.008  1.00  0.00     0.039 C 
ATOM     16  C   UNL     1     213.222 154.375 178.274  1.00  0.00     0.039 C 
BRANCH  13  17
ATOM     17  C   UNL     1     213.759 153.649 181.105  1.00  0.00     0.066 CG0
ATOM     18  G   UNL     1     212.679 152.603 180.911  1.00  0.00     0.000 G0
ENDBRANCH  13  17
ENDBRANCH  11  13
ENDBRANCH  10  11
ENDBRANCH   1  10
TORSDOF 0
ENDMDL
MODEL 7
REMARK VINA RESULT:    -4.189      1.988      3.605
REMARK INTER + INTRA:          -5.620
REMARK INTER:                  -5.813
REMARK INTRA:                   0.193
REMARK UNBOUND:                 0.283
REMARK SMILES CC1=CCC(=C(C)C)C(=O)CC(C)=CCC1
REMARK SMILES IDX 12 1 14 2 13 3 15 4 16 5 2 6 1 7 3 8 11 10 9 11 10 12 5 13
REMARK SMILES IDX 6 14 7 15 8 16 4 17
REMARK H PARENT
REMARK Flexibility Score: 60.00
ROOT
ATOM      1  C   UNL     1     213.286 155.725 181.881  1.00  0.00    -0.070 C 
ATOM      2  C   UNL     1     212.894 155.540 183.161  1.00  0.00    -0.027 C 
ATOM      3  C   UNL     1     212.759 156.935 181.151  1.00  0.00     0.039 C 
ENDROOT
BRANCH   2   4
ATOM      4  C   UNL     1     213.234 154.344 184.024  1.00  0.00     0.032 C 
BRANCH   4   5
ATOM      5  C   UNL     1     212.181 153.217 184.015  1.00  0.00     0.034 C 
BRANCH   5   6
ATOM      6  C   UNL     1     212.773 151.849 183.727  1.00  0.00    -0.077 C 
ATOM      7  C   UNL     1     213.417 151.108 184.873  1.00  0.00     0.039 C 
ATOM      8  C   UNL     1     212.823 151.280 182.498  1.00  0.00    -0.023 CG0
ATOM      9  G   UNL     1     212.230 151.826 181.213  1.00  0.00     0.000 G0
ENDBRANCH   5   6
ENDBRANCH   4   5
ENDBRANCH   2   4
BRANCH   1  10
ATOM     10  C   UNL     1     214.147 154.736 181.123  1.00  0.00     0.111 C 
BRANCH  10  11
ATOM     11  C   UNL     1     213.328 153.895 180.179  1.00  0.00     0.163 C 
ATOM     12  O   UNL     1     212.630 154.486 179.311  1.00  0.00    -0.294 OA
BRANCH  11  13
ATOM     13  C   UNL     1     213.268 152.406 180.279  1.00  0.00    -0.002 C 
ATOM     14  C   UNL     1     214.068 151.621 179.496  1.00  0.00    -0.069 C 
ATOM     15  C   UNL     1     215.146 152.224 178.622  1.00  0.00     0.039 C 
ATOM     16  C   UNL     1     213.921 150.117 179.458  1.00  0.00     0.039 C 
BRANCH  13  17
ATOM     17  C   UNL     1     212.222 151.813 181.207  1.00  0.00     0.066 CG0
ATOM     18  G   UNL     1     212.830 151.252 182.478  1.00  0.00     0.000 G0
ENDBRANCH  13  17
ENDBRANCH  11  13
ENDBRANCH  10  11
ENDBRANCH   1  10
TORSDOF 0
ENDMDL
MODEL 8
REMARK VINA RESULT:    -4.123      1.234      3.537
REMARK INTER + INTRA:          -5.527
REMARK INTER:                  -5.992
REMARK INTRA:                   0.465
REMARK UNBOUND:                 0.283
REMARK SMILES CC1=CCC(=C(C)C)C(=O)CC(C)=CCC1
REMARK SMILES IDX 12 1 14 2 13 3 15 4 16 5 2 6 1 7 3 8 11 10 9 11 10 12 5 13
REMARK SMILES IDX 6 14 7 15 8 16 4 17
REMARK H PARENT
REMARK Flexibility Score: 60.00
ROOT
ATOM      1  C   UNL     1     213.349 152.814 177.933  1.00  0.00    -0.070 C 
ATOM      2  C   UNL     1     213.527 154.153 177.957  1.00  0.00    -0.027 C 
ATOM      3  C   UNL     1     213.741 152.072 176.679  1.00  0.00     0.039 C 
ENDROOT
BRANCH   2   4
ATOM      4  C   UNL     1     213.109 155.080 179.078  1.00  0.00     0.032 C 
BRANCH   4   5
ATOM      5  C   UNL     1     214.218 155.399 180.101  1.00  0.00     0.034 C 
BRANCH   5   6
ATOM      6  C   UNL     1     213.715 155.438 181.534  1.00  0.00    -0.077 C 
ATOM      7  C   UNL     1     213.062 156.711 182.013  1.00  0.00     0.039 C 
ATOM      8  C   UNL     1     213.874 154.432 182.428  1.00  0.00    -0.023 CG0
ATOM      9  G   UNL     1     214.479 153.066 182.169  1.00  0.00     0.000 G0
ENDBRANCH   5   6
ENDBRANCH   4   5
ENDBRANCH   2   4
BRANCH   1  10
ATOM     10  C   UNL     1     212.695 152.042 179.061  1.00  0.00     0.111 C 
BRANCH  10  11
ATOM     11  C   UNL     1     213.684 151.696 180.144  1.00  0.00     0.163 C 
ATOM     12  O   UNL     1     214.694 151.012 179.831  1.00  0.00    -0.294 OA
BRANCH  11  13
ATOM     13  C   UNL     1     213.473 152.080 181.572  1.00  0.00    -0.002 C 
ATOM     14  C   UNL     1     212.379 151.632 182.262  1.00  0.00    -0.069 C 
ATOM     15  C   UNL     1     211.436 150.614 181.661  1.00  0.00     0.039 C 
ATOM     16  C   UNL     1     212.053 152.128 183.653  1.00  0.00     0.039 C 
BRANCH  13  17
ATOM     17  C   UNL     1     214.463 153.056 182.184  1.00  0.00     0.066 CG0
ATOM     18  G   UNL     1     213.854 154.425 182.419  1.00  0.00     0.000 G0
ENDBRANCH  13  17
ENDBRANCH  11  13
ENDBRANCH  10  11
ENDBRANCH   1  10
TORSDOF 0
ENDMDL
MODEL 9
REMARK VINA RESULT:    -4.111      1.878      3.322
REMARK INTER + INTRA:          -5.510
REMARK INTER:                  -6.273
REMARK INTRA:                   0.762
REMARK UNBOUND:                 0.283
REMARK SMILES CC1=CCC(=C(C)C)C(=O)CC(C)=CCC1
REMARK SMILES IDX 12 1 14 2 13 3 15 4 16 5 2 6 1 7 3 8 11 10 9 11 10 12 5 13
REMARK SMILES IDX 6 14 7 15 8 16 4 17
REMARK H PARENT
REMARK Flexibility Score: 60.00
ROOT
ATOM      1  C   UNL     1     214.235 154.036 180.454  1.00  0.00    -0.070 C 
ATOM      2  C   UNL     1     213.880 153.919 181.752  1.00  0.00    -0.027 C 
ATOM      3  C   UNL     1     213.519 155.067 179.617  1.00  0.00     0.039 C 
ENDROOT
BRANCH   2   4
ATOM      4  C   UNL     1     214.409 152.886 182.724  1.00  0.00     0.032 C 
BRANCH   4   5
ATOM      5  C   UNL     1     213.530 151.628 182.875  1.00  0.00     0.034 C 
BRANCH   5   6
ATOM      6  C   UNL     1     212.138 151.800 182.293  1.00  0.00    -0.077 C 
ATOM      7  C   UNL     1     211.131 152.581 183.100  1.00  0.00     0.039 C 
ATOM      8  C   UNL     1     211.721 151.240 181.131  1.00  0.00    -0.023 CG0
ATOM      9  G   UNL     1     212.555 150.436 180.152  1.00  0.00     0.000 G0
ENDBRANCH   5   6
ENDBRANCH   4   5
ENDBRANCH   2   4
BRANCH   1  10
ATOM     10  C   UNL     1     215.244 153.126 179.783  1.00  0.00     0.111 C 
BRANCH  10  11
ATOM     11  C   UNL     1     214.777 151.694 179.769  1.00  0.00     0.163 C 
ATOM     12  O   UNL     1     215.577 150.804 180.164  1.00  0.00    -0.294 OA
BRANCH  11  13
ATOM     13  C   UNL     1     213.435 151.295 179.249  1.00  0.00    -0.002 C 
ATOM     14  C   UNL     1     212.982 151.767 178.048  1.00  0.00    -0.069 C 
ATOM     15  C   UNL     1     213.878 152.576 177.135  1.00  0.00     0.039 C 
ATOM     16  C   UNL     1     211.571 151.511 177.568  1.00  0.00     0.039 C 
BRANCH  13  17
ATOM     17  C   UNL     1     212.568 150.430 180.149  1.00  0.00     0.066 CG0
ATOM     18  G   UNL     1     211.736 151.254 181.112  1.00  0.00     0.000 G0
ENDBRANCH  13  17
ENDBRANCH  11  13
ENDBRANCH  10  11
ENDBRANCH   1  10
TORSDOF 0
ENDMDL
