MODEL 1
REMARK VINA RESULT:    -4.388      0.000      0.000
REMARK INTER + INTRA:          -8.404
REMARK INTER:                  -7.466
REMARK INTRA:                  -0.939
REMARK UNBOUND:                -0.939
REMARK SMILES CCCCCCCCCCCCCC(=O)[O-]
REMARK SMILES IDX 8 1 9 2 10 3 11 4 12 5 13 6 14 7 15 8 16 9 7 10 6 11 5 12
REMARK SMILES IDX 4 13 3 14 2 15 1 16
REMARK H PARENT
REMARK Flexibility Score: inf
ROOT
ATOM      1  C   UNL     1      20.454  -2.169  18.796  1.00  0.00     0.000 C 
ENDROOT
BRANCH   1   2
ATOM      2  C   UNL     1      20.840  -3.576  19.294  1.00  0.00     0.000 C 
BRANCH   2   3
ATOM      3  C   UNL     1      21.133  -3.615  20.803  1.00  0.00     0.000 C 
BRANCH   3   4
ATOM      4  C   UNL     1      22.580  -4.034  21.109  1.00  0.00     0.000 C 
BRANCH   4   5
ATOM      5  C   UNL     1      23.252  -4.758  19.930  1.00  0.00     0.006 C 
BRANCH   5   6
ATOM      6  C   UNL     1      23.257  -6.282  20.112  1.00  0.00     0.053 C 
BRANCH   6   7
ATOM      7  C   UNL     1      24.371  -6.928  19.347  1.00  0.00     0.041 C 
ATOM      8  O   UNL     1      25.545  -6.909  19.801  1.00  0.00    -0.550 OA
ATOM      9  O   UNL     1      24.106  -7.581  18.149  1.00  0.00    -0.550 OA
ENDBRANCH   6   7
ENDBRANCH   5   6
ENDBRANCH   4   5
ENDBRANCH   3   4
ENDBRANCH   2   3
ENDBRANCH   1   2
BRANCH   1  10
ATOM     10  C   UNL     1      21.326  -1.620  17.651  1.00  0.00     0.000 C 
BRANCH  10  11
ATOM     11  C   UNL     1      22.253  -2.652  16.981  1.00  0.00    -0.000 C 
BRANCH  11  12
ATOM     12  C   UNL     1      22.912  -2.146  15.680  1.00  0.00    -0.000 C 
BRANCH  12  13
ATOM     13  C   UNL     1      23.025  -3.246  14.610  1.00  0.00    -0.000 C 
BRANCH  13  14
ATOM     14  C   UNL     1      22.111  -2.996  13.399  1.00  0.00    -0.000 C 
BRANCH  14  15
ATOM     15  C   UNL     1      21.362  -4.259  12.924  1.00  0.00    -0.003 C 
ATOM     16  C   UNL     1      21.306  -5.341  14.001  1.00  0.00     0.004 C 
ENDBRANCH  14  15
ENDBRANCH  13  14
ENDBRANCH  12  13
ENDBRANCH  11  12
ENDBRANCH  10  11
ENDBRANCH   1  10
TORSDOF 12
ENDMDL
MODEL 2
REMARK VINA RESULT:    -4.340      2.379      3.495
REMARK INTER + INTRA:          -8.323
REMARK INTER:                  -7.300
REMARK INTRA:                  -1.023
REMARK UNBOUND:                -0.939
REMARK SMILES CCCCCCCCCCCCCC(=O)[O-]
REMARK SMILES IDX 8 1 9 2 10 3 11 4 12 5 13 6 14 7 15 8 16 9 7 10 6 11 5 12
REMARK SMILES IDX 4 13 3 14 2 15 1 16
REMARK H PARENT
REMARK Flexibility Score: inf
ROOT
ATOM      1  C   UNL     1      22.330  -1.153  16.173  1.00  0.00     0.000 C 
ENDROOT
BRANCH   1   2
ATOM      2  C   UNL     1      22.359  -2.584  16.742  1.00  0.00     0.000 C 
BRANCH   2   3
ATOM      3  C   UNL     1      23.755  -3.226  16.675  1.00  0.00     0.000 C 
BRANCH   3   4
ATOM      4  C   UNL     1      24.259  -3.682  18.054  1.00  0.00     0.000 C 
BRANCH   4   5
ATOM      5  C   UNL     1      23.315  -4.693  18.727  1.00  0.00     0.006 C 
BRANCH   5   6
ATOM      6  C   UNL     1      23.077  -4.366  20.208  1.00  0.00     0.053 C 
BRANCH   6   7
ATOM      7  C   UNL     1      21.638  -4.050  20.482  1.00  0.00     0.041 C 
ATOM      8  O   UNL     1      20.849  -3.818  19.529  1.00  0.00    -0.550 OA
ATOM      9  O   UNL     1      21.163  -4.044  21.787  1.00  0.00    -0.550 OA
ENDBRANCH   6   7
ENDBRANCH   5   6
ENDBRANCH   4   5
ENDBRANCH   3   4
ENDBRANCH   2   3
ENDBRANCH   1   2
BRANCH   1  10
ATOM     10  C   UNL     1      22.981  -0.988  14.787  1.00  0.00     0.000 C 
BRANCH  10  11
ATOM     11  C   UNL     1      21.997  -0.954  13.602  1.00  0.00    -0.000 C 
BRANCH  11  12
ATOM     12  C   UNL     1      22.365  -1.923  12.457  1.00  0.00    -0.000 C 
BRANCH  12  13
ATOM     13  C   UNL     1      21.478  -3.180  12.441  1.00  0.00    -0.000 C 
BRANCH  13  14
ATOM     14  C   UNL     1      21.937  -4.247  13.449  1.00  0.00    -0.000 C 
BRANCH  14  15
ATOM     15  C   UNL     1      20.935  -5.409  13.612  1.00  0.00    -0.003 C 
ATOM     16  C   UNL     1      21.609  -6.777  13.499  1.00  0.00     0.004 C 
ENDBRANCH  14  15
ENDBRANCH  13  14
ENDBRANCH  12  13
ENDBRANCH  11  12
ENDBRANCH  10  11
ENDBRANCH   1  10
TORSDOF 12
ENDMDL
MODEL 3
REMARK VINA RESULT:    -4.326      2.298      4.483
REMARK INTER + INTRA:          -8.299
REMARK INTER:                  -6.146
REMARK INTRA:                  -2.153
REMARK UNBOUND:                -0.939
REMARK SMILES CCCCCCCCCCCCCC(=O)[O-]
REMARK SMILES IDX 8 1 9 2 10 3 11 4 12 5 13 6 14 7 15 8 16 9 7 10 6 11 5 12
REMARK SMILES IDX 4 13 3 14 2 15 1 16
REMARK H PARENT
REMARK Flexibility Score: inf
ROOT
ATOM      1  C   UNL     1      26.125  -3.176  17.599  1.00  0.00     0.000 C 
ENDROOT
BRANCH   1   2
ATOM      2  C   UNL     1      25.917  -3.391  19.110  1.00  0.00     0.000 C 
BRANCH   2   3
ATOM      3  C   UNL     1      26.170  -4.843  19.548  1.00  0.00     0.000 C 
BRANCH   3   4
ATOM      4  C   UNL     1      26.857  -5.675  18.452  1.00  0.00     0.000 C 
BRANCH   4   5
ATOM      5  C   UNL     1      26.103  -6.978  18.134  1.00  0.00     0.006 C 
BRANCH   5   6
ATOM      6  C   UNL     1      24.853  -7.152  19.008  1.00  0.00     0.053 C 
BRANCH   6   7
ATOM      7  C   UNL     1      23.848  -8.057  18.365  1.00  0.00     0.041 C 
ATOM      8  O   UNL     1      23.001  -8.665  19.071  1.00  0.00    -0.550 OA
ATOM      9  O   UNL     1      23.825  -8.203  16.983  1.00  0.00    -0.550 OA
ENDBRANCH   6   7
ENDBRANCH   5   6
ENDBRANCH   4   5
ENDBRANCH   3   4
ENDBRANCH   2   3
ENDBRANCH   1   2
BRANCH   1  10
ATOM     10  C   UNL     1      24.830  -3.051  16.773  1.00  0.00     0.000 C 
BRANCH  10  11
ATOM     11  C   UNL     1      24.186  -4.387  16.358  1.00  0.00    -0.000 C 
BRANCH  11  12
ATOM     12  C   UNL     1      22.776  -4.609  16.945  1.00  0.00    -0.000 C 
BRANCH  12  13
ATOM     13  C   UNL     1      22.170  -3.320  17.527  1.00  0.00    -0.000 C 
BRANCH  13  14
ATOM     14  C   UNL     1      21.538  -3.531  18.914  1.00  0.00    -0.000 C 
BRANCH  14  15
ATOM     15  C   UNL     1      22.146  -4.717  19.692  1.00  0.00    -0.003 C 
ATOM     16  C   UNL     1      22.777  -4.283  21.015  1.00  0.00     0.004 C 
ENDBRANCH  14  15
ENDBRANCH  13  14
ENDBRANCH  12  13
ENDBRANCH  11  12
ENDBRANCH  10  11
ENDBRANCH   1  10
TORSDOF 12
ENDMDL
MODEL 4
REMARK VINA RESULT:    -4.293      3.232      5.616
REMARK INTER + INTRA:          -8.243
REMARK INTER:                  -6.737
REMARK INTRA:                  -1.506
REMARK UNBOUND:                -0.939
REMARK SMILES CCCCCCCCCCCCCC(=O)[O-]
REMARK SMILES IDX 8 1 9 2 10 3 11 4 12 5 13 6 14 7 15 8 16 9 7 10 6 11 5 12
REMARK SMILES IDX 4 13 3 14 2 15 1 16
REMARK H PARENT
REMARK Flexibility Score: inf
ROOT
ATOM      1  C   UNL     1      28.012  -4.183  19.062  1.00  0.00     0.000 C 
ENDROOT
BRANCH   1   2
ATOM      2  C   UNL     1      26.847  -3.202  18.831  1.00  0.00     0.000 C 
BRANCH   2   3
ATOM      3  C   UNL     1      25.487  -3.780  19.258  1.00  0.00     0.000 C 
BRANCH   3   4
ATOM      4  C   UNL     1      24.442  -3.714  18.132  1.00  0.00     0.000 C 
BRANCH   4   5
ATOM      5  C   UNL     1      23.246  -4.651  18.376  1.00  0.00     0.006 C 
BRANCH   5   6
ATOM      6  C   UNL     1      22.204  -4.028  19.316  1.00  0.00     0.053 C 
BRANCH   6   7
ATOM      7  C   UNL     1      22.167  -4.724  20.642  1.00  0.00     0.041 C 
ATOM      8  O   UNL     1      21.343  -4.363  21.523  1.00  0.00    -0.550 OA
ATOM      9  O   UNL     1      23.019  -5.793  20.892  1.00  0.00    -0.550 OA
ENDBRANCH   6   7
ENDBRANCH   5   6
ENDBRANCH   4   5
ENDBRANCH   3   4
ENDBRANCH   2   3
ENDBRANCH   1   2
BRANCH   1  10
ATOM     10  C   UNL     1      27.594  -5.639  19.346  1.00  0.00     0.000 C 
BRANCH  10  11
ATOM     11  C   UNL     1      27.729  -6.603  18.152  1.00  0.00    -0.000 C 
BRANCH  11  12
ATOM     12  C   UNL     1      26.378  -7.089  17.586  1.00  0.00    -0.000 C 
BRANCH  12  13
ATOM     13  C   UNL     1      25.399  -7.525  18.690  1.00  0.00    -0.000 C 
BRANCH  13  14
ATOM     14  C   UNL     1      24.196  -8.313  18.143  1.00  0.00    -0.000 C 
BRANCH  14  15
ATOM     15  C   UNL     1      24.205  -8.461  16.607  1.00  0.00    -0.003 C 
ATOM     16  C   UNL     1      24.034  -9.914  16.163  1.00  0.00     0.004 C 
ENDBRANCH  14  15
ENDBRANCH  13  14
ENDBRANCH  12  13
ENDBRANCH  11  12
ENDBRANCH  10  11
ENDBRANCH   1  10
TORSDOF 12
ENDMDL
MODEL 5
REMARK VINA RESULT:    -4.231      2.746      4.889
REMARK INTER + INTRA:          -8.138
REMARK INTER:                  -6.212
REMARK INTRA:                  -1.925
REMARK UNBOUND:                -0.939
REMARK SMILES CCCCCCCCCCCCCC(=O)[O-]
REMARK SMILES IDX 8 1 9 2 10 3 11 4 12 5 13 6 14 7 15 8 16 9 7 10 6 11 5 12
REMARK SMILES IDX 4 13 3 14 2 15 1 16
REMARK H PARENT
REMARK Flexibility Score: inf
ROOT
ATOM      1  C   UNL     1      26.615  -6.978  18.114  1.00  0.00     0.000 C 
ENDROOT
BRANCH   1   2
ATOM      2  C   UNL     1      26.533  -5.923  19.233  1.00  0.00     0.000 C 
BRANCH   2   3
ATOM      3  C   UNL     1      26.137  -4.530  18.714  1.00  0.00     0.000 C 
BRANCH   3   4
ATOM      4  C   UNL     1      24.958  -3.926  19.494  1.00  0.00     0.000 C 
BRANCH   4   5
ATOM      5  C   UNL     1      23.877  -4.965  19.837  1.00  0.00     0.006 C 
BRANCH   5   6
ATOM      6  C   UNL     1      22.534  -4.647  19.166  1.00  0.00     0.053 C 
BRANCH   6   7
ATOM      7  C   UNL     1      21.576  -4.001  20.120  1.00  0.00     0.041 C 
ATOM      8  O   UNL     1      20.677  -3.231  19.690  1.00  0.00    -0.550 OA
ATOM      9  O   UNL     1      21.655  -4.275  21.480  1.00  0.00    -0.550 OA
ENDBRANCH   6   7
ENDBRANCH   5   6
ENDBRANCH   4   5
ENDBRANCH   3   4
ENDBRANCH   2   3
ENDBRANCH   1   2
BRANCH   1  10
ATOM     10  C   UNL     1      25.319  -7.774  17.869  1.00  0.00     0.000 C 
BRANCH  10  11
ATOM     11  C   UNL     1      24.814  -7.772  16.414  1.00  0.00    -0.000 C 
BRANCH  11  12
ATOM     12  C   UNL     1      23.755  -6.689  16.121  1.00  0.00    -0.000 C 
BRANCH  12  13
ATOM     13  C   UNL     1      24.380  -5.361  15.661  1.00  0.00    -0.000 C 
BRANCH  13  14
ATOM     14  C   UNL     1      23.331  -4.268  15.393  1.00  0.00    -0.000 C 
BRANCH  14  15
ATOM     15  C   UNL     1      23.680  -2.910  16.036  1.00  0.00    -0.003 C 
ATOM     16  C   UNL     1      22.442  -2.174  16.548  1.00  0.00     0.004 C 
ENDBRANCH  14  15
ENDBRANCH  13  14
ENDBRANCH  12  13
ENDBRANCH  11  12
ENDBRANCH  10  11
ENDBRANCH   1  10
TORSDOF 12
ENDMDL
MODEL 6
REMARK VINA RESULT:    -4.217      2.435      4.432
REMARK INTER + INTRA:          -8.113
REMARK INTER:                  -6.833
REMARK INTRA:                  -1.281
REMARK UNBOUND:                -0.939
REMARK SMILES CCCCCCCCCCCCCC(=O)[O-]
REMARK SMILES IDX 8 1 9 2 10 3 11 4 12 5 13 6 14 7 15 8 16 9 7 10 6 11 5 12
REMARK SMILES IDX 4 13 3 14 2 15 1 16
REMARK H PARENT
REMARK Flexibility Score: inf
ROOT
ATOM      1  C   UNL     1      26.655  -3.367  19.614  1.00  0.00     0.000 C 
ENDROOT
BRANCH   1   2
ATOM      2  C   UNL     1      27.665  -4.364  19.015  1.00  0.00     0.000 C 
BRANCH   2   3
ATOM      3  C   UNL     1      27.288  -5.831  19.286  1.00  0.00     0.000 C 
BRANCH   3   4
ATOM      4  C   UNL     1      27.289  -6.684  18.008  1.00  0.00     0.000 C 
BRANCH   4   5
ATOM      5  C   UNL     1      25.982  -7.473  17.818  1.00  0.00     0.006 C 
BRANCH   5   6
ATOM      6  C   UNL     1      25.052  -7.353  19.033  1.00  0.00     0.053 C 
BRANCH   6   7
ATOM      7  C   UNL     1      23.703  -7.945  18.759  1.00  0.00     0.041 C 
ATOM      8  O   UNL     1      22.723  -7.654  19.494  1.00  0.00    -0.550 OA
ATOM      9  O   UNL     1      23.522  -8.791  17.672  1.00  0.00    -0.550 OA
ENDBRANCH   6   7
ENDBRANCH   5   6
ENDBRANCH   4   5
ENDBRANCH   3   4
ENDBRANCH   2   3
ENDBRANCH   1   2
BRANCH   1  10
ATOM     10  C   UNL     1      25.174  -3.752  19.439  1.00  0.00     0.000 C 
BRANCH  10  11
ATOM     11  C   UNL     1      24.665  -3.752  17.986  1.00  0.00    -0.000 C 
BRANCH  11  12
ATOM     12  C   UNL     1      23.206  -4.233  17.835  1.00  0.00    -0.000 C 
BRANCH  12  13
ATOM     13  C   UNL     1      22.282  -3.145  17.262  1.00  0.00    -0.000 C 
BRANCH  13  14
ATOM     14  C   UNL     1      22.704  -2.683  15.857  1.00  0.00    -0.000 C 
BRANCH  14  15
ATOM     15  C   UNL     1      22.793  -1.148  15.715  1.00  0.00    -0.003 C 
ATOM     16  C   UNL     1      24.202  -0.678  15.357  1.00  0.00     0.004 C 
ENDBRANCH  14  15
ENDBRANCH  13  14
ENDBRANCH  12  13
ENDBRANCH  11  12
ENDBRANCH  10  11
ENDBRANCH   1  10
TORSDOF 12
ENDMDL
MODEL 7
REMARK VINA RESULT:    -4.198      2.912      4.962
REMARK INTER + INTRA:          -8.082
REMARK INTER:                  -6.282
REMARK INTRA:                  -1.801
REMARK UNBOUND:                -0.939
REMARK SMILES CCCCCCCCCCCCCC(=O)[O-]
REMARK SMILES IDX 8 1 9 2 10 3 11 4 12 5 13 6 14 7 15 8 16 9 7 10 6 11 5 12
REMARK SMILES IDX 4 13 3 14 2 15 1 16
REMARK H PARENT
REMARK Flexibility Score: inf
ROOT
ATOM      1  C   UNL     1      27.137  -6.303  18.050  1.00  0.00     0.000 C 
ENDROOT
BRANCH   1   2
ATOM      2  C   UNL     1      25.846  -7.118  17.846  1.00  0.00     0.000 C 
BRANCH   2   3
ATOM      3  C   UNL     1      24.983  -7.198  19.116  1.00  0.00     0.000 C 
BRANCH   3   4
ATOM      4  C   UNL     1      23.601  -6.550  18.930  1.00  0.00     0.000 C 
BRANCH   4   5
ATOM      5  C   UNL     1      23.031  -5.979  20.240  1.00  0.00     0.006 C 
BRANCH   5   6
ATOM      6  C   UNL     1      22.967  -4.445  20.224  1.00  0.00     0.053 C 
BRANCH   6   7
ATOM      7  C   UNL     1      21.594  -3.944  20.554  1.00  0.00     0.041 C 
ATOM      8  O   UNL     1      21.118  -4.116  21.707  1.00  0.00    -0.550 OA
ATOM      9  O   UNL     1      20.855  -3.257  19.599  1.00  0.00    -0.550 OA
ENDBRANCH   6   7
ENDBRANCH   5   6
ENDBRANCH   4   5
ENDBRANCH   3   4
ENDBRANCH   2   3
ENDBRANCH   1   2
BRANCH   1  10
ATOM     10  C   UNL     1      27.151  -5.403  19.300  1.00  0.00     0.000 C 
BRANCH  10  11
ATOM     11  C   UNL     1      27.139  -3.889  19.016  1.00  0.00    -0.000 C 
BRANCH  11  12
ATOM     12  C   UNL     1      25.784  -3.361  18.499  1.00  0.00    -0.000 C 
BRANCH  12  13
ATOM     13  C   UNL     1      25.847  -2.912  17.029  1.00  0.00    -0.000 C 
BRANCH  13  14
ATOM     14  C   UNL     1      24.835  -3.648  16.136  1.00  0.00    -0.000 C 
BRANCH  14  15
ATOM     15  C   UNL     1      23.416  -3.714  16.739  1.00  0.00    -0.003 C 
ATOM     16  C   UNL     1      22.661  -2.393  16.594  1.00  0.00     0.004 C 
ENDBRANCH  14  15
ENDBRANCH  13  14
ENDBRANCH  12  13
ENDBRANCH  11  12
ENDBRANCH  10  11
ENDBRANCH   1  10
TORSDOF 12
ENDMDL
MODEL 8
REMARK VINA RESULT:    -4.178      2.521      4.101
REMARK INTER + INTRA:          -8.047
REMARK INTER:                  -6.384
REMARK INTRA:                  -1.663
REMARK UNBOUND:                -0.939
REMARK SMILES CCCCCCCCCCCCCC(=O)[O-]
REMARK SMILES IDX 8 1 9 2 10 3 11 4 12 5 13 6 14 7 15 8 16 9 7 10 6 11 5 12
REMARK SMILES IDX 4 13 3 14 2 15 1 16
REMARK H PARENT
REMARK Flexibility Score: inf
ROOT
ATOM      1  C   UNL     1      26.946  -4.570  19.477  1.00  0.00     0.000 C 
ENDROOT
BRANCH   1   2
ATOM      2  C   UNL     1      26.657  -5.903  18.760  1.00  0.00     0.000 C 
BRANCH   2   3
ATOM      3  C   UNL     1      25.630  -6.772  19.506  1.00  0.00     0.000 C 
BRANCH   3   4
ATOM      4  C   UNL     1      24.418  -7.129  18.631  1.00  0.00     0.000 C 
BRANCH   4   5
ATOM      5  C   UNL     1      23.095  -6.583  19.196  1.00  0.00     0.006 C 
BRANCH   5   6
ATOM      6  C   UNL     1      23.314  -5.704  20.436  1.00  0.00     0.053 C 
BRANCH   6   7
ATOM      7  C   UNL     1      22.320  -4.586  20.506  1.00  0.00     0.041 C 
ATOM      8  O   UNL     1      21.602  -4.314  19.508  1.00  0.00    -0.550 OA
ATOM      9  O   UNL     1      22.161  -3.868  21.685  1.00  0.00    -0.550 OA
ENDBRANCH   6   7
ENDBRANCH   5   6
ENDBRANCH   4   5
ENDBRANCH   3   4
ENDBRANCH   2   3
ENDBRANCH   1   2
BRANCH   1  10
ATOM     10  C   UNL     1      25.996  -3.413  19.112  1.00  0.00     0.000 C 
BRANCH  10  11
ATOM     11  C   UNL     1      25.650  -3.298  17.615  1.00  0.00    -0.000 C 
BRANCH  11  12
ATOM     12  C   UNL     1      24.144  -3.442  17.310  1.00  0.00    -0.000 C 
BRANCH  12  13
ATOM     13  C   UNL     1      23.861  -4.487  16.217  1.00  0.00    -0.000 C 
BRANCH  13  14
ATOM     14  C   UNL     1      22.448  -4.361  15.622  1.00  0.00    -0.000 C 
BRANCH  14  15
ATOM     15  C   UNL     1      22.097  -5.489  14.630  1.00  0.00    -0.003 C 
ATOM     16  C   UNL     1      21.129  -5.025  13.542  1.00  0.00     0.004 C 
ENDBRANCH  14  15
ENDBRANCH  13  14
ENDBRANCH  12  13
ENDBRANCH  11  12
ENDBRANCH  10  11
ENDBRANCH   1  10
TORSDOF 12
ENDMDL
MODEL 9
REMARK VINA RESULT:    -4.104      2.799      5.710
REMARK INTER + INTRA:          -7.922
REMARK INTER:                  -6.135
REMARK INTRA:                  -1.787
REMARK UNBOUND:                -0.939
REMARK SMILES CCCCCCCCCCCCCC(=O)[O-]
REMARK SMILES IDX 8 1 9 2 10 3 11 4 12 5 13 6 14 7 15 8 16 9 7 10 6 11 5 12
REMARK SMILES IDX 4 13 3 14 2 15 1 16
REMARK H PARENT
REMARK Flexibility Score: inf
ROOT
ATOM      1  C   UNL     1      23.692  -5.740  15.534  1.00  0.00     0.000 C 
ENDROOT
BRANCH   1   2
ATOM      2  C   UNL     1      24.670  -4.570  15.752  1.00  0.00     0.000 C 
BRANCH   2   3
ATOM      3  C   UNL     1      24.083  -3.458  16.637  1.00  0.00     0.000 C 
BRANCH   3   4
ATOM      4  C   UNL     1      22.546  -3.445  16.623  1.00  0.00     0.000 C 
BRANCH   4   5
ATOM      5  C   UNL     1      21.938  -3.455  18.036  1.00  0.00     0.006 C 
BRANCH   5   6
ATOM      6  C   UNL     1      22.727  -4.352  19.000  1.00  0.00     0.053 C 
BRANCH   6   7
ATOM      7  C   UNL     1      22.182  -4.282  20.394  1.00  0.00     0.041 C 
ATOM      8  O   UNL     1      22.796  -4.838  21.342  1.00  0.00    -0.550 OA
ATOM      9  O   UNL     1      21.014  -3.575  20.651  1.00  0.00    -0.550 OA
ENDBRANCH   6   7
ENDBRANCH   5   6
ENDBRANCH   4   5
ENDBRANCH   3   4
ENDBRANCH   2   3
ENDBRANCH   1   2
BRANCH   1  10
ATOM     10  C   UNL     1      24.314  -7.144  15.664  1.00  0.00     0.000 C 
BRANCH  10  11
ATOM     11  C   UNL     1      25.384  -7.287  16.763  1.00  0.00    -0.000 C 
BRANCH  11  12
ATOM     12  C   UNL     1      24.807  -7.349  18.193  1.00  0.00    -0.000 C 
BRANCH  12  13
ATOM     13  C   UNL     1      25.692  -6.621  19.219  1.00  0.00    -0.000 C 
BRANCH  13  14
ATOM     14  C   UNL     1      26.713  -5.676  18.562  1.00  0.00    -0.000 C 
BRANCH  14  15
ATOM     15  C   UNL     1      27.184  -4.538  19.492  1.00  0.00    -0.003 C 
ATOM     16  C   UNL     1      26.217  -3.355  19.498  1.00  0.00     0.004 C 
ENDBRANCH  14  15
ENDBRANCH  13  14
ENDBRANCH  12  13
ENDBRANCH  11  12
ENDBRANCH  10  11
ENDBRANCH   1  10
TORSDOF 12
ENDMDL
