MODEL 1
REMARK VINA RESULT:    -4.367      0.000      0.000
REMARK INTER + INTRA:          -4.759
REMARK INTER:                  -4.750
REMARK INTRA:                  -0.009
REMARK UNBOUND:                -0.009
REMARK SMILES OCc1ccccc1
REMARK SMILES IDX 2 1 3 2 6 3 5 4 7 5 4 6 8 7 1 8
REMARK H PARENT 1 9
REMARK Flexibility Score: inf
ROOT
ATOM      1  C   UNL     1      17.271 -25.189  24.526  1.00  0.00     0.191 C 
ENDROOT
BRANCH   1   2
ATOM      2  C   UNL     1      15.969 -24.910  25.222  1.00  0.00    -0.023 A 
ATOM      3  C   UNL     1      13.571 -24.405  26.591  1.00  0.00     0.000 A 
ATOM      4  C   UNL     1      14.464 -23.359  26.334  1.00  0.00     0.000 A 
ATOM      5  C   UNL     1      13.879 -25.703  26.175  1.00  0.00     0.000 A 
ATOM      6  C   UNL     1      15.661 -23.610  25.656  1.00  0.00     0.006 A 
ATOM      7  C   UNL     1      15.076 -25.958  25.497  1.00  0.00     0.006 A 
ENDBRANCH   1   2
BRANCH   1   8
ATOM      8  O   UNL     1      17.099 -25.119  23.137  1.00  0.00    -0.392 OA
ATOM      9  H   UNL     1      16.850 -26.031  22.835  1.00  0.00     0.211 HD
ENDBRANCH   1   8
TORSDOF 2
ENDMDL
MODEL 2
REMARK VINA RESULT:    -4.149     12.808     14.437
REMARK INTER + INTRA:          -4.522
REMARK INTER:                  -4.504
REMARK INTRA:                  -0.018
REMARK UNBOUND:                -0.009
REMARK SMILES OCc1ccccc1
REMARK SMILES IDX 2 1 3 2 6 3 5 4 7 5 4 6 8 7 1 8
REMARK H PARENT 1 9
REMARK Flexibility Score: inf
ROOT
ATOM      1  C   UNL     1      20.366 -20.564  15.108  1.00  0.00     0.191 C 
ENDROOT
BRANCH   1   2
ATOM      2  C   UNL     1      20.468 -20.678  13.613  1.00  0.00    -0.023 A 
ATOM      3  C   UNL     1      20.728 -20.857  10.824  1.00  0.00     0.000 A 
ATOM      4  C   UNL     1      21.154 -21.913  11.636  1.00  0.00     0.000 A 
ATOM      5  C   UNL     1      20.183 -19.708  11.404  1.00  0.00     0.000 A 
ATOM      6  C   UNL     1      21.030 -21.824  13.026  1.00  0.00     0.006 A 
ATOM      7  C   UNL     1      20.057 -19.615  12.794  1.00  0.00     0.006 A 
ENDBRANCH   1   2
BRANCH   1   8
ATOM      8  O   UNL     1      21.380 -21.316  15.718  1.00  0.00    -0.392 OA
ATOM      9  H   UNL     1      21.993 -21.607  14.993  1.00  0.00     0.211 HD
ENDBRANCH   1   8
TORSDOF 2
ENDMDL
MODEL 3
REMARK VINA RESULT:    -4.042      9.231      9.859
REMARK INTER + INTRA:          -4.406
REMARK INTER:                  -4.386
REMARK INTRA:                  -0.020
REMARK UNBOUND:                -0.009
REMARK SMILES OCc1ccccc1
REMARK SMILES IDX 2 1 3 2 6 3 5 4 7 5 4 6 8 7 1 8
REMARK H PARENT 1 9
REMARK Flexibility Score: inf
ROOT
ATOM      1  C   UNL     1      13.258 -17.873  18.886  1.00  0.00     0.191 C 
ENDROOT
BRANCH   1   2
ATOM      2  C   UNL     1      11.878 -17.809  19.479  1.00  0.00    -0.023 A 
ATOM      3  C   UNL     1       9.300 -17.767  20.588  1.00  0.00     0.000 A 
ATOM      4  C   UNL     1      10.421 -17.756  21.424  1.00  0.00     0.000 A 
ATOM      5  C   UNL     1       9.464 -17.810  19.201  1.00  0.00     0.000 A 
ATOM      6  C   UNL     1      11.707 -17.782  20.874  1.00  0.00     0.006 A 
ATOM      7  C   UNL     1      10.748 -17.836  18.647  1.00  0.00     0.006 A 
ENDBRANCH   1   2
BRANCH   1   8
ATOM      8  O   UNL     1      14.220 -17.869  19.905  1.00  0.00    -0.392 OA
ATOM      9  H   UNL     1      14.811 -17.089  19.734  1.00  0.00     0.211 HD
ENDBRANCH   1   8
TORSDOF 2
ENDMDL
MODEL 4
REMARK VINA RESULT:    -4.027      9.147      9.811
REMARK INTER + INTRA:          -4.389
REMARK INTER:                  -4.369
REMARK INTRA:                  -0.020
REMARK UNBOUND:                -0.009
REMARK SMILES OCc1ccccc1
REMARK SMILES IDX 2 1 3 2 6 3 5 4 7 5 4 6 8 7 1 8
REMARK H PARENT 1 9
REMARK Flexibility Score: inf
ROOT
ATOM      1  C   UNL     1      13.277 -17.881  18.915  1.00  0.00     0.191 C 
ENDROOT
BRANCH   1   2
ATOM      2  C   UNL     1      11.919 -17.850  19.559  1.00  0.00    -0.023 A 
ATOM      3  C   UNL     1       9.387 -17.714  20.761  1.00  0.00     0.000 A 
ATOM      4  C   UNL     1       9.498 -17.767  19.368  1.00  0.00     0.000 A 
ATOM      5  C   UNL     1      10.538 -17.718  21.553  1.00  0.00     0.000 A 
ATOM      6  C   UNL     1      10.759 -17.830  18.767  1.00  0.00     0.006 A 
ATOM      7  C   UNL     1      11.801 -17.780  20.956  1.00  0.00     0.006 A 
ENDBRANCH   1   2
BRANCH   1   8
ATOM      8  O   UNL     1      14.276 -17.888  19.898  1.00  0.00    -0.392 OA
ATOM      9  H   UNL     1      15.125 -18.123  19.439  1.00  0.00     0.211 HD
ENDBRANCH   1   8
TORSDOF 2
ENDMDL
MODEL 5
REMARK VINA RESULT:    -3.928      9.142      9.746
REMARK INTER + INTRA:          -4.281
REMARK INTER:                  -4.262
REMARK INTRA:                  -0.020
REMARK UNBOUND:                -0.009
REMARK SMILES OCc1ccccc1
REMARK SMILES IDX 2 1 3 2 6 3 5 4 7 5 4 6 8 7 1 8
REMARK H PARENT 1 9
REMARK Flexibility Score: inf
ROOT
ATOM      1  C   UNL     1      13.464 -18.483  19.944  1.00  0.00     0.191 C 
ENDROOT
BRANCH   1   2
ATOM      2  C   UNL     1      11.996 -18.608  19.643  1.00  0.00    -0.023 A 
ATOM      3  C   UNL     1       9.274 -18.884  19.017  1.00  0.00     0.000 A 
ATOM      4  C   UNL     1       9.892 -19.802  19.871  1.00  0.00     0.000 A 
ATOM      5  C   UNL     1      10.016 -17.835  18.466  1.00  0.00     0.000 A 
ATOM      6  C   UNL     1      11.250 -19.669  20.181  1.00  0.00     0.006 A 
ATOM      7  C   UNL     1      11.374 -17.698  18.773  1.00  0.00     0.006 A 
ENDBRANCH   1   2
BRANCH   1   8
ATOM      8  O   UNL     1      14.060 -17.569  19.066  1.00  0.00    -0.392 OA
ATOM      9  H   UNL     1      14.389 -18.093  18.290  1.00  0.00     0.211 HD
ENDBRANCH   1   8
TORSDOF 2
ENDMDL
MODEL 6
REMARK VINA RESULT:    -3.893      9.347      9.860
REMARK INTER + INTRA:          -4.243
REMARK INTER:                  -4.233
REMARK INTRA:                  -0.011
REMARK UNBOUND:                -0.009
REMARK SMILES OCc1ccccc1
REMARK SMILES IDX 2 1 3 2 6 3 5 4 7 5 4 6 8 7 1 8
REMARK H PARENT 1 9
REMARK Flexibility Score: inf
ROOT
ATOM      1  C   UNL     1       9.886 -19.298  17.024  1.00  0.00     0.191 C 
ENDROOT
BRANCH   1   2
ATOM      2  C   UNL     1      10.367 -19.154  18.441  1.00  0.00    -0.023 A 
ATOM      3  C   UNL     1      11.337 -18.908  21.063  1.00  0.00     0.000 A 
ATOM      4  C   UNL     1      11.368 -17.808  20.200  1.00  0.00     0.000 A 
ATOM      5  C   UNL     1      10.834 -20.132  20.615  1.00  0.00     0.000 A 
ATOM      6  C   UNL     1      10.889 -17.930  18.891  1.00  0.00     0.006 A 
ATOM      7  C   UNL     1      10.354 -20.258  19.307  1.00  0.00     0.006 A 
ENDBRANCH   1   2
BRANCH   1   8
ATOM      8  O   UNL     1      10.839 -19.984  16.260  1.00  0.00    -0.392 OA
ATOM      9  H   UNL     1      10.364 -20.739  15.824  1.00  0.00     0.211 HD
ENDBRANCH   1   8
TORSDOF 2
ENDMDL
MODEL 7
REMARK VINA RESULT:    -3.836     10.455     11.309
REMARK INTER + INTRA:          -4.181
REMARK INTER:                  -4.168
REMARK INTRA:                  -0.013
REMARK UNBOUND:                -0.009
REMARK SMILES OCc1ccccc1
REMARK SMILES IDX 2 1 3 2 6 3 5 4 7 5 4 6 8 7 1 8
REMARK H PARENT 1 9
REMARK Flexibility Score: inf
ROOT
ATOM      1  C   UNL     1       7.204 -17.926  18.896  1.00  0.00     0.191 C 
ENDROOT
BRANCH   1   2
ATOM      2  C   UNL     1       8.643 -17.861  19.328  1.00  0.00    -0.023 A 
ATOM      3  C   UNL     1      11.329 -17.817  20.139  1.00  0.00     0.000 A 
ATOM      4  C   UNL     1      11.010 -17.848  18.778  1.00  0.00     0.000 A 
ATOM      5  C   UNL     1      10.310 -17.819  21.095  1.00  0.00     0.000 A 
ATOM      6  C   UNL     1       9.672 -17.874  18.372  1.00  0.00     0.006 A 
ATOM      7  C   UNL     1       8.970 -17.846  20.693  1.00  0.00     0.006 A 
ENDBRANCH   1   2
BRANCH   1   8
ATOM      8  O   UNL     1       6.576 -19.033  19.482  1.00  0.00    -0.392 OA
ATOM      9  H   UNL     1       5.759 -19.212  18.947  1.00  0.00     0.211 HD
ENDBRANCH   1   8
TORSDOF 2
ENDMDL
MODEL 8
REMARK VINA RESULT:    -3.770      9.787     10.525
REMARK INTER + INTRA:          -4.110
REMARK INTER:                  -4.099
REMARK INTRA:                  -0.011
REMARK UNBOUND:                -0.009
REMARK SMILES OCc1ccccc1
REMARK SMILES IDX 2 1 3 2 6 3 5 4 7 5 4 6 8 7 1 8
REMARK H PARENT 1 9
REMARK Flexibility Score: inf
ROOT
ATOM      1  C   UNL     1      11.982 -17.935  21.365  1.00  0.00     0.191 C 
ENDROOT
BRANCH   1   2
ATOM      2  C   UNL     1      10.839 -17.854  20.392  1.00  0.00    -0.023 A 
ATOM      3  C   UNL     1       8.702 -17.782  18.574  1.00  0.00     0.000 A 
ATOM      4  C   UNL     1       8.450 -17.796  19.950  1.00  0.00     0.000 A 
ATOM      5  C   UNL     1      10.018 -17.815  18.106  1.00  0.00     0.000 A 
ATOM      6  C   UNL     1       9.513 -17.837  20.857  1.00  0.00     0.006 A 
ATOM      7  C   UNL     1      11.084 -17.856  19.010  1.00  0.00     0.006 A 
ENDBRANCH   1   2
BRANCH   1   8
ATOM      8  O   UNL     1      12.057 -16.756  22.118  1.00  0.00    -0.392 OA
ATOM      9  H   UNL     1      11.143 -16.580  22.463  1.00  0.00     0.211 HD
ENDBRANCH   1   8
TORSDOF 2
ENDMDL
MODEL 9
REMARK VINA RESULT:    -3.732     14.137     15.280
REMARK INTER + INTRA:          -4.069
REMARK INTER:                  -4.058
REMARK INTRA:                  -0.011
REMARK UNBOUND:                -0.009
REMARK SMILES OCc1ccccc1
REMARK SMILES IDX 2 1 3 2 6 3 5 4 7 5 4 6 8 7 1 8
REMARK H PARENT 1 9
REMARK Flexibility Score: inf
ROOT
ATOM      1  C   UNL     1      18.401  -9.813  25.372  1.00  0.00     0.191 C 
ENDROOT
BRANCH   1   2
ATOM      2  C   UNL     1      19.784 -10.397  25.304  1.00  0.00    -0.023 A 
ATOM      3  C   UNL     1      22.350 -11.515  25.104  1.00  0.00     0.000 A 
ATOM      4  C   UNL     1      22.130 -10.194  24.701  1.00  0.00     0.000 A 
ATOM      5  C   UNL     1      21.290 -12.281  25.595  1.00  0.00     0.000 A 
ATOM      6  C   UNL     1      20.850  -9.637  24.796  1.00  0.00     0.006 A 
ATOM      7  C   UNL     1      20.009 -11.728  25.691  1.00  0.00     0.006 A 
ENDBRANCH   1   2
BRANCH   1   8
ATOM      8  O   UNL     1      17.858  -9.711  24.084  1.00  0.00    -0.392 OA
ATOM      9  H   UNL     1      18.378 -10.327  23.506  1.00  0.00     0.211 HD
ENDBRANCH   1   8
TORSDOF 2
ENDMDL
