MODEL 1
REMARK VINA RESULT:    -3.386      0.000      0.000
REMARK INTER + INTRA:          -4.722
REMARK INTER:                  -4.376
REMARK INTRA:                  -0.346
REMARK UNBOUND:                -0.346
REMARK SMILES CCO[C@H]1O[C@@H](CO)[C@@H](O)[C@H](O)[C@H]1O
REMARK SMILES IDX 4 1 13 2 11 3 9 4 6 5 5 6 3 7 2 8 1 9 14 10 12 12 7 14 8 15
REMARK SMILES IDX 10 17
REMARK H PARENT 14 11 12 13 8 16 10 18
REMARK Flexibility Score: inf
ROOT
ATOM      1  C   UNL     1      18.809  -7.810   5.204  1.00  0.00     0.281 C 
ATOM      2  C   UNL     1      18.923  -7.149   6.588  1.00  0.00     0.202 C 
ATOM      3  C   UNL     1      17.725  -7.539   7.466  1.00  0.00     0.179 C 
ATOM      4  C   UNL     1      16.419  -7.215   6.724  1.00  0.00     0.177 C 
ATOM      5  C   UNL     1      16.416  -7.835   5.304  1.00  0.00     0.178 C 
ATOM      6  O   UNL     1      17.580  -7.496   4.555  1.00  0.00    -0.341 OA
ENDROOT
BRANCH   1   7
ATOM      7  O   UNL     1      19.000  -9.211   5.309  1.00  0.00    -0.350 OA
BRANCH   7   8
ATOM      8  C   UNL     1      19.739  -9.712   4.209  1.00  0.00     0.160 C 
ATOM      9  C   UNL     1      21.068  -8.977   4.088  1.00  0.00     0.035 C 
ENDBRANCH   7   8
ENDBRANCH   1   7
BRANCH   2  10
ATOM     10  O   UNL     1      20.124  -7.549   7.197  1.00  0.00    -0.385 OA
ATOM     11  H   UNL     1      20.671  -7.990   6.495  1.00  0.00     0.211 HD
ENDBRANCH   2  10
BRANCH   3  12
ATOM     12  O   UNL     1      17.776  -6.875   8.706  1.00  0.00    -0.387 OA
ATOM     13  H   UNL     1      16.864  -6.538   8.908  1.00  0.00     0.211 HD
ENDBRANCH   3  12
BRANCH   5  14
ATOM     14  C   UNL     1      16.118  -9.354   5.265  1.00  0.00     0.191 C 
BRANCH  14  15
ATOM     15  O   UNL     1      16.400  -9.952   6.502  1.00  0.00    -0.394 OA
ATOM     16  H   UNL     1      16.108 -10.897   6.437  1.00  0.00     0.210 HD
ENDBRANCH  14  15
ENDBRANCH   5  14
BRANCH   4  17
ATOM     17  O   UNL     1      15.312  -7.672   7.459  1.00  0.00    -0.387 OA
ATOM     18  H   UNL     1      15.651  -8.349   8.102  1.00  0.00     0.211 HD
ENDBRANCH   4  17
TORSDOF 7
ENDMDL
MODEL 2
REMARK VINA RESULT:    -3.225      1.392      3.786
REMARK INTER + INTRA:          -4.514
REMARK INTER:                  -4.046
REMARK INTRA:                  -0.467
REMARK UNBOUND:                -0.346
REMARK SMILES CCO[C@H]1O[C@@H](CO)[C@@H](O)[C@H](O)[C@H]1O
REMARK SMILES IDX 4 1 13 2 11 3 9 4 6 5 5 6 3 7 2 8 1 9 14 10 12 12 7 14 8 15
REMARK SMILES IDX 10 17
REMARK H PARENT 14 11 12 13 8 16 10 18
REMARK Flexibility Score: inf
ROOT
ATOM      1  C   UNL     1      16.565  -8.067   5.610  1.00  0.00     0.281 C 
ATOM      2  C   UNL     1      16.815  -7.808   7.106  1.00  0.00     0.202 C 
ATOM      3  C   UNL     1      18.296  -7.484   7.351  1.00  0.00     0.179 C 
ATOM      4  C   UNL     1      19.170  -8.599   6.755  1.00  0.00     0.177 C 
ATOM      5  C   UNL     1      18.798  -8.867   5.275  1.00  0.00     0.178 C 
ATOM      6  O   UNL     1      17.403  -9.096   5.093  1.00  0.00    -0.341 OA
ENDROOT
BRANCH   1   7
ATOM      7  O   UNL     1      16.701  -6.863   4.873  1.00  0.00    -0.350 OA
BRANCH   7   8
ATOM      8  C   UNL     1      15.700  -6.757   3.876  1.00  0.00     0.160 C 
ATOM      9  C   UNL     1      14.448  -7.512   4.304  1.00  0.00     0.035 C 
ENDBRANCH   7   8
ENDBRANCH   1   7
BRANCH   2  10
ATOM     10  O   UNL     1      16.006  -6.743   7.536  1.00  0.00    -0.385 OA
ATOM     11  H   UNL     1      15.473  -6.451   6.751  1.00  0.00     0.211 HD
ENDBRANCH   2  10
BRANCH   3  12
ATOM     12  O   UNL     1      18.553  -7.327   8.726  1.00  0.00    -0.387 OA
ATOM     13  H   UNL     1      18.108  -6.492   9.025  1.00  0.00     0.211 HD
ENDBRANCH   3  12
BRANCH   5  14
ATOM     14  C   UNL     1      19.354  -7.827   4.272  1.00  0.00     0.191 C 
BRANCH  14  15
ATOM     15  O   UNL     1      20.728  -8.020   4.061  1.00  0.00    -0.394 OA
ATOM     16  H   UNL     1      20.827  -8.419   3.158  1.00  0.00     0.210 HD
ENDBRANCH  14  15
ENDBRANCH   5  14
BRANCH   4  17
ATOM     17  O   UNL     1      20.531  -8.265   6.863  1.00  0.00    -0.387 OA
ATOM     18  H   UNL     1      21.046  -9.103   6.736  1.00  0.00     0.211 HD
ENDBRANCH   4  17
TORSDOF 7
ENDMDL
MODEL 3
REMARK VINA RESULT:    -2.986      1.843      3.126
REMARK INTER + INTRA:          -4.204
REMARK INTER:                  -3.714
REMARK INTRA:                  -0.490
REMARK UNBOUND:                -0.346
REMARK SMILES CCO[C@H]1O[C@@H](CO)[C@@H](O)[C@H](O)[C@H]1O
REMARK SMILES IDX 4 1 13 2 11 3 9 4 6 5 5 6 3 7 2 8 1 9 14 10 12 12 7 14 8 15
REMARK SMILES IDX 10 17
REMARK H PARENT 14 11 12 13 8 16 10 18
REMARK Flexibility Score: inf
ROOT
ATOM      1  C   UNL     1      17.468  -7.470   5.814  1.00  0.00     0.281 C 
ATOM      2  C   UNL     1      16.055  -7.151   6.331  1.00  0.00     0.202 C 
ATOM      3  C   UNL     1      15.063  -8.231   5.874  1.00  0.00     0.179 C 
ATOM      4  C   UNL     1      15.149  -8.393   4.348  1.00  0.00     0.177 C 
ATOM      5  C   UNL     1      16.613  -8.618   3.894  1.00  0.00     0.178 C 
ATOM      6  O   UNL     1      17.503  -7.626   4.398  1.00  0.00    -0.341 OA
ENDROOT
BRANCH   1   7
ATOM      7  O   UNL     1      17.990  -8.609   6.478  1.00  0.00    -0.350 OA
BRANCH   7   8
ATOM      8  C   UNL     1      19.330  -8.398   6.883  1.00  0.00     0.160 C 
ATOM      9  C   UNL     1      19.391  -8.131   8.382  1.00  0.00     0.035 C 
ENDBRANCH   7   8
ENDBRANCH   1   7
BRANCH   2  10
ATOM     10  O   UNL     1      16.079  -7.074   7.733  1.00  0.00    -0.385 OA
ATOM     11  H   UNL     1      16.464  -6.188   7.967  1.00  0.00     0.211 HD
ENDBRANCH   2  10
BRANCH   3  12
ATOM     12  O   UNL     1      13.753  -7.907   6.271  1.00  0.00    -0.387 OA
ATOM     13  H   UNL     1      13.562  -6.982   5.963  1.00  0.00     0.211 HD
ENDBRANCH   3  12
BRANCH   5  14
ATOM     14  C   UNL     1      17.147 -10.053   4.125  1.00  0.00     0.191 C 
BRANCH  14  15
ATOM     15  O   UNL     1      18.526 -10.120   3.876  1.00  0.00    -0.394 OA
ATOM     16  H   UNL     1      18.714  -9.495   3.129  1.00  0.00     0.210 HD
ENDBRANCH  14  15
ENDBRANCH   5  14
BRANCH   4  17
ATOM     17  O   UNL     1      14.337  -9.458   3.923  1.00  0.00    -0.387 OA
ATOM     18  H   UNL     1      13.470  -9.369   4.399  1.00  0.00     0.211 HD
ENDBRANCH   4  17
TORSDOF 7
ENDMDL
MODEL 4
REMARK VINA RESULT:    -2.921      1.288      2.926
REMARK INTER + INTRA:          -4.120
REMARK INTER:                  -3.730
REMARK INTRA:                  -0.390
REMARK UNBOUND:                -0.346
REMARK SMILES CCO[C@H]1O[C@@H](CO)[C@@H](O)[C@H](O)[C@H]1O
REMARK SMILES IDX 4 1 13 2 11 3 9 4 6 5 5 6 3 7 2 8 1 9 14 10 12 12 7 14 8 15
REMARK SMILES IDX 10 17
REMARK H PARENT 14 11 12 13 8 16 10 18
REMARK Flexibility Score: inf
ROOT
ATOM      1  C   UNL     1      17.399  -8.391   4.794  1.00  0.00     0.281 C 
ATOM      2  C   UNL     1      18.814  -8.514   5.384  1.00  0.00     0.202 C 
ATOM      3  C   UNL     1      18.768  -8.387   6.914  1.00  0.00     0.179 C 
ATOM      4  C   UNL     1      18.041  -7.088   7.298  1.00  0.00     0.177 C 
ATOM      5  C   UNL     1      16.664  -6.991   6.594  1.00  0.00     0.178 C 
ATOM      6  O   UNL     1      16.754  -7.181   5.184  1.00  0.00    -0.341 OA
ENDROOT
BRANCH   1   7
ATOM      7  O   UNL     1      16.623  -9.528   5.133  1.00  0.00    -0.350 OA
BRANCH   7   8
ATOM      8  C   UNL     1      16.055 -10.124   3.980  1.00  0.00     0.160 C 
ATOM      9  C   UNL     1      14.578  -9.766   3.875  1.00  0.00     0.035 C 
ENDBRANCH   7   8
ENDBRANCH   1   7
BRANCH   2  10
ATOM     10  O   UNL     1      19.366  -9.752   5.015  1.00  0.00    -0.385 OA
ATOM     11  H   UNL     1      19.735  -9.642   4.100  1.00  0.00     0.211 HD
ENDBRANCH   2  10
BRANCH   3  12
ATOM     12  O   UNL     1      20.065  -8.415   7.458  1.00  0.00    -0.387 OA
ATOM     13  H   UNL     1      20.445  -9.317   7.291  1.00  0.00     0.211 HD
ENDBRANCH   3  12
BRANCH   5  14
ATOM     14  C   UNL     1      15.552  -7.859   7.230  1.00  0.00     0.191 C 
BRANCH  14  15
ATOM     15  O   UNL     1      14.379  -7.811   6.462  1.00  0.00    -0.394 OA
ATOM     16  H   UNL     1      14.659  -7.770   5.511  1.00  0.00     0.210 HD
ENDBRANCH  14  15
ENDBRANCH   5  14
BRANCH   4  17
ATOM     17  O   UNL     1      17.883  -7.010   8.692  1.00  0.00    -0.387 OA
ATOM     18  H   UNL     1      18.478  -6.282   9.011  1.00  0.00     0.211 HD
ENDBRANCH   4  17
TORSDOF 7
ENDMDL
MODEL 5
REMARK VINA RESULT:    -2.808      8.608     11.071
REMARK INTER + INTRA:          -3.974
REMARK INTER:                  -3.519
REMARK INTRA:                  -0.455
REMARK UNBOUND:                -0.346
REMARK SMILES CCO[C@H]1O[C@@H](CO)[C@@H](O)[C@H](O)[C@H]1O
REMARK SMILES IDX 4 1 13 2 11 3 9 4 6 5 5 6 3 7 2 8 1 9 14 10 12 12 7 14 8 15
REMARK SMILES IDX 10 17
REMARK H PARENT 14 11 12 13 8 16 10 18
REMARK Flexibility Score: inf
ROOT
ATOM      1  C   UNL     1       6.650  -9.190   4.893  1.00  0.00     0.281 C 
ATOM      2  C   UNL     1       7.263  -9.941   6.086  1.00  0.00     0.202 C 
ATOM      3  C   UNL     1       8.454  -9.156   6.656  1.00  0.00     0.179 C 
ATOM      4  C   UNL     1       9.454  -8.851   5.529  1.00  0.00     0.177 C 
ATOM      5  C   UNL     1       8.746  -8.181   4.324  1.00  0.00     0.178 C 
ATOM      6  O   UNL     1       7.610  -8.914   3.876  1.00  0.00    -0.341 OA
ENDROOT
BRANCH   1   7
ATOM      7  O   UNL     1       6.003  -8.008   5.334  1.00  0.00    -0.350 OA
BRANCH   7   8
ATOM      8  C   UNL     1       4.798  -7.786   4.624  1.00  0.00     0.160 C 
ATOM      9  C   UNL     1       4.621  -6.300   4.339  1.00  0.00     0.035 C 
ENDBRANCH   7   8
ENDBRANCH   1   7
BRANCH   2  10
ATOM     10  O   UNL     1       6.283 -10.124   7.075  1.00  0.00    -0.385 OA
ATOM     11  H   UNL     1       6.752 -10.439   7.892  1.00  0.00     0.211 HD
ENDBRANCH   2  10
BRANCH   3  12
ATOM     12  O   UNL     1       9.075  -9.873   7.696  1.00  0.00    -0.387 OA
ATOM     13  H   UNL     1       8.570 -10.718   7.826  1.00  0.00     0.211 HD
ENDBRANCH   3  12
BRANCH   5  14
ATOM     14  C   UNL     1       8.431  -6.677   4.517  1.00  0.00     0.191 C 
BRANCH  14  15
ATOM     15  O   UNL     1       9.596  -5.904   4.410  1.00  0.00    -0.394 OA
ATOM     16  H   UNL     1       9.590  -5.499   3.504  1.00  0.00     0.210 HD
ENDBRANCH  14  15
ENDBRANCH   5  14
BRANCH   4  17
ATOM     17  O   UNL     1      10.492  -8.032   6.004  1.00  0.00    -0.387 OA
ATOM     18  H   UNL     1      11.344  -8.507   5.817  1.00  0.00     0.211 HD
ENDBRANCH   4  17
TORSDOF 7
ENDMDL
