MODEL 1
REMARK VINA RESULT:    -5.005      0.000      0.000
REMARK INTER + INTRA:          -5.516
REMARK INTER:                  -5.444
REMARK INTRA:                  -0.072
REMARK UNBOUND:                -0.072
REMARK SMILES CCc1cccc(O)c1
REMARK SMILES IDX 3 1 9 2 7 3 6 4 5 5 4 6 2 7 1 8 8 9
REMARK H PARENT 8 10
REMARK Flexibility Score: inf
ROOT
ATOM      1  C   UNL     1     -30.183 -10.406   3.449  1.00  0.00    -0.045 A 
ATOM      2  C   UNL     1     -29.042 -10.802   4.167  1.00  0.00     0.049 A 
ATOM      3  C   UNL     1     -27.868 -11.156   3.490  1.00  0.00     0.115 A 
ATOM      4  C   UNL     1     -27.835 -11.122   2.089  1.00  0.00     0.046 A 
ATOM      5  C   UNL     1     -28.972 -10.741   1.370  1.00  0.00     0.004 A 
ATOM      6  C   UNL     1     -30.144 -10.389   2.046  1.00  0.00     0.004 A 
ENDROOT
BRANCH   1   7
ATOM      7  C   UNL     1     -31.454 -10.058   4.177  1.00  0.00     0.032 C 
ATOM      8  C   UNL     1     -32.297  -9.085   3.358  1.00  0.00     0.009 C 
ENDBRANCH   1   7
BRANCH   3   9
ATOM      9  O   UNL     1     -26.745 -11.540   4.217  1.00  0.00    -0.508 OA
ATOM     10  H   UNL     1     -26.632 -11.286   5.191  1.00  0.00     0.293 HD
ENDBRANCH   3   9
TORSDOF 2
ENDMDL
MODEL 2
REMARK VINA RESULT:    -4.915      2.188      2.979
REMARK INTER + INTRA:          -5.417
REMARK INTER:                  -5.344
REMARK INTRA:                  -0.073
REMARK UNBOUND:                -0.072
REMARK SMILES CCc1cccc(O)c1
REMARK SMILES IDX 3 1 9 2 7 3 6 4 5 5 4 6 2 7 1 8 8 9
REMARK H PARENT 8 10
REMARK Flexibility Score: inf
ROOT
ATOM      1  C   UNL     1     -29.587 -10.282   4.328  1.00  0.00    -0.045 A 
ATOM      2  C   UNL     1     -30.332  -9.958   3.181  1.00  0.00     0.049 A 
ATOM      3  C   UNL     1     -29.814 -10.211   1.906  1.00  0.00     0.115 A 
ATOM      4  C   UNL     1     -28.541 -10.783   1.772  1.00  0.00     0.046 A 
ATOM      5  C   UNL     1     -27.789 -11.094   2.909  1.00  0.00     0.004 A 
ATOM      6  C   UNL     1     -28.307 -10.841   4.183  1.00  0.00     0.004 A 
ENDROOT
BRANCH   1   7
ATOM      7  C   UNL     1     -30.131  -9.979   5.698  1.00  0.00     0.032 C 
ATOM      8  C   UNL     1     -29.000  -9.678   6.675  1.00  0.00     0.009 C 
ENDBRANCH   1   7
BRANCH   3   9
ATOM      9  O   UNL     1     -30.569  -9.890   0.781  1.00  0.00    -0.508 OA
ATOM     10  H   UNL     1     -31.348 -10.465   0.484  1.00  0.00     0.293 HD
ENDBRANCH   3   9
TORSDOF 2
ENDMDL
MODEL 3
REMARK VINA RESULT:    -4.643      1.554      2.274
REMARK INTER + INTRA:          -5.122
REMARK INTER:                  -5.073
REMARK INTRA:                  -0.048
REMARK UNBOUND:                -0.072
REMARK SMILES CCc1cccc(O)c1
REMARK SMILES IDX 3 1 9 2 7 3 6 4 5 5 4 6 2 7 1 8 8 9
REMARK H PARENT 8 10
REMARK Flexibility Score: inf
ROOT
ATOM      1  C   UNL     1     -29.874 -10.133   2.016  1.00  0.00    -0.045 A 
ATOM      2  C   UNL     1     -30.152  -9.856   3.365  1.00  0.00     0.049 A 
ATOM      3  C   UNL     1     -29.253 -10.243   4.366  1.00  0.00     0.115 A 
ATOM      4  C   UNL     1     -28.074 -10.918   4.021  1.00  0.00     0.046 A 
ATOM      5  C   UNL     1     -27.799 -11.209   2.682  1.00  0.00     0.004 A 
ATOM      6  C   UNL     1     -28.697 -10.823   1.682  1.00  0.00     0.004 A 
ENDROOT
BRANCH   1   7
ATOM      7  C   UNL     1     -30.856  -9.746   0.943  1.00  0.00     0.032 C 
ATOM      8  C   UNL     1     -31.591  -8.464   1.320  1.00  0.00     0.009 C 
ENDBRANCH   1   7
BRANCH   3   9
ATOM      9  O   UNL     1     -29.542  -9.955   5.698  1.00  0.00    -0.508 OA
ATOM     10  H   UNL     1     -28.883  -9.460   6.287  1.00  0.00     0.293 HD
ENDBRANCH   3   9
TORSDOF 2
ENDMDL
MODEL 4
REMARK VINA RESULT:    -4.609      2.374      4.055
REMARK INTER + INTRA:          -5.085
REMARK INTER:                  -5.027
REMARK INTRA:                  -0.057
REMARK UNBOUND:                -0.072
REMARK SMILES CCc1cccc(O)c1
REMARK SMILES IDX 3 1 9 2 7 3 6 4 5 5 4 6 2 7 1 8 8 9
REMARK H PARENT 8 10
REMARK Flexibility Score: inf
ROOT
ATOM      1  C   UNL     1     -29.470 -10.658   2.602  1.00  0.00    -0.045 A 
ATOM      2  C   UNL     1     -30.171  -9.458   2.395  1.00  0.00     0.049 A 
ATOM      3  C   UNL     1     -31.252  -9.120   3.218  1.00  0.00     0.115 A 
ATOM      4  C   UNL     1     -31.644  -9.988   4.246  1.00  0.00     0.046 A 
ATOM      5  C   UNL     1     -30.959 -11.190   4.447  1.00  0.00     0.004 A 
ATOM      6  C   UNL     1     -29.879 -11.528   3.626  1.00  0.00     0.004 A 
ENDROOT
BRANCH   1   7
ATOM      7  C   UNL     1     -28.329 -11.036   1.697  1.00  0.00     0.032 C 
ATOM      8  C   UNL     1     -28.772 -12.075   0.671  1.00  0.00     0.009 C 
ENDBRANCH   1   7
BRANCH   3   9
ATOM      9  O   UNL     1     -31.931  -7.923   3.003  1.00  0.00    -0.508 OA
ATOM     10  H   UNL     1     -32.938  -7.861   3.099  1.00  0.00     0.293 HD
ENDBRANCH   3   9
TORSDOF 2
ENDMDL
MODEL 5
REMARK VINA RESULT:    -4.605      1.672      3.287
REMARK INTER + INTRA:          -5.081
REMARK INTER:                  -5.013
REMARK INTRA:                  -0.068
REMARK UNBOUND:                -0.072
REMARK SMILES CCc1cccc(O)c1
REMARK SMILES IDX 3 1 9 2 7 3 6 4 5 5 4 6 2 7 1 8 8 9
REMARK H PARENT 8 10
REMARK Flexibility Score: inf
ROOT
ATOM      1  C   UNL     1     -29.145 -10.530   2.662  1.00  0.00    -0.045 A 
ATOM      2  C   UNL     1     -28.946 -10.533   4.053  1.00  0.00     0.049 A 
ATOM      3  C   UNL     1     -29.772  -9.771   4.887  1.00  0.00     0.115 A 
ATOM      4  C   UNL     1     -30.798  -8.994   4.331  1.00  0.00     0.046 A 
ATOM      5  C   UNL     1     -30.991  -8.976   2.947  1.00  0.00     0.004 A 
ATOM      6  C   UNL     1     -30.166  -9.737   2.113  1.00  0.00     0.004 A 
ENDROOT
BRANCH   1   7
ATOM      7  C   UNL     1     -28.235 -11.323   1.763  1.00  0.00     0.032 C 
ATOM      8  C   UNL     1     -29.034 -12.029   0.672  1.00  0.00     0.009 C 
ENDBRANCH   1   7
BRANCH   3   9
ATOM      9  O   UNL     1     -29.565  -9.792   6.264  1.00  0.00    -0.508 OA
ATOM     10  H   UNL     1     -29.428 -10.661   6.766  1.00  0.00     0.293 HD
ENDBRANCH   3   9
TORSDOF 2
ENDMDL
MODEL 6
REMARK VINA RESULT:    -4.573      1.142      2.272
REMARK INTER + INTRA:          -5.045
REMARK INTER:                  -4.970
REMARK INTRA:                  -0.075
REMARK UNBOUND:                -0.072
REMARK SMILES CCc1cccc(O)c1
REMARK SMILES IDX 3 1 9 2 7 3 6 4 5 5 4 6 2 7 1 8 8 9
REMARK H PARENT 8 10
REMARK Flexibility Score: inf
ROOT
ATOM      1  C   UNL     1     -29.892 -10.122   2.381  1.00  0.00    -0.045 A 
ATOM      2  C   UNL     1     -28.628 -10.725   2.492  1.00  0.00     0.049 A 
ATOM      3  C   UNL     1     -28.067 -10.964   3.753  1.00  0.00     0.115 A 
ATOM      4  C   UNL     1     -28.767 -10.591   4.909  1.00  0.00     0.046 A 
ATOM      5  C   UNL     1     -30.019  -9.977   4.803  1.00  0.00     0.004 A 
ATOM      6  C   UNL     1     -30.579  -9.739   3.544  1.00  0.00     0.004 A 
ENDROOT
BRANCH   1   7
ATOM      7  C   UNL     1     -30.479  -9.836   1.025  1.00  0.00     0.032 C 
ATOM      8  C   UNL     1     -31.607  -8.814   1.129  1.00  0.00     0.009 C 
ENDBRANCH   1   7
BRANCH   3   9
ATOM      9  O   UNL     1     -26.816 -11.569   3.845  1.00  0.00    -0.508 OA
ATOM     10  H   UNL     1     -25.989 -11.039   4.092  1.00  0.00     0.293 HD
ENDBRANCH   3   9
TORSDOF 2
ENDMDL
MODEL 7
REMARK VINA RESULT:    -4.569      2.398      4.195
REMARK INTER + INTRA:          -5.042
REMARK INTER:                  -4.973
REMARK INTRA:                  -0.069
REMARK UNBOUND:                -0.072
REMARK SMILES CCc1cccc(O)c1
REMARK SMILES IDX 3 1 9 2 7 3 6 4 5 5 4 6 2 7 1 8 8 9
REMARK H PARENT 8 10
REMARK Flexibility Score: inf
ROOT
ATOM      1  C   UNL     1     -29.476 -10.554   2.874  1.00  0.00    -0.045 A 
ATOM      2  C   UNL     1     -30.147  -9.544   2.164  1.00  0.00     0.049 A 
ATOM      3  C   UNL     1     -31.398  -9.088   2.598  1.00  0.00     0.115 A 
ATOM      4  C   UNL     1     -31.988  -9.649   3.739  1.00  0.00     0.046 A 
ATOM      5  C   UNL     1     -31.330 -10.664   4.440  1.00  0.00     0.004 A 
ATOM      6  C   UNL     1     -30.081 -11.120   4.008  1.00  0.00     0.004 A 
ENDROOT
BRANCH   1   7
ATOM      7  C   UNL     1     -28.147 -11.067   2.388  1.00  0.00     0.032 C 
ATOM      8  C   UNL     1     -27.207 -11.329   3.561  1.00  0.00     0.009 C 
ENDBRANCH   1   7
BRANCH   3   9
ATOM      9  O   UNL     1     -32.047  -8.081   1.886  1.00  0.00    -0.508 OA
ATOM     10  H   UNL     1     -32.505  -8.268   1.002  1.00  0.00     0.293 HD
ENDBRANCH   3   9
TORSDOF 2
ENDMDL
MODEL 8
REMARK VINA RESULT:    -4.478      1.790      2.538
REMARK INTER + INTRA:          -4.943
REMARK INTER:                  -4.892
REMARK INTRA:                  -0.051
REMARK UNBOUND:                -0.072
REMARK SMILES CCc1cccc(O)c1
REMARK SMILES IDX 3 1 9 2 7 3 6 4 5 5 4 6 2 7 1 8 8 9
REMARK H PARENT 8 10
REMARK Flexibility Score: inf
ROOT
ATOM      1  C   UNL     1     -30.304 -10.305   3.929  1.00  0.00    -0.045 A 
ATOM      2  C   UNL     1     -29.514 -11.182   3.165  1.00  0.00     0.049 A 
ATOM      3  C   UNL     1     -29.442 -11.038   1.774  1.00  0.00     0.115 A 
ATOM      4  C   UNL     1     -30.169 -10.020   1.140  1.00  0.00     0.046 A 
ATOM      5  C   UNL     1     -30.967  -9.155   1.894  1.00  0.00     0.004 A 
ATOM      6  C   UNL     1     -31.039  -9.298   3.283  1.00  0.00     0.004 A 
ENDROOT
BRANCH   1   7
ATOM      7  C   UNL     1     -30.407 -10.481   5.420  1.00  0.00     0.032 C 
ATOM      8  C   UNL     1     -29.411  -9.578   6.141  1.00  0.00     0.009 C 
ENDBRANCH   1   7
BRANCH   3   9
ATOM      9  O   UNL     1     -28.650 -11.911   1.033  1.00  0.00    -0.508 OA
ATOM     10  H   UNL     1     -28.589 -11.845   0.024  1.00  0.00     0.293 HD
ENDBRANCH   3   9
TORSDOF 2
ENDMDL
MODEL 9
REMARK VINA RESULT:    -4.442      1.582      2.201
REMARK INTER + INTRA:          -4.903
REMARK INTER:                  -4.853
REMARK INTRA:                  -0.050
REMARK UNBOUND:                -0.072
REMARK SMILES CCc1cccc(O)c1
REMARK SMILES IDX 3 1 9 2 7 3 6 4 5 5 4 6 2 7 1 8 8 9
REMARK H PARENT 8 10
REMARK Flexibility Score: inf
ROOT
ATOM      1  C   UNL     1     -29.928 -10.895   3.751  1.00  0.00    -0.045 A 
ATOM      2  C   UNL     1     -29.933 -11.369   2.428  1.00  0.00     0.049 A 
ATOM      3  C   UNL     1     -28.728 -11.657   1.776  1.00  0.00     0.115 A 
ATOM      4  C   UNL     1     -27.511 -11.462   2.444  1.00  0.00     0.046 A 
ATOM      5  C   UNL     1     -27.500 -10.977   3.755  1.00  0.00     0.004 A 
ATOM      6  C   UNL     1     -28.703 -10.690   4.406  1.00  0.00     0.004 A 
ENDROOT
BRANCH   1   7
ATOM      7  C   UNL     1     -31.223 -10.554   4.440  1.00  0.00     0.032 C 
ATOM      8  C   UNL     1     -31.975  -9.471   3.672  1.00  0.00     0.009 C 
ENDBRANCH   1   7
BRANCH   3   9
ATOM      9  O   UNL     1     -28.752 -12.132   0.467  1.00  0.00    -0.508 OA
ATOM     10  H   UNL     1     -29.256 -12.975   0.219  1.00  0.00     0.293 HD
ENDBRANCH   3   9
TORSDOF 2
ENDMDL
