MODEL 1
REMARK VINA RESULT:    -4.037      0.000      0.000
REMARK INTER + INTRA:          -6.694
REMARK INTER:                  -6.162
REMARK INTRA:                  -0.532
REMARK UNBOUND:                -0.532
REMARK SMILES CC1=CCC[C@H](C)C(=O)C[C@H](C(C)C)C(=O)C1
REMARK SMILES IDX 8 1 9 2 6 3 7 4 5 5 4 6 3 7 2 8 1 9 10 11 11 12 15 13 16 14
REMARK SMILES IDX 17 15 12 17 13 18 14 19
REMARK H PARENT
REMARK Flexibility Score: 70.00
ROOT
ATOM      1  C   UNL     1      11.772 -12.503 -43.375  1.00  0.00     0.136 C 
ATOM      2  O   UNL     1      11.679 -13.319 -42.471  1.00  0.00    -0.299 OA
ENDROOT
BRANCH   1   3
ATOM      3  C   UNL     1      12.766 -12.740 -44.530  1.00  0.00     0.053 C 
ATOM      4  C   UNL     1      14.213 -12.912 -44.054  1.00  0.00     0.016 C 
BRANCH   3   5
ATOM      5  C   UNL     1      12.251 -13.998 -45.187  1.00  0.00     0.015 C 
BRANCH   5   6
ATOM      6  C   UNL     1      11.445 -14.144 -46.445  1.00  0.00     0.028 C 
BRANCH   6   7
ATOM      7  C   UNL     1       9.970 -14.269 -46.038  1.00  0.00    -0.028 C 
ATOM      8  C   UNL     1       8.992 -13.294 -45.972  1.00  0.00    -0.070 CG0
ATOM      9  C   UNL     1       7.669 -13.728 -45.382  1.00  0.00     0.039 C 
ATOM     10  G   UNL     1       9.081 -11.826 -46.471  1.00  0.00     0.000 G0
ENDBRANCH   6   7
ENDBRANCH   5   6
ENDBRANCH   3   5
ENDBRANCH   1   3
BRANCH   1  11
ATOM     11  C   UNL     1      10.899 -11.240 -43.341  1.00  0.00     0.087 C 
BRANCH  11  12
ATOM     12  C   UNL     1      10.579 -10.463 -44.689  1.00  0.00     0.066 C 
BRANCH  12  13
ATOM     13  C   UNL     1       9.229 -10.730 -45.394  1.00  0.00     0.140 C 
ATOM     14  O   UNL     1       8.268 -10.016 -45.144  1.00  0.00    -0.299 OA
BRANCH  13  15
ATOM     15  C   UNL     1       9.074 -11.812 -46.476  1.00  0.00     0.106 CG0
ATOM     16  G   UNL     1       8.987 -13.273 -45.957  1.00  0.00     0.000 G0
ENDBRANCH  13  15
ENDBRANCH  12  13
BRANCH  12  17
ATOM     17  C   UNL     1      10.891  -8.930 -44.628  1.00  0.00    -0.006 C 
ATOM     18  C   UNL     1      10.222  -8.211 -43.446  1.00  0.00     0.008 C 
ATOM     19  C   UNL     1      12.402  -8.641 -44.631  1.00  0.00     0.008 C 
ENDBRANCH  12  17
ENDBRANCH  11  12
ENDBRANCH   1  11
TORSDOF 1
ENDMDL
MODEL 2
REMARK VINA RESULT:    -4.008      1.905      4.060
REMARK INTER + INTRA:          -6.649
REMARK INTER:                  -6.092
REMARK INTRA:                  -0.557
REMARK UNBOUND:                -0.532
REMARK SMILES CC1=CCC[C@H](C)C(=O)C[C@H](C(C)C)C(=O)C1
REMARK SMILES IDX 8 1 9 2 6 3 7 4 5 5 4 6 3 7 2 8 1 9 10 11 11 12 15 13 16 14
REMARK SMILES IDX 17 15 12 17 13 18 14 19
REMARK H PARENT
REMARK Flexibility Score: 70.00
ROOT
ATOM      1  C   UNL     1       8.872 -11.100 -45.498  1.00  0.00     0.136 C 
ATOM      2  O   UNL     1       8.159 -10.113 -45.388  1.00  0.00    -0.299 OA
ENDROOT
BRANCH   1   3
ATOM      3  C   UNL     1       8.244 -12.478 -45.781  1.00  0.00     0.053 C 
ATOM      4  C   UNL     1       7.718 -12.618 -47.215  1.00  0.00     0.016 C 
BRANCH   3   5
ATOM      5  C   UNL     1       9.374 -13.444 -45.515  1.00  0.00     0.015 C 
BRANCH   5   6
ATOM      6  C   UNL     1       9.444 -14.563 -44.517  1.00  0.00     0.028 C 
BRANCH   6   7
ATOM      7  C   UNL     1      10.920 -14.954 -44.364  1.00  0.00    -0.028 C 
ATOM      8  C   UNL     1      11.942 -14.290 -43.710  1.00  0.00    -0.070 CG0
ATOM      9  C   UNL     1      13.324 -14.878 -43.879  1.00  0.00     0.039 C 
ATOM     10  G   UNL     1      11.826 -13.042 -42.791  1.00  0.00     0.000 G0
ENDBRANCH   6   7
ENDBRANCH   5   6
ENDBRANCH   3   5
ENDBRANCH   1   3
BRANCH   1  11
ATOM     11  C   UNL     1      10.392 -10.949 -45.340  1.00  0.00     0.087 C 
BRANCH  11  12
ATOM     12  C   UNL     1      11.018 -10.711 -43.899  1.00  0.00     0.066 C 
BRANCH  12  13
ATOM     13  C   UNL     1      12.131 -11.666 -43.409  1.00  0.00     0.140 C 
ATOM     14  O   UNL     1      13.297 -11.303 -43.453  1.00  0.00    -0.299 OA
BRANCH  13  15
ATOM     15  C   UNL     1      11.814 -13.032 -42.777  1.00  0.00     0.106 CG0
ATOM     16  G   UNL     1      11.944 -14.256 -43.724  1.00  0.00     0.000 G0
ENDBRANCH  13  15
ENDBRANCH  12  13
BRANCH  12  17
ATOM     17  C   UNL     1      11.384  -9.218 -43.604  1.00  0.00    -0.006 C 
ATOM     18  C   UNL     1      11.637  -8.384 -44.869  1.00  0.00     0.008 C 
ATOM     19  C   UNL     1      10.335  -8.523 -42.718  1.00  0.00     0.008 C 
ENDBRANCH  12  17
ENDBRANCH  11  12
ENDBRANCH   1  11
TORSDOF 1
ENDMDL
MODEL 3
REMARK VINA RESULT:    -3.438     11.555     13.215
REMARK INTER + INTRA:          -5.780
REMARK INTER:                  -5.282
REMARK INTRA:                  -0.498
REMARK UNBOUND:                -0.532
REMARK SMILES CC1=CCC[C@H](C)C(=O)C[C@H](C(C)C)C(=O)C1
REMARK SMILES IDX 8 1 9 2 6 3 7 4 5 5 4 6 3 7 2 8 1 9 10 11 11 12 15 13 16 14
REMARK SMILES IDX 17 15 12 17 13 18 14 19
REMARK H PARENT
REMARK Flexibility Score: 70.00
ROOT
ATOM      1  C   UNL     1       8.988 -20.518 -37.490  1.00  0.00     0.136 C 
ATOM      2  O   UNL     1       8.328 -20.991 -38.403  1.00  0.00    -0.299 OA
ENDROOT
BRANCH   1   3
ATOM      3  C   UNL     1       8.399 -20.447 -36.068  1.00  0.00     0.053 C 
ATOM      4  C   UNL     1       7.021 -19.777 -36.019  1.00  0.00     0.016 C 
BRANCH   3   5
ATOM      5  C   UNL     1       8.322 -21.895 -35.644  1.00  0.00     0.015 C 
BRANCH   5   6
ATOM      6  C   UNL     1       9.433 -22.823 -35.248  1.00  0.00     0.028 C 
BRANCH   6   7
ATOM      7  C   UNL     1       9.472 -23.962 -36.277  1.00  0.00    -0.028 C 
ATOM      8  C   UNL     1      10.422 -24.240 -37.243  1.00  0.00    -0.070 CG0
ATOM      9  C   UNL     1      10.079 -25.360 -38.200  1.00  0.00     0.039 C 
ATOM     10  G   UNL     1      11.811 -23.569 -37.429  1.00  0.00     0.000 G0
ENDBRANCH   6   7
ENDBRANCH   5   6
ENDBRANCH   3   5
ENDBRANCH   1   3
BRANCH   1  11
ATOM     11  C   UNL     1      10.401 -19.990 -37.781  1.00  0.00     0.087 C 
BRANCH  11  12
ATOM     12  C   UNL     1      11.666 -20.893 -37.450  1.00  0.00     0.066 C 
BRANCH  12  13
ATOM     13  C   UNL     1      11.826 -22.241 -38.191  1.00  0.00     0.140 C 
ATOM     14  O   UNL     1      12.035 -22.244 -39.395  1.00  0.00    -0.299 OA
BRANCH  13  15
ATOM     15  C   UNL     1      11.824 -23.586 -37.445  1.00  0.00     0.106 CG0
ATOM     16  G   UNL     1      10.430 -24.245 -37.254  1.00  0.00     0.000 G0
ENDBRANCH  13  15
ENDBRANCH  12  13
BRANCH  12  17
ATOM     17  C   UNL     1      13.018 -20.103 -37.414  1.00  0.00    -0.006 C 
ATOM     18  C   UNL     1      14.256 -21.006 -37.304  1.00  0.00     0.008 C 
ATOM     19  C   UNL     1      13.169 -19.149 -38.612  1.00  0.00     0.008 C 
ENDBRANCH  12  17
ENDBRANCH  11  12
ENDBRANCH   1  11
TORSDOF 1
ENDMDL
MODEL 4
REMARK VINA RESULT:    -3.420      1.739      4.158
REMARK INTER + INTRA:          -5.752
REMARK INTER:                  -5.260
REMARK INTRA:                  -0.492
REMARK UNBOUND:                -0.532
REMARK SMILES CC1=CCC[C@H](C)C(=O)C[C@H](C(C)C)C(=O)C1
REMARK SMILES IDX 8 1 9 2 6 3 7 4 5 5 4 6 3 7 2 8 1 9 10 11 11 12 15 13 16 14
REMARK SMILES IDX 17 15 12 17 13 18 14 19
REMARK H PARENT
REMARK Flexibility Score: 70.00
ROOT
ATOM      1  C   UNL     1      11.526 -11.599 -43.927  1.00  0.00     0.136 C 
ATOM      2  O   UNL     1      12.222 -11.805 -42.944  1.00  0.00    -0.299 OA
ENDROOT
BRANCH   1   3
ATOM      3  C   UNL     1      10.737 -10.281 -44.052  1.00  0.00     0.053 C 
ATOM      4  C   UNL     1      11.638  -9.055 -44.240  1.00  0.00     0.016 C 
BRANCH   3   5
ATOM      5  C   UNL     1       9.859 -10.508 -45.260  1.00  0.00     0.015 C 
BRANCH   5   6
ATOM      6  C   UNL     1       8.366 -10.403 -45.375  1.00  0.00     0.028 C 
BRANCH   6   7
ATOM      7  C   UNL     1       7.915 -11.395 -46.456  1.00  0.00    -0.028 C 
ATOM      8  C   UNL     1       7.926 -12.777 -46.440  1.00  0.00    -0.070 CG0
ATOM      9  C   UNL     1       7.550 -13.454 -47.739  1.00  0.00     0.039 C 
ATOM     10  G   UNL     1       8.236 -13.709 -45.237  1.00  0.00     0.000 G0
ENDBRANCH   6   7
ENDBRANCH   5   6
ENDBRANCH   3   5
ENDBRANCH   1   3
BRANCH   1  11
ATOM     11  C   UNL     1      11.440 -12.671 -45.024  1.00  0.00     0.087 C 
BRANCH  11  12
ATOM     12  C   UNL     1      10.855 -14.108 -44.681  1.00  0.00     0.066 C 
BRANCH  12  13
ATOM     13  C   UNL     1       9.531 -14.546 -45.350  1.00  0.00     0.140 C 
ATOM     14  O   UNL     1       9.479 -15.620 -45.932  1.00  0.00    -0.299 OA
BRANCH  13  15
ATOM     15  C   UNL     1       8.242 -13.716 -45.229  1.00  0.00     0.106 CG0
ATOM     16  G   UNL     1       7.932 -12.781 -46.431  1.00  0.00     0.000 G0
ENDBRANCH  13  15
ENDBRANCH  12  13
BRANCH  12  17
ATOM     17  C   UNL     1      11.920 -15.255 -44.729  1.00  0.00    -0.006 C 
ATOM     18  C   UNL     1      13.080 -14.979 -45.697  1.00  0.00     0.008 C 
ATOM     19  C   UNL     1      12.470 -15.600 -43.334  1.00  0.00     0.008 C 
ENDBRANCH  12  17
ENDBRANCH  11  12
ENDBRANCH   1  11
TORSDOF 1
ENDMDL
MODEL 5
REMARK VINA RESULT:    -3.228      2.056      3.820
REMARK INTER + INTRA:          -5.459
REMARK INTER:                  -4.910
REMARK INTRA:                  -0.549
REMARK UNBOUND:                -0.532
REMARK SMILES CC1=CCC[C@H](C)C(=O)C[C@H](C(C)C)C(=O)C1
REMARK SMILES IDX 8 1 9 2 6 3 7 4 5 5 4 6 3 7 2 8 1 9 10 11 11 12 15 13 16 14
REMARK SMILES IDX 17 15 12 17 13 18 14 19
REMARK H PARENT
REMARK Flexibility Score: 70.00
ROOT
ATOM      1  C   UNL     1      10.636 -12.806 -43.470  1.00  0.00     0.136 C 
ATOM      2  O   UNL     1      10.770 -13.353 -42.385  1.00  0.00    -0.299 OA
ENDROOT
BRANCH   1   3
ATOM      3  C   UNL     1      11.530 -11.609 -43.847  1.00  0.00     0.053 C 
ATOM      4  C   UNL     1      11.310 -10.385 -42.950  1.00  0.00     0.016 C 
BRANCH   3   5
ATOM      5  C   UNL     1      12.931 -12.154 -43.698  1.00  0.00     0.015 C 
BRANCH   5   6
ATOM      6  C   UNL     1      13.852 -12.691 -44.755  1.00  0.00     0.028 C 
BRANCH   6   7
ATOM      7  C   UNL     1      13.424 -14.134 -45.051  1.00  0.00    -0.028 C 
ATOM      8  C   UNL     1      12.520 -14.609 -45.984  1.00  0.00    -0.070 CG0
ATOM      9  C   UNL     1      12.215 -16.088 -45.912  1.00  0.00     0.039 C 
ATOM     10  G   UNL     1      11.821 -13.810 -47.118  1.00  0.00     0.000 G0
ENDBRANCH   6   7
ENDBRANCH   5   6
ENDBRANCH   3   5
ENDBRANCH   1   3
BRANCH   1  11
ATOM     11  C   UNL     1       9.563 -13.319 -44.441  1.00  0.00     0.087 C 
BRANCH  11  12
ATOM     12  C   UNL     1       9.575 -12.841 -45.957  1.00  0.00     0.066 C 
BRANCH  12  13
ATOM     13  C   UNL     1      10.276 -13.733 -47.008  1.00  0.00     0.140 C 
ATOM     14  O   UNL     1       9.602 -14.333 -47.832  1.00  0.00    -0.299 OA
BRANCH  13  15
ATOM     15  C   UNL     1      11.808 -13.820 -47.112  1.00  0.00     0.106 CG0
ATOM     16  G   UNL     1      12.515 -14.603 -45.972  1.00  0.00     0.000 G0
ENDBRANCH  13  15
ENDBRANCH  12  13
BRANCH  12  17
ATOM     17  C   UNL     1       8.185 -12.341 -46.476  1.00  0.00    -0.006 C 
ATOM     18  C   UNL     1       7.004 -13.203 -46.005  1.00  0.00     0.008 C 
ATOM     19  C   UNL     1       7.930 -10.864 -46.129  1.00  0.00     0.008 C 
ENDBRANCH  12  17
ENDBRANCH  11  12
ENDBRANCH   1  11
TORSDOF 1
ENDMDL
MODEL 6
REMARK VINA RESULT:    -3.186      1.942      4.803
REMARK INTER + INTRA:          -5.394
REMARK INTER:                  -5.026
REMARK INTRA:                  -0.368
REMARK UNBOUND:                -0.532
REMARK SMILES CC1=CCC[C@H](C)C(=O)C[C@H](C(C)C)C(=O)C1
REMARK SMILES IDX 8 1 9 2 6 3 7 4 5 5 4 6 3 7 2 8 1 9 10 11 11 12 15 13 16 14
REMARK SMILES IDX 17 15 12 17 13 18 14 19
REMARK H PARENT
REMARK Flexibility Score: 70.00
ROOT
ATOM      1  C   UNL     1       9.640 -10.971 -44.982  1.00  0.00     0.136 C 
ATOM      2  O   UNL     1       8.843 -10.134 -45.381  1.00  0.00    -0.299 OA
ENDROOT
BRANCH   1   3
ATOM      3  C   UNL     1      11.080 -10.555 -44.622  1.00  0.00     0.053 C 
ATOM      4  C   UNL     1      11.260  -9.037 -44.510  1.00  0.00     0.016 C 
BRANCH   3   5
ATOM      5  C   UNL     1      11.323 -11.236 -43.295  1.00  0.00     0.015 C 
BRANCH   5   6
ATOM      6  C   UNL     1      11.979 -12.557 -43.019  1.00  0.00     0.028 C 
BRANCH   6   7
ATOM      7  C   UNL     1      13.041 -12.782 -44.104  1.00  0.00    -0.028 C 
ATOM      8  C   UNL     1      13.020 -13.637 -45.190  1.00  0.00    -0.070 CG0
ATOM      9  C   UNL     1      14.303 -13.724 -45.985  1.00  0.00     0.039 C 
ATOM     10  G   UNL     1      11.823 -14.480 -45.710  1.00  0.00     0.000 G0
ENDBRANCH   6   7
ENDBRANCH   5   6
ENDBRANCH   3   5
ENDBRANCH   1   3
BRANCH   1  11
ATOM     11  C   UNL     1       9.192 -12.434 -44.856  1.00  0.00     0.087 C 
BRANCH  11  12
ATOM     12  C   UNL     1       9.371 -13.424 -46.086  1.00  0.00     0.066 C 
BRANCH  12  13
ATOM     13  C   UNL     1      10.801 -13.730 -46.588  1.00  0.00     0.140 C 
ATOM     14  O   UNL     1      11.164 -13.293 -47.671  1.00  0.00    -0.299 OA
BRANCH  13  15
ATOM     15  C   UNL     1      11.823 -14.490 -45.727  1.00  0.00     0.106 CG0
ATOM     16  G   UNL     1      13.011 -13.645 -45.191  1.00  0.00     0.000 G0
ENDBRANCH  13  15
ENDBRANCH  12  13
BRANCH  12  17
ATOM     17  C   UNL     1       8.519 -14.733 -45.976  1.00  0.00    -0.006 C 
ATOM     18  C   UNL     1       7.392 -14.650 -44.935  1.00  0.00     0.008 C 
ATOM     19  C   UNL     1       7.947 -15.173 -47.336  1.00  0.00     0.008 C 
ENDBRANCH  12  17
ENDBRANCH  11  12
ENDBRANCH   1  11
TORSDOF 1
ENDMDL
MODEL 7
REMARK VINA RESULT:    -3.145      1.954      2.944
REMARK INTER + INTRA:          -5.331
REMARK INTER:                  -4.761
REMARK INTRA:                  -0.570
REMARK UNBOUND:                -0.532
REMARK SMILES CC1=CCC[C@H](C)C(=O)C[C@H](C(C)C)C(=O)C1
REMARK SMILES IDX 8 1 9 2 6 3 7 4 5 5 4 6 3 7 2 8 1 9 10 11 11 12 15 13 16 14
REMARK SMILES IDX 17 15 12 17 13 18 14 19
REMARK H PARENT
REMARK Flexibility Score: 70.00
ROOT
ATOM      1  C   UNL     1      14.004 -11.842 -43.828  1.00  0.00     0.136 C 
ATOM      2  O   UNL     1      14.441 -12.201 -42.745  1.00  0.00    -0.299 OA
ENDROOT
BRANCH   1   3
ATOM      3  C   UNL     1      14.710 -12.275 -45.128  1.00  0.00     0.053 C 
ATOM      4  C   UNL     1      16.231 -12.091 -45.078  1.00  0.00     0.016 C 
BRANCH   3   5
ATOM      5  C   UNL     1      14.337 -13.733 -45.264  1.00  0.00     0.015 C 
BRANCH   5   6
ATOM      6  C   UNL     1      13.263 -14.358 -46.105  1.00  0.00     0.028 C 
BRANCH   6   7
ATOM      7  C   UNL     1      12.539 -15.394 -45.235  1.00  0.00    -0.028 C 
ATOM      8  C   UNL     1      11.384 -15.259 -44.485  1.00  0.00    -0.070 CG0
ATOM      9  C   UNL     1      11.021 -16.442 -43.617  1.00  0.00     0.039 C 
ATOM     10  G   UNL     1      10.401 -14.057 -44.467  1.00  0.00     0.000 G0
ENDBRANCH   6   7
ENDBRANCH   5   6
ENDBRANCH   3   5
ENDBRANCH   1   3
BRANCH   1  11
ATOM     11  C   UNL     1      12.754 -10.950 -43.876  1.00  0.00     0.087 C 
BRANCH  11  12
ATOM     12  C   UNL     1      11.370 -11.553 -44.371  1.00  0.00     0.066 C 
BRANCH  12  13
ATOM     13  C   UNL     1      10.827 -12.824 -43.677  1.00  0.00     0.140 C 
ATOM     14  O   UNL     1      10.678 -12.829 -42.463  1.00  0.00    -0.299 OA
BRANCH  13  15
ATOM     15  C   UNL     1      10.377 -14.060 -44.474  1.00  0.00     0.106 CG0
ATOM     16  G   UNL     1      11.370 -15.254 -44.477  1.00  0.00     0.000 G0
ENDBRANCH  13  15
ENDBRANCH  12  13
BRANCH  12  17
ATOM     17  C   UNL     1      10.242 -10.484 -44.557  1.00  0.00    -0.006 C 
ATOM     18  C   UNL     1      10.762  -9.039 -44.600  1.00  0.00     0.008 C 
ATOM     19  C   UNL     1       9.370 -10.766 -45.794  1.00  0.00     0.008 C 
ENDBRANCH  12  17
ENDBRANCH  11  12
ENDBRANCH   1  11
TORSDOF 1
ENDMDL
MODEL 8
REMARK VINA RESULT:    -3.100     11.266     12.709
REMARK INTER + INTRA:          -5.263
REMARK INTER:                  -4.690
REMARK INTRA:                  -0.572
REMARK UNBOUND:                -0.532
REMARK SMILES CC1=CCC[C@H](C)C(=O)C[C@H](C(C)C)C(=O)C1
REMARK SMILES IDX 8 1 9 2 6 3 7 4 5 5 4 6 3 7 2 8 1 9 10 11 11 12 15 13 16 14
REMARK SMILES IDX 17 15 12 17 13 18 14 19
REMARK H PARENT
REMARK Flexibility Score: 70.00
ROOT
ATOM      1  C   UNL     1       9.105 -21.051 -35.799  1.00  0.00     0.136 C 
ATOM      2  O   UNL     1       9.882 -20.621 -34.960  1.00  0.00    -0.299 OA
ENDROOT
BRANCH   1   3
ATOM      3  C   UNL     1       8.189 -22.244 -35.463  1.00  0.00     0.053 C 
ATOM      4  C   UNL     1       6.975 -22.353 -36.393  1.00  0.00     0.016 C 
BRANCH   3   5
ATOM      5  C   UNL     1       9.099 -23.441 -35.606  1.00  0.00     0.015 C 
BRANCH   5   6
ATOM      6  C   UNL     1       8.989 -24.604 -36.548  1.00  0.00     0.028 C 
BRANCH   6   7
ATOM      7  C   UNL     1      10.224 -24.579 -37.459  1.00  0.00    -0.028 C 
ATOM      8  C   UNL     1      10.405 -23.950 -38.677  1.00  0.00    -0.070 CG0
ATOM      9  C   UNL     1      11.704 -24.255 -39.389  1.00  0.00     0.039 C 
ATOM     10  G   UNL     1       9.454 -22.939 -39.373  1.00  0.00     0.000 G0
ENDBRANCH   6   7
ENDBRANCH   5   6
ENDBRANCH   3   5
ENDBRANCH   1   3
BRANCH   1  11
ATOM     11  C   UNL     1       9.061 -20.398 -37.188  1.00  0.00     0.087 C 
BRANCH  11  12
ATOM     12  C   UNL     1      10.253 -20.636 -38.212  1.00  0.00     0.066 C 
BRANCH  12  13
ATOM     13  C   UNL     1       9.985 -21.489 -39.473  1.00  0.00     0.140 C 
ATOM     14  O   UNL     1      10.260 -21.036 -40.575  1.00  0.00    -0.299 OA
BRANCH  13  15
ATOM     15  C   UNL     1       9.466 -22.934 -39.386  1.00  0.00     0.106 CG0
ATOM     16  G   UNL     1      10.411 -23.944 -38.677  1.00  0.00     0.000 G0
ENDBRANCH  13  15
ENDBRANCH  12  13
BRANCH  12  17
ATOM     17  C   UNL     1      11.055 -19.339 -38.566  1.00  0.00    -0.006 C 
ATOM     18  C   UNL     1      10.169 -18.096 -38.745  1.00  0.00     0.008 C 
ATOM     19  C   UNL     1      12.171 -19.046 -37.549  1.00  0.00     0.008 C 
ENDBRANCH  12  17
ENDBRANCH  11  12
ENDBRANCH   1  11
TORSDOF 1
ENDMDL
MODEL 9
REMARK VINA RESULT:    -3.033     10.671     12.731
REMARK INTER + INTRA:          -5.160
REMARK INTER:                  -4.532
REMARK INTRA:                  -0.628
REMARK UNBOUND:                -0.532
REMARK SMILES CC1=CCC[C@H](C)C(=O)C[C@H](C(C)C)C(=O)C1
REMARK SMILES IDX 8 1 9 2 6 3 7 4 5 5 4 6 3 7 2 8 1 9 10 11 11 12 15 13 16 14
REMARK SMILES IDX 17 15 12 17 13 18 14 19
REMARK H PARENT
REMARK Flexibility Score: 70.00
ROOT
ATOM      1  C   UNL     1       6.775 -20.911 -36.930  1.00  0.00     0.136 C 
ATOM      2  O   UNL     1       6.505 -19.806 -36.483  1.00  0.00    -0.299 OA
ENDROOT
BRANCH   1   3
ATOM      3  C   UNL     1       6.006 -21.461 -38.147  1.00  0.00     0.053 C 
ATOM      4  C   UNL     1       4.511 -21.669 -37.873  1.00  0.00     0.016 C 
BRANCH   3   5
ATOM      5  C   UNL     1       6.228 -20.410 -39.210  1.00  0.00     0.015 C 
BRANCH   5   6
ATOM      6  C   UNL     1       7.306 -20.335 -40.251  1.00  0.00     0.028 C 
BRANCH   6   7
ATOM      7  C   UNL     1       8.316 -19.274 -39.796  1.00  0.00    -0.028 C 
ATOM      8  C   UNL     1       9.542 -19.436 -39.176  1.00  0.00    -0.070 CG0
ATOM      9  C   UNL     1      10.224 -18.165 -38.722  1.00  0.00     0.039 C 
ATOM     10  G   UNL     1      10.314 -20.762 -38.935  1.00  0.00     0.000 G0
ENDBRANCH   6   7
ENDBRANCH   5   6
ENDBRANCH   3   5
ENDBRANCH   1   3
BRANCH   1  11
ATOM     11  C   UNL     1       7.877 -21.743 -36.258  1.00  0.00     0.087 C 
BRANCH  11  12
ATOM     12  C   UNL     1       9.073 -22.321 -37.130  1.00  0.00     0.066 C 
BRANCH  12  13
ATOM     13  C   UNL     1      10.222 -21.369 -37.533  1.00  0.00     0.140 C 
ATOM     14  O   UNL     1      11.118 -21.136 -36.734  1.00  0.00    -0.299 OA
BRANCH  13  15
ATOM     15  C   UNL     1      10.330 -20.772 -38.946  1.00  0.00     0.106 CG0
ATOM     16  G   UNL     1       9.556 -19.445 -39.174  1.00  0.00     0.000 G0
ENDBRANCH  13  15
ENDBRANCH  12  13
BRANCH  12  17
ATOM     17  C   UNL     1       9.628 -23.692 -36.617  1.00  0.00    -0.006 C 
ATOM     18  C   UNL     1       9.513 -23.874 -35.095  1.00  0.00     0.008 C 
ATOM     19  C   UNL     1       8.986 -24.890 -37.339  1.00  0.00     0.008 C 
ENDBRANCH  12  17
ENDBRANCH  11  12
ENDBRANCH   1  11
TORSDOF 1
ENDMDL
