MODEL 1
REMARK VINA RESULT:    -3.594      0.000      0.000
REMARK INTER + INTRA:          -5.021
REMARK INTER:                  -4.645
REMARK INTRA:                  -0.376
REMARK UNBOUND:                -0.376
REMARK SMILES CCO[C@@H]1O[C@@H](CO)[C@H](O)[C@@H](O)[C@@H]1O
REMARK SMILES IDX 4 1 13 2 11 3 9 4 6 5 5 6 3 7 2 8 1 9 14 10 12 12 7 14 8 15
REMARK SMILES IDX 10 17
REMARK H PARENT 14 11 12 13 8 16 10 18
REMARK Flexibility Score: inf
ROOT
ATOM      1  C   UNL     1      19.479  -7.252   5.789  1.00  0.00     0.281 C 
ATOM      2  C   UNL     1      18.913  -7.026   7.202  1.00  0.00     0.202 C 
ATOM      3  C   UNL     1      17.485  -6.453   7.118  1.00  0.00     0.179 C 
ATOM      4  C   UNL     1      16.615  -7.319   6.187  1.00  0.00     0.177 C 
ATOM      5  C   UNL     1      17.343  -7.513   4.836  1.00  0.00     0.178 C 
ATOM      6  O   UNL     1      18.624  -8.097   5.029  1.00  0.00    -0.341 OA
ENDROOT
BRANCH   1   7
ATOM      7  O   UNL     1      19.693  -6.008   5.139  1.00  0.00    -0.350 OA
BRANCH   7   8
ATOM      8  C   UNL     1      21.023  -5.903   4.664  1.00  0.00     0.160 C 
ATOM      9  C   UNL     1      21.303  -4.482   4.193  1.00  0.00     0.035 C 
ENDBRANCH   7   8
ENDBRANCH   1   7
BRANCH   2  10
ATOM     10  O   UNL     1      19.750  -6.146   7.905  1.00  0.00    -0.385 OA
ATOM     11  H   UNL     1      19.268  -5.281   7.972  1.00  0.00     0.211 HD
ENDBRANCH   2  10
BRANCH   3  12
ATOM     12  O   UNL     1      16.907  -6.355   8.397  1.00  0.00    -0.387 OA
ATOM     13  H   UNL     1      16.531  -5.441   8.489  1.00  0.00     0.211 HD
ENDBRANCH   3  12
BRANCH   5  14
ATOM     14  C   UNL     1      16.534  -8.411   3.886  1.00  0.00     0.191 C 
BRANCH  14  15
ATOM     15  O   UNL     1      15.643  -9.230   4.597  1.00  0.00    -0.394 OA
ATOM     16  H   UNL     1      16.173  -9.991   4.951  1.00  0.00     0.210 HD
ENDBRANCH  14  15
ENDBRANCH   5  14
BRANCH   4  17
ATOM     17  O   UNL     1      15.378  -6.688   5.972  1.00  0.00    -0.387 OA
ATOM     18  H   UNL     1      15.529  -5.987   5.286  1.00  0.00     0.211 HD
ENDBRANCH   4  17
TORSDOF 7
ENDMDL
MODEL 2
REMARK VINA RESULT:    -3.377      1.547      4.203
REMARK INTER + INTRA:          -4.740
REMARK INTER:                  -4.274
REMARK INTRA:                  -0.466
REMARK UNBOUND:                -0.376
REMARK SMILES CCO[C@@H]1O[C@@H](CO)[C@H](O)[C@@H](O)[C@@H]1O
REMARK SMILES IDX 4 1 13 2 11 3 9 4 6 5 5 6 3 7 2 8 1 9 14 10 12 12 7 14 8 15
REMARK SMILES IDX 10 17
REMARK H PARENT 14 11 12 13 8 16 10 18
REMARK Flexibility Score: inf
ROOT
ATOM      1  C   UNL     1      16.587  -6.692   5.674  1.00  0.00     0.281 C 
ATOM      2  C   UNL     1      17.013  -6.378   7.120  1.00  0.00     0.202 C 
ATOM      3  C   UNL     1      18.315  -7.124   7.465  1.00  0.00     0.179 C 
ATOM      4  C   UNL     1      19.385  -6.861   6.388  1.00  0.00     0.177 C 
ATOM      5  C   UNL     1      18.791  -7.155   4.990  1.00  0.00     0.178 C 
ATOM      6  O   UNL     1      17.627  -6.374   4.759  1.00  0.00    -0.341 OA
ENDROOT
BRANCH   1   7
ATOM      7  O   UNL     1      16.192  -8.051   5.561  1.00  0.00    -0.350 OA
BRANCH   7   8
ATOM      8  C   UNL     1      15.087  -8.190   4.687  1.00  0.00     0.160 C 
ATOM      9  C   UNL     1      13.859  -7.510   5.279  1.00  0.00     0.035 C 
ENDBRANCH   7   8
ENDBRANCH   1   7
BRANCH   2  10
ATOM     10  O   UNL     1      15.987  -6.755   8.001  1.00  0.00    -0.385 OA
ATOM     11  H   UNL     1      15.132  -6.647   7.509  1.00  0.00     0.211 HD
ENDBRANCH   2  10
BRANCH   3  12
ATOM     12  O   UNL     1      18.784  -6.754   8.739  1.00  0.00    -0.387 OA
ATOM     13  H   UNL     1      18.078  -6.981   9.398  1.00  0.00     0.211 HD
ENDBRANCH   3  12
BRANCH   5  14
ATOM     14  C   UNL     1      19.807  -6.862   3.875  1.00  0.00     0.191 C 
BRANCH  14  15
ATOM     15  O   UNL     1      20.719  -5.869   4.266  1.00  0.00    -0.394 OA
ATOM     16  H   UNL     1      21.590  -6.321   4.414  1.00  0.00     0.210 HD
ENDBRANCH  14  15
ENDBRANCH   5  14
BRANCH   4  17
ATOM     17  O   UNL     1      20.498  -7.689   6.613  1.00  0.00    -0.387 OA
ATOM     18  H   UNL     1      21.212  -7.113   6.992  1.00  0.00     0.211 HD
ENDBRANCH   4  17
TORSDOF 7
ENDMDL
MODEL 3
REMARK VINA RESULT:    -3.376      1.448      4.291
REMARK INTER + INTRA:          -4.740
REMARK INTER:                  -4.314
REMARK INTRA:                  -0.425
REMARK UNBOUND:                -0.376
REMARK SMILES CCO[C@@H]1O[C@@H](CO)[C@H](O)[C@@H](O)[C@@H]1O
REMARK SMILES IDX 4 1 13 2 11 3 9 4 6 5 5 6 3 7 2 8 1 9 14 10 12 12 7 14 8 15
REMARK SMILES IDX 10 17
REMARK H PARENT 14 11 12 13 8 16 10 18
REMARK Flexibility Score: inf
ROOT
ATOM      1  C   UNL     1      17.069  -7.321   4.879  1.00  0.00     0.281 C 
ATOM      2  C   UNL     1      16.855  -6.552   6.195  1.00  0.00     0.202 C 
ATOM      3  C   UNL     1      17.807  -7.084   7.283  1.00  0.00     0.179 C 
ATOM      4  C   UNL     1      19.256  -7.111   6.760  1.00  0.00     0.177 C 
ATOM      5  C   UNL     1      19.300  -7.855   5.405  1.00  0.00     0.178 C 
ATOM      6  O   UNL     1      18.427  -7.247   4.464  1.00  0.00    -0.341 OA
ENDROOT
BRANCH   1   7
ATOM      7  O   UNL     1      16.640  -8.667   5.020  1.00  0.00    -0.350 OA
BRANCH   7   8
ATOM      8  C   UNL     1      15.755  -9.032   3.977  1.00  0.00     0.160 C 
ATOM      9  C   UNL     1      14.376  -9.346   4.543  1.00  0.00     0.035 C 
ENDBRANCH   7   8
ENDBRANCH   1   7
BRANCH   2  10
ATOM     10  O   UNL     1      15.520  -6.691   6.605  1.00  0.00    -0.385 OA
ATOM     11  H   UNL     1      15.523  -7.291   7.396  1.00  0.00     0.211 HD
ENDBRANCH   2  10
BRANCH   3  12
ATOM     12  O   UNL     1      17.711  -6.313   8.457  1.00  0.00    -0.387 OA
ATOM     13  H   UNL     1      16.747  -6.179   8.652  1.00  0.00     0.211 HD
ENDBRANCH   3  12
BRANCH   5  14
ATOM     14  C   UNL     1      20.720  -7.868   4.818  1.00  0.00     0.191 C 
BRANCH  14  15
ATOM     15  O   UNL     1      21.532  -6.899   5.428  1.00  0.00    -0.394 OA
ATOM     16  H   UNL     1      20.927  -6.295   5.933  1.00  0.00     0.210 HD
ENDBRANCH  14  15
ENDBRANCH   5  14
BRANCH   4  17
ATOM     17  O   UNL     1      20.082  -7.768   7.688  1.00  0.00    -0.387 OA
ATOM     18  H   UNL     1      19.558  -7.860   8.525  1.00  0.00     0.211 HD
ENDBRANCH   4  17
TORSDOF 7
ENDMDL
MODEL 4
REMARK VINA RESULT:    -3.322      1.251      1.774
REMARK INTER + INTRA:          -4.670
REMARK INTER:                  -4.835
REMARK INTRA:                   0.165
REMARK UNBOUND:                -0.376
REMARK SMILES CCO[C@@H]1O[C@@H](CO)[C@H](O)[C@@H](O)[C@@H]1O
REMARK SMILES IDX 4 1 13 2 11 3 9 4 6 5 5 6 3 7 2 8 1 9 14 10 12 12 7 14 8 15
REMARK SMILES IDX 10 17
REMARK H PARENT 14 11 12 13 8 16 10 18
REMARK Flexibility Score: inf
ROOT
ATOM      1  C   UNL     1      19.063  -7.240   4.659  1.00  0.00     0.281 C 
ATOM      2  C   UNL     1      19.624  -7.733   6.005  1.00  0.00     0.202 C 
ATOM      3  C   UNL     1      18.915  -7.017   7.170  1.00  0.00     0.179 C 
ATOM      4  C   UNL     1      17.386  -7.122   7.013  1.00  0.00     0.177 C 
ATOM      5  C   UNL     1      16.983  -6.659   5.593  1.00  0.00     0.178 C 
ATOM      6  O   UNL     1      17.654  -7.421   4.600  1.00  0.00    -0.341 OA
ENDROOT
BRANCH   1   7
ATOM      7  O   UNL     1      19.423  -5.884   4.442  1.00  0.00    -0.350 OA
BRANCH   7   8
ATOM      8  C   UNL     1      20.717  -5.785   3.875  1.00  0.00     0.160 C 
ATOM      9  C   UNL     1      21.236  -4.358   3.997  1.00  0.00     0.035 C 
ENDBRANCH   7   8
ENDBRANCH   1   7
BRANCH   2  10
ATOM     10  O   UNL     1      21.006  -7.489   6.052  1.00  0.00    -0.385 OA
ATOM     11  H   UNL     1      21.165  -6.642   5.560  1.00  0.00     0.211 HD
ENDBRANCH   2  10
BRANCH   3  12
ATOM     12  O   UNL     1      19.329  -7.543   8.409  1.00  0.00    -0.387 OA
ATOM     13  H   UNL     1      19.328  -6.800   9.067  1.00  0.00     0.211 HD
ENDBRANCH   3  12
BRANCH   5  14
ATOM     14  C   UNL     1      15.468  -6.789   5.370  1.00  0.00     0.191 C 
BRANCH  14  15
ATOM     15  O   UNL     1      14.887  -7.652   6.312  1.00  0.00    -0.394 OA
ATOM     16  H   UNL     1      14.861  -7.161   7.174  1.00  0.00     0.210 HD
ENDBRANCH  14  15
ENDBRANCH   5  14
BRANCH   4  17
ATOM     17  O   UNL     1      16.754  -6.314   7.973  1.00  0.00    -0.387 OA
ATOM     18  H   UNL     1      17.295  -6.377   8.802  1.00  0.00     0.211 HD
ENDBRANCH   4  17
TORSDOF 7
ENDMDL
MODEL 5
REMARK VINA RESULT:    -3.021      7.313      9.384
REMARK INTER + INTRA:          -4.280
REMARK INTER:                  -3.979
REMARK INTRA:                  -0.301
REMARK UNBOUND:                -0.376
REMARK SMILES CCO[C@@H]1O[C@@H](CO)[C@H](O)[C@@H](O)[C@@H]1O
REMARK SMILES IDX 4 1 13 2 11 3 9 4 6 5 5 6 3 7 2 8 1 9 14 10 12 12 7 14 8 15
REMARK SMILES IDX 10 17
REMARK H PARENT 14 11 12 13 8 16 10 18
REMARK Flexibility Score: inf
ROOT
ATOM      1  C   UNL     1      10.301  -7.000   5.471  1.00  0.00     0.281 C 
ATOM      2  C   UNL     1       9.170  -6.123   4.902  1.00  0.00     0.202 C 
ATOM      3  C   UNL     1       8.028  -7.008   4.368  1.00  0.00     0.179 C 
ATOM      4  C   UNL     1       7.598  -8.030   5.438  1.00  0.00     0.177 C 
ATOM      5  C   UNL     1       8.844  -8.782   5.960  1.00  0.00     0.178 C 
ATOM      6  O   UNL     1       9.806  -7.874   6.477  1.00  0.00    -0.341 OA
ENDROOT
BRANCH   1   7
ATOM      7  O   UNL     1      10.940  -7.718   4.426  1.00  0.00    -0.350 OA
BRANCH   7   8
ATOM      8  C   UNL     1      12.289  -7.312   4.281  1.00  0.00     0.160 C 
ATOM      9  C   UNL     1      13.052  -7.546   5.579  1.00  0.00     0.035 C 
ENDBRANCH   7   8
ENDBRANCH   1   7
BRANCH   2  10
ATOM     10  O   UNL     1       9.680  -5.313   3.875  1.00  0.00    -0.385 OA
ATOM     11  H   UNL     1       9.735  -5.880   3.062  1.00  0.00     0.211 HD
ENDBRANCH   2  10
BRANCH   3  12
ATOM     12  O   UNL     1       6.935  -6.223   3.956  1.00  0.00    -0.387 OA
ATOM     13  H   UNL     1       6.865  -6.298   2.969  1.00  0.00     0.211 HD
ENDBRANCH   3  12
BRANCH   5  14
ATOM     14  C   UNL     1       8.472  -9.784   7.065  1.00  0.00     0.191 C 
BRANCH  14  15
ATOM     15  O   UNL     1       7.397  -9.316   7.836  1.00  0.00    -0.394 OA
ATOM     16  H   UNL     1       7.667  -9.402   8.787  1.00  0.00     0.210 HD
ENDBRANCH  14  15
ENDBRANCH   5  14
BRANCH   4  17
ATOM     17  O   UNL     1       6.691  -8.947   4.879  1.00  0.00    -0.387 OA
ATOM     18  H   UNL     1       5.909  -8.422   4.567  1.00  0.00     0.211 HD
ENDBRANCH   4  17
TORSDOF 7
ENDMDL
MODEL 6
REMARK VINA RESULT:    -2.937      2.151      4.689
REMARK INTER + INTRA:          -4.172
REMARK INTER:                  -3.836
REMARK INTRA:                  -0.336
REMARK UNBOUND:                -0.376
REMARK SMILES CCO[C@@H]1O[C@@H](CO)[C@H](O)[C@@H](O)[C@@H]1O
REMARK SMILES IDX 4 1 13 2 11 3 9 4 6 5 5 6 3 7 2 8 1 9 14 10 12 12 7 14 8 15
REMARK SMILES IDX 10 17
REMARK H PARENT 14 11 12 13 8 16 10 18
REMARK Flexibility Score: inf
ROOT
ATOM      1  C   UNL     1      16.736  -7.830   5.564  1.00  0.00     0.281 C 
ATOM      2  C   UNL     1      17.483  -9.112   5.152  1.00  0.00     0.202 C 
ATOM      3  C   UNL     1      19.004  -8.866   5.156  1.00  0.00     0.179 C 
ATOM      4  C   UNL     1      19.442  -8.247   6.497  1.00  0.00     0.177 C 
ATOM      5  C   UNL     1      18.561  -7.014   6.807  1.00  0.00     0.178 C 
ATOM      6  O   UNL     1      17.185  -7.367   6.832  1.00  0.00    -0.341 OA
ENDROOT
BRANCH   1   7
ATOM      7  O   UNL     1      16.881  -6.832   4.565  1.00  0.00    -0.350 OA
BRANCH   7   8
ATOM      8  C   UNL     1      15.619  -6.391   4.099  1.00  0.00     0.160 C 
ATOM      9  C   UNL     1      14.503  -7.161   4.792  1.00  0.00     0.035 C 
ENDBRANCH   7   8
ENDBRANCH   1   7
BRANCH   2  10
ATOM     10  O   UNL     1      17.057  -9.509   3.875  1.00  0.00    -0.385 OA
ATOM     11  H   UNL     1      17.851  -9.468   3.281  1.00  0.00     0.211 HD
ENDBRANCH   2  10
BRANCH   3  12
ATOM     12  O   UNL     1      19.706 -10.058   4.900  1.00  0.00    -0.387 OA
ATOM     13  H   UNL     1      20.391  -9.862   4.209  1.00  0.00     0.211 HD
ENDBRANCH   3  12
BRANCH   5  14
ATOM     14  C   UNL     1      18.930  -6.387   8.161  1.00  0.00     0.191 C 
BRANCH  14  15
ATOM     15  O   UNL     1      19.274  -7.371   9.101  1.00  0.00    -0.394 OA
ATOM     16  H   UNL     1      19.334  -8.230   8.608  1.00  0.00     0.210 HD
ENDBRANCH  14  15
ENDBRANCH   5  14
BRANCH   4  17
ATOM     17  O   UNL     1      20.790  -7.857   6.421  1.00  0.00    -0.387 OA
ATOM     18  H   UNL     1      21.274  -8.357   7.128  1.00  0.00     0.211 HD
ENDBRANCH   4  17
TORSDOF 7
ENDMDL
MODEL 7
REMARK VINA RESULT:    -2.829      2.141      4.619
REMARK INTER + INTRA:          -4.033
REMARK INTER:                  -3.662
REMARK INTRA:                  -0.370
REMARK UNBOUND:                -0.376
REMARK SMILES CCO[C@@H]1O[C@@H](CO)[C@H](O)[C@@H](O)[C@@H]1O
REMARK SMILES IDX 4 1 13 2 11 3 9 4 6 5 5 6 3 7 2 8 1 9 14 10 12 12 7 14 8 15
REMARK SMILES IDX 10 17
REMARK H PARENT 14 11 12 13 8 16 10 18
REMARK Flexibility Score: inf
ROOT
ATOM      1  C   UNL     1      19.362  -8.929   5.807  1.00  0.00     0.281 C 
ATOM      2  C   UNL     1      18.202  -8.265   5.042  1.00  0.00     0.202 C 
ATOM      3  C   UNL     1      18.449  -6.751   4.911  1.00  0.00     0.179 C 
ATOM      4  C   UNL     1      19.856  -6.486   4.339  1.00  0.00     0.177 C 
ATOM      5  C   UNL     1      20.902  -7.269   5.166  1.00  0.00     0.178 C 
ATOM      6  O   UNL     1      20.607  -8.658   5.174  1.00  0.00    -0.341 OA
ENDROOT
BRANCH   1   7
ATOM      7  O   UNL     1      19.364  -8.506   7.162  1.00  0.00    -0.350 OA
BRANCH   7   8
ATOM      8  C   UNL     1      19.710  -9.572   8.028  1.00  0.00     0.160 C 
ATOM      9  C   UNL     1      19.959  -9.046   9.436  1.00  0.00     0.035 C 
ENDBRANCH   7   8
ENDBRANCH   1   7
BRANCH   2  10
ATOM     10  O   UNL     1      16.998  -8.505   5.723  1.00  0.00    -0.385 OA
ATOM     11  H   UNL     1      16.316  -7.907   5.320  1.00  0.00     0.211 HD
ENDBRANCH   2  10
BRANCH   3  12
ATOM     12  O   UNL     1      17.461  -6.148   4.110  1.00  0.00    -0.387 OA
ATOM     13  H   UNL     1      17.768  -5.229   3.893  1.00  0.00     0.211 HD
ENDBRANCH   3  12
BRANCH   5  14
ATOM     14  C   UNL     1      22.320  -7.073   4.606  1.00  0.00     0.191 C 
BRANCH  14  15
ATOM     15  O   UNL     1      22.953  -5.969   5.197  1.00  0.00    -0.394 OA
ATOM     16  H   UNL     1      22.610  -5.160   4.733  1.00  0.00     0.210 HD
ENDBRANCH  14  15
ENDBRANCH   5  14
BRANCH   4  17
ATOM     17  O   UNL     1      20.139  -5.110   4.397  1.00  0.00    -0.387 OA
ATOM     18  H   UNL     1      20.045  -4.759   3.475  1.00  0.00     0.211 HD
ENDBRANCH   4  17
TORSDOF 7
ENDMDL
MODEL 8
REMARK VINA RESULT:    -2.763      1.869      4.756
REMARK INTER + INTRA:          -3.946
REMARK INTER:                  -3.510
REMARK INTRA:                  -0.437
REMARK UNBOUND:                -0.376
REMARK SMILES CCO[C@@H]1O[C@@H](CO)[C@H](O)[C@@H](O)[C@@H]1O
REMARK SMILES IDX 4 1 13 2 11 3 9 4 6 5 5 6 3 7 2 8 1 9 14 10 12 12 7 14 8 15
REMARK SMILES IDX 10 17
REMARK H PARENT 14 11 12 13 8 16 10 18
REMARK Flexibility Score: inf
ROOT
ATOM      1  C   UNL     1      17.970  -7.081   5.898  1.00  0.00     0.281 C 
ATOM      2  C   UNL     1      18.494  -8.510   6.125  1.00  0.00     0.202 C 
ATOM      3  C   UNL     1      19.542  -8.869   5.054  1.00  0.00     0.179 C 
ATOM      4  C   UNL     1      20.623  -7.773   4.974  1.00  0.00     0.177 C 
ATOM      5  C   UNL     1      19.943  -6.393   4.815  1.00  0.00     0.178 C 
ATOM      6  O   UNL     1      19.040  -6.145   5.884  1.00  0.00    -0.341 OA
ENDROOT
BRANCH   1   7
ATOM      7  O   UNL     1      17.209  -7.020   4.701  1.00  0.00    -0.350 OA
BRANCH   7   8
ATOM      8  C   UNL     1      16.020  -6.275   4.890  1.00  0.00     0.160 C 
ATOM      9  C   UNL     1      14.866  -7.207   5.238  1.00  0.00     0.035 C 
ENDBRANCH   7   8
ENDBRANCH   1   7
BRANCH   2  10
ATOM     10  O   UNL     1      17.421  -9.414   6.078  1.00  0.00    -0.385 OA
ATOM     11  H   UNL     1      17.688 -10.205   6.614  1.00  0.00     0.211 HD
ENDBRANCH   2  10
BRANCH   3  12
ATOM     12  O   UNL     1      20.121 -10.125   5.318  1.00  0.00    -0.387 OA
ATOM     13  H   UNL     1      21.068 -10.087   5.026  1.00  0.00     0.211 HD
ENDBRANCH   3  12
BRANCH   5  14
ATOM     14  C   UNL     1      20.980  -5.258   4.777  1.00  0.00     0.191 C 
BRANCH  14  15
ATOM     15  O   UNL     1      22.189  -5.654   5.370  1.00  0.00    -0.394 OA
ATOM     16  H   UNL     1      22.208  -6.646   5.347  1.00  0.00     0.210 HD
ENDBRANCH  14  15
ENDBRANCH   5  14
BRANCH   4  17
ATOM     17  O   UNL     1      21.464  -8.016   3.875  1.00  0.00    -0.387 OA
ATOM     18  H   UNL     1      21.348  -7.255   3.251  1.00  0.00     0.211 HD
ENDBRANCH   4  17
TORSDOF 7
ENDMDL
