MODEL 1
REMARK VINA RESULT:    -4.169      0.000      0.000
REMARK INTER + INTRA:          -4.169
REMARK INTER:                  -4.169
REMARK INTRA:                   0.000
REMARK UNBOUND:                 0.000
REMARK SMILES CC1=CC(=O)[C@H]2C[C@@H]1C2(C)C
REMARK SMILES IDX 1 1 2 2 3 3 4 4 5 5 6 6 7 7 8 8 9 9 10 10 11 11
REMARK H PARENT
REMARK Flexibility Score: inf
ROOT
ATOM      1  C   UNL     1      15.626 -45.070  -6.806  1.00  0.00     0.040 C 
ATOM      2  C   UNL     1      16.708 -45.149  -7.835  1.00  0.00    -0.066 C 
ATOM      3  C   UNL     1      17.972 -45.537  -7.509  1.00  0.00     0.047 C 
ATOM      4  C   UNL     1      18.972 -45.546  -8.624  1.00  0.00     0.159 C 
ATOM      5  O   UNL     1      20.181 -45.847  -8.441  1.00  0.00    -0.295 OA
ATOM      6  C   UNL     1      18.424 -45.162  -9.999  1.00  0.00     0.067 C 
ATOM      7  C   UNL     1      17.107 -45.960 -10.117  1.00  0.00     0.021 C 
ATOM      8  C   UNL     1      16.443 -44.813  -9.320  1.00  0.00     0.022 C 
ATOM      9  C   UNL     1      17.565 -43.873  -9.847  1.00  0.00    -0.019 C 
ATOM     10  C   UNL     1      18.082 -42.748  -8.906  1.00  0.00     0.012 C 
ATOM     11  C   UNL     1      17.209 -43.238 -11.214  1.00  0.00     0.012 C 
ENDROOT
TORSDOF 0
ENDMDL
MODEL 2
REMARK VINA RESULT:    -4.061     13.803     15.177
REMARK INTER + INTRA:          -4.061
REMARK INTER:                  -4.061
REMARK INTRA:                   0.000
REMARK UNBOUND:                 0.000
REMARK SMILES CC1=CC(=O)[C@H]2C[C@@H]1C2(C)C
REMARK SMILES IDX 1 1 2 2 3 3 4 4 5 5 6 6 7 7 8 8 9 9 10 10 11 11
REMARK H PARENT
REMARK Flexibility Score: inf
ROOT
ATOM      1  C   UNL     1      29.627 -45.726 -18.373  1.00  0.00     0.040 C 
ATOM      2  C   UNL     1      29.044 -44.501 -19.000  1.00  0.00    -0.066 C 
ATOM      3  C   UNL     1      29.269 -43.262 -18.481  1.00  0.00     0.047 C 
ATOM      4  C   UNL     1      28.604 -42.118 -19.183  1.00  0.00     0.159 C 
ATOM      5  O   UNL     1      28.703 -40.931 -18.776  1.00  0.00    -0.295 OA
ATOM      6  C   UNL     1      27.795 -42.492 -20.425  1.00  0.00     0.067 C 
ATOM      7  C   UNL     1      28.718 -43.461 -21.198  1.00  0.00     0.021 C 
ATOM      8  C   UNL     1      28.175 -44.576 -20.275  1.00  0.00     0.022 C 
ATOM      9  C   UNL     1      26.894 -43.713 -20.080  1.00  0.00    -0.019 C 
ATOM     10  C   UNL     1      26.192 -43.744 -18.693  1.00  0.00     0.012 C 
ATOM     11  C   UNL     1      25.828 -43.986 -21.171  1.00  0.00     0.012 C 
ENDROOT
TORSDOF 0
ENDMDL
MODEL 3
REMARK VINA RESULT:    -4.009     13.436     14.618
REMARK INTER + INTRA:          -4.009
REMARK INTER:                  -4.009
REMARK INTRA:                   0.000
REMARK UNBOUND:                 0.000
REMARK SMILES CC1=CC(=O)[C@H]2C[C@@H]1C2(C)C
REMARK SMILES IDX 1 1 2 2 3 3 4 4 5 5 6 6 7 7 8 8 9 9 10 10 11 11
REMARK H PARENT
REMARK Flexibility Score: inf
ROOT
ATOM      1  C   UNL     1      25.733 -43.346 -17.315  1.00  0.00     0.040 C 
ATOM      2  C   UNL     1      26.862 -43.720 -18.221  1.00  0.00    -0.066 C 
ATOM      3  C   UNL     1      27.921 -44.449 -17.772  1.00  0.00     0.047 C 
ATOM      4  C   UNL     1      29.003 -44.732 -18.770  1.00  0.00     0.159 C 
ATOM      5  O   UNL     1      30.050 -45.361 -18.466  1.00  0.00    -0.295 OA
ATOM      6  C   UNL     1      28.747 -44.201 -20.181  1.00  0.00     0.067 C 
ATOM      7  C   UNL     1      27.283 -44.597 -20.474  1.00  0.00     0.021 C 
ATOM      8  C   UNL     1      26.876 -43.314 -19.711  1.00  0.00     0.022 C 
ATOM      9  C   UNL     1      28.269 -42.724 -20.075  1.00  0.00    -0.019 C 
ATOM     10  C   UNL     1      28.966 -41.795 -19.041  1.00  0.00     0.012 C 
ATOM     11  C   UNL     1      28.266 -42.006 -21.448  1.00  0.00     0.012 C 
ENDROOT
TORSDOF 0
ENDMDL
MODEL 4
REMARK VINA RESULT:    -4.004      2.042      3.754
REMARK INTER + INTRA:          -4.004
REMARK INTER:                  -4.004
REMARK INTRA:                   0.000
REMARK UNBOUND:                 0.000
REMARK SMILES CC1=CC(=O)[C@H]2C[C@@H]1C2(C)C
REMARK SMILES IDX 1 1 2 2 3 3 4 4 5 5 6 6 7 7 8 8 9 9 10 10 11 11
REMARK H PARENT
REMARK Flexibility Score: inf
ROOT
ATOM      1  C   UNL     1      20.720 -45.735 -11.419  1.00  0.00     0.040 C 
ATOM      2  C   UNL     1      19.439 -45.256 -10.816  1.00  0.00    -0.066 C 
ATOM      3  C   UNL     1      18.684 -44.297 -11.421  1.00  0.00     0.047 C 
ATOM      4  C   UNL     1      17.438 -43.882 -10.701  1.00  0.00     0.159 C 
ATOM      5  O   UNL     1      16.679 -42.977 -11.138  1.00  0.00    -0.295 OA
ATOM      6  C   UNL     1      17.153 -44.631  -9.399  1.00  0.00     0.067 C 
ATOM      7  C   UNL     1      17.399 -46.114  -9.755  1.00  0.00     0.021 C 
ATOM      8  C   UNL     1      18.898 -45.837  -9.491  1.00  0.00     0.022 C 
ATOM      9  C   UNL     1      18.460 -44.673  -8.556  1.00  0.00    -0.019 C 
ATOM     10  C   UNL     1      19.347 -43.397  -8.506  1.00  0.00     0.012 C 
ATOM     11  C   UNL     1      18.208 -45.147  -7.102  1.00  0.00     0.012 C 
ENDROOT
TORSDOF 0
ENDMDL
MODEL 5
REMARK VINA RESULT:    -3.940     13.007     14.377
REMARK INTER + INTRA:          -3.940
REMARK INTER:                  -3.940
REMARK INTRA:                   0.000
REMARK UNBOUND:                 0.000
REMARK SMILES CC1=CC(=O)[C@H]2C[C@@H]1C2(C)C
REMARK SMILES IDX 1 1 2 2 3 3 4 4 5 5 6 6 7 7 8 8 9 9 10 10 11 11
REMARK H PARENT
REMARK Flexibility Score: inf
ROOT
ATOM      1  C   UNL     1      25.160 -43.759 -17.841  1.00  0.00     0.040 C 
ATOM      2  C   UNL     1      26.615 -43.448 -17.994  1.00  0.00    -0.066 C 
ATOM      3  C   UNL     1      27.036 -42.283 -18.558  1.00  0.00     0.047 C 
ATOM      4  C   UNL     1      28.519 -42.104 -18.683  1.00  0.00     0.159 C 
ATOM      5  O   UNL     1      29.030 -41.088 -19.223  1.00  0.00    -0.295 OA
ATOM      6  C   UNL     1      29.366 -43.241 -18.111  1.00  0.00     0.067 C 
ATOM      7  C   UNL     1      28.722 -43.539 -16.740  1.00  0.00     0.021 C 
ATOM      8  C   UNL     1      27.709 -44.422 -17.505  1.00  0.00     0.022 C 
ATOM      9  C   UNL     1      28.785 -44.593 -18.616  1.00  0.00    -0.019 C 
ATOM     10  C   UNL     1      28.307 -44.686 -20.093  1.00  0.00     0.012 C 
ATOM     11  C   UNL     1      29.737 -45.784 -18.339  1.00  0.00     0.012 C 
ENDROOT
TORSDOF 0
ENDMDL
MODEL 6
REMARK VINA RESULT:    -3.887      1.665      2.990
REMARK INTER + INTRA:          -3.887
REMARK INTER:                  -3.887
REMARK INTRA:                   0.000
REMARK UNBOUND:                 0.000
REMARK SMILES CC1=CC(=O)[C@H]2C[C@@H]1C2(C)C
REMARK SMILES IDX 1 1 2 2 3 3 4 4 5 5 6 6 7 7 8 8 9 9 10 10 11 11
REMARK H PARENT
REMARK Flexibility Score: inf
ROOT
ATOM      1  C   UNL     1      16.772 -42.508 -10.862  1.00  0.00     0.040 C 
ATOM      2  C   UNL     1      16.983 -43.696  -9.979  1.00  0.00    -0.066 C 
ATOM      3  C   UNL     1      16.242 -43.884  -8.853  1.00  0.00     0.047 C 
ATOM      4  C   UNL     1      16.571 -45.097  -8.037  1.00  0.00     0.159 C 
ATOM      5  O   UNL     1      15.983 -45.359  -6.955  1.00  0.00    -0.295 OA
ATOM      6  C   UNL     1      17.670 -45.993  -8.609  1.00  0.00     0.067 C 
ATOM      7  C   UNL     1      17.310 -46.125 -10.105  1.00  0.00     0.021 C 
ATOM      8  C   UNL     1      18.038 -44.776 -10.309  1.00  0.00     0.022 C 
ATOM      9  C   UNL     1      18.869 -45.096  -9.033  1.00  0.00    -0.019 C 
ATOM     10  C   UNL     1      19.273 -43.916  -8.105  1.00  0.00     0.012 C 
ATOM     11  C   UNL     1      20.141 -45.922  -9.349  1.00  0.00     0.012 C 
ENDROOT
TORSDOF 0
ENDMDL
MODEL 7
REMARK VINA RESULT:    -3.828     13.307     14.689
REMARK INTER + INTRA:          -3.828
REMARK INTER:                  -3.828
REMARK INTRA:                   0.000
REMARK UNBOUND:                 0.000
REMARK SMILES CC1=CC(=O)[C@H]2C[C@@H]1C2(C)C
REMARK SMILES IDX 1 1 2 2 3 3 4 4 5 5 6 6 7 7 8 8 9 9 10 10 11 11
REMARK H PARENT
REMARK Flexibility Score: inf
ROOT
ATOM      1  C   UNL     1      28.074 -40.630 -18.173  1.00  0.00     0.040 C 
ATOM      2  C   UNL     1      27.810 -41.984 -18.750  1.00  0.00    -0.066 C 
ATOM      3  C   UNL     1      26.545 -42.397 -19.042  1.00  0.00     0.047 C 
ATOM      4  C   UNL     1      26.410 -43.786 -19.586  1.00  0.00     0.159 C 
ATOM      5  O   UNL     1      25.291 -44.296 -19.857  1.00  0.00    -0.295 OA
ATOM      6  C   UNL     1      27.724 -44.541 -19.788  1.00  0.00     0.067 C 
ATOM      7  C   UNL     1      28.649 -43.513 -20.476  1.00  0.00     0.021 C 
ATOM      8  C   UNL     1      28.955 -42.972 -19.060  1.00  0.00     0.022 C 
ATOM      9  C   UNL     1      28.590 -44.379 -18.505  1.00  0.00    -0.019 C 
ATOM     10  C   UNL     1      27.884 -44.463 -17.123  1.00  0.00     0.012 C 
ATOM     11  C   UNL     1      29.804 -45.341 -18.490  1.00  0.00     0.012 C 
ENDROOT
TORSDOF 0
ENDMDL
MODEL 8
REMARK VINA RESULT:    -3.815     14.054     15.627
REMARK INTER + INTRA:          -3.815
REMARK INTER:                  -3.815
REMARK INTRA:                   0.000
REMARK UNBOUND:                 0.000
REMARK SMILES CC1=CC(=O)[C@H]2C[C@@H]1C2(C)C
REMARK SMILES IDX 1 1 2 2 3 3 4 4 5 5 6 6 7 7 8 8 9 9 10 10 11 11
REMARK H PARENT
REMARK Flexibility Score: inf
ROOT
ATOM      1  C   UNL     1      27.592 -42.328 -23.205  1.00  0.00     0.040 C 
ATOM      2  C   UNL     1      27.913 -42.645 -21.780  1.00  0.00    -0.066 C 
ATOM      3  C   UNL     1      28.448 -43.846 -21.423  1.00  0.00     0.047 C 
ATOM      4  C   UNL     1      28.697 -44.052 -19.960  1.00  0.00     0.159 C 
ATOM      5  O   UNL     1      29.150 -45.134 -19.501  1.00  0.00    -0.295 OA
ATOM      6  C   UNL     1      28.358 -42.861 -19.063  1.00  0.00     0.067 C 
ATOM      7  C   UNL     1      28.967 -41.648 -19.801  1.00  0.00     0.021 C 
ATOM      8  C   UNL     1      27.673 -41.624 -20.647  1.00  0.00     0.022 C 
ATOM      9  C   UNL     1      26.952 -42.327 -19.460  1.00  0.00    -0.019 C 
ATOM     10  C   UNL     1      25.835 -43.358 -19.786  1.00  0.00     0.012 C 
ATOM     11  C   UNL     1      26.393 -41.316 -18.427  1.00  0.00     0.012 C 
ENDROOT
TORSDOF 0
ENDMDL
MODEL 9
REMARK VINA RESULT:    -3.806     13.055     14.395
REMARK INTER + INTRA:          -3.806
REMARK INTER:                  -3.806
REMARK INTRA:                   0.000
REMARK UNBOUND:                 0.000
REMARK SMILES CC1=CC(=O)[C@H]2C[C@@H]1C2(C)C
REMARK SMILES IDX 1 1 2 2 3 3 4 4 5 5 6 6 7 7 8 8 9 9 10 10 11 11
REMARK H PARENT
REMARK Flexibility Score: inf
ROOT
ATOM      1  C   UNL     1      28.994 -41.701 -20.514  1.00  0.00     0.040 C 
ATOM      2  C   UNL     1      28.521 -42.609 -19.425  1.00  0.00    -0.066 C 
ATOM      3  C   UNL     1      27.329 -43.261 -19.511  1.00  0.00     0.047 C 
ATOM      4  C   UNL     1      26.955 -44.119 -18.341  1.00  0.00     0.159 C 
ATOM      5  O   UNL     1      25.861 -44.740 -18.285  1.00  0.00    -0.295 OA
ATOM      6  C   UNL     1      27.991 -44.184 -17.219  1.00  0.00     0.067 C 
ATOM      7  C   UNL     1      29.332 -44.399 -17.956  1.00  0.00     0.021 C 
ATOM      8  C   UNL     1      29.367 -42.867 -18.158  1.00  0.00     0.022 C 
ATOM      9  C   UNL     1      28.464 -42.737 -16.897  1.00  0.00    -0.019 C 
ATOM     10  C   UNL     1      27.402 -41.602 -16.868  1.00  0.00     0.012 C 
ATOM     11  C   UNL     1      29.288 -42.664 -15.587  1.00  0.00     0.012 C 
ENDROOT
TORSDOF 0
ENDMDL
