MODEL 1
REMARK VINA RESULT:    -4.642      0.000      0.000
REMARK INTER + INTRA:          -7.184
REMARK INTER:                  -6.542
REMARK INTRA:                  -0.642
REMARK UNBOUND:                -0.642
REMARK SMILES C=CCCCCCCC(=O)[O-]
REMARK SMILES IDX 6 1 7 2 8 3 9 4 10 5 11 6 5 7 4 8 3 9 2 10 1 11
REMARK H PARENT
REMARK Flexibility Score: inf
ROOT
ATOM      1  C   UNL     1      18.044  23.506   6.467  1.00  0.00     0.000 C 
ENDROOT
BRANCH   1   2
ATOM      2  C   UNL     1      17.220  24.230   7.541  1.00  0.00     0.006 C 
BRANCH   2   3
ATOM      3  C   UNL     1      18.024  25.369   8.175  1.00  0.00     0.053 C 
BRANCH   3   4
ATOM      4  C   UNL     1      18.301  25.076   9.616  1.00  0.00     0.041 C 
ATOM      5  O   UNL     1      19.278  25.618  10.196  1.00  0.00    -0.550 OA
ATOM      6  O   UNL     1      17.450  24.242  10.331  1.00  0.00    -0.550 OA
ENDBRANCH   3   4
ENDBRANCH   2   3
ENDBRANCH   1   2
BRANCH   1   7
ATOM      7  C   UNL     1      19.004  22.455   7.053  1.00  0.00     0.000 C 
BRANCH   7   8
ATOM      8  C   UNL     1      20.364  22.341   6.336  1.00  0.00     0.004 C 
BRANCH   8   9
ATOM      9  C   UNL     1      21.581  22.378   7.273  1.00  0.00     0.027 C 
BRANCH   9  10
ATOM     10  C   UNL     1      21.371  23.334   8.418  1.00  0.00    -0.035 C 
ATOM     11  C   UNL     1      21.722  23.025   9.669  1.00  0.00     0.004 C 
ENDBRANCH   9  10
ENDBRANCH   8   9
ENDBRANCH   7   8
ENDBRANCH   1   7
TORSDOF 7
ENDMDL
MODEL 2
REMARK VINA RESULT:    -4.588      1.573      3.519
REMARK INTER + INTRA:          -7.107
REMARK INTER:                  -6.351
REMARK INTRA:                  -0.756
REMARK UNBOUND:                -0.642
REMARK SMILES C=CCCCCCCC(=O)[O-]
REMARK SMILES IDX 6 1 7 2 8 3 9 4 10 5 11 6 5 7 4 8 3 9 2 10 1 11
REMARK H PARENT
REMARK Flexibility Score: inf
ROOT
ATOM      1  C   UNL     1      19.351  22.797   6.265  1.00  0.00     0.000 C 
ENDROOT
BRANCH   1   2
ATOM      2  C   UNL     1      20.362  22.189   7.247  1.00  0.00     0.006 C 
BRANCH   2   3
ATOM      3  C   UNL     1      20.909  23.256   8.201  1.00  0.00     0.053 C 
BRANCH   3   4
ATOM      4  C   UNL     1      20.585  22.905   9.619  1.00  0.00     0.041 C 
ATOM      5  O   UNL     1      21.121  23.539  10.567  1.00  0.00    -0.550 OA
ATOM      6  O   UNL     1      19.655  21.910   9.894  1.00  0.00    -0.550 OA
ENDBRANCH   3   4
ENDBRANCH   2   3
ENDBRANCH   1   2
BRANCH   1   7
ATOM      7  C   UNL     1      17.914  22.815   6.817  1.00  0.00     0.000 C 
BRANCH   7   8
ATOM      8  C   UNL     1      17.329  24.219   7.068  1.00  0.00     0.004 C 
BRANCH   8   9
ATOM      9  C   UNL     1      17.429  24.697   8.525  1.00  0.00     0.027 C 
BRANCH   9  10
ATOM     10  C   UNL     1      17.844  26.142   8.609  1.00  0.00    -0.035 C 
ATOM     11  C   UNL     1      19.087  26.502   8.940  1.00  0.00     0.004 C 
ENDBRANCH   9  10
ENDBRANCH   8   9
ENDBRANCH   7   8
ENDBRANCH   1   7
TORSDOF 7
ENDMDL
MODEL 3
REMARK VINA RESULT:    -4.556      1.463      2.898
REMARK INTER + INTRA:          -7.063
REMARK INTER:                  -6.442
REMARK INTRA:                  -0.621
REMARK UNBOUND:                -0.642
REMARK SMILES C=CCCCCCCC(=O)[O-]
REMARK SMILES IDX 6 1 7 2 8 3 9 4 10 5 11 6 5 7 4 8 3 9 2 10 1 11
REMARK H PARENT
REMARK Flexibility Score: inf
ROOT
ATOM      1  C   UNL     1      20.763  23.238  10.352  1.00  0.00     0.000 C 
ENDROOT
BRANCH   1   2
ATOM      2  C   UNL     1      19.378  23.731   9.908  1.00  0.00     0.006 C 
BRANCH   2   3
ATOM      3  C   UNL     1      19.498  24.775   8.794  1.00  0.00     0.053 C 
BRANCH   3   4
ATOM      4  C   UNL     1      18.647  25.967   9.099  1.00  0.00     0.041 C 
ATOM      5  O   UNL     1      19.180  27.082   9.339  1.00  0.00    -0.550 OA
ATOM      6  O   UNL     1      17.262  25.856   9.072  1.00  0.00    -0.550 OA
ENDBRANCH   3   4
ENDBRANCH   2   3
ENDBRANCH   1   2
BRANCH   1   7
ATOM      7  C   UNL     1      21.772  23.157   9.193  1.00  0.00     0.000 C 
BRANCH   7   8
ATOM      8  C   UNL     1      21.709  21.860   8.361  1.00  0.00     0.004 C 
BRANCH   8   9
ATOM      9  C   UNL     1      21.605  22.083   6.844  1.00  0.00     0.027 C 
BRANCH   9  10
ATOM     10  C   UNL     1      20.260  21.663   6.312  1.00  0.00    -0.035 C 
ATOM     11  C   UNL     1      19.388  22.546   5.820  1.00  0.00     0.004 C 
ENDBRANCH   9  10
ENDBRANCH   8   9
ENDBRANCH   7   8
ENDBRANCH   1   7
TORSDOF 7
ENDMDL
MODEL 4
REMARK VINA RESULT:    -4.542      1.673      3.136
REMARK INTER + INTRA:          -7.043
REMARK INTER:                  -6.216
REMARK INTRA:                  -0.827
REMARK UNBOUND:                -0.642
REMARK SMILES C=CCCCCCCC(=O)[O-]
REMARK SMILES IDX 6 1 7 2 8 3 9 4 10 5 11 6 5 7 4 8 3 9 2 10 1 11
REMARK H PARENT
REMARK Flexibility Score: inf
ROOT
ATOM      1  C   UNL     1      18.235  25.654   8.361  1.00  0.00     0.000 C 
ENDROOT
BRANCH   1   2
ATOM      2  C   UNL     1      19.160  25.233   9.512  1.00  0.00     0.006 C 
BRANCH   2   3
ATOM      3  C   UNL     1      18.615  23.993  10.229  1.00  0.00     0.053 C 
BRANCH   3   4
ATOM      4  C   UNL     1      19.669  22.935  10.320  1.00  0.00     0.041 C 
ATOM      5  O   UNL     1      19.384  21.734  10.073  1.00  0.00    -0.550 OA
ATOM      6  O   UNL     1      20.978  23.284  10.630  1.00  0.00    -0.550 OA
ENDBRANCH   3   4
ENDBRANCH   2   3
ENDBRANCH   1   2
BRANCH   1   7
ATOM      7  C   UNL     1      17.229  24.558   7.968  1.00  0.00     0.000 C 
BRANCH   7   8
ATOM      8  C   UNL     1      17.501  23.876   6.613  1.00  0.00     0.004 C 
BRANCH   8   9
ATOM      9  C   UNL     1      18.228  22.526   6.716  1.00  0.00     0.027 C 
BRANCH   9  10
ATOM     10  C   UNL     1      19.595  22.582   6.086  1.00  0.00    -0.035 C 
ATOM     11  C   UNL     1      20.711  22.457   6.809  1.00  0.00     0.004 C 
ENDBRANCH   9  10
ENDBRANCH   8   9
ENDBRANCH   7   8
ENDBRANCH   1   7
TORSDOF 7
ENDMDL
MODEL 5
REMARK VINA RESULT:    -4.541      1.113      1.466
REMARK INTER + INTRA:          -7.042
REMARK INTER:                  -6.480
REMARK INTRA:                  -0.561
REMARK UNBOUND:                -0.642
REMARK SMILES C=CCCCCCCC(=O)[O-]
REMARK SMILES IDX 6 1 7 2 8 3 9 4 10 5 11 6 5 7 4 8 3 9 2 10 1 11
REMARK H PARENT
REMARK Flexibility Score: inf
ROOT
ATOM      1  C   UNL     1      18.244  23.253   6.251  1.00  0.00     0.000 C 
ENDROOT
BRANCH   1   2
ATOM      2  C   UNL     1      17.617  24.249   7.237  1.00  0.00     0.006 C 
BRANCH   2   3
ATOM      3  C   UNL     1      18.641  24.705   8.282  1.00  0.00     0.053 C 
BRANCH   3   4
ATOM      4  C   UNL     1      18.273  26.051   8.823  1.00  0.00     0.041 C 
ATOM      5  O   UNL     1      17.098  26.276   9.215  1.00  0.00    -0.550 OA
ATOM      6  O   UNL     1      19.241  27.041   8.939  1.00  0.00    -0.550 OA
ENDBRANCH   3   4
ENDBRANCH   2   3
ENDBRANCH   1   2
BRANCH   1   7
ATOM      7  C   UNL     1      19.234  22.285   6.923  1.00  0.00     0.000 C 
BRANCH   7   8
ATOM      8  C   UNL     1      20.620  22.201   6.254  1.00  0.00     0.004 C 
BRANCH   8   9
ATOM      9  C   UNL     1      21.801  22.228   7.237  1.00  0.00     0.027 C 
BRANCH   9  10
ATOM     10  C   UNL     1      21.336  22.166   8.668  1.00  0.00    -0.035 C 
ATOM     11  C   UNL     1      21.778  23.021   9.593  1.00  0.00     0.004 C 
ENDBRANCH   9  10
ENDBRANCH   8   9
ENDBRANCH   7   8
ENDBRANCH   1   7
TORSDOF 7
ENDMDL
MODEL 6
REMARK VINA RESULT:    -4.426      1.093      3.272
REMARK INTER + INTRA:          -6.880
REMARK INTER:                  -6.186
REMARK INTRA:                  -0.694
REMARK UNBOUND:                -0.642
REMARK SMILES C=CCCCCCCC(=O)[O-]
REMARK SMILES IDX 6 1 7 2 8 3 9 4 10 5 11 6 5 7 4 8 3 9 2 10 1 11
REMARK H PARENT
REMARK Flexibility Score: inf
ROOT
ATOM      1  C   UNL     1      21.449  23.123   8.508  1.00  0.00     0.000 C 
ENDROOT
BRANCH   1   2
ATOM      2  C   UNL     1      20.983  23.159   9.970  1.00  0.00     0.006 C 
BRANCH   2   3
ATOM      3  C   UNL     1      19.514  22.741  10.089  1.00  0.00     0.053 C 
BRANCH   3   4
ATOM      4  C   UNL     1      18.639  23.942  10.262  1.00  0.00     0.041 C 
ATOM      5  O   UNL     1      17.500  23.827  10.785  1.00  0.00    -0.550 OA
ATOM      6  O   UNL     1      19.103  25.198   9.888  1.00  0.00    -0.550 OA
ENDBRANCH   3   4
ENDBRANCH   2   3
ENDBRANCH   1   2
BRANCH   1   7
ATOM      7  C   UNL     1      20.782  22.000   7.693  1.00  0.00     0.000 C 
BRANCH   7   8
ATOM      8  C   UNL     1      20.499  22.343   6.217  1.00  0.00     0.004 C 
BRANCH   8   9
ATOM      9  C   UNL     1      19.008  22.378   5.848  1.00  0.00     0.027 C 
BRANCH   9  10
ATOM     10  C   UNL     1      18.279  23.471   6.584  1.00  0.00    -0.035 C 
ATOM     11  C   UNL     1      16.990  23.361   6.916  1.00  0.00     0.004 C 
ENDBRANCH   9  10
ENDBRANCH   8   9
ENDBRANCH   7   8
ENDBRANCH   1   7
TORSDOF 7
ENDMDL
MODEL 7
REMARK VINA RESULT:    -4.380      2.995      4.872
REMARK INTER + INTRA:          -6.815
REMARK INTER:                  -6.100
REMARK INTRA:                  -0.715
REMARK UNBOUND:                -0.642
REMARK SMILES C=CCCCCCCC(=O)[O-]
REMARK SMILES IDX 6 1 7 2 8 3 9 4 10 5 11 6 5 7 4 8 3 9 2 10 1 11
REMARK H PARENT
REMARK Flexibility Score: inf
ROOT
ATOM      1  C   UNL     1      20.758  23.491  10.598  1.00  0.00     0.000 C 
ENDROOT
BRANCH   1   2
ATOM      2  C   UNL     1      21.812  23.102   9.552  1.00  0.00     0.006 C 
BRANCH   2   3
ATOM      3  C   UNL     1      21.187  22.994   8.157  1.00  0.00     0.053 C 
BRANCH   3   4
ATOM      4  C   UNL     1      21.794  21.857   7.398  1.00  0.00     0.041 C 
ATOM      5  O   UNL     1      22.468  20.981   8.001  1.00  0.00    -0.550 OA
ATOM      6  O   UNL     1      21.575  21.738   6.031  1.00  0.00    -0.550 OA
ENDBRANCH   3   4
ENDBRANCH   2   3
ENDBRANCH   1   2
BRANCH   1   7
ATOM      7  C   UNL     1      19.347  22.987  10.245  1.00  0.00     0.000 C 
BRANCH   7   8
ATOM      8  C   UNL     1      18.243  24.063  10.274  1.00  0.00     0.004 C 
BRANCH   8   9
ATOM      9  C   UNL     1      17.742  24.496   8.887  1.00  0.00     0.027 C 
BRANCH   9  10
ATOM     10  C   UNL     1      18.520  25.671   8.357  1.00  0.00    -0.035 C 
ATOM     11  C   UNL     1      19.068  26.580   9.168  1.00  0.00     0.004 C 
ENDBRANCH   9  10
ENDBRANCH   8   9
ENDBRANCH   7   8
ENDBRANCH   1   7
TORSDOF 7
ENDMDL
MODEL 8
REMARK VINA RESULT:    -4.337      2.457      4.193
REMARK INTER + INTRA:          -6.754
REMARK INTER:                  -6.252
REMARK INTRA:                  -0.502
REMARK UNBOUND:                -0.642
REMARK SMILES C=CCCCCCCC(=O)[O-]
REMARK SMILES IDX 6 1 7 2 8 3 9 4 10 5 11 6 5 7 4 8 3 9 2 10 1 11
REMARK H PARENT
REMARK Flexibility Score: inf
ROOT
ATOM      1  C   UNL     1      17.886  22.626   6.603  1.00  0.00     0.000 C 
ENDROOT
BRANCH   1   2
ATOM      2  C   UNL     1      19.166  22.578   5.757  1.00  0.00     0.006 C 
BRANCH   2   3
ATOM      3  C   UNL     1      20.398  22.342   6.637  1.00  0.00     0.053 C 
BRANCH   3   4
ATOM      4  C   UNL     1      20.159  21.203   7.578  1.00  0.00     0.041 C 
ATOM      5  O   UNL     1      20.105  20.023   7.143  1.00  0.00    -0.550 OA
ATOM      6  O   UNL     1      20.044  21.442   8.942  1.00  0.00    -0.550 OA
ENDBRANCH   3   4
ENDBRANCH   2   3
ENDBRANCH   1   2
BRANCH   1   7
ATOM      7  C   UNL     1      17.398  24.061   6.874  1.00  0.00     0.000 C 
BRANCH   7   8
ATOM      8  C   UNL     1      17.549  24.539   8.332  1.00  0.00     0.004 C 
BRANCH   8   9
ATOM      9  C   UNL     1      18.975  24.965   8.715  1.00  0.00     0.027 C 
BRANCH   9  10
ATOM     10  C   UNL     1      19.064  26.448   8.960  1.00  0.00    -0.035 C 
ATOM     11  C   UNL     1      18.034  27.266   8.729  1.00  0.00     0.004 C 
ENDBRANCH   9  10
ENDBRANCH   8   9
ENDBRANCH   7   8
ENDBRANCH   1   7
TORSDOF 7
ENDMDL
MODEL 9
REMARK VINA RESULT:    -4.248      2.164      4.231
REMARK INTER + INTRA:          -6.629
REMARK INTER:                  -5.778
REMARK INTRA:                  -0.851
REMARK UNBOUND:                -0.642
REMARK SMILES C=CCCCCCCC(=O)[O-]
REMARK SMILES IDX 6 1 7 2 8 3 9 4 10 5 11 6 5 7 4 8 3 9 2 10 1 11
REMARK H PARENT
REMARK Flexibility Score: inf
ROOT
ATOM      1  C   UNL     1      21.550  22.615   9.369  1.00  0.00     0.000 C 
ENDROOT
BRANCH   1   2
ATOM      2  C   UNL     1      21.395  23.308   8.008  1.00  0.00     0.006 C 
BRANCH   2   3
ATOM      3  C   UNL     1      20.795  22.353   6.971  1.00  0.00     0.053 C 
BRANCH   3   4
ATOM      4  C   UNL     1      19.301  22.428   6.993  1.00  0.00     0.041 C 
ATOM      5  O   UNL     1      18.710  23.433   6.518  1.00  0.00    -0.550 OA
ATOM      6  O   UNL     1      18.559  21.366   7.496  1.00  0.00    -0.550 OA
ENDBRANCH   3   4
ENDBRANCH   2   3
ENDBRANCH   1   2
BRANCH   1   7
ATOM      7  C   UNL     1      20.798  23.339  10.501  1.00  0.00     0.000 C 
BRANCH   7   8
ATOM      8  C   UNL     1      19.285  23.052  10.568  1.00  0.00     0.004 C 
BRANCH   8   9
ATOM      9  C   UNL     1      18.396  24.222  10.117  1.00  0.00     0.027 C 
BRANCH   9  10
ATOM     10  C   UNL     1      19.190  25.490   9.950  1.00  0.00    -0.035 C 
ATOM     11  C   UNL     1      18.999  26.313   8.916  1.00  0.00     0.004 C 
ENDBRANCH   9  10
ENDBRANCH   8   9
ENDBRANCH   7   8
ENDBRANCH   1   7
TORSDOF 7
ENDMDL
