MODEL 1
REMARK VINA RESULT:    -5.127      0.000      0.000
REMARK INTER + INTRA:          -5.114
REMARK INTER:                  -5.576
REMARK INTRA:                   0.462
REMARK UNBOUND:                 0.462
REMARK SMILES C[C@H]1[C@H](C)CC[C@]2(C(=O)[O-])CC[C@]3(C)C(=CC[C@@H]4[C@]5(C)CC[C@@H](O)C(C)(C)[C@H]5CC[C@@]43C)[C@@H]12
REMARK SMILES IDX 7 1 6 2 11 3 33 4 5 5 12 6 15 7 2 8 3 9 13 10 16 11 1 12
REMARK SMILES IDX 4 13 14 14 31 15 17 16 18 17 30 18 32 19 19 20 29 21 28 22
REMARK SMILES IDX 21 23 20 24 25 25 22 26 23 27 26 28 27 29 8 30 9 31 10 32
REMARK SMILES IDX 24 33
REMARK H PARENT 24 34
REMARK Flexibility Score: inf
ROOT
ATOM      1  C   UNL     1      12.922  44.337   9.723  1.00  0.00     0.017 C 
ATOM      2  C   UNL     1      13.362  43.805  11.127  1.00  0.00     0.014 C 
ATOM      3  C   UNL     1      14.125  45.139   9.083  1.00  0.00     0.014 C 
ATOM      4  C   UNL     1      11.725  45.321   9.907  1.00  0.00     0.030 C 
ATOM      5  C   UNL     1      12.194  43.324  12.015  1.00  0.00     0.004 C 
ATOM      6  C   UNL     1      13.778  46.123   7.903  1.00  0.00     0.013 C 
ATOM      7  C   UNL     1      11.444  46.035   8.589  1.00  0.00    -0.063 C 
ATOM      8  C   UNL     1      10.531  44.875  10.818  1.00  0.00    -0.003 C 
ATOM      9  C   UNL     1      11.064  44.360  12.188  1.00  0.00    -0.011 C 
ATOM     10  C   UNL     1      12.512  47.048   8.142  1.00  0.00    -0.006 C 
ATOM     11  C   UNL     1      10.785  45.357   7.624  1.00  0.00    -0.027 C 
ATOM     12  C   UNL     1       9.530  43.868  10.214  1.00  0.00     0.008 C 
ATOM     13  C   UNL     1      11.490  45.511  13.121  1.00  0.00     0.008 C 
ATOM     14  C   UNL     1      12.922  48.040   9.288  1.00  0.00     0.017 C 
ATOM     15  C   UNL     1      11.987  47.926   6.845  1.00  0.00    -0.020 C 
ATOM     16  C   UNL     1      10.938  45.669   6.169  1.00  0.00     0.032 C 
ATOM     17  C   UNL     1      10.867  47.187   5.971  1.00  0.00     0.006 C 
ATOM     18  C   UNL     1      13.218  48.302   5.974  1.00  0.00     0.008 C 
ATOM     19  C   UNL     1      11.330  49.258   7.333  1.00  0.00     0.012 C 
ATOM     20  C   UNL     1      10.660  47.691   4.443  1.00  0.00    -0.025 C 
ATOM     21  C   UNL     1      12.869  49.010   4.667  1.00  0.00     0.005 C 
ATOM     22  C   UNL     1      12.041  48.068   3.769  1.00  0.00     0.003 C 
ATOM     23  C   UNL     1      10.033  46.567   3.549  1.00  0.00     0.010 C 
ATOM     24  C   UNL     1       9.650  48.905   4.467  1.00  0.00     0.012 C 
ATOM     25  C   UNL     1      11.988  48.465   2.224  1.00  0.00    -0.006 C 
ATOM     26  C   UNL     1       9.919  46.917   2.056  1.00  0.00     0.033 C 
ATOM     27  C   UNL     1      11.266  47.310   1.440  1.00  0.00     0.120 C 
ATOM     28  C   UNL     1      13.435  48.587   1.670  1.00  0.00     0.014 C 
ATOM     29  C   UNL     1      11.299  49.838   1.961  1.00  0.00     0.014 C 
ENDROOT
BRANCH   1  30
ATOM     30  C   UNL     1      12.605  43.154   8.805  1.00  0.00     0.048 C 
ATOM     31  O   UNL     1      13.030  43.127   7.617  1.00  0.00    -0.550 OA
ATOM     32  O   UNL     1      11.897  42.050   9.263  1.00  0.00    -0.550 OA
ENDBRANCH   1  30
BRANCH  27  33
ATOM     33  O   UNL     1      11.035  47.649   0.095  1.00  0.00    -0.393 OA
ATOM     34  H   UNL     1      11.796  48.206  -0.214  1.00  0.00     0.210 HD
ENDBRANCH  27  33
TORSDOF 2
ENDMDL
MODEL 2
REMARK VINA RESULT:    -5.092      1.367      8.120
REMARK INTER + INTRA:          -5.077
REMARK INTER:                  -5.529
REMARK INTRA:                   0.452
REMARK UNBOUND:                 0.462
REMARK SMILES C[C@H]1[C@H](C)CC[C@]2(C(=O)[O-])CC[C@]3(C)C(=CC[C@@H]4[C@]5(C)CC[C@@H](O)C(C)(C)[C@H]5CC[C@@]43C)[C@@H]12
REMARK SMILES IDX 7 1 6 2 11 3 33 4 5 5 12 6 15 7 2 8 3 9 13 10 16 11 1 12
REMARK SMILES IDX 4 13 14 14 31 15 17 16 18 17 30 18 32 19 19 20 29 21 28 22
REMARK SMILES IDX 21 23 20 24 25 25 22 26 23 27 26 28 27 29 8 30 9 31 10 32
REMARK SMILES IDX 24 33
REMARK H PARENT 24 34
REMARK Flexibility Score: inf
ROOT
ATOM      1  C   UNL     1      10.287  48.044   2.019  1.00  0.00     0.017 C 
ATOM      2  C   UNL     1       9.822  48.871   0.775  1.00  0.00     0.014 C 
ATOM      3  C   UNL     1       9.062  47.871   3.003  1.00  0.00     0.014 C 
ATOM      4  C   UNL     1      11.403  48.839   2.766  1.00  0.00     0.030 C 
ATOM      5  C   UNL     1      10.979  49.425  -0.085  1.00  0.00     0.004 C 
ATOM      6  C   UNL     1       9.393  47.476   4.491  1.00  0.00     0.013 C 
ATOM      7  C   UNL     1      11.693  48.173   4.107  1.00  0.00    -0.063 C 
ATOM      8  C   UNL     1      12.582  49.434   1.923  1.00  0.00    -0.003 C 
ATOM      9  C   UNL     1      12.023  50.235   0.710  1.00  0.00    -0.011 C 
ATOM     10  C   UNL     1      10.579  48.288   5.160  1.00  0.00    -0.006 C 
ATOM     11  C   UNL     1      12.441  47.048   4.111  1.00  0.00    -0.027 C 
ATOM     12  C   UNL     1      13.677  48.450   1.463  1.00  0.00     0.008 C 
ATOM     13  C   UNL     1      11.475  51.616   1.121  1.00  0.00     0.008 C 
ATOM     14  C   UNL     1      10.048  49.757   5.322  1.00  0.00     0.017 C 
ATOM     15  C   UNL     1      11.100  47.749   6.633  1.00  0.00    -0.020 C 
ATOM     16  C   UNL     1      12.334  46.010   5.183  1.00  0.00     0.032 C 
ATOM     17  C   UNL     1      12.308  46.701   6.550  1.00  0.00     0.006 C 
ATOM     18  C   UNL     1       9.887  47.146   7.395  1.00  0.00     0.008 C 
ATOM     19  C   UNL     1      11.639  48.949   7.479  1.00  0.00     0.012 C 
ATOM     20  C   UNL     1      12.549  45.739   7.834  1.00  0.00    -0.025 C 
ATOM     21  C   UNL     1      10.246  46.491   8.726  1.00  0.00     0.005 C 
ATOM     22  C   UNL     1      11.177  45.287   8.481  1.00  0.00     0.003 C 
ATOM     23  C   UNL     1      13.294  44.421   7.429  1.00  0.00     0.010 C 
ATOM     24  C   UNL     1      13.470  46.516   8.855  1.00  0.00     0.012 C 
ATOM     25  C   UNL     1      11.273  44.238   9.680  1.00  0.00    -0.006 C 
ATOM     26  C   UNL     1      13.452  43.393   8.562  1.00  0.00     0.033 C 
ATOM     27  C   UNL     1      12.110  43.001   9.190  1.00  0.00     0.120 C 
ATOM     28  C   UNL     1       9.848  43.738  10.045  1.00  0.00     0.014 C 
ATOM     29  C   UNL     1      11.877  44.843  10.983  1.00  0.00     0.014 C 
ENDROOT
BRANCH   1  30
ATOM     30  C   UNL     1      10.728  46.649   1.569  1.00  0.00     0.048 C 
ATOM     31  O   UNL     1      10.340  45.620   2.186  1.00  0.00    -0.550 OA
ATOM     32  O   UNL     1      11.514  46.466   0.438  1.00  0.00    -0.550 OA
ENDBRANCH   1  30
BRANCH  27  33
ATOM     33  O   UNL     1      12.378  42.098  10.235  1.00  0.00    -0.393 OA
ATOM     34  H   UNL     1      12.089  42.521  11.084  1.00  0.00     0.210 HD
ENDBRANCH  27  33
TORSDOF 2
ENDMDL
MODEL 3
REMARK VINA RESULT:    -4.913      1.971      7.926
REMARK INTER + INTRA:          -4.882
REMARK INTER:                  -5.312
REMARK INTRA:                   0.430
REMARK UNBOUND:                 0.462
REMARK SMILES C[C@H]1[C@H](C)CC[C@]2(C(=O)[O-])CC[C@]3(C)C(=CC[C@@H]4[C@]5(C)CC[C@@H](O)C(C)(C)[C@H]5CC[C@@]43C)[C@@H]12
REMARK SMILES IDX 7 1 6 2 11 3 33 4 5 5 12 6 15 7 2 8 3 9 13 10 16 11 1 12
REMARK SMILES IDX 4 13 14 14 31 15 17 16 18 17 30 18 32 19 19 20 29 21 28 22
REMARK SMILES IDX 21 23 20 24 25 25 22 26 23 27 26 28 27 29 8 30 9 31 10 32
REMARK SMILES IDX 24 33
REMARK H PARENT 24 34
REMARK Flexibility Score: inf
ROOT
ATOM      1  C   UNL     1      10.856  47.534   5.019  1.00  0.00     0.017 C 
ATOM      2  C   UNL     1      10.636  48.783   4.103  1.00  0.00     0.014 C 
ATOM      3  C   UNL     1       9.715  47.498   6.113  1.00  0.00     0.014 C 
ATOM      4  C   UNL     1      12.227  47.678   5.750  1.00  0.00     0.030 C 
ATOM      5  C   UNL     1      11.856  49.150   3.231  1.00  0.00     0.004 C 
ATOM      6  C   UNL     1       9.979  46.613   7.389  1.00  0.00     0.013 C 
ATOM      7  C   UNL     1      12.347  46.604   6.826  1.00  0.00    -0.063 C 
ATOM      8  C   UNL     1      13.483  48.070   4.900  1.00  0.00    -0.003 C 
ATOM      9  C   UNL     1      13.170  49.317   4.022  1.00  0.00    -0.011 C 
ATOM     10  C   UNL     1      11.417  46.772   8.039  1.00  0.00    -0.006 C 
ATOM     11  C   UNL     1      12.645  45.344   6.438  1.00  0.00    -0.027 C 
ATOM     12  C   UNL     1      14.125  46.955   4.048  1.00  0.00     0.008 C 
ATOM     13  C   UNL     1      13.177  50.625   4.837  1.00  0.00     0.008 C 
ATOM     14  C   UNL     1      11.455  48.225   8.634  1.00  0.00     0.017 C 
ATOM     15  C   UNL     1      11.805  45.701   9.235  1.00  0.00    -0.020 C 
ATOM     16  C   UNL     1      12.244  44.139   7.229  1.00  0.00     0.032 C 
ATOM     17  C   UNL     1      12.553  44.385   8.710  1.00  0.00     0.006 C 
ATOM     18  C   UNL     1      10.510  45.335  10.010  1.00  0.00     0.008 C 
ATOM     19  C   UNL     1      12.790  46.369  10.250  1.00  0.00     0.012 C 
ATOM     20  C   UNL     1      12.518  43.076   9.667  1.00  0.00    -0.025 C 
ATOM     21  C   UNL     1      10.696  44.251  11.069  1.00  0.00     0.005 C 
ATOM     22  C   UNL     1      11.121  42.931  10.394  1.00  0.00     0.003 C 
ATOM     23  C   UNL     1      12.718  41.758   8.841  1.00  0.00     0.010 C 
ATOM     24  C   UNL     1      13.719  43.189  10.686  1.00  0.00     0.012 C 
ATOM     25  C   UNL     1      10.914  41.614  11.272  1.00  0.00    -0.006 C 
ATOM     26  C   UNL     1      12.572  40.460   9.652  1.00  0.00     0.033 C 
ATOM     27  C   UNL     1      11.222  40.364  10.370  1.00  0.00     0.120 C 
ATOM     28  C   UNL     1       9.431  41.522  11.727  1.00  0.00     0.014 C 
ATOM     29  C   UNL     1      11.775  41.596  12.571  1.00  0.00     0.014 C 
ENDROOT
BRANCH   1  30
ATOM     30  C   UNL     1      10.742  46.259   4.180  1.00  0.00     0.048 C 
ATOM     31  O   UNL     1       9.911  45.360   4.484  1.00  0.00    -0.550 OA
ATOM     32  O   UNL     1      11.499  46.077   3.030  1.00  0.00    -0.550 OA
ENDBRANCH   1  30
BRANCH  27  33
ATOM     33  O   UNL     1      11.218  39.167  11.109  1.00  0.00    -0.393 OA
ATOM     34  H   UNL     1      11.953  39.216  11.773  1.00  0.00     0.210 HD
ENDBRANCH  27  33
TORSDOF 2
ENDMDL
MODEL 4
REMARK VINA RESULT:    -4.728      1.831      8.148
REMARK INTER + INTRA:          -4.681
REMARK INTER:                  -5.152
REMARK INTRA:                   0.471
REMARK UNBOUND:                 0.462
REMARK SMILES C[C@H]1[C@H](C)CC[C@]2(C(=O)[O-])CC[C@]3(C)C(=CC[C@@H]4[C@]5(C)CC[C@@H](O)C(C)(C)[C@H]5CC[C@@]43C)[C@@H]12
REMARK SMILES IDX 7 1 6 2 11 3 33 4 5 5 12 6 15 7 2 8 3 9 13 10 16 11 1 12
REMARK SMILES IDX 4 13 14 14 31 15 17 16 18 17 30 18 32 19 19 20 29 21 28 22
REMARK SMILES IDX 21 23 20 24 25 25 22 26 23 27 26 28 27 29 8 30 9 31 10 32
REMARK SMILES IDX 24 33
REMARK H PARENT 24 34
REMARK Flexibility Score: inf
ROOT
ATOM      1  C   UNL     1      10.928  49.171   2.525  1.00  0.00     0.017 C 
ATOM      2  C   UNL     1      11.016  49.999   1.201  1.00  0.00     0.014 C 
ATOM      3  C   UNL     1      11.829  49.865   3.622  1.00  0.00     0.014 C 
ATOM      4  C   UNL     1      11.494  47.740   2.264  1.00  0.00     0.030 C 
ATOM      5  C   UNL     1      10.490  49.257  -0.047  1.00  0.00     0.004 C 
ATOM      6  C   UNL     1      12.244  48.989   4.863  1.00  0.00     0.013 C 
ATOM      7  C   UNL     1      11.646  47.002   3.590  1.00  0.00    -0.063 C 
ATOM      8  C   UNL     1      11.000  46.965   0.996  1.00  0.00    -0.003 C 
ATOM      9  C   UNL     1      11.122  47.867  -0.267  1.00  0.00    -0.011 C 
ATOM     10  C   UNL     1      12.754  47.527   4.519  1.00  0.00    -0.006 C 
ATOM     11  C   UNL     1      10.535  46.496   4.169  1.00  0.00    -0.027 C 
ATOM     12  C   UNL     1       9.596  46.327   1.071  1.00  0.00     0.008 C 
ATOM     13  C   UNL     1      12.575  47.980  -0.768  1.00  0.00     0.008 C 
ATOM     14  C   UNL     1      14.125  47.719   3.778  1.00  0.00     0.017 C 
ATOM     15  C   UNL     1      12.982  46.508   5.800  1.00  0.00    -0.020 C 
ATOM     16  C   UNL     1      10.418  46.281   5.645  1.00  0.00     0.032 C 
ATOM     17  C   UNL     1      11.700  45.618   6.159  1.00  0.00     0.006 C 
ATOM     18  C   UNL     1      13.439  47.349   7.024  1.00  0.00     0.008 C 
ATOM     19  C   UNL     1      14.125  45.491   5.475  1.00  0.00     0.012 C 
ATOM     20  C   UNL     1      11.623  44.992   7.653  1.00  0.00    -0.025 C 
ATOM     21  C   UNL     1      13.567  46.553   8.320  1.00  0.00     0.005 C 
ATOM     22  C   UNL     1      12.187  46.002   8.732  1.00  0.00     0.003 C 
ATOM     23  C   UNL     1      10.142  44.692   8.071  1.00  0.00     0.010 C 
ATOM     24  C   UNL     1      12.405  43.620   7.644  1.00  0.00     0.012 C 
ATOM     25  C   UNL     1      12.054  45.553  10.258  1.00  0.00    -0.006 C 
ATOM     26  C   UNL     1       9.964  44.213   9.521  1.00  0.00     0.033 C 
ATOM     27  C   UNL     1      10.550  45.197  10.540  1.00  0.00     0.120 C 
ATOM     28  C   UNL     1      12.447  46.739  11.182  1.00  0.00     0.014 C 
ATOM     29  C   UNL     1      12.993  44.369  10.637  1.00  0.00     0.014 C 
ENDROOT
BRANCH   1  30
ATOM     30  C   UNL     1       9.484  49.172   3.033  1.00  0.00     0.048 C 
ATOM     31  O   UNL     1       9.230  49.371   4.252  1.00  0.00    -0.550 OA
ATOM     32  O   UNL     1       8.409  49.017   2.166  1.00  0.00    -0.550 OA
ENDBRANCH   1  30
BRANCH  27  33
ATOM     33  O   UNL     1      10.371  44.640  11.820  1.00  0.00    -0.393 OA
ATOM     34  H   UNL     1      10.080  45.365  12.430  1.00  0.00     0.210 HD
ENDBRANCH  27  33
TORSDOF 2
ENDMDL
MODEL 5
REMARK VINA RESULT:    -4.457      2.175      3.920
REMARK INTER + INTRA:          -4.386
REMARK INTER:                  -4.816
REMARK INTRA:                   0.430
REMARK UNBOUND:                 0.462
REMARK SMILES C[C@H]1[C@H](C)CC[C@]2(C(=O)[O-])CC[C@]3(C)C(=CC[C@@H]4[C@]5(C)CC[C@@H](O)C(C)(C)[C@H]5CC[C@@]43C)[C@@H]12
REMARK SMILES IDX 7 1 6 2 11 3 33 4 5 5 12 6 15 7 2 8 3 9 13 10 16 11 1 12
REMARK SMILES IDX 4 13 14 14 31 15 17 16 18 17 30 18 32 19 19 20 29 21 28 22
REMARK SMILES IDX 21 23 20 24 25 25 22 26 23 27 26 28 27 29 8 30 9 31 10 32
REMARK SMILES IDX 24 33
REMARK H PARENT 24 34
REMARK Flexibility Score: inf
ROOT
ATOM      1  C   UNL     1      11.769  42.944  11.860  1.00  0.00     0.017 C 
ATOM      2  C   UNL     1      11.506  42.063  13.124  1.00  0.00     0.014 C 
ATOM      3  C   UNL     1      11.154  44.380  12.103  1.00  0.00     0.014 C 
ATOM      4  C   UNL     1      11.041  42.304  10.637  1.00  0.00     0.030 C 
ATOM      5  C   UNL     1      11.722  40.550  12.897  1.00  0.00     0.004 C 
ATOM      6  C   UNL     1      10.904  45.274  10.831  1.00  0.00     0.013 C 
ATOM      7  C   UNL     1      11.077  43.271   9.458  1.00  0.00    -0.063 C 
ATOM      8  C   UNL     1      11.220  40.768  10.387  1.00  0.00    -0.003 C 
ATOM      9  C   UNL     1      10.942  39.975  11.698  1.00  0.00    -0.011 C 
ATOM     10  C   UNL     1      10.214  44.535   9.609  1.00  0.00    -0.006 C 
ATOM     11  C   UNL     1      12.229  43.383   8.760  1.00  0.00    -0.027 C 
ATOM     12  C   UNL     1      12.552  40.315   9.753  1.00  0.00     0.008 C 
ATOM     13  C   UNL     1       9.435  39.861  12.005  1.00  0.00     0.008 C 
ATOM     14  C   UNL     1       8.750  44.215  10.079  1.00  0.00     0.017 C 
ATOM     15  C   UNL     1      10.142  45.374   8.188  1.00  0.00    -0.020 C 
ATOM     16  C   UNL     1      12.602  44.621   8.008  1.00  0.00     0.032 C 
ATOM     17  C   UNL     1      11.386  45.111   7.214  1.00  0.00     0.006 C 
ATOM     18  C   UNL     1       9.998  46.886   8.514  1.00  0.00     0.008 C 
ATOM     19  C   UNL     1       8.875  44.944   7.378  1.00  0.00     0.012 C 
ATOM     20  C   UNL     1      11.688  46.224   6.074  1.00  0.00    -0.025 C 
ATOM     21  C   UNL     1      10.047  47.800   7.293  1.00  0.00     0.005 C 
ATOM     22  C   UNL     1      11.427  47.688   6.613  1.00  0.00     0.003 C 
ATOM     23  C   UNL     1      13.190  46.189   5.623  1.00  0.00     0.010 C 
ATOM     24  C   UNL     1      10.802  45.879   4.813  1.00  0.00     0.012 C 
ATOM     25  C   UNL     1      11.804  48.883   5.625  1.00  0.00    -0.006 C 
ATOM     26  C   UNL     1      13.594  47.295   4.635  1.00  0.00     0.033 C 
ATOM     27  C   UNL     1      13.298  48.700   5.172  1.00  0.00     0.120 C 
ATOM     28  C   UNL     1      11.697  50.236   6.383  1.00  0.00     0.014 C 
ATOM     29  C   UNL     1      10.854  48.991   4.394  1.00  0.00     0.014 C 
ENDROOT
BRANCH   1  30
ATOM     30  C   UNL     1      13.277  43.108  11.656  1.00  0.00     0.048 C 
ATOM     31  O   UNL     1      13.798  44.255  11.592  1.00  0.00    -0.550 OA
ATOM     32  O   UNL     1      14.125  42.009  11.596  1.00  0.00    -0.550 OA
ENDBRANCH   1  30
BRANCH  27  33
ATOM     33  O   UNL     1      13.664  49.622   4.175  1.00  0.00    -0.393 OA
ATOM     34  H   UNL     1      13.969  50.452   4.625  1.00  0.00     0.210 HD
ENDBRANCH  27  33
TORSDOF 2
ENDMDL
MODEL 6
REMARK VINA RESULT:    -4.221      4.797      8.123
REMARK INTER + INTRA:          -4.129
REMARK INTER:                  -4.881
REMARK INTRA:                   0.752
REMARK UNBOUND:                 0.462
REMARK SMILES C[C@H]1[C@H](C)CC[C@]2(C(=O)[O-])CC[C@]3(C)C(=CC[C@@H]4[C@]5(C)CC[C@@H](O)C(C)(C)[C@H]5CC[C@@]43C)[C@@H]12
REMARK SMILES IDX 7 1 6 2 11 3 33 4 5 5 12 6 15 7 2 8 3 9 13 10 16 11 1 12
REMARK SMILES IDX 4 13 14 14 31 15 17 16 18 17 30 18 32 19 19 20 29 21 28 22
REMARK SMILES IDX 21 23 20 24 25 25 22 26 23 27 26 28 27 29 8 30 9 31 10 32
REMARK SMILES IDX 24 33
REMARK H PARENT 24 34
REMARK Flexibility Score: inf
ROOT
ATOM      1  C   UNL     1       7.785  37.790   9.851  1.00  0.00     0.017 C 
ATOM      2  C   UNL     1       7.341  36.293   9.946  1.00  0.00     0.014 C 
ATOM      3  C   UNL     1       9.276  37.847   9.331  1.00  0.00     0.014 C 
ATOM      4  C   UNL     1       7.742  38.421  11.278  1.00  0.00     0.030 C 
ATOM      5  C   UNL     1       6.055  36.066  10.771  1.00  0.00     0.004 C 
ATOM      6  C   UNL     1      10.067  39.186   9.581  1.00  0.00     0.013 C 
ATOM      7  C   UNL     1       8.402  39.795  11.248  1.00  0.00    -0.063 C 
ATOM      8  C   UNL     1       6.462  38.193  12.153  1.00  0.00    -0.003 C 
ATOM      9  C   UNL     1       6.097  36.680  12.185  1.00  0.00    -0.011 C 
ATOM     10  C   UNL     1       9.925  39.796  11.038  1.00  0.00    -0.006 C 
ATOM     11  C   UNL     1       7.701  40.828  10.731  1.00  0.00    -0.027 C 
ATOM     12  C   UNL     1       5.221  39.042  11.807  1.00  0.00     0.008 C 
ATOM     13  C   UNL     1       7.016  35.875  13.125  1.00  0.00     0.008 C 
ATOM     14  C   UNL     1      10.668  38.793  11.991  1.00  0.00     0.017 C 
ATOM     15  C   UNL     1      10.553  41.307  11.266  1.00  0.00    -0.020 C 
ATOM     16  C   UNL     1       8.358  42.026  10.120  1.00  0.00     0.032 C 
ATOM     17  C   UNL     1       9.500  42.490  11.029  1.00  0.00     0.006 C 
ATOM     18  C   UNL     1      11.794  41.470  10.346  1.00  0.00     0.008 C 
ATOM     19  C   UNL     1      11.039  41.465  12.745  1.00  0.00     0.012 C 
ATOM     20  C   UNL     1      10.096  43.967  10.719  1.00  0.00    -0.025 C 
ATOM     21  C   UNL     1      12.405  42.870  10.358  1.00  0.00     0.005 C 
ATOM     22  C   UNL     1      11.386  43.888   9.807  1.00  0.00     0.003 C 
ATOM     23  C   UNL     1       9.062  44.847   9.934  1.00  0.00     0.010 C 
ATOM     24  C   UNL     1      10.378  44.676  12.101  1.00  0.00     0.012 C 
ATOM     25  C   UNL     1      11.999  45.281   9.327  1.00  0.00    -0.006 C 
ATOM     26  C   UNL     1       9.591  46.220   9.487  1.00  0.00     0.033 C 
ATOM     27  C   UNL     1      10.859  46.111   8.634  1.00  0.00     0.120 C 
ATOM     28  C   UNL     1      13.112  45.022   8.273  1.00  0.00     0.014 C 
ATOM     29  C   UNL     1      12.664  46.093  10.480  1.00  0.00     0.014 C 
ENDROOT
BRANCH   1  30
ATOM     30  C   UNL     1       6.905  38.521   8.834  1.00  0.00     0.048 C 
ATOM     31  O   UNL     1       5.750  38.919   9.148  1.00  0.00    -0.550 OA
ATOM     32  O   UNL     1       7.367  38.823   7.559  1.00  0.00    -0.550 OA
ENDBRANCH   1  30
BRANCH  27  33
ATOM     33  O   UNL     1      11.275  47.419   8.322  1.00  0.00    -0.393 OA
ATOM     34  H   UNL     1      11.076  47.996   9.104  1.00  0.00     0.210 HD
ENDBRANCH  27  33
TORSDOF 2
ENDMDL
MODEL 7
REMARK VINA RESULT:    -4.103      3.234      6.271
REMARK INTER + INTRA:          -4.001
REMARK INTER:                  -4.439
REMARK INTRA:                   0.438
REMARK UNBOUND:                 0.462
REMARK SMILES C[C@H]1[C@H](C)CC[C@]2(C(=O)[O-])CC[C@]3(C)C(=CC[C@@H]4[C@]5(C)CC[C@@H](O)C(C)(C)[C@H]5CC[C@@]43C)[C@@H]12
REMARK SMILES IDX 7 1 6 2 11 3 33 4 5 5 12 6 15 7 2 8 3 9 13 10 16 11 1 12
REMARK SMILES IDX 4 13 14 14 31 15 17 16 18 17 30 18 32 19 19 20 29 21 28 22
REMARK SMILES IDX 21 23 20 24 25 25 22 26 23 27 26 28 27 29 8 30 9 31 10 32
REMARK SMILES IDX 24 33
REMARK H PARENT 24 34
REMARK Flexibility Score: inf
ROOT
ATOM      1  C   UNL     1      10.853  46.865   5.524  1.00  0.00     0.017 C 
ATOM      2  C   UNL     1      10.537  45.497   6.212  1.00  0.00     0.014 C 
ATOM      3  C   UNL     1       9.747  47.154   4.432  1.00  0.00     0.014 C 
ATOM      4  C   UNL     1      12.234  46.761   4.802  1.00  0.00     0.030 C 
ATOM      5  C   UNL     1      11.710  44.915   7.031  1.00  0.00     0.004 C 
ATOM      6  C   UNL     1      10.096  48.222   3.329  1.00  0.00     0.013 C 
ATOM      7  C   UNL     1      12.445  47.990   3.925  1.00  0.00    -0.063 C 
ATOM      8  C   UNL     1      13.442  46.156   5.594  1.00  0.00    -0.003 C 
ATOM      9  C   UNL     1      13.032  44.801   6.245  1.00  0.00    -0.011 C 
ATOM     10  C   UNL     1      11.539  48.085   2.686  1.00  0.00    -0.006 C 
ATOM     11  C   UNL     1      12.804  49.147   4.524  1.00  0.00    -0.027 C 
ATOM     12  C   UNL     1      14.124  47.070   6.633  1.00  0.00     0.008 C 
ATOM     13  C   UNL     1      12.986  43.650   5.221  1.00  0.00     0.008 C 
ATOM     14  C   UNL     1      11.508  46.753   1.855  1.00  0.00     0.017 C 
ATOM     15  C   UNL     1      12.021  49.315   1.694  1.00  0.00    -0.020 C 
ATOM     16  C   UNL     1      12.496  50.490   3.941  1.00  0.00     0.032 C 
ATOM     17  C   UNL     1      12.830  50.476   2.445  1.00  0.00     0.006 C 
ATOM     18  C   UNL     1      10.771  49.885   0.970  1.00  0.00     0.008 C 
ATOM     19  C   UNL     1      12.992  48.767   0.597  1.00  0.00     0.012 C 
ATOM     20  C   UNL     1      12.897  51.926   1.722  1.00  0.00    -0.025 C 
ATOM     21  C   UNL     1      11.048  51.117   0.112  1.00  0.00     0.005 C 
ATOM     22  C   UNL     1      11.530  52.277   1.007  1.00  0.00     0.003 C 
ATOM     23  C   UNL     1      13.151  53.072   2.761  1.00  0.00     0.010 C 
ATOM     24  C   UNL     1      14.116  51.911   0.718  1.00  0.00     0.012 C 
ATOM     25  C   UNL     1      11.424  53.732   0.360  1.00  0.00    -0.006 C 
ATOM     26  C   UNL     1      13.103  54.495   2.179  1.00  0.00     0.033 C 
ATOM     27  C   UNL     1      11.780  54.792   1.464  1.00  0.00     0.120 C 
ATOM     28  C   UNL     1       9.962  53.990  -0.098  1.00  0.00     0.014 C 
ATOM     29  C   UNL     1      12.320  53.914  -0.903  1.00  0.00     0.014 C 
ENDROOT
BRANCH   1  30
ATOM     30  C   UNL     1      10.791  47.987   6.564  1.00  0.00     0.048 C 
ATOM     31  O   UNL     1       9.973  48.938   6.437  1.00  0.00    -0.550 OA
ATOM     32  O   UNL     1      11.584  47.964   7.704  1.00  0.00    -0.550 OA
ENDBRANCH   1  30
BRANCH  27  33
ATOM     33  O   UNL     1      11.866  56.094   0.937  1.00  0.00    -0.393 OA
ATOM     34  H   UNL     1      12.698  56.151   0.400  1.00  0.00     0.210 HD
ENDBRANCH  27  33
TORSDOF 2
ENDMDL
MODEL 8
REMARK VINA RESULT:    -4.082      1.719      3.405
REMARK INTER + INTRA:          -3.978
REMARK INTER:                  -4.580
REMARK INTRA:                   0.602
REMARK UNBOUND:                 0.462
REMARK SMILES C[C@H]1[C@H](C)CC[C@]2(C(=O)[O-])CC[C@]3(C)C(=CC[C@@H]4[C@]5(C)CC[C@@H](O)C(C)(C)[C@H]5CC[C@@]43C)[C@@H]12
REMARK SMILES IDX 7 1 6 2 11 3 33 4 5 5 12 6 15 7 2 8 3 9 13 10 16 11 1 12
REMARK SMILES IDX 4 13 14 14 31 15 17 16 18 17 30 18 32 19 19 20 29 21 28 22
REMARK SMILES IDX 21 23 20 24 25 25 22 26 23 27 26 28 27 29 8 30 9 31 10 32
REMARK SMILES IDX 24 33
REMARK H PARENT 24 34
REMARK Flexibility Score: inf
ROOT
ATOM      1  C   UNL     1      11.942  46.709   8.674  1.00  0.00     0.017 C 
ATOM      2  C   UNL     1      11.878  46.395  10.204  1.00  0.00     0.014 C 
ATOM      3  C   UNL     1      11.274  48.118   8.414  1.00  0.00     0.014 C 
ATOM      4  C   UNL     1      11.119  45.631   7.901  1.00  0.00     0.030 C 
ATOM      5  C   UNL     1      12.157  44.918  10.559  1.00  0.00     0.004 C 
ATOM      6  C   UNL     1      10.828  48.435   6.937  1.00  0.00     0.013 C 
ATOM      7  C   UNL     1      10.964  46.055   6.444  1.00  0.00    -0.063 C 
ATOM      8  C   UNL     1      11.360  44.123   8.249  1.00  0.00    -0.003 C 
ATOM      9  C   UNL     1      11.280  43.909   9.789  1.00  0.00    -0.011 C 
ATOM     10  C   UNL     1      10.049  47.267   6.199  1.00  0.00    -0.006 C 
ATOM     11  C   UNL     1      12.020  45.894   5.617  1.00  0.00    -0.027 C 
ATOM     12  C   UNL     1      12.636  43.469   7.678  1.00  0.00     0.008 C 
ATOM     13  C   UNL     1       9.828  43.909  10.307  1.00  0.00     0.008 C 
ATOM     14  C   UNL     1       8.670  47.144   6.940  1.00  0.00     0.017 C 
ATOM     15  C   UNL     1       9.766  47.477   4.585  1.00  0.00    -0.020 C 
ATOM     16  C   UNL     1      12.230  46.739   4.400  1.00  0.00     0.032 C 
ATOM     17  C   UNL     1      10.905  46.864   3.641  1.00  0.00     0.006 C 
ATOM     18  C   UNL     1       9.570  48.994   4.312  1.00  0.00     0.008 C 
ATOM     19  C   UNL     1       8.443  46.750   4.177  1.00  0.00     0.012 C 
ATOM     20  C   UNL     1      11.008  47.439   2.128  1.00  0.00    -0.025 C 
ATOM     21  C   UNL     1       9.425  49.352   2.835  1.00  0.00     0.005 C 
ATOM     22  C   UNL     1      10.723  48.995   2.082  1.00  0.00     0.003 C 
ATOM     23  C   UNL     1      12.448  47.244   1.539  1.00  0.00     0.010 C 
ATOM     24  C   UNL     1      10.007  46.616   1.227  1.00  0.00     0.012 C 
ATOM     25  C   UNL     1      10.913  49.707   0.667  1.00  0.00    -0.006 C 
ATOM     26  C   UNL     1      12.671  47.875   0.155  1.00  0.00     0.033 C 
ATOM     27  C   UNL     1      12.354  49.375   0.135  1.00  0.00     0.120 C 
ATOM     28  C   UNL     1      10.812  51.248   0.844  1.00  0.00     0.014 C 
ATOM     29  C   UNL     1       9.824  49.311  -0.376  1.00  0.00     0.014 C 
ENDROOT
BRANCH   1  30
ATOM     30  C   UNL     1      13.405  46.794   8.230  1.00  0.00     0.048 C 
ATOM     31  O   UNL     1      14.124  45.759   8.178  1.00  0.00    -0.550 OA
ATOM     32  O   UNL     1      13.968  47.994   7.814  1.00  0.00    -0.550 OA
ENDBRANCH   1  30
BRANCH  27  33
ATOM     33  O   UNL     1      12.549  49.833  -1.181  1.00  0.00    -0.393 OA
ATOM     34  H   UNL     1      13.493  50.124  -1.266  1.00  0.00     0.210 HD
ENDBRANCH  27  33
TORSDOF 2
ENDMDL
MODEL 9
REMARK VINA RESULT:    -3.323      2.787      8.209
REMARK INTER + INTRA:          -3.153
REMARK INTER:                  -3.579
REMARK INTRA:                   0.427
REMARK UNBOUND:                 0.462
REMARK SMILES C[C@H]1[C@H](C)CC[C@]2(C(=O)[O-])CC[C@]3(C)C(=CC[C@@H]4[C@]5(C)CC[C@@H](O)C(C)(C)[C@H]5CC[C@@]43C)[C@@H]12
REMARK SMILES IDX 7 1 6 2 11 3 33 4 5 5 12 6 15 7 2 8 3 9 13 10 16 11 1 12
REMARK SMILES IDX 4 13 14 14 31 15 17 16 18 17 30 18 32 19 19 20 29 21 28 22
REMARK SMILES IDX 21 23 20 24 25 25 22 26 23 27 26 28 27 29 8 30 9 31 10 32
REMARK SMILES IDX 24 33
REMARK H PARENT 24 34
REMARK Flexibility Score: inf
ROOT
ATOM      1  C   UNL     1      11.457  46.849   7.051  1.00  0.00     0.017 C 
ATOM      2  C   UNL     1      11.644  48.171   6.237  1.00  0.00     0.014 C 
ATOM      3  C   UNL     1      10.014  46.272   6.762  1.00  0.00     0.014 C 
ATOM      4  C   UNL     1      11.556  47.175   8.574  1.00  0.00     0.030 C 
ATOM      5  C   UNL     1      12.845  49.030   6.690  1.00  0.00     0.004 C 
ATOM      6  C   UNL     1       9.448  45.221   7.790  1.00  0.00     0.013 C 
ATOM      7  C   UNL     1      11.133  45.955   9.385  1.00  0.00    -0.063 C 
ATOM      8  C   UNL     1      12.749  48.062   9.068  1.00  0.00    -0.003 C 
ATOM      9  C   UNL     1      12.857  49.349   8.199  1.00  0.00    -0.011 C 
ATOM     10  C   UNL     1       9.639  45.598   9.318  1.00  0.00    -0.006 C 
ATOM     11  C   UNL     1      12.013  44.937   9.510  1.00  0.00    -0.027 C 
ATOM     12  C   UNL     1      14.125  47.374   9.190  1.00  0.00     0.008 C 
ATOM     13  C   UNL     1      11.786  50.395   8.565  1.00  0.00     0.008 C 
ATOM     14  C   UNL     1       8.708  46.837   9.569  1.00  0.00     0.017 C 
ATOM     15  C   UNL     1       9.263  44.423  10.417  1.00  0.00    -0.020 C 
ATOM     16  C   UNL     1      11.585  43.523   9.746  1.00  0.00     0.032 C 
ATOM     17  C   UNL     1      10.504  43.500  10.832  1.00  0.00     0.006 C 
ATOM     18  C   UNL     1       8.098  43.568   9.846  1.00  0.00     0.008 C 
ATOM     19  C   UNL     1       8.760  45.076  11.746  1.00  0.00     0.012 C 
ATOM     20  C   UNL     1      10.173  42.046  11.470  1.00  0.00    -0.025 C 
ATOM     21  C   UNL     1       7.728  42.359  10.702  1.00  0.00     0.005 C 
ATOM     22  C   UNL     1       8.919  41.382  10.769  1.00  0.00     0.003 C 
ATOM     23  C   UNL     1      11.364  41.047  11.266  1.00  0.00     0.010 C 
ATOM     24  C   UNL     1       9.965  42.234  13.024  1.00  0.00     0.012 C 
ATOM     25  C   UNL     1       8.562  39.894  11.222  1.00  0.00    -0.006 C 
ATOM     26  C   UNL     1      11.085  39.607  11.728  1.00  0.00     0.033 C 
ATOM     27  C   UNL     1       9.846  39.004  11.057  1.00  0.00     0.120 C 
ATOM     28  C   UNL     1       7.459  39.320  10.290  1.00  0.00     0.014 C 
ATOM     29  C   UNL     1       8.001  39.808  12.673  1.00  0.00     0.014 C 
ENDROOT
BRANCH   1  30
ATOM     30  C   UNL     1      12.481  45.811   6.582  1.00  0.00     0.048 C 
ATOM     31  O   UNL     1      12.109  44.674   6.183  1.00  0.00    -0.550 OA
ATOM     32  O   UNL     1      13.837  46.106   6.522  1.00  0.00    -0.550 OA
ENDBRANCH   1  30
BRANCH  27  33
ATOM     33  O   UNL     1       9.664  37.712  11.583  1.00  0.00    -0.393 OA
ATOM     34  H   UNL     1      10.489  37.192  11.405  1.00  0.00     0.210 HD
ENDBRANCH  27  33
TORSDOF 2
ENDMDL
