MODEL 1
REMARK VINA RESULT:    -4.087      0.000      0.000
REMARK INTER + INTRA:          -7.469
REMARK INTER:                  -6.237
REMARK INTRA:                  -1.232
REMARK UNBOUND:                -1.232
REMARK SMILES CCCCCCCCCC=CC(=O)[O-]
REMARK SMILES IDX 7 1 8 2 9 3 10 4 11 5 12 6 13 7 14 8 6 9 5 10 4 11 3 12 2 13
REMARK SMILES IDX 1 14
REMARK H PARENT
REMARK Flexibility Score: inf
ROOT
ATOM      1  C   UNL     1      31.633   9.101  48.252  1.00  0.00     0.000 C 
ENDROOT
BRANCH   1   2
ATOM      2  C   UNL     1      32.662   9.739  49.201  1.00  0.00     0.004 C 
BRANCH   2   3
ATOM      3  C   UNL     1      34.002  10.008  48.503  1.00  0.00     0.027 C 
BRANCH   3   4
ATOM      4  C   UNL     1      33.865   9.950  47.008  1.00  0.00    -0.025 C 
ATOM      5  C   UNL     1      34.784  10.483  46.198  1.00  0.00     0.020 C 
BRANCH   5   6
ATOM      6  C   UNL     1      34.642  10.464  44.735  1.00  0.00     0.064 C 
ATOM      7  O   UNL     1      34.287  11.510  44.131  1.00  0.00    -0.545 OA
ATOM      8  O   UNL     1      34.893   9.307  44.006  1.00  0.00    -0.545 OA
ENDBRANCH   5   6
ENDBRANCH   3   4
ENDBRANCH   2   3
ENDBRANCH   1   2
BRANCH   1   9
ATOM      9  C   UNL     1      30.507   8.370  49.002  1.00  0.00     0.000 C 
BRANCH   9  10
ATOM     10  C   UNL     1      30.499   6.857  48.722  1.00  0.00     0.000 C 
BRANCH  10  11
ATOM     11  C   UNL     1      31.385   6.474  47.526  1.00  0.00    -0.000 C 
BRANCH  11  12
ATOM     12  C   UNL     1      32.549   5.552  47.920  1.00  0.00    -0.000 C 
BRANCH  12  13
ATOM     13  C   UNL     1      33.878   6.079  47.367  1.00  0.00    -0.003 C 
ATOM     14  C   UNL     1      33.723   6.570  45.930  1.00  0.00     0.004 C 
ENDBRANCH  12  13
ENDBRANCH  11  12
ENDBRANCH  10  11
ENDBRANCH   9  10
ENDBRANCH   1   9
TORSDOF 9
ENDMDL
MODEL 2
REMARK VINA RESULT:    -4.021      1.864      3.576
REMARK INTER + INTRA:          -7.369
REMARK INTER:                  -6.734
REMARK INTRA:                  -0.635
REMARK UNBOUND:                -1.232
REMARK SMILES CCCCCCCCCC=CC(=O)[O-]
REMARK SMILES IDX 7 1 8 2 9 3 10 4 11 5 12 6 13 7 14 8 6 9 5 10 4 11 3 12 2 13
REMARK SMILES IDX 1 14
REMARK H PARENT
REMARK Flexibility Score: inf
ROOT
ATOM      1  C   UNL     1      33.886   6.512  45.255  1.00  0.00     0.000 C 
ENDROOT
BRANCH   1   2
ATOM      2  C   UNL     1      34.105   8.035  45.275  1.00  0.00     0.004 C 
BRANCH   2   3
ATOM      3  C   UNL     1      34.290   8.609  43.864  1.00  0.00     0.027 C 
BRANCH   3   4
ATOM      4  C   UNL     1      34.494  10.097  43.897  1.00  0.00    -0.025 C 
ATOM      5  C   UNL     1      34.855  10.730  45.018  1.00  0.00     0.020 C 
BRANCH   5   6
ATOM      6  C   UNL     1      35.021  12.190  45.071  1.00  0.00     0.064 C 
ATOM      7  O   UNL     1      34.628  12.896  44.106  1.00  0.00    -0.545 OA
ATOM      8  O   UNL     1      35.607  12.805  46.172  1.00  0.00    -0.545 OA
ENDBRANCH   5   6
ENDBRANCH   3   4
ENDBRANCH   2   3
ENDBRANCH   1   2
BRANCH   1   9
ATOM      9  C   UNL     1      34.215   5.848  46.603  1.00  0.00     0.000 C 
BRANCH   9  10
ATOM     10  C   UNL     1      33.318   6.358  47.745  1.00  0.00     0.000 C 
BRANCH  10  11
ATOM     11  C   UNL     1      32.069   5.486  47.948  1.00  0.00    -0.000 C 
BRANCH  11  12
ATOM     12  C   UNL     1      30.763   6.292  47.880  1.00  0.00    -0.000 C 
BRANCH  12  13
ATOM     13  C   UNL     1      31.004   7.759  48.252  1.00  0.00    -0.003 C 
ATOM     14  C   UNL     1      30.101   8.194  49.404  1.00  0.00     0.004 C 
ENDBRANCH  12  13
ENDBRANCH  11  12
ENDBRANCH  10  11
ENDBRANCH   9  10
ENDBRANCH   1   9
TORSDOF 9
ENDMDL
MODEL 3
REMARK VINA RESULT:    -4.017      2.103      4.558
REMARK INTER + INTRA:          -7.363
REMARK INTER:                  -6.314
REMARK INTRA:                  -1.049
REMARK UNBOUND:                -1.232
REMARK SMILES CCCCCCCCCC=CC(=O)[O-]
REMARK SMILES IDX 7 1 8 2 9 3 10 4 11 5 12 6 13 7 14 8 6 9 5 10 4 11 3 12 2 13
REMARK SMILES IDX 1 14
REMARK H PARENT
REMARK Flexibility Score: inf
ROOT
ATOM      1  C   UNL     1      31.639   9.464  48.271  1.00  0.00     0.000 C 
ENDROOT
BRANCH   1   2
ATOM      2  C   UNL     1      30.932   8.358  49.075  1.00  0.00     0.004 C 
BRANCH   2   3
ATOM      3  C   UNL     1      30.649   7.115  48.220  1.00  0.00     0.027 C 
BRANCH   3   4
ATOM      4  C   UNL     1      31.888   6.638  47.517  1.00  0.00    -0.025 C 
ATOM      5  C   UNL     1      32.843   5.959  48.160  1.00  0.00     0.020 C 
BRANCH   5   6
ATOM      6  C   UNL     1      34.075   5.520  47.490  1.00  0.00     0.064 C 
ATOM      7  O   UNL     1      34.311   5.897  46.313  1.00  0.00    -0.545 OA
ATOM      8  O   UNL     1      34.986   4.693  48.137  1.00  0.00    -0.545 OA
ENDBRANCH   5   6
ENDBRANCH   3   4
ENDBRANCH   2   3
ENDBRANCH   1   2
BRANCH   1   9
ATOM      9  C   UNL     1      32.925   9.961  48.952  1.00  0.00     0.000 C 
BRANCH   9  10
ATOM     10  C   UNL     1      34.190   9.614  48.147  1.00  0.00     0.000 C 
BRANCH  10  11
ATOM     11  C   UNL     1      33.918   9.510  46.638  1.00  0.00    -0.000 C 
BRANCH  11  12
ATOM     12  C   UNL     1      34.649  10.590  45.827  1.00  0.00    -0.000 C 
BRANCH  12  13
ATOM     13  C   UNL     1      34.702  10.219  44.341  1.00  0.00    -0.003 C 
ATOM     14  C   UNL     1      34.496   8.720  44.137  1.00  0.00     0.004 C 
ENDBRANCH  12  13
ENDBRANCH  11  12
ENDBRANCH  10  11
ENDBRANCH   9  10
ENDBRANCH   1   9
TORSDOF 9
ENDMDL
MODEL 4
REMARK VINA RESULT:    -4.007      1.643      4.273
REMARK INTER + INTRA:          -7.347
REMARK INTER:                  -6.338
REMARK INTRA:                  -1.009
REMARK UNBOUND:                -1.232
REMARK SMILES CCCCCCCCCC=CC(=O)[O-]
REMARK SMILES IDX 7 1 8 2 9 3 10 4 11 5 12 6 13 7 14 8 6 9 5 10 4 11 3 12 2 13
REMARK SMILES IDX 1 14
REMARK H PARENT
REMARK Flexibility Score: inf
ROOT
ATOM      1  C   UNL     1      31.127   8.922  49.212  1.00  0.00     0.000 C 
ENDROOT
BRANCH   1   2
ATOM      2  C   UNL     1      30.606   7.696  48.442  1.00  0.00     0.004 C 
BRANCH   2   3
ATOM      3  C   UNL     1      31.308   6.402  48.876  1.00  0.00     0.027 C 
BRANCH   3   4
ATOM      4  C   UNL     1      32.568   6.170  48.091  1.00  0.00    -0.025 C 
ATOM      5  C   UNL     1      32.666   6.514  46.803  1.00  0.00     0.020 C 
BRANCH   5   6
ATOM      6  C   UNL     1      33.881   6.258  46.017  1.00  0.00     0.064 C 
ATOM      7  O   UNL     1      34.737   5.439  46.442  1.00  0.00    -0.545 OA
ATOM      8  O   UNL     1      34.102   6.909  44.808  1.00  0.00    -0.545 OA
ENDBRANCH   5   6
ENDBRANCH   3   4
ENDBRANCH   2   3
ENDBRANCH   1   2
BRANCH   1   9
ATOM      9  C   UNL     1      31.911   9.895  48.316  1.00  0.00     0.000 C 
BRANCH   9  10
ATOM     10  C   UNL     1      33.205  10.396  48.980  1.00  0.00     0.000 C 
BRANCH  10  11
ATOM     11  C   UNL     1      34.370  10.517  47.985  1.00  0.00    -0.000 C 
BRANCH  11  12
ATOM     12  C   UNL     1      34.016   9.986  46.587  1.00  0.00    -0.000 C 
BRANCH  12  13
ATOM     13  C   UNL     1      34.908  10.623  45.516  1.00  0.00    -0.003 C 
ATOM     14  C   UNL     1      34.279  10.505  44.131  1.00  0.00     0.004 C 
ENDBRANCH  12  13
ENDBRANCH  11  12
ENDBRANCH  10  11
ENDBRANCH   9  10
ENDBRANCH   1   9
TORSDOF 9
ENDMDL
MODEL 5
REMARK VINA RESULT:    -3.997     17.285     18.121
REMARK INTER + INTRA:          -7.332
REMARK INTER:                  -6.243
REMARK INTRA:                  -1.089
REMARK UNBOUND:                -1.232
REMARK SMILES CCCCCCCCCC=CC(=O)[O-]
REMARK SMILES IDX 7 1 8 2 9 3 10 4 11 5 12 6 13 7 14 8 6 9 5 10 4 11 3 12 2 13
REMARK SMILES IDX 1 14
REMARK H PARENT
REMARK Flexibility Score: inf
ROOT
ATOM      1  C   UNL     1      19.674  12.689  36.261  1.00  0.00     0.000 C 
ENDROOT
BRANCH   1   2
ATOM      2  C   UNL     1      20.144  13.863  35.384  1.00  0.00     0.004 C 
BRANCH   2   3
ATOM      3  C   UNL     1      19.853  13.625  33.896  1.00  0.00     0.027 C 
BRANCH   3   4
ATOM      4  C   UNL     1      21.030  13.996  33.039  1.00  0.00    -0.025 C 
ATOM      5  C   UNL     1      21.092  15.170  32.403  1.00  0.00     0.020 C 
BRANCH   5   6
ATOM      6  C   UNL     1      22.222  15.527  31.533  1.00  0.00     0.064 C 
ATOM      7  O   UNL     1      22.912  14.617  31.005  1.00  0.00    -0.545 OA
ATOM      8  O   UNL     1      22.540  16.857  31.282  1.00  0.00    -0.545 OA
ENDBRANCH   5   6
ENDBRANCH   3   4
ENDBRANCH   2   3
ENDBRANCH   1   2
BRANCH   1   9
ATOM      9  C   UNL     1      19.325  11.438  35.438  1.00  0.00     0.000 C 
BRANCH   9  10
ATOM     10  C   UNL     1      20.245  10.247  35.757  1.00  0.00     0.000 C 
BRANCH  10  11
ATOM     11  C   UNL     1      21.156   9.873  34.576  1.00  0.00    -0.000 C 
BRANCH  11  12
ATOM     12  C   UNL     1      22.314  10.864  34.382  1.00  0.00    -0.000 C 
BRANCH  12  13
ATOM     13  C   UNL     1      22.965  11.217  35.724  1.00  0.00    -0.003 C 
ATOM     14  C   UNL     1      24.456  10.889  35.718  1.00  0.00     0.004 C 
ENDBRANCH  12  13
ENDBRANCH  11  12
ENDBRANCH  10  11
ENDBRANCH   9  10
ENDBRANCH   1   9
TORSDOF 9
ENDMDL
MODEL 6
REMARK VINA RESULT:    -3.949     17.200     17.959
REMARK INTER + INTRA:          -7.259
REMARK INTER:                  -5.936
REMARK INTRA:                  -1.323
REMARK UNBOUND:                -1.232
REMARK SMILES CCCCCCCCCC=CC(=O)[O-]
REMARK SMILES IDX 7 1 8 2 9 3 10 4 11 5 12 6 13 7 14 8 6 9 5 10 4 11 3 12 2 13
REMARK SMILES IDX 1 14
REMARK H PARENT
REMARK Flexibility Score: inf
ROOT
ATOM      1  C   UNL     1      19.264  13.040  35.796  1.00  0.00     0.000 C 
ENDROOT
BRANCH   1   2
ATOM      2  C   UNL     1      20.526  13.833  35.409  1.00  0.00     0.004 C 
BRANCH   2   3
ATOM      3  C   UNL     1      20.533  14.216  33.923  1.00  0.00     0.027 C 
BRANCH   3   4
ATOM      4  C   UNL     1      20.777  13.020  33.047  1.00  0.00    -0.025 C 
ATOM      5  C   UNL     1      21.737  13.016  32.118  1.00  0.00     0.020 C 
BRANCH   5   6
ATOM      6  C   UNL     1      21.960  11.865  31.231  1.00  0.00     0.064 C 
ATOM      7  O   UNL     1      22.833  11.936  30.327  1.00  0.00    -0.545 OA
ATOM      8  O   UNL     1      21.221  10.696  31.375  1.00  0.00    -0.545 OA
ENDBRANCH   5   6
ENDBRANCH   3   4
ENDBRANCH   2   3
ENDBRANCH   1   2
BRANCH   1   9
ATOM      9  C   UNL     1      19.591  11.684  36.442  1.00  0.00     0.000 C 
BRANCH   9  10
ATOM     10  C   UNL     1      19.456  10.513  35.453  1.00  0.00     0.000 C 
BRANCH  10  11
ATOM     11  C   UNL     1      20.815   9.901  35.074  1.00  0.00    -0.000 C 
BRANCH  11  12
ATOM     12  C   UNL     1      21.967  10.428  35.943  1.00  0.00    -0.000 C 
BRANCH  12  13
ATOM     13  C   UNL     1      23.054  11.077  35.079  1.00  0.00    -0.003 C 
ATOM     14  C   UNL     1      24.431  10.927  35.718  1.00  0.00     0.004 C 
ENDBRANCH  12  13
ENDBRANCH  11  12
ENDBRANCH  10  11
ENDBRANCH   9  10
ENDBRANCH   1   9
TORSDOF 9
ENDMDL
MODEL 7
REMARK VINA RESULT:    -3.884     17.661     18.557
REMARK INTER + INTRA:          -7.159
REMARK INTER:                  -5.817
REMARK INTRA:                  -1.342
REMARK UNBOUND:                -1.232
REMARK SMILES CCCCCCCCCC=CC(=O)[O-]
REMARK SMILES IDX 7 1 8 2 9 3 10 4 11 5 12 6 13 7 14 8 6 9 5 10 4 11 3 12 2 13
REMARK SMILES IDX 1 14
REMARK H PARENT
REMARK Flexibility Score: inf
ROOT
ATOM      1  C   UNL     1      20.763  14.498  34.291  1.00  0.00     0.000 C 
ENDROOT
BRANCH   1   2
ATOM      2  C   UNL     1      20.739  14.564  32.754  1.00  0.00     0.004 C 
BRANCH   2   3
ATOM      3  C   UNL     1      21.650  13.505  32.117  1.00  0.00     0.027 C 
BRANCH   3   4
ATOM      4  C   UNL     1      20.911  12.221  31.867  1.00  0.00    -0.025 C 
ATOM      5  C   UNL     1      21.381  11.046  32.296  1.00  0.00     0.020 C 
BRANCH   5   6
ATOM      6  C   UNL     1      20.685   9.780  32.025  1.00  0.00     0.064 C 
ATOM      7  O   UNL     1      20.914   9.162  30.954  1.00  0.00    -0.545 OA
ATOM      8  O   UNL     1      19.774   9.255  32.934  1.00  0.00    -0.545 OA
ENDBRANCH   5   6
ENDBRANCH   3   4
ENDBRANCH   2   3
ENDBRANCH   1   2
BRANCH   1   9
ATOM      9  C   UNL     1      19.588  13.693  34.868  1.00  0.00     0.000 C 
BRANCH   9  10
ATOM     10  C   UNL     1      19.998  12.837  36.079  1.00  0.00     0.000 C 
BRANCH  10  11
ATOM     11  C   UNL     1      19.890  11.330  35.800  1.00  0.00    -0.000 C 
BRANCH  11  12
ATOM     12  C   UNL     1      21.244  10.609  35.894  1.00  0.00    -0.000 C 
BRANCH  12  13
ATOM     13  C   UNL     1      22.403  11.610  35.832  1.00  0.00    -0.003 C 
ATOM     14  C   UNL     1      23.712  10.917  35.465  1.00  0.00     0.004 C 
ENDBRANCH  12  13
ENDBRANCH  11  12
ENDBRANCH  10  11
ENDBRANCH   9  10
ENDBRANCH   1   9
TORSDOF 9
ENDMDL
MODEL 8
REMARK VINA RESULT:    -3.793     17.646     18.491
REMARK INTER + INTRA:          -7.021
REMARK INTER:                  -5.564
REMARK INTRA:                  -1.457
REMARK UNBOUND:                -1.232
REMARK SMILES CCCCCCCCCC=CC(=O)[O-]
REMARK SMILES IDX 7 1 8 2 9 3 10 4 11 5 12 6 13 7 14 8 6 9 5 10 4 11 3 12 2 13
REMARK SMILES IDX 1 14
REMARK H PARENT
REMARK Flexibility Score: inf
ROOT
ATOM      1  C   UNL     1      22.057  12.269  35.674  1.00  0.00     0.000 C 
ENDROOT
BRANCH   1   2
ATOM      2  C   UNL     1      20.588  12.647  35.936  1.00  0.00     0.004 C 
BRANCH   2   3
ATOM      3  C   UNL     1      20.106  13.765  35.002  1.00  0.00     0.027 C 
BRANCH   3   4
ATOM      4  C   UNL     1      21.077  14.002  33.880  1.00  0.00    -0.025 C 
ATOM      5  C   UNL     1      20.881  14.967  32.975  1.00  0.00     0.020 C 
BRANCH   5   6
ATOM      6  C   UNL     1      21.805  15.183  31.853  1.00  0.00     0.064 C 
ATOM      7  O   UNL     1      22.272  14.193  31.232  1.00  0.00    -0.545 OA
ATOM      8  O   UNL     1      22.172  16.467  31.464  1.00  0.00    -0.545 OA
ENDBRANCH   5   6
ENDBRANCH   3   4
ENDBRANCH   2   3
ENDBRANCH   1   2
BRANCH   1   9
ATOM      9  C   UNL     1      22.307  10.756  35.784  1.00  0.00     0.000 C 
BRANCH   9  10
ATOM     10  C   UNL     1      21.011   9.935  35.675  1.00  0.00     0.000 C 
BRANCH  10  11
ATOM     11  C   UNL     1      20.734   9.457  34.240  1.00  0.00    -0.000 C 
BRANCH  11  12
ATOM     12  C   UNL     1      19.464  10.081  33.641  1.00  0.00    -0.000 C 
BRANCH  12  13
ATOM     13  C   UNL     1      19.769  10.776  32.310  1.00  0.00    -0.003 C 
ATOM     14  C   UNL     1      21.273  10.903  32.084  1.00  0.00     0.004 C 
ENDBRANCH  12  13
ENDBRANCH  11  12
ENDBRANCH  10  11
ENDBRANCH   9  10
ENDBRANCH   1   9
TORSDOF 9
ENDMDL
MODEL 9
REMARK VINA RESULT:    -3.747     17.647     18.673
REMARK INTER + INTRA:          -6.950
REMARK INTER:                  -6.420
REMARK INTRA:                  -0.531
REMARK UNBOUND:                -1.232
REMARK SMILES CCCCCCCCCC=CC(=O)[O-]
REMARK SMILES IDX 7 1 8 2 9 3 10 4 11 5 12 6 13 7 14 8 6 9 5 10 4 11 3 12 2 13
REMARK SMILES IDX 1 14
REMARK H PARENT
REMARK Flexibility Score: inf
ROOT
ATOM      1  C   UNL     1      21.098  13.943  33.964  1.00  0.00     0.000 C 
ENDROOT
BRANCH   1   2
ATOM      2  C   UNL     1      20.749  14.723  32.684  1.00  0.00     0.004 C 
BRANCH   2   3
ATOM      3  C   UNL     1      21.630  14.309  31.498  1.00  0.00     0.027 C 
BRANCH   3   4
ATOM      4  C   UNL     1      22.597  15.397  31.124  1.00  0.00    -0.025 C 
ATOM      5  C   UNL     1      22.354  16.680  31.411  1.00  0.00     0.020 C 
BRANCH   5   6
ATOM      6  C   UNL     1      23.274  17.756  31.017  1.00  0.00     0.064 C 
ATOM      7  O   UNL     1      24.471  17.481  30.741  1.00  0.00    -0.545 OA
ATOM      8  O   UNL     1      22.844  19.076  30.943  1.00  0.00    -0.545 OA
ENDBRANCH   5   6
ENDBRANCH   3   4
ENDBRANCH   2   3
ENDBRANCH   1   2
BRANCH   1   9
ATOM      9  C   UNL     1      19.905  13.815  34.924  1.00  0.00     0.000 C 
BRANCH   9  10
ATOM     10  C   UNL     1      20.109  12.709  35.974  1.00  0.00     0.000 C 
BRANCH  10  11
ATOM     11  C   UNL     1      20.502  11.363  35.344  1.00  0.00    -0.000 C 
BRANCH  11  12
ATOM     12  C   UNL     1      21.804  10.792  35.926  1.00  0.00    -0.000 C 
BRANCH  12  13
ATOM     13  C   UNL     1      23.003  11.143  35.038  1.00  0.00    -0.003 C 
ATOM     14  C   UNL     1      24.322  10.836  35.741  1.00  0.00     0.004 C 
ENDBRANCH  12  13
ENDBRANCH  11  12
ENDBRANCH  10  11
ENDBRANCH   9  10
ENDBRANCH   1   9
TORSDOF 9
ENDMDL
