MODEL 1
REMARK VINA RESULT:     0.046      0.000      0.000
REMARK INTER + INTRA:           0.191
REMARK INTER:                   0.054
REMARK INTRA:                   0.137
REMARK UNBOUND:                 0.137
REMARK SMILES O=c1c(O)c(-c2ccc(O)c(O)c2)oc2cc(O)ccc12
REMARK SMILES IDX 5 1 3 2 2 3 1 4 21 5 15 6 14 7 16 8 17 9 19 10 20 11 6 12
REMARK SMILES IDX 7 13 8 14 9 15 13 16 11 17 10 18 12 20 4 22 18 24
REMARK H PARENT 10 19 12 21 4 23 18 25
REMARK Flexibility Score: inf
ROOT
ATOM      1  C   UNL     1     -37.364 -35.596 -33.808  1.00  0.00     0.180 A 
ATOM      2  C   UNL     1     -35.965 -35.769 -33.845  1.00  0.00     0.208 A 
ATOM      3  C   UNL     1     -35.339 -35.957 -35.088  1.00  0.00     0.235 A 
ATOM      4  O   UNL     1     -34.090 -36.125 -35.146  1.00  0.00    -0.285 OA
ATOM      5  C   UNL     1     -36.113 -35.945 -36.258  1.00  0.00     0.069 A 
ATOM      6  C   UNL     1     -37.505 -35.741 -36.139  1.00  0.00     0.142 A 
ATOM      7  O   UNL     1     -38.059 -35.578 -34.943  1.00  0.00    -0.452 OA
ATOM      8  C   UNL     1     -38.309 -35.714 -37.283  1.00  0.00     0.094 A 
ATOM      9  C   UNL     1     -37.741 -35.891 -38.550  1.00  0.00     0.119 A 
ATOM     10  C   UNL     1     -36.360 -36.094 -38.672  1.00  0.00     0.047 A 
ATOM     11  C   UNL     1     -35.547 -36.122 -37.534  1.00  0.00     0.020 A 
ENDROOT
BRANCH   1  12
ATOM     12  C   UNL     1     -38.099 -35.412 -32.536  1.00  0.00     0.025 A 
ATOM     13  C   UNL     1     -37.745 -36.122 -31.376  1.00  0.00     0.016 A 
ATOM     14  C   UNL     1     -38.469 -35.950 -30.193  1.00  0.00     0.051 A 
ATOM     15  C   UNL     1     -39.565 -35.077 -30.156  1.00  0.00     0.157 A 
ATOM     16  C   UNL     1     -39.211 -34.555 -32.498  1.00  0.00     0.062 A 
ATOM     17  C   UNL     1     -39.938 -34.381 -31.312  1.00  0.00     0.158 A 
BRANCH  15  18
ATOM     18  O   UNL     1     -40.288 -34.901 -28.978  1.00  0.00    -0.504 OA
ATOM     19  H   UNL     1     -41.218 -35.288 -28.866  1.00  0.00     0.293 HD
ENDBRANCH  15  18
BRANCH  17  20
ATOM     20  O   UNL     1     -41.033 -33.519 -31.275  1.00  0.00    -0.504 OA
ATOM     21  H   UNL     1     -41.941 -33.799 -31.628  1.00  0.00     0.293 HD
ENDBRANCH  17  20
ENDBRANCH   1  12
BRANCH   2  22
ATOM     22  O   UNL     1     -35.215 -35.727 -32.668  1.00  0.00    -0.502 OA
ATOM     23  H   UNL     1     -34.358 -35.192 -32.590  1.00  0.00     0.293 HD
ENDBRANCH   2  22
BRANCH   9  24
ATOM     24  O   UNL     1     -38.557 -35.860 -39.678  1.00  0.00    -0.508 OA
ATOM     25  H   UNL     1     -38.167 -35.869 -40.613  1.00  0.00     0.293 HD
ENDBRANCH   9  24
TORSDOF 5
ENDMDL
