MODEL 1
REMARK VINA RESULT:    -4.462      0.000      0.000
REMARK INTER + INTRA:          -6.504
REMARK INTER:                  -6.027
REMARK INTRA:                  -0.477
REMARK UNBOUND:                -0.477
REMARK SMILES CCCCCCC=CC(=O)[O-]
REMARK SMILES IDX 5 1 6 2 7 3 8 4 9 5 10 6 11 7 4 8 3 9 2 10 1 11
REMARK H PARENT
REMARK Flexibility Score: inf
ROOT
ATOM      1  C   UNL     1      24.521  38.105   1.980  1.00  0.00     0.004 C 
ENDROOT
BRANCH   1   2
ATOM      2  C   UNL     1      24.205  38.851   0.678  1.00  0.00     0.027 C 
BRANCH   2   3
ATOM      3  C   UNL     1      23.292  40.018   0.927  1.00  0.00    -0.025 C 
ATOM      4  C   UNL     1      21.962  39.876   0.941  1.00  0.00     0.020 C 
BRANCH   4   5
ATOM      5  C   UNL     1      21.050  41.007   1.169  1.00  0.00     0.064 C 
ATOM      6  O   UNL     1      21.392  42.187   0.889  1.00  0.00    -0.545 OA
ATOM      7  O   UNL     1      19.792  40.771   1.707  1.00  0.00    -0.545 OA
ENDBRANCH   4   5
ENDBRANCH   2   3
ENDBRANCH   1   2
BRANCH   1   8
ATOM      8  C   UNL     1      24.300  36.594   1.814  1.00  0.00     0.000 C 
BRANCH   8   9
ATOM      9  C   UNL     1      23.310  36.254   0.686  1.00  0.00    -0.000 C 
BRANCH   9  10
ATOM     10  C   UNL     1      23.775  35.138  -0.268  1.00  0.00    -0.003 C 
ATOM     11  C   UNL     1      25.255  34.790  -0.105  1.00  0.00     0.004 C 
ENDBRANCH   9  10
ENDBRANCH   8   9
ENDBRANCH   1   8
TORSDOF 6
ENDMDL
MODEL 2
REMARK VINA RESULT:    -4.401      4.352      5.200
REMARK INTER + INTRA:          -6.422
REMARK INTER:                  -6.173
REMARK INTRA:                  -0.248
REMARK UNBOUND:                -0.477
REMARK SMILES CCCCCCC=CC(=O)[O-]
REMARK SMILES IDX 5 1 6 2 7 3 8 4 9 5 10 6 11 7 4 8 3 9 2 10 1 11
REMARK H PARENT
REMARK Flexibility Score: inf
ROOT
ATOM      1  C   UNL     1      23.167  36.794   2.794  1.00  0.00     0.004 C 
ENDROOT
BRANCH   1   2
ATOM      2  C   UNL     1      23.358  38.011   3.707  1.00  0.00     0.027 C 
BRANCH   2   3
ATOM      3  C   UNL     1      24.325  37.712   4.817  1.00  0.00    -0.025 C 
ATOM      4  C   UNL     1      24.807  38.679   5.605  1.00  0.00     0.020 C 
BRANCH   4   5
ATOM      5  C   UNL     1      25.765  38.411   6.688  1.00  0.00     0.064 C 
ATOM      6  O   UNL     1      25.897  37.254   7.170  1.00  0.00    -0.545 OA
ATOM      7  O   UNL     1      26.537  39.451   7.190  1.00  0.00    -0.545 OA
ENDBRANCH   4   5
ENDBRANCH   2   3
ENDBRANCH   1   2
BRANCH   1   8
ATOM      8  C   UNL     1      23.919  36.980   1.468  1.00  0.00     0.000 C 
BRANCH   8   9
ATOM      9  C   UNL     1      24.840  35.794   1.129  1.00  0.00    -0.000 C 
BRANCH   9  10
ATOM     10  C   UNL     1      24.505  35.072  -0.188  1.00  0.00    -0.003 C 
ATOM     11  C   UNL     1      23.024  35.158  -0.559  1.00  0.00     0.004 C 
ENDBRANCH   9  10
ENDBRANCH   8   9
ENDBRANCH   1   8
TORSDOF 6
ENDMDL
MODEL 3
REMARK VINA RESULT:    -4.374      4.424      5.328
REMARK INTER + INTRA:          -6.386
REMARK INTER:                  -6.100
REMARK INTRA:                  -0.286
REMARK UNBOUND:                -0.477
REMARK SMILES CCCCCCC=CC(=O)[O-]
REMARK SMILES IDX 5 1 6 2 7 3 8 4 9 5 10 6 11 7 4 8 3 9 2 10 1 11
REMARK H PARENT
REMARK Flexibility Score: inf
ROOT
ATOM      1  C   UNL     1      23.773  36.299   3.776  1.00  0.00     0.004 C 
ENDROOT
BRANCH   1   2
ATOM      2  C   UNL     1      22.284  36.664   3.743  1.00  0.00     0.027 C 
BRANCH   2   3
ATOM      3  C   UNL     1      21.446  35.589   4.375  1.00  0.00    -0.025 C 
ATOM      4  C   UNL     1      20.187  35.820   4.763  1.00  0.00     0.020 C 
BRANCH   4   5
ATOM      5  C   UNL     1      19.354  34.786   5.396  1.00  0.00     0.064 C 
ATOM      6  O   UNL     1      18.739  33.932   4.704  1.00  0.00    -0.545 OA
ATOM      7  O   UNL     1      19.243  34.752   6.780  1.00  0.00    -0.545 OA
ENDBRANCH   4   5
ENDBRANCH   2   3
ENDBRANCH   1   2
BRANCH   1   8
ATOM      8  C   UNL     1      24.476  36.743   2.485  1.00  0.00     0.000 C 
BRANCH   8   9
ATOM      9  C   UNL     1      23.603  36.553   1.232  1.00  0.00    -0.000 C 
BRANCH   9  10
ATOM     10  C   UNL     1      24.122  35.500   0.236  1.00  0.00    -0.003 C 
ATOM     11  C   UNL     1      23.092  35.124  -0.829  1.00  0.00     0.004 C 
ENDBRANCH   9  10
ENDBRANCH   8   9
ENDBRANCH   1   8
TORSDOF 6
ENDMDL
MODEL 4
REMARK VINA RESULT:    -4.374      1.727      2.201
REMARK INTER + INTRA:          -6.386
REMARK INTER:                  -6.108
REMARK INTRA:                  -0.277
REMARK UNBOUND:                -0.477
REMARK SMILES CCCCCCC=CC(=O)[O-]
REMARK SMILES IDX 5 1 6 2 7 3 8 4 9 5 10 6 11 7 4 8 3 9 2 10 1 11
REMARK H PARENT
REMARK Flexibility Score: inf
ROOT
ATOM      1  C   UNL     1      23.547  38.262   1.202  1.00  0.00     0.004 C 
ENDROOT
BRANCH   1   2
ATOM      2  C   UNL     1      22.313  38.960   0.617  1.00  0.00     0.027 C 
BRANCH   2   3
ATOM      3  C   UNL     1      22.257  40.403   1.031  1.00  0.00    -0.025 C 
ATOM      4  C   UNL     1      23.296  41.225   0.848  1.00  0.00     0.020 C 
BRANCH   4   5
ATOM      5  C   UNL     1      23.266  42.637   1.258  1.00  0.00     0.064 C 
ATOM      6  O   UNL     1      23.592  42.984   2.424  1.00  0.00    -0.545 OA
ATOM      7  O   UNL     1      22.868  43.604   0.345  1.00  0.00    -0.545 OA
ENDBRANCH   4   5
ENDBRANCH   2   3
ENDBRANCH   1   2
BRANCH   1   8
ATOM      8  C   UNL     1      23.294  36.757   1.379  1.00  0.00     0.000 C 
BRANCH   8   9
ATOM      9  C   UNL     1      24.557  35.907   1.158  1.00  0.00    -0.000 C 
BRANCH   9  10
ATOM     10  C   UNL     1      24.586  35.124  -0.168  1.00  0.00    -0.003 C 
ATOM     11  C   UNL     1      23.212  35.017  -0.829  1.00  0.00     0.004 C 
ENDBRANCH   9  10
ENDBRANCH   8   9
ENDBRANCH   1   8
TORSDOF 6
ENDMDL
MODEL 5
REMARK VINA RESULT:    -4.316      0.999      1.544
REMARK INTER + INTRA:          -6.308
REMARK INTER:                  -5.875
REMARK INTRA:                  -0.433
REMARK UNBOUND:                -0.477
REMARK SMILES CCCCCCC=CC(=O)[O-]
REMARK SMILES IDX 5 1 6 2 7 3 8 4 9 5 10 6 11 7 4 8 3 9 2 10 1 11
REMARK H PARENT
REMARK Flexibility Score: inf
ROOT
ATOM      1  C   UNL     1      24.493  38.141   1.675  1.00  0.00     0.004 C 
ENDROOT
BRANCH   1   2
ATOM      2  C   UNL     1      23.787  39.063   0.672  1.00  0.00     0.027 C 
BRANCH   2   3
ATOM      3  C   UNL     1      22.347  39.272   1.045  1.00  0.00    -0.025 C 
ATOM      4  C   UNL     1      21.971  40.270   1.853  1.00  0.00     0.020 C 
BRANCH   4   5
ATOM      5  C   UNL     1      20.569  40.485   2.241  1.00  0.00     0.064 C 
ATOM      6  O   UNL     1      20.111  40.014   3.316  1.00  0.00    -0.545 OA
ATOM      7  O   UNL     1      19.735  41.218   1.407  1.00  0.00    -0.545 OA
ENDBRANCH   4   5
ENDBRANCH   2   3
ENDBRANCH   1   2
BRANCH   1   8
ATOM      8  C   UNL     1      23.877  36.734   1.654  1.00  0.00     0.000 C 
BRANCH   8   9
ATOM      9  C   UNL     1      24.824  35.674   1.063  1.00  0.00    -0.000 C 
BRANCH   9  10
ATOM     10  C   UNL     1      24.436  35.171  -0.339  1.00  0.00    -0.003 C 
ATOM     11  C   UNL     1      22.928  35.196  -0.588  1.00  0.00     0.004 C 
ENDBRANCH   9  10
ENDBRANCH   8   9
ENDBRANCH   1   8
TORSDOF 6
ENDMDL
MODEL 6
REMARK VINA RESULT:    -4.277      8.672      9.887
REMARK INTER + INTRA:          -6.254
REMARK INTER:                  -5.620
REMARK INTRA:                  -0.634
REMARK UNBOUND:                -0.477
REMARK SMILES CCCCCCC=CC(=O)[O-]
REMARK SMILES IDX 5 1 6 2 7 3 8 4 9 5 10 6 11 7 4 8 3 9 2 10 1 11
REMARK H PARENT
REMARK Flexibility Score: inf
ROOT
ATOM      1  C   UNL     1      27.662  38.501  11.329  1.00  0.00     0.004 C 
ENDROOT
BRANCH   1   2
ATOM      2  C   UNL     1      28.251  39.916  11.271  1.00  0.00     0.027 C 
BRANCH   2   3
ATOM      3  C   UNL     1      28.129  40.501   9.893  1.00  0.00    -0.025 C 
ATOM      4  C   UNL     1      28.409  39.783   8.800  1.00  0.00     0.020 C 
BRANCH   4   5
ATOM      5  C   UNL     1      28.309  40.340   7.443  1.00  0.00     0.064 C 
ATOM      6  O   UNL     1      29.307  40.859   6.876  1.00  0.00    -0.545 OA
ATOM      7  O   UNL     1      27.091  40.295   6.776  1.00  0.00    -0.545 OA
ENDBRANCH   4   5
ENDBRANCH   2   3
ENDBRANCH   1   2
BRANCH   1   8
ATOM      8  C   UNL     1      26.126  38.546  11.330  1.00  0.00     0.000 C 
BRANCH   8   9
ATOM      9  C   UNL     1      25.507  37.908  10.074  1.00  0.00    -0.000 C 
BRANCH   9  10
ATOM     10  C   UNL     1      26.285  36.706   9.509  1.00  0.00    -0.003 C 
ATOM     11  C   UNL     1      26.488  36.782   7.996  1.00  0.00     0.004 C 
ENDBRANCH   9  10
ENDBRANCH   8   9
ENDBRANCH   1   8
TORSDOF 6
ENDMDL
MODEL 7
REMARK VINA RESULT:    -4.228      8.194      9.746
REMARK INTER + INTRA:          -6.188
REMARK INTER:                  -5.768
REMARK INTRA:                  -0.420
REMARK UNBOUND:                -0.477
REMARK SMILES CCCCCCC=CC(=O)[O-]
REMARK SMILES IDX 5 1 6 2 7 3 8 4 9 5 10 6 11 7 4 8 3 9 2 10 1 11
REMARK H PARENT
REMARK Flexibility Score: inf
ROOT
ATOM      1  C   UNL     1      27.479  38.540  10.876  1.00  0.00     0.004 C 
ENDROOT
BRANCH   1   2
ATOM      2  C   UNL     1      26.059  37.967  10.788  1.00  0.00     0.027 C 
BRANCH   2   3
ATOM      3  C   UNL     1      25.677  37.677   9.365  1.00  0.00    -0.025 C 
ATOM      4  C   UNL     1      26.530  37.095   8.515  1.00  0.00     0.020 C 
BRANCH   4   5
ATOM      5  C   UNL     1      26.180  36.814   7.115  1.00  0.00     0.064 C 
ATOM      6  O   UNL     1      25.584  37.670   6.407  1.00  0.00    -0.545 OA
ATOM      7  O   UNL     1      26.510  35.583   6.562  1.00  0.00    -0.545 OA
ENDBRANCH   4   5
ENDBRANCH   2   3
ENDBRANCH   1   2
BRANCH   1   8
ATOM      8  C   UNL     1      27.494  40.029  10.500  1.00  0.00     0.000 C 
BRANCH   8   9
ATOM      9  C   UNL     1      28.644  40.394   9.544  1.00  0.00    -0.000 C 
BRANCH   9  10
ATOM     10  C   UNL     1      28.467  39.892   8.100  1.00  0.00    -0.003 C 
ATOM     11  C   UNL     1      29.111  40.813   7.063  1.00  0.00     0.004 C 
ENDBRANCH   9  10
ENDBRANCH   8   9
ENDBRANCH   1   8
TORSDOF 6
ENDMDL
MODEL 8
REMARK VINA RESULT:    -4.006      2.102      2.550
REMARK INTER + INTRA:          -5.889
REMARK INTER:                  -5.628
REMARK INTRA:                  -0.261
REMARK UNBOUND:                -0.477
REMARK SMILES CCCCCCC=CC(=O)[O-]
REMARK SMILES IDX 5 1 6 2 7 3 8 4 9 5 10 6 11 7 4 8 3 9 2 10 1 11
REMARK H PARENT
REMARK Flexibility Score: inf
ROOT
ATOM      1  C   UNL     1      23.918  36.527   3.284  1.00  0.00     0.004 C 
ENDROOT
BRANCH   1   2
ATOM      2  C   UNL     1      22.604  36.923   3.968  1.00  0.00     0.027 C 
BRANCH   2   3
ATOM      3  C   UNL     1      22.180  38.308   3.572  1.00  0.00    -0.025 C 
ATOM      4  C   UNL     1      21.023  38.833   3.990  1.00  0.00     0.020 C 
BRANCH   4   5
ATOM      5  C   UNL     1      20.582  40.181   3.603  1.00  0.00     0.064 C 
ATOM      6  O   UNL     1      21.250  40.878   2.793  1.00  0.00    -0.545 OA
ATOM      7  O   UNL     1      19.410  40.697   4.141  1.00  0.00    -0.545 OA
ENDBRANCH   4   5
ENDBRANCH   2   3
ENDBRANCH   1   2
BRANCH   1   8
ATOM      8  C   UNL     1      23.764  36.532   1.755  1.00  0.00     0.000 C 
BRANCH   8   9
ATOM      9  C   UNL     1      24.897  35.779   1.036  1.00  0.00    -0.000 C 
BRANCH   9  10
ATOM     10  C   UNL     1      24.468  35.028  -0.237  1.00  0.00    -0.003 C 
ATOM     11  C   UNL     1      22.982  35.194  -0.558  1.00  0.00     0.004 C 
ENDBRANCH   9  10
ENDBRANCH   8   9
ENDBRANCH   1   8
TORSDOF 6
ENDMDL
