MODEL 1
REMARK VINA RESULT:    -3.692      0.000      0.000
REMARK INTER + INTRA:          -6.501
REMARK INTER:                  -5.851
REMARK INTRA:                  -0.650
REMARK UNBOUND:                -0.650
REMARK SMILES CCCCCCCCCCCC(=O)[O-]
REMARK SMILES IDX 7 1 8 2 9 3 10 4 11 5 12 6 13 7 14 8 6 9 5 10 4 11 3 12 2 13
REMARK SMILES IDX 1 14
REMARK H PARENT
REMARK Flexibility Score: inf
ROOT
ATOM      1  C   UNL     1      33.926   5.380  -6.230  1.00  0.00     0.000 C 
ENDROOT
BRANCH   1   2
ATOM      2  C   UNL     1      34.866   5.850  -5.104  1.00  0.00     0.000 C 
BRANCH   2   3
ATOM      3  C   UNL     1      35.789   7.032  -5.466  1.00  0.00     0.000 C 
BRANCH   3   4
ATOM      4  C   UNL     1      35.771   8.204  -4.468  1.00  0.00     0.006 C 
BRANCH   4   5
ATOM      5  C   UNL     1      34.439   8.323  -3.716  1.00  0.00     0.053 C 
BRANCH   5   6
ATOM      6  C   UNL     1      34.674   8.338  -2.239  1.00  0.00     0.041 C 
ATOM      7  O   UNL     1      33.782   7.925  -1.452  1.00  0.00    -0.550 OA
ATOM      8  O   UNL     1      35.895   8.763  -1.732  1.00  0.00    -0.550 OA
ENDBRANCH   5   6
ENDBRANCH   4   5
ENDBRANCH   3   4
ENDBRANCH   2   3
ENDBRANCH   1   2
BRANCH   1   9
ATOM      9  C   UNL     1      33.051   6.515  -6.790  1.00  0.00     0.000 C 
BRANCH   9  10
ATOM     10  C   UNL     1      31.851   5.998  -7.603  1.00  0.00    -0.000 C 
BRANCH  10  11
ATOM     11  C   UNL     1      31.563   6.760  -8.913  1.00  0.00    -0.000 C 
BRANCH  11  12
ATOM     12  C   UNL     1      30.135   7.318  -9.046  1.00  0.00    -0.000 C 
BRANCH  12  13
ATOM     13  C   UNL     1      29.330   7.208  -7.743  1.00  0.00    -0.003 C 
ATOM     14  C   UNL     1      29.140   8.578  -7.097  1.00  0.00     0.004 C 
ENDBRANCH  12  13
ENDBRANCH  11  12
ENDBRANCH  10  11
ENDBRANCH   9  10
ENDBRANCH   1   9
TORSDOF 10
ENDMDL
MODEL 2
REMARK VINA RESULT:    -3.467      1.950      2.814
REMARK INTER + INTRA:          -6.145
REMARK INTER:                  -5.193
REMARK INTRA:                  -0.952
REMARK UNBOUND:                -0.650
REMARK SMILES CCCCCCCCCCCC(=O)[O-]
REMARK SMILES IDX 7 1 8 2 9 3 10 4 11 5 12 6 13 7 14 8 6 9 5 10 4 11 3 12 2 13
REMARK SMILES IDX 1 14
REMARK H PARENT
REMARK Flexibility Score: inf
ROOT
ATOM      1  C   UNL     1      33.064   5.976  -8.753  1.00  0.00     0.000 C 
ENDROOT
BRANCH   1   2
ATOM      2  C   UNL     1      34.555   6.270  -8.508  1.00  0.00     0.000 C 
BRANCH   2   3
ATOM      3  C   UNL     1      35.394   5.069  -8.025  1.00  0.00     0.000 C 
BRANCH   3   4
ATOM      4  C   UNL     1      36.179   5.302  -6.722  1.00  0.00     0.006 C 
BRANCH   4   5
ATOM      5  C   UNL     1      35.868   6.659  -6.076  1.00  0.00     0.053 C 
BRANCH   5   6
ATOM      6  C   UNL     1      35.114   6.467  -4.798  1.00  0.00     0.041 C 
ATOM      7  O   UNL     1      34.780   7.464  -4.105  1.00  0.00    -0.550 OA
ATOM      8  O   UNL     1      34.736   5.192  -4.397  1.00  0.00    -0.550 OA
ENDBRANCH   5   6
ENDBRANCH   4   5
ENDBRANCH   3   4
ENDBRANCH   2   3
ENDBRANCH   1   2
BRANCH   1   9
ATOM      9  C   UNL     1      32.250   5.888  -7.450  1.00  0.00     0.000 C 
BRANCH   9  10
ATOM     10  C   UNL     1      32.114   7.246  -6.737  1.00  0.00    -0.000 C 
BRANCH  10  11
ATOM     11  C   UNL     1      30.758   7.957  -6.925  1.00  0.00    -0.000 C 
BRANCH  11  12
ATOM     12  C   UNL     1      29.572   7.030  -7.246  1.00  0.00    -0.000 C 
BRANCH  12  13
ATOM     13  C   UNL     1      28.887   7.379  -8.575  1.00  0.00    -0.003 C 
ATOM     14  C   UNL     1      28.395   8.825  -8.576  1.00  0.00     0.004 C 
ENDBRANCH  12  13
ENDBRANCH  11  12
ENDBRANCH  10  11
ENDBRANCH   9  10
ENDBRANCH   1   9
TORSDOF 10
ENDMDL
MODEL 3
REMARK VINA RESULT:    -3.459      2.425      3.814
REMARK INTER + INTRA:          -6.131
REMARK INTER:                  -5.065
REMARK INTRA:                  -1.066
REMARK UNBOUND:                -0.650
REMARK SMILES CCCCCCCCCCCC(=O)[O-]
REMARK SMILES IDX 7 1 8 2 9 3 10 4 11 5 12 6 13 7 14 8 6 9 5 10 4 11 3 12 2 13
REMARK SMILES IDX 1 14
REMARK H PARENT
REMARK Flexibility Score: inf
ROOT
ATOM      1  C   UNL     1      31.226   6.492  -7.170  1.00  0.00     0.000 C 
ENDROOT
BRANCH   1   2
ATOM      2  C   UNL     1      32.027   7.803  -7.276  1.00  0.00     0.000 C 
BRANCH   2   3
ATOM      3  C   UNL     1      33.561   7.642  -7.276  1.00  0.00     0.000 C 
BRANCH   3   4
ATOM      4  C   UNL     1      34.207   7.547  -5.883  1.00  0.00     0.006 C 
BRANCH   4   5
ATOM      5  C   UNL     1      35.265   6.439  -5.792  1.00  0.00     0.053 C 
BRANCH   5   6
ATOM      6  C   UNL     1      34.610   5.106  -5.611  1.00  0.00     0.041 C 
ATOM      7  O   UNL     1      34.407   4.361  -6.605  1.00  0.00    -0.550 OA
ATOM      8  O   UNL     1      34.269   4.666  -4.339  1.00  0.00    -0.550 OA
ENDBRANCH   5   6
ENDBRANCH   4   5
ENDBRANCH   3   4
ENDBRANCH   2   3
ENDBRANCH   1   2
BRANCH   1   9
ATOM      9  C   UNL     1      29.710   6.727  -7.053  1.00  0.00     0.000 C 
BRANCH   9  10
ATOM     10  C   UNL     1      29.292   8.152  -7.457  1.00  0.00    -0.000 C 
BRANCH  10  11
ATOM     11  C   UNL     1      28.409   8.249  -8.718  1.00  0.00    -0.000 C 
BRANCH  11  12
ATOM     12  C   UNL     1      28.764   7.260  -9.843  1.00  0.00    -0.000 C 
BRANCH  12  13
ATOM     13  C   UNL     1      30.006   7.686 -10.638  1.00  0.00    -0.003 C 
ATOM     14  C   UNL     1      30.958   6.509 -10.843  1.00  0.00     0.004 C 
ENDBRANCH  12  13
ENDBRANCH  11  12
ENDBRANCH  10  11
ENDBRANCH   9  10
ENDBRANCH   1   9
TORSDOF 10
ENDMDL
MODEL 4
REMARK VINA RESULT:    -3.385      5.436      7.539
REMARK INTER + INTRA:          -6.014
REMARK INTER:                  -5.542
REMARK INTRA:                  -0.472
REMARK UNBOUND:                -0.650
REMARK SMILES CCCCCCCCCCCC(=O)[O-]
REMARK SMILES IDX 7 1 8 2 9 3 10 4 11 5 12 6 13 7 14 8 6 9 5 10 4 11 3 12 2 13
REMARK SMILES IDX 1 14
REMARK H PARENT
REMARK Flexibility Score: inf
ROOT
ATOM      1  C   UNL     1      36.291   1.521  -9.247  1.00  0.00     0.000 C 
ENDROOT
BRANCH   1   2
ATOM      2  C   UNL     1      35.811   2.478  -8.140  1.00  0.00     0.000 C 
BRANCH   2   3
ATOM      3  C   UNL     1      36.204   3.958  -8.331  1.00  0.00     0.000 C 
BRANCH   3   4
ATOM      4  C   UNL     1      35.146   4.978  -7.875  1.00  0.00     0.006 C 
BRANCH   4   5
ATOM      5  C   UNL     1      34.504   4.610  -6.531  1.00  0.00     0.053 C 
BRANCH   5   6
ATOM      6  C   UNL     1      35.122   5.403  -5.424  1.00  0.00     0.041 C 
ATOM      7  O   UNL     1      34.642   5.347  -4.261  1.00  0.00    -0.550 OA
ATOM      8  O   UNL     1      36.257   6.166  -5.663  1.00  0.00    -0.550 OA
ENDBRANCH   5   6
ENDBRANCH   4   5
ENDBRANCH   3   4
ENDBRANCH   2   3
ENDBRANCH   1   2
BRANCH   1   9
ATOM      9  C   UNL     1      36.584   0.104  -8.725  1.00  0.00     0.000 C 
BRANCH   9  10
ATOM     10  C   UNL     1      36.329  -0.042  -7.214  1.00  0.00    -0.000 C 
BRANCH  10  11
ATOM     11  C   UNL     1      36.686  -1.417  -6.613  1.00  0.00    -0.000 C 
BRANCH  11  12
ATOM     12  C   UNL     1      35.482  -2.283  -6.202  1.00  0.00    -0.000 C 
BRANCH  12  13
ATOM     13  C   UNL     1      34.726  -1.715  -4.992  1.00  0.00    -0.003 C 
ATOM     14  C   UNL     1      35.147  -2.416  -3.703  1.00  0.00     0.004 C 
ENDBRANCH  12  13
ENDBRANCH  11  12
ENDBRANCH  10  11
ENDBRANCH   9  10
ENDBRANCH   1   9
TORSDOF 10
ENDMDL
MODEL 5
REMARK VINA RESULT:    -3.373      2.603      4.183
REMARK INTER + INTRA:          -5.996
REMARK INTER:                  -4.996
REMARK INTRA:                  -0.999
REMARK UNBOUND:                -0.650
REMARK SMILES CCCCCCCCCCCC(=O)[O-]
REMARK SMILES IDX 7 1 8 2 9 3 10 4 11 5 12 6 13 7 14 8 6 9 5 10 4 11 3 12 2 13
REMARK SMILES IDX 1 14
REMARK H PARENT
REMARK Flexibility Score: inf
ROOT
ATOM      1  C   UNL     1      31.618   7.479 -10.457  1.00  0.00     0.000 C 
ENDROOT
BRANCH   1   2
ATOM      2  C   UNL     1      32.555   7.468  -9.236  1.00  0.00     0.000 C 
BRANCH   2   3
ATOM      3  C   UNL     1      32.755   6.091  -8.570  1.00  0.00     0.000 C 
BRANCH   3   4
ATOM      4  C   UNL     1      32.876   6.118  -7.037  1.00  0.00     0.006 C 
BRANCH   4   5
ATOM      5  C   UNL     1      33.570   4.872  -6.472  1.00  0.00     0.053 C 
BRANCH   5   6
ATOM      6  C   UNL     1      34.828   5.254  -5.758  1.00  0.00     0.041 C 
ATOM      7  O   UNL     1      35.856   5.572  -6.412  1.00  0.00    -0.550 OA
ATOM      8  O   UNL     1      34.851   5.307  -4.370  1.00  0.00    -0.550 OA
ENDBRANCH   5   6
ENDBRANCH   4   5
ENDBRANCH   3   4
ENDBRANCH   2   3
ENDBRANCH   1   2
BRANCH   1   9
ATOM      9  C   UNL     1      30.242   6.857 -10.161  1.00  0.00     0.000 C 
BRANCH   9  10
ATOM     10  C   UNL     1      29.131   7.910 -10.000  1.00  0.00    -0.000 C 
BRANCH  10  11
ATOM     11  C   UNL     1      28.584   8.079  -8.568  1.00  0.00    -0.000 C 
BRANCH  11  12
ATOM     12  C   UNL     1      29.349   7.303  -7.480  1.00  0.00    -0.000 C 
BRANCH  12  13
ATOM     13  C   UNL     1      29.973   8.223  -6.421  1.00  0.00    -0.003 C 
ATOM     14  C   UNL     1      29.022   8.432  -5.245  1.00  0.00     0.004 C 
ENDBRANCH  12  13
ENDBRANCH  11  12
ENDBRANCH  10  11
ENDBRANCH   9  10
ENDBRANCH   1   9
TORSDOF 10
ENDMDL
MODEL 6
REMARK VINA RESULT:    -3.310      3.965      6.525
REMARK INTER + INTRA:          -5.894
REMARK INTER:                  -5.053
REMARK INTRA:                  -0.841
REMARK UNBOUND:                -0.650
REMARK SMILES CCCCCCCCCCCC(=O)[O-]
REMARK SMILES IDX 7 1 8 2 9 3 10 4 11 5 12 6 13 7 14 8 6 9 5 10 4 11 3 12 2 13
REMARK SMILES IDX 1 14
REMARK H PARENT
REMARK Flexibility Score: inf
ROOT
ATOM      1  C   UNL     1      33.407   5.998  -7.301  1.00  0.00     0.000 C 
ENDROOT
BRANCH   1   2
ATOM      2  C   UNL     1      31.875   5.996  -7.457  1.00  0.00     0.000 C 
BRANCH   2   3
ATOM      3  C   UNL     1      31.161   7.279  -6.983  1.00  0.00     0.000 C 
BRANCH   3   4
ATOM      4  C   UNL     1      29.631   7.168  -6.863  1.00  0.00     0.006 C 
BRANCH   4   5
ATOM      5  C   UNL     1      28.901   8.401  -7.411  1.00  0.00     0.053 C 
BRANCH   5   6
ATOM      6  C   UNL     1      28.414   8.143  -8.802  1.00  0.00     0.041 C 
ATOM      7  O   UNL     1      28.604   7.021  -9.342  1.00  0.00    -0.550 OA
ATOM      8  O   UNL     1      27.706   9.124  -9.485  1.00  0.00    -0.550 OA
ENDBRANCH   5   6
ENDBRANCH   4   5
ENDBRANCH   3   4
ENDBRANCH   2   3
ENDBRANCH   1   2
BRANCH   1   9
ATOM      9  C   UNL     1      33.903   4.982  -6.258  1.00  0.00     0.000 C 
BRANCH   9  10
ATOM     10  C   UNL     1      35.323   5.291  -5.750  1.00  0.00    -0.000 C 
BRANCH  10  11
ATOM     11  C   UNL     1      35.951   6.590  -6.296  1.00  0.00    -0.000 C 
BRANCH  11  12
ATOM     12  C   UNL     1      36.096   7.728  -5.270  1.00  0.00    -0.000 C 
BRANCH  12  13
ATOM     13  C   UNL     1      34.978   7.727  -4.219  1.00  0.00    -0.003 C 
ATOM     14  C   UNL     1      33.803   8.594  -4.666  1.00  0.00     0.004 C 
ENDBRANCH  12  13
ENDBRANCH  11  12
ENDBRANCH  10  11
ENDBRANCH   9  10
ENDBRANCH   1   9
TORSDOF 10
ENDMDL
MODEL 7
REMARK VINA RESULT:    -3.297      2.568      3.241
REMARK INTER + INTRA:          -5.874
REMARK INTER:                  -4.659
REMARK INTRA:                  -1.216
REMARK UNBOUND:                -0.650
REMARK SMILES CCCCCCCCCCCC(=O)[O-]
REMARK SMILES IDX 7 1 8 2 9 3 10 4 11 5 12 6 13 7 14 8 6 9 5 10 4 11 3 12 2 13
REMARK SMILES IDX 1 14
REMARK H PARENT
REMARK Flexibility Score: inf
ROOT
ATOM      1  C   UNL     1      34.386   7.591  -9.333  1.00  0.00     0.000 C 
ENDROOT
BRANCH   1   2
ATOM      2  C   UNL     1      35.424   7.957  -8.256  1.00  0.00     0.000 C 
BRANCH   2   3
ATOM      3  C   UNL     1      34.857   8.651  -7.001  1.00  0.00     0.000 C 
BRANCH   3   4
ATOM      4  C   UNL     1      34.855   7.793  -5.725  1.00  0.00     0.006 C 
BRANCH   4   5
ATOM      5  C   UNL     1      35.796   6.585  -5.819  1.00  0.00     0.053 C 
BRANCH   5   6
ATOM      6  C   UNL     1      35.060   5.323  -5.494  1.00  0.00     0.041 C 
ATOM      7  O   UNL     1      34.612   5.133  -4.333  1.00  0.00    -0.550 OA
ATOM      8  O   UNL     1      34.825   4.380  -6.485  1.00  0.00    -0.550 OA
ENDBRANCH   5   6
ENDBRANCH   4   5
ENDBRANCH   3   4
ENDBRANCH   2   3
ENDBRANCH   1   2
BRANCH   1   9
ATOM      9  C   UNL     1      33.915   6.130  -9.237  1.00  0.00     0.000 C 
BRANCH   9  10
ATOM     10  C   UNL     1      32.397   6.004  -9.011  1.00  0.00    -0.000 C 
BRANCH  10  11
ATOM     11  C   UNL     1      31.949   5.984  -7.535  1.00  0.00    -0.000 C 
BRANCH  11  12
ATOM     12  C   UNL     1      31.189   7.237  -7.065  1.00  0.00    -0.000 C 
BRANCH  12  13
ATOM     13  C   UNL     1      29.670   7.025  -7.008  1.00  0.00    -0.003 C 
ATOM     14  C   UNL     1      29.006   7.449  -8.315  1.00  0.00     0.004 C 
ENDBRANCH  12  13
ENDBRANCH  11  12
ENDBRANCH  10  11
ENDBRANCH   9  10
ENDBRANCH   1   9
TORSDOF 10
ENDMDL
MODEL 8
REMARK VINA RESULT:    -3.295      5.698      7.215
REMARK INTER + INTRA:          -5.872
REMARK INTER:                  -4.847
REMARK INTRA:                  -1.024
REMARK UNBOUND:                -0.650
REMARK SMILES CCCCCCCCCCCC(=O)[O-]
REMARK SMILES IDX 7 1 8 2 9 3 10 4 11 5 12 6 13 7 14 8 6 9 5 10 4 11 3 12 2 13
REMARK SMILES IDX 1 14
REMARK H PARENT
REMARK Flexibility Score: inf
ROOT
ATOM      1  C   UNL     1      35.912   2.455  -8.062  1.00  0.00     0.000 C 
ENDROOT
BRANCH   1   2
ATOM      2  C   UNL     1      36.798   1.243  -8.406  1.00  0.00     0.000 C 
BRANCH   2   3
ATOM      3  C   UNL     1      38.124   1.151  -7.623  1.00  0.00     0.000 C 
BRANCH   3   4
ATOM      4  C   UNL     1      39.093   2.327  -7.840  1.00  0.00     0.006 C 
BRANCH   4   5
ATOM      5  C   UNL     1      39.828   2.736  -6.557  1.00  0.00     0.053 C 
BRANCH   5   6
ATOM      6  C   UNL     1      40.725   1.631  -6.095  1.00  0.00     0.041 C 
ATOM      7  O   UNL     1      41.871   1.493  -6.597  1.00  0.00    -0.550 OA
ATOM      8  O   UNL     1      40.314   0.782  -5.075  1.00  0.00    -0.550 OA
ENDBRANCH   5   6
ENDBRANCH   4   5
ENDBRANCH   3   4
ENDBRANCH   2   3
ENDBRANCH   1   2
BRANCH   1   9
ATOM      9  C   UNL     1      35.933   3.539  -9.153  1.00  0.00     0.000 C 
BRANCH   9  10
ATOM     10  C   UNL     1      36.186   4.949  -8.590  1.00  0.00    -0.000 C 
BRANCH  10  11
ATOM     11  C   UNL     1      36.637   5.000  -7.115  1.00  0.00    -0.000 C 
BRANCH  11  12
ATOM     12  C   UNL     1      35.717   5.802  -6.177  1.00  0.00    -0.000 C 
BRANCH  12  13
ATOM     13  C   UNL     1      34.537   4.973  -5.651  1.00  0.00    -0.003 C 
ATOM     14  C   UNL     1      33.289   5.190  -6.503  1.00  0.00     0.004 C 
ENDBRANCH  12  13
ENDBRANCH  11  12
ENDBRANCH  10  11
ENDBRANCH   9  10
ENDBRANCH   1   9
TORSDOF 10
ENDMDL
MODEL 9
REMARK VINA RESULT:    -3.204     11.831     13.758
REMARK INTER + INTRA:          -5.727
REMARK INTER:                  -4.237
REMARK INTRA:                  -1.489
REMARK UNBOUND:                -0.650
REMARK SMILES CCCCCCCCCCCC(=O)[O-]
REMARK SMILES IDX 7 1 8 2 9 3 10 4 11 5 12 6 13 7 14 8 6 9 5 10 4 11 3 12 2 13
REMARK SMILES IDX 1 14
REMARK H PARENT
REMARK Flexibility Score: inf
ROOT
ATOM      1  C   UNL     1      41.709  -0.163   4.650  1.00  0.00     0.000 C 
ENDROOT
BRANCH   1   2
ATOM      2  C   UNL     1      41.330  -0.999   3.414  1.00  0.00     0.000 C 
BRANCH   2   3
ATOM      3  C   UNL     1      42.397  -1.055   2.302  1.00  0.00     0.000 C 
BRANCH   3   4
ATOM      4  C   UNL     1      41.843  -1.058   0.866  1.00  0.00     0.006 C 
BRANCH   4   5
ATOM      5  C   UNL     1      40.785   0.028   0.635  1.00  0.00     0.053 C 
BRANCH   5   6
ATOM      6  C   UNL     1      39.573  -0.556  -0.020  1.00  0.00     0.041 C 
ATOM      7  O   UNL     1      39.246  -0.197  -1.182  1.00  0.00    -0.550 OA
ATOM      8  O   UNL     1      38.831  -1.532   0.633  1.00  0.00    -0.550 OA
ENDBRANCH   5   6
ENDBRANCH   4   5
ENDBRANCH   3   4
ENDBRANCH   2   3
ENDBRANCH   1   2
BRANCH   1   9
ATOM      9  C   UNL     1      42.655   1.003   4.315  1.00  0.00     0.000 C 
BRANCH   9  10
ATOM     10  C   UNL     1      41.935   2.363   4.271  1.00  0.00    -0.000 C 
BRANCH  10  11
ATOM     11  C   UNL     1      41.229   2.693   2.940  1.00  0.00    -0.000 C 
BRANCH  11  12
ATOM     12  C   UNL     1      39.762   3.140   3.071  1.00  0.00    -0.000 C 
BRANCH  12  13
ATOM     13  C   UNL     1      38.931   2.200   3.956  1.00  0.00    -0.003 C 
ATOM     14  C   UNL     1      38.246   1.121   3.120  1.00  0.00     0.004 C 
ENDBRANCH  12  13
ENDBRANCH  11  12
ENDBRANCH  10  11
ENDBRANCH   9  10
ENDBRANCH   1   9
TORSDOF 10
ENDMDL
