MODEL 1
REMARK VINA RESULT:    -4.345      0.000      0.000
REMARK INTER + INTRA:          -7.669
REMARK INTER:                  -6.631
REMARK INTRA:                  -1.038
REMARK UNBOUND:                -1.038
REMARK SMILES O=C([O-])CCCCCCCCC(=O)[O-]
REMARK SMILES IDX 7 1 6 2 5 3 4 4 2 5 1 6 3 7 8 8 9 9 10 10 11 11 12 12 13 13
REMARK SMILES IDX 14 14
REMARK H PARENT
REMARK Flexibility Score: inf
ROOT
ATOM      1  C   UNL     1      19.194  -0.772  22.368  1.00  0.00     0.000 C 
ENDROOT
BRANCH   1   2
ATOM      2  C   UNL     1      20.640  -0.448  22.776  1.00  0.00     0.000 C 
BRANCH   2   3
ATOM      3  C   UNL     1      21.314  -1.606  23.531  1.00  0.00     0.006 C 
BRANCH   3   4
ATOM      4  C   UNL     1      21.207  -2.942  22.784  1.00  0.00     0.053 C 
BRANCH   4   5
ATOM      5  C   UNL     1      22.160  -2.972  21.631  1.00  0.00     0.041 C 
ATOM      6  O   UNL     1      21.761  -3.323  20.489  1.00  0.00    -0.550 OA
ATOM      7  O   UNL     1      23.476  -2.565  21.805  1.00  0.00    -0.550 OA
ENDBRANCH   4   5
ENDBRANCH   3   4
ENDBRANCH   2   3
ENDBRANCH   1   2
BRANCH   1   8
ATOM      8  C   UNL     1      18.919  -0.478  20.884  1.00  0.00     0.000 C 
BRANCH   8   9
ATOM      9  C   UNL     1      18.633  -1.749  20.070  1.00  0.00     0.000 C 
BRANCH   9  10
ATOM     10  C   UNL     1      17.762  -2.727  20.868  1.00  0.00     0.006 C 
BRANCH  10  11
ATOM     11  C   UNL     1      18.353  -4.139  20.841  1.00  0.00     0.053 C 
BRANCH  11  12
ATOM     12  C   UNL     1      18.238  -4.729  19.471  1.00  0.00     0.041 C 
ATOM     13  O   UNL     1      17.109  -4.856  18.928  1.00  0.00    -0.550 OA
ATOM     14  O   UNL     1      19.383  -5.092  18.772  1.00  0.00    -0.550 OA
ENDBRANCH  11  12
ENDBRANCH  10  11
ENDBRANCH   9  10
ENDBRANCH   8   9
ENDBRANCH   1   8
TORSDOF 9
ENDMDL
MODEL 2
REMARK VINA RESULT:    -4.325      0.111      4.356
REMARK INTER + INTRA:          -7.638
REMARK INTER:                  -6.615
REMARK INTRA:                  -1.023
REMARK UNBOUND:                -1.038
REMARK SMILES O=C([O-])CCCCCCCCC(=O)[O-]
REMARK SMILES IDX 7 1 6 2 5 3 4 4 2 5 1 6 3 7 8 8 9 9 10 10 11 11 12 12 13 13
REMARK SMILES IDX 14 14
REMARK H PARENT
REMARK Flexibility Score: inf
ROOT
ATOM      1  C   UNL     1      19.036  -0.500  20.881  1.00  0.00     0.000 C 
ENDROOT
BRANCH   1   2
ATOM      2  C   UNL     1      18.590  -1.717  20.053  1.00  0.00     0.000 C 
BRANCH   2   3
ATOM      3  C   UNL     1      17.749  -2.711  20.870  1.00  0.00     0.006 C 
BRANCH   3   4
ATOM      4  C   UNL     1      18.300  -4.142  20.811  1.00  0.00     0.053 C 
BRANCH   4   5
ATOM      5  C   UNL     1      18.180  -4.690  19.424  1.00  0.00     0.041 C 
ATOM      6  O   UNL     1      17.045  -4.836  18.897  1.00  0.00    -0.550 OA
ATOM      7  O   UNL     1      19.322  -4.992  18.694  1.00  0.00    -0.550 OA
ENDBRANCH   4   5
ENDBRANCH   3   4
ENDBRANCH   2   3
ENDBRANCH   1   2
BRANCH   1   8
ATOM      8  C   UNL     1      19.192  -0.828  22.375  1.00  0.00     0.000 C 
BRANCH   8   9
ATOM      9  C   UNL     1      20.586  -0.477  22.916  1.00  0.00     0.000 C 
BRANCH   9  10
ATOM     10  C   UNL     1      21.206  -1.673  23.650  1.00  0.00     0.006 C 
BRANCH  10  11
ATOM     11  C   UNL     1      21.095  -2.950  22.813  1.00  0.00     0.053 C 
BRANCH  11  12
ATOM     12  C   UNL     1      22.088  -2.933  21.695  1.00  0.00     0.041 C 
ATOM     13  O   UNL     1      21.749  -3.307  20.541  1.00  0.00    -0.550 OA
ATOM     14  O   UNL     1      23.373  -2.454  21.913  1.00  0.00    -0.550 OA
ENDBRANCH  11  12
ENDBRANCH  10  11
ENDBRANCH   9  10
ENDBRANCH   8   9
ENDBRANCH   1   8
TORSDOF 9
ENDMDL
MODEL 3
REMARK VINA RESULT:    -4.285      2.315      3.991
REMARK INTER + INTRA:          -7.578
REMARK INTER:                  -6.429
REMARK INTRA:                  -1.149
REMARK UNBOUND:                -1.038
REMARK SMILES O=C([O-])CCCCCCCCC(=O)[O-]
REMARK SMILES IDX 7 1 6 2 5 3 4 4 2 5 1 6 3 7 8 8 9 9 10 10 11 11 12 12 13 13
REMARK SMILES IDX 14 14
REMARK H PARENT
REMARK Flexibility Score: inf
ROOT
ATOM      1  C   UNL     1      18.670   0.027  20.232  1.00  0.00     0.000 C 
ENDROOT
BRANCH   1   2
ATOM      2  C   UNL     1      17.340   0.018  19.461  1.00  0.00     0.000 C 
BRANCH   2   3
ATOM      3  C   UNL     1      17.446  -0.709  18.110  1.00  0.00     0.006 C 
BRANCH   3   4
ATOM      4  C   UNL     1      18.881  -1.140  17.780  1.00  0.00     0.053 C 
BRANCH   4   5
ATOM      5  C   UNL     1      18.909  -2.573  17.352  1.00  0.00     0.041 C 
ATOM      6  O   UNL     1      17.852  -3.141  16.969  1.00  0.00    -0.550 OA
ATOM      7  O   UNL     1      20.111  -3.268  17.328  1.00  0.00    -0.550 OA
ENDBRANCH   4   5
ENDBRANCH   3   4
ENDBRANCH   2   3
ENDBRANCH   1   2
BRANCH   1   8
ATOM      8  C   UNL     1      18.511  -0.435  21.689  1.00  0.00     0.000 C 
BRANCH   8   9
ATOM      9  C   UNL     1      19.649  -1.361  22.146  1.00  0.00     0.000 C 
BRANCH   9  10
ATOM     10  C   UNL     1      19.955  -2.421  21.080  1.00  0.00     0.006 C 
BRANCH  10  11
ATOM     11  C   UNL     1      19.379  -3.783  21.477  1.00  0.00     0.053 C 
BRANCH  11  12
ATOM     12  C   UNL     1      18.269  -4.172  20.554  1.00  0.00     0.041 C 
ATOM     13  O   UNL     1      18.370  -5.206  19.841  1.00  0.00    -0.550 OA
ATOM     14  O   UNL     1      17.099  -3.423  20.517  1.00  0.00    -0.550 OA
ENDBRANCH  11  12
ENDBRANCH  10  11
ENDBRANCH   9  10
ENDBRANCH   8   9
ENDBRANCH   1   8
TORSDOF 9
ENDMDL
MODEL 4
REMARK VINA RESULT:    -4.279      2.761      3.802
REMARK INTER + INTRA:          -7.568
REMARK INTER:                  -6.433
REMARK INTRA:                  -1.135
REMARK UNBOUND:                -1.038
REMARK SMILES O=C([O-])CCCCCCCCC(=O)[O-]
REMARK SMILES IDX 7 1 6 2 5 3 4 4 2 5 1 6 3 7 8 8 9 9 10 10 11 11 12 12 13 13
REMARK SMILES IDX 14 14
REMARK H PARENT
REMARK Flexibility Score: inf
ROOT
ATOM      1  C   UNL     1      18.544  -1.016  17.892  1.00  0.00     0.000 C 
ENDROOT
BRANCH   1   2
ATOM      2  C   UNL     1      18.550  -2.281  17.017  1.00  0.00     0.000 C 
BRANCH   2   3
ATOM      3  C   UNL     1      19.684  -3.250  17.389  1.00  0.00     0.006 C 
BRANCH   3   4
ATOM      4  C   UNL     1      20.682  -2.641  18.381  1.00  0.00     0.053 C 
BRANCH   4   5
ATOM      5  C   UNL     1      21.365  -3.720  19.161  1.00  0.00     0.041 C 
ATOM      6  O   UNL     1      21.815  -3.480  20.313  1.00  0.00    -0.550 OA
ATOM      7  O   UNL     1      21.462  -5.003  18.638  1.00  0.00    -0.550 OA
ENDBRANCH   4   5
ENDBRANCH   3   4
ENDBRANCH   2   3
ENDBRANCH   1   2
BRANCH   1   8
ATOM      8  C   UNL     1      17.135  -0.426  18.067  1.00  0.00     0.000 C 
BRANCH   8   9
ATOM      9  C   UNL     1      16.113  -1.463  18.554  1.00  0.00     0.000 C 
BRANCH   9  10
ATOM     10  C   UNL     1      16.308  -1.767  20.045  1.00  0.00     0.006 C 
BRANCH  10  11
ATOM     11  C   UNL     1      16.633  -3.246  20.268  1.00  0.00     0.053 C 
BRANCH  11  12
ATOM     12  C   UNL     1      18.006  -3.402  20.840  1.00  0.00     0.041 C 
ATOM     13  O   UNL     1      18.625  -2.400  21.283  1.00  0.00    -0.550 OA
ATOM     14  O   UNL     1      18.582  -4.663  20.932  1.00  0.00    -0.550 OA
ENDBRANCH  11  12
ENDBRANCH  10  11
ENDBRANCH   9  10
ENDBRANCH   8   9
ENDBRANCH   1   8
TORSDOF 9
ENDMDL
MODEL 5
REMARK VINA RESULT:    -4.264      2.464      3.591
REMARK INTER + INTRA:          -7.545
REMARK INTER:                  -6.694
REMARK INTRA:                  -0.850
REMARK UNBOUND:                -1.038
REMARK SMILES O=C([O-])CCCCCCCCC(=O)[O-]
REMARK SMILES IDX 7 1 6 2 5 3 4 4 2 5 1 6 3 7 8 8 9 9 10 10 11 11 12 12 13 13
REMARK SMILES IDX 14 14
REMARK H PARENT
REMARK Flexibility Score: inf
ROOT
ATOM      1  C   UNL     1      18.337  -1.555  19.907  1.00  0.00     0.000 C 
ENDROOT
BRANCH   1   2
ATOM      2  C   UNL     1      17.970  -2.718  20.843  1.00  0.00     0.000 C 
BRANCH   2   3
ATOM      3  C   UNL     1      18.997  -3.862  20.793  1.00  0.00     0.006 C 
BRANCH   3   4
ATOM      4  C   UNL     1      19.393  -4.241  19.360  1.00  0.00     0.053 C 
BRANCH   4   5
ATOM      5  C   UNL     1      20.880  -4.354  19.242  1.00  0.00     0.041 C 
ATOM      6  O   UNL     1      21.392  -5.225  18.490  1.00  0.00    -0.550 OA
ATOM      7  O   UNL     1      21.701  -3.465  19.924  1.00  0.00    -0.550 OA
ENDBRANCH   4   5
ENDBRANCH   3   4
ENDBRANCH   2   3
ENDBRANCH   1   2
BRANCH   1   8
ATOM      8  C   UNL     1      17.238  -1.260  18.873  1.00  0.00     0.000 C 
BRANCH   8   9
ATOM      9  C   UNL     1      15.960  -2.075  19.117  1.00  0.00     0.000 C 
BRANCH   9  10
ATOM     10  C   UNL     1      15.657  -2.992  17.925  1.00  0.00     0.006 C 
BRANCH  10  11
ATOM     11  C   UNL     1      15.750  -4.466  18.327  1.00  0.00     0.053 C 
BRANCH  11  12
ATOM     12  C   UNL     1      15.215  -5.342  17.239  1.00  0.00     0.041 C 
ATOM     13  O   UNL     1      15.926  -5.611  16.235  1.00  0.00    -0.550 OA
ATOM     14  O   UNL     1      13.949  -5.903  17.357  1.00  0.00    -0.550 OA
ENDBRANCH  11  12
ENDBRANCH  10  11
ENDBRANCH   9  10
ENDBRANCH   8   9
ENDBRANCH   1   8
TORSDOF 9
ENDMDL
MODEL 6
REMARK VINA RESULT:    -4.220      1.859      4.968
REMARK INTER + INTRA:          -7.478
REMARK INTER:                  -6.438
REMARK INTRA:                  -1.040
REMARK UNBOUND:                -1.038
REMARK SMILES O=C([O-])CCCCCCCCC(=O)[O-]
REMARK SMILES IDX 7 1 6 2 5 3 4 4 2 5 1 6 3 7 8 8 9 9 10 10 11 11 12 12 13 13
REMARK SMILES IDX 14 14
REMARK H PARENT
REMARK Flexibility Score: inf
ROOT
ATOM      1  C   UNL     1      21.534  -3.315  21.583  1.00  0.00     0.000 C 
ENDROOT
BRANCH   1   2
ATOM      2  C   UNL     1      20.399  -3.402  20.549  1.00  0.00     0.000 C 
BRANCH   2   3
ATOM      3  C   UNL     1      19.071  -3.866  21.170  1.00  0.00     0.006 C 
BRANCH   3   4
ATOM      4  C   UNL     1      17.898  -2.940  20.821  1.00  0.00     0.053 C 
BRANCH   4   5
ATOM      5  C   UNL     1      17.326  -3.304  19.487  1.00  0.00     0.041 C 
ATOM      6  O   UNL     1      16.908  -2.405  18.710  1.00  0.00    -0.550 OA
ATOM      7  O   UNL     1      17.299  -4.632  19.080  1.00  0.00    -0.550 OA
ENDBRANCH   4   5
ENDBRANCH   3   4
ENDBRANCH   2   3
ENDBRANCH   1   2
BRANCH   1   8
ATOM      8  C   UNL     1      21.013  -3.145  23.019  1.00  0.00     0.000 C 
BRANCH   8   9
ATOM      9  C   UNL     1      21.252  -1.734  23.575  1.00  0.00     0.000 C 
BRANCH   9  10
ATOM     10  C   UNL     1      20.044  -0.827  23.306  1.00  0.00     0.006 C 
BRANCH  10  11
ATOM     11  C   UNL     1      20.473   0.471  22.617  1.00  0.00     0.053 C 
BRANCH  11  12
ATOM     12  C   UNL     1      20.602   0.264  21.141  1.00  0.00     0.041 C 
ATOM     13  O   UNL     1      19.576   0.243  20.412  1.00  0.00    -0.550 OA
ATOM     14  O   UNL     1      21.860   0.145  20.563  1.00  0.00    -0.550 OA
ENDBRANCH  11  12
ENDBRANCH  10  11
ENDBRANCH   9  10
ENDBRANCH   8   9
ENDBRANCH   1   8
TORSDOF 9
ENDMDL
MODEL 7
REMARK VINA RESULT:    -4.214      1.911      3.478
REMARK INTER + INTRA:          -7.470
REMARK INTER:                  -6.427
REMARK INTRA:                  -1.043
REMARK UNBOUND:                -1.038
REMARK SMILES O=C([O-])CCCCCCCCC(=O)[O-]
REMARK SMILES IDX 7 1 6 2 5 3 4 4 2 5 1 6 3 7 8 8 9 9 10 10 11 11 12 12 13 13
REMARK SMILES IDX 14 14
REMARK H PARENT
REMARK Flexibility Score: inf
ROOT
ATOM      1  C   UNL     1      20.182  -0.980  23.482  1.00  0.00     0.000 C 
ENDROOT
BRANCH   1   2
ATOM      2  C   UNL     1      20.383   0.253  22.585  1.00  0.00     0.000 C 
BRANCH   2   3
ATOM      3  C   UNL     1      19.246   0.431  21.565  1.00  0.00     0.006 C 
BRANCH   3   4
ATOM      4  C   UNL     1      17.990  -0.368  21.932  1.00  0.00     0.053 C 
BRANCH   4   5
ATOM      5  C   UNL     1      17.404  -1.008  20.713  1.00  0.00     0.041 C 
ATOM      6  O   UNL     1      16.254  -1.518  20.755  1.00  0.00    -0.550 OA
ATOM      7  O   UNL     1      18.108  -0.998  19.515  1.00  0.00    -0.550 OA
ENDBRANCH   4   5
ENDBRANCH   3   4
ENDBRANCH   2   3
ENDBRANCH   1   2
BRANCH   1   8
ATOM      8  C   UNL     1      21.327  -1.997  23.353  1.00  0.00     0.000 C 
BRANCH   8   9
ATOM      9  C   UNL     1      20.840  -3.388  22.919  1.00  0.00     0.000 C 
BRANCH   9  10
ATOM     10  C   UNL     1      20.239  -3.343  21.508  1.00  0.00     0.006 C 
BRANCH  10  11
ATOM     11  C   UNL     1      18.978  -4.205  21.419  1.00  0.00     0.053 C 
BRANCH  11  12
ATOM     12  C   UNL     1      18.680  -4.555  19.996  1.00  0.00     0.041 C 
ATOM     13  O   UNL     1      17.503  -4.469  19.555  1.00  0.00    -0.550 OA
ATOM     14  O   UNL     1      19.710  -4.925  19.141  1.00  0.00    -0.550 OA
ENDBRANCH  11  12
ENDBRANCH  10  11
ENDBRANCH   9  10
ENDBRANCH   8   9
ENDBRANCH   1   8
TORSDOF 9
ENDMDL
MODEL 8
REMARK VINA RESULT:    -4.214      1.936      2.389
REMARK INTER + INTRA:          -7.469
REMARK INTER:                  -6.481
REMARK INTRA:                  -0.988
REMARK UNBOUND:                -1.038
REMARK SMILES O=C([O-])CCCCCCCCC(=O)[O-]
REMARK SMILES IDX 7 1 6 2 5 3 4 4 2 5 1 6 3 7 8 8 9 9 10 10 11 11 12 12 13 13
REMARK SMILES IDX 14 14
REMARK H PARENT
REMARK Flexibility Score: inf
ROOT
ATOM      1  C   UNL     1      20.767   0.179  22.154  1.00  0.00     0.000 C 
ENDROOT
BRANCH   1   2
ATOM      2  C   UNL     1      20.137  -0.979  22.946  1.00  0.00     0.000 C 
BRANCH   2   3
ATOM      3  C   UNL     1      21.188  -1.952  23.505  1.00  0.00     0.006 C 
BRANCH   3   4
ATOM      4  C   UNL     1      21.014  -3.381  22.976  1.00  0.00     0.053 C 
BRANCH   4   5
ATOM      5  C   UNL     1      20.953  -3.380  21.481  1.00  0.00     0.041 C 
ATOM      6  O   UNL     1      21.954  -3.022  20.806  1.00  0.00    -0.550 OA
ATOM      7  O   UNL     1      19.808  -3.822  20.831  1.00  0.00    -0.550 OA
ENDBRANCH   4   5
ENDBRANCH   3   4
ENDBRANCH   2   3
ENDBRANCH   1   2
BRANCH   1   8
ATOM      8  C   UNL     1      20.018   0.473  20.844  1.00  0.00     0.000 C 
BRANCH   8   9
ATOM      9  C   UNL     1      18.822  -0.464  20.620  1.00  0.00     0.000 C 
BRANCH   9  10
ATOM     10  C   UNL     1      18.639  -0.774  19.129  1.00  0.00     0.006 C 
BRANCH  10  11
ATOM     11  C   UNL     1      19.963  -1.200  18.489  1.00  0.00     0.053 C 
BRANCH  11  12
ATOM     12  C   UNL     1      19.769  -2.416  17.641  1.00  0.00     0.041 C 
ATOM     13  O   UNL     1      18.719  -2.552  16.958  1.00  0.00    -0.550 OA
ATOM     14  O   UNL     1      20.769  -3.377  17.564  1.00  0.00    -0.550 OA
ENDBRANCH  11  12
ENDBRANCH  10  11
ENDBRANCH   9  10
ENDBRANCH   8   9
ENDBRANCH   1   8
TORSDOF 9
ENDMDL
MODEL 9
REMARK VINA RESULT:    -4.189      2.246      4.769
REMARK INTER + INTRA:          -7.430
REMARK INTER:                  -6.352
REMARK INTRA:                  -1.079
REMARK UNBOUND:                -1.038
REMARK SMILES O=C([O-])CCCCCCCCC(=O)[O-]
REMARK SMILES IDX 7 1 6 2 5 3 4 4 2 5 1 6 3 7 8 8 9 9 10 10 11 11 12 12 13 13
REMARK SMILES IDX 14 14
REMARK H PARENT
REMARK Flexibility Score: inf
ROOT
ATOM      1  C   UNL     1      19.580  -0.539  19.638  1.00  0.00     0.000 C 
ENDROOT
BRANCH   1   2
ATOM      2  C   UNL     1      19.420  -1.230  18.274  1.00  0.00     0.000 C 
BRANCH   2   3
ATOM      3  C   UNL     1      17.970  -1.194  17.762  1.00  0.00     0.006 C 
BRANCH   3   4
ATOM      4  C   UNL     1      16.963  -0.823  18.858  1.00  0.00     0.053 C 
BRANCH   4   5
ATOM      5  C   UNL     1      15.606  -1.356  18.521  1.00  0.00     0.041 C 
ATOM      6  O   UNL     1      15.488  -2.363  17.773  1.00  0.00    -0.550 OA
ATOM      7  O   UNL     1      14.473  -0.772  19.073  1.00  0.00    -0.550 OA
ENDBRANCH   4   5
ENDBRANCH   3   4
ENDBRANCH   2   3
ENDBRANCH   1   2
BRANCH   1   8
ATOM      8  C   UNL     1      20.470  -1.338  20.604  1.00  0.00     0.000 C 
BRANCH   8   9
ATOM      9  C   UNL     1      19.667  -2.037  21.711  1.00  0.00     0.000 C 
BRANCH   9  10
ATOM     10  C   UNL     1      19.457  -3.521  21.383  1.00  0.00     0.006 C 
BRANCH  10  11
ATOM     11  C   UNL     1      18.058  -3.766  20.812  1.00  0.00     0.053 C 
BRANCH  11  12
ATOM     12  C   UNL     1      18.140  -4.554  19.543  1.00  0.00     0.041 C 
ATOM     13  O   UNL     1      17.089  -4.906  18.947  1.00  0.00    -0.550 OA
ATOM     14  O   UNL     1      19.379  -4.857  18.991  1.00  0.00    -0.550 OA
ENDBRANCH  11  12
ENDBRANCH  10  11
ENDBRANCH   9  10
ENDBRANCH   8   9
ENDBRANCH   1   8
TORSDOF 9
ENDMDL
