MODEL 1
REMARK VINA RESULT:    -1.626      0.000      0.000
REMARK INTER + INTRA:          -2.680
REMARK INTER:                  -2.387
REMARK INTRA:                  -0.293
REMARK UNBOUND:                -0.293
REMARK SMILES O=C([O-])CCCCCCCC(=O)[O-]
REMARK SMILES IDX 7 1 6 2 5 3 4 4 2 5 1 6 3 7 8 8 9 9 10 10 11 11 12 12 13 13
REMARK H PARENT
REMARK Flexibility Score: inf
ROOT
ATOM      1  C   UNL     1       6.999 -28.830 -17.067  1.00  0.00     0.000 C 
ENDROOT
BRANCH   1   2
ATOM      2  C   UNL     1       7.476 -29.098 -18.504  1.00  0.00     0.000 C 
BRANCH   2   3
ATOM      3  C   UNL     1       6.525 -28.514 -19.561  1.00  0.00     0.006 C 
BRANCH   3   4
ATOM      4  C   UNL     1       6.614 -29.249 -20.905  1.00  0.00     0.053 C 
BRANCH   4   5
ATOM      5  C   UNL     1       6.786 -28.270 -22.024  1.00  0.00     0.041 C 
ATOM      6  O   UNL     1       7.778 -27.495 -22.040  1.00  0.00    -0.550 OA
ATOM      7  O   UNL     1       5.878 -28.247 -23.074  1.00  0.00    -0.550 OA
ENDBRANCH   4   5
ENDBRANCH   3   4
ENDBRANCH   2   3
ENDBRANCH   1   2
BRANCH   1   8
ATOM      8  C   UNL     1       8.129 -29.090 -16.058  1.00  0.00     0.000 C 
BRANCH   8   9
ATOM      9  C   UNL     1       9.170 -30.098 -16.575  1.00  0.00     0.006 C 
BRANCH   9  10
ATOM     10  C   UNL     1       9.594 -31.157 -15.545  1.00  0.00     0.053 C 
BRANCH  10  11
ATOM     11  C   UNL     1       9.195 -32.539 -15.965  1.00  0.00     0.041 C 
ATOM     12  O   UNL     1       9.238 -32.870 -17.179  1.00  0.00    -0.550 OA
ATOM     13  O   UNL     1       8.808 -33.471 -15.011  1.00  0.00    -0.550 OA
ENDBRANCH  10  11
ENDBRANCH   9  10
ENDBRANCH   8   9
ENDBRANCH   1   8
TORSDOF 8
ENDMDL
MODEL 2
REMARK VINA RESULT:    -1.437      0.144      6.586
REMARK INTER + INTRA:          -2.403
REMARK INTER:                  -2.115
REMARK INTRA:                  -0.288
REMARK UNBOUND:                -0.293
REMARK SMILES O=C([O-])CCCCCCCC(=O)[O-]
REMARK SMILES IDX 7 1 6 2 5 3 4 4 2 5 1 6 3 7 8 8 9 9 10 10 11 11 12 12 13 13
REMARK H PARENT
REMARK Flexibility Score: inf
ROOT
ATOM      1  C   UNL     1       7.127 -28.650 -17.051  1.00  0.00     0.000 C 
ENDROOT
BRANCH   1   2
ATOM      2  C   UNL     1       8.082 -29.252 -16.009  1.00  0.00     0.000 C 
BRANCH   2   3
ATOM      3  C   UNL     1       9.119 -30.199 -16.635  1.00  0.00     0.006 C 
BRANCH   3   4
ATOM      4  C   UNL     1       9.663 -31.225 -15.632  1.00  0.00     0.053 C 
BRANCH   4   5
ATOM      5  C   UNL     1       9.242 -32.607 -16.021  1.00  0.00     0.041 C 
ATOM      6  O   UNL     1       9.304 -32.974 -17.224  1.00  0.00    -0.550 OA
ATOM      7  O   UNL     1       8.825 -33.507 -15.048  1.00  0.00    -0.550 OA
ENDBRANCH   4   5
ENDBRANCH   3   4
ENDBRANCH   2   3
ENDBRANCH   1   2
BRANCH   1   8
ATOM      8  C   UNL     1       7.407 -29.224 -18.449  1.00  0.00     0.000 C 
BRANCH   8   9
ATOM      9  C   UNL     1       6.656 -28.475 -19.563  1.00  0.00     0.006 C 
BRANCH   9  10
ATOM     10  C   UNL     1       6.555 -29.245 -20.889  1.00  0.00     0.053 C 
BRANCH  10  11
ATOM     11  C   UNL     1       6.689 -28.340 -22.075  1.00  0.00     0.041 C 
ATOM     12  O   UNL     1       5.880 -28.430 -23.036  1.00  0.00    -0.550 OA
ATOM     13  O   UNL     1       7.687 -27.375 -22.104  1.00  0.00    -0.550 OA
ENDBRANCH  10  11
ENDBRANCH   9  10
ENDBRANCH   8   9
ENDBRANCH   1   8
TORSDOF 8
ENDMDL
MODEL 3
REMARK VINA RESULT:    -1.210      0.895      1.440
REMARK INTER + INTRA:          -2.069
REMARK INTER:                  -1.678
REMARK INTRA:                  -0.391
REMARK UNBOUND:                -0.293
REMARK SMILES O=C([O-])CCCCCCCC(=O)[O-]
REMARK SMILES IDX 7 1 6 2 5 3 4 4 2 5 1 6 3 7 8 8 9 9 10 10 11 11 12 12 13 13
REMARK H PARENT
REMARK Flexibility Score: inf
ROOT
ATOM      1  C   UNL     1       7.892 -29.077 -16.651  1.00  0.00     0.000 C 
ENDROOT
BRANCH   1   2
ATOM      2  C   UNL     1       6.739 -28.555 -17.523  1.00  0.00     0.000 C 
BRANCH   2   3
ATOM      3  C   UNL     1       6.775 -29.120 -18.951  1.00  0.00     0.006 C 
BRANCH   3   4
ATOM      4  C   UNL     1       6.577 -28.038 -20.020  1.00  0.00     0.053 C 
BRANCH   4   5
ATOM      5  C   UNL     1       6.663 -28.636 -21.390  1.00  0.00     0.041 C 
ATOM      6  O   UNL     1       7.306 -29.702 -21.576  1.00  0.00    -0.550 OA
ATOM      7  O   UNL     1       5.994 -28.041 -22.452  1.00  0.00    -0.550 OA
ENDBRANCH   4   5
ENDBRANCH   3   4
ENDBRANCH   2   3
ENDBRANCH   1   2
BRANCH   1   8
ATOM      8  C   UNL     1       9.005 -29.682 -17.519  1.00  0.00     0.000 C 
BRANCH   8   9
ATOM      9  C   UNL     1      10.025 -30.494 -16.701  1.00  0.00     0.006 C 
BRANCH   9  10
ATOM     10  C   UNL     1       9.417 -31.280 -15.529  1.00  0.00     0.053 C 
BRANCH  10  11
ATOM     11  C   UNL     1       9.215 -32.725 -15.868  1.00  0.00     0.041 C 
ATOM     12  O   UNL     1       8.809 -33.532 -14.990  1.00  0.00    -0.550 OA
ATOM     13  O   UNL     1       9.443 -33.174 -17.163  1.00  0.00    -0.550 OA
ENDBRANCH  10  11
ENDBRANCH   9  10
ENDBRANCH   8   9
ENDBRANCH   1   8
TORSDOF 8
ENDMDL
MODEL 4
REMARK VINA RESULT:     0.402      1.755      6.563
REMARK INTER + INTRA:           0.297
REMARK INTER:                   0.392
REMARK INTRA:                  -0.096
REMARK UNBOUND:                -0.293
REMARK SMILES O=C([O-])CCCCCCCC(=O)[O-]
REMARK SMILES IDX 7 1 6 2 5 3 4 4 2 5 1 6 3 7 8 8 9 9 10 10 11 11 12 12 13 13
REMARK H PARENT
REMARK Flexibility Score: inf
ROOT
ATOM      1  C   UNL     1       8.597 -29.710 -19.047  1.00  0.00     0.000 C 
ENDROOT
BRANCH   1   2
ATOM      2  C   UNL     1       9.663 -30.019 -17.984  1.00  0.00     0.000 C 
BRANCH   2   3
ATOM      3  C   UNL     1       9.249 -31.164 -17.046  1.00  0.00     0.006 C 
BRANCH   3   4
ATOM      4  C   UNL     1       9.778 -30.979 -15.618  1.00  0.00     0.053 C 
BRANCH   4   5
ATOM      5  C   UNL     1       8.845 -30.121 -14.823  1.00  0.00     0.041 C 
ATOM      6  O   UNL     1       8.086 -29.303 -15.406  1.00  0.00    -0.550 OA
ATOM      7  O   UNL     1       8.780 -30.258 -13.443  1.00  0.00    -0.550 OA
ENDBRANCH   4   5
ENDBRANCH   3   4
ENDBRANCH   2   3
ENDBRANCH   1   2
BRANCH   1   8
ATOM      8  C   UNL     1       7.531 -28.753 -18.492  1.00  0.00     0.000 C 
BRANCH   8   9
ATOM      9  C   UNL     1       6.347 -28.556 -19.455  1.00  0.00     0.006 C 
BRANCH   9  10
ATOM     10  C   UNL     1       6.483 -29.305 -20.790  1.00  0.00     0.053 C 
BRANCH  10  11
ATOM     11  C   UNL     1       6.740 -28.371 -21.933  1.00  0.00     0.041 C 
ATOM     12  O   UNL     1       5.880 -28.230 -22.842  1.00  0.00    -0.550 OA
ATOM     13  O   UNL     1       7.915 -27.632 -21.977  1.00  0.00    -0.550 OA
ENDBRANCH  10  11
ENDBRANCH   9  10
ENDBRANCH   8   9
ENDBRANCH   1   8
TORSDOF 8
ENDMDL
