MODEL 1
REMARK VINA RESULT:    -4.933      0.000      0.000
REMARK INTER + INTRA:         -10.779
REMARK INTER:                  -8.970
REMARK INTRA:                  -1.809
REMARK UNBOUND:                -1.809
REMARK SMILES CCCCCCCCCCCCCC[C@@H](C)C(=O)[O-]
REMARK SMILES IDX 9 1 10 2 11 3 12 4 13 5 14 6 15 7 16 8 17 9 18 10 19 11 8 12
REMARK SMILES IDX 7 13 6 14 5 15 4 16 3 17 2 18 1 19
REMARK H PARENT
REMARK Flexibility Score: inf
ROOT
ATOM      1  C   UNL     1      -2.019   9.440  26.024  1.00  0.00     0.000 C 
ENDROOT
BRANCH   1   2
ATOM      2  C   UNL     1      -0.585   8.909  25.873  1.00  0.00     0.000 C 
BRANCH   2   3
ATOM      3  C   UNL     1       0.206   9.634  24.772  1.00  0.00     0.000 C 
BRANCH   3   4
ATOM      4  C   UNL     1       1.592  10.099  25.248  1.00  0.00     0.000 C 
BRANCH   4   5
ATOM      5  C   UNL     1       1.617  11.581  25.660  1.00  0.00     0.001 C 
BRANCH   5   6
ATOM      6  C   UNL     1       0.660  11.964  26.808  1.00  0.00     0.009 C 
BRANCH   6   7
ATOM      7  C   UNL     1       0.056  13.383  26.696  1.00  0.00     0.032 C 
ATOM      8  C   UNL     1       0.809  14.204  25.644  1.00  0.00     0.014 C 
BRANCH   7   9
ATOM      9  C   UNL     1      -1.410  13.336  26.358  1.00  0.00     0.044 C 
ATOM     10  O   UNL     1      -1.794  12.946  25.224  1.00  0.00    -0.550 OA
ATOM     11  O   UNL     1      -2.351  13.726  27.303  1.00  0.00    -0.550 OA
ENDBRANCH   7   9
ENDBRANCH   6   7
ENDBRANCH   5   6
ENDBRANCH   4   5
ENDBRANCH   3   4
ENDBRANCH   2   3
ENDBRANCH   1   2
BRANCH   1  12
ATOM     12  C   UNL     1      -2.660   9.681  24.650  1.00  0.00     0.000 C 
BRANCH  12  13
ATOM     13  C   UNL     1      -3.396   8.442  24.107  1.00  0.00    -0.000 C 
BRANCH  13  14
ATOM     14  C   UNL     1      -2.628   7.649  23.030  1.00  0.00    -0.000 C 
BRANCH  14  15
ATOM     15  C   UNL     1      -1.947   8.510  21.948  1.00  0.00    -0.000 C 
BRANCH  15  16
ATOM     16  C   UNL     1      -2.894   9.060  20.863  1.00  0.00    -0.000 C 
BRANCH  16  17
ATOM     17  C   UNL     1      -3.296  10.539  21.036  1.00  0.00    -0.000 C 
BRANCH  17  18
ATOM     18  C   UNL     1      -4.657  10.764  21.717  1.00  0.00    -0.003 C 
ATOM     19  C   UNL     1      -4.772  12.137  22.377  1.00  0.00     0.004 C 
ENDBRANCH  17  18
ENDBRANCH  16  17
ENDBRANCH  15  16
ENDBRANCH  14  15
ENDBRANCH  13  14
ENDBRANCH  12  13
ENDBRANCH   1  12
TORSDOF 14
ENDMDL
MODEL 2
REMARK VINA RESULT:    -4.914      2.747      3.723
REMARK INTER + INTRA:         -10.744
REMARK INTER:                  -9.232
REMARK INTRA:                  -1.512
REMARK UNBOUND:                -1.809
REMARK SMILES CCCCCCCCCCCCCC[C@@H](C)C(=O)[O-]
REMARK SMILES IDX 9 1 10 2 11 3 12 4 13 5 14 6 15 7 16 8 17 9 18 10 19 11 8 12
REMARK SMILES IDX 7 13 6 14 5 15 4 16 3 17 2 18 1 19
REMARK H PARENT
REMARK Flexibility Score: inf
ROOT
ATOM      1  C   UNL     1      -2.327  11.078  25.594  1.00  0.00     0.000 C 
ENDROOT
BRANCH   1   2
ATOM      2  C   UNL     1      -1.509  12.376  25.512  1.00  0.00     0.000 C 
BRANCH   2   3
ATOM      3  C   UNL     1      -0.193  12.301  26.305  1.00  0.00     0.000 C 
BRANCH   3   4
ATOM      4  C   UNL     1       0.359  13.689  26.666  1.00  0.00     0.000 C 
BRANCH   4   5
ATOM      5  C   UNL     1       0.820  14.490  25.435  1.00  0.00     0.001 C 
BRANCH   5   6
ATOM      6  C   UNL     1       1.865  15.591  25.718  1.00  0.00     0.009 C 
BRANCH   6   7
ATOM      7  C   UNL     1       3.087  15.574  24.772  1.00  0.00     0.032 C 
ATOM      8  C   UNL     1       3.152  14.252  24.001  1.00  0.00     0.014 C 
BRANCH   7   9
ATOM      9  C   UNL     1       3.056  16.729  23.807  1.00  0.00     0.044 C 
ATOM     10  O   UNL     1       1.971  17.311  23.537  1.00  0.00    -0.550 OA
ATOM     11  O   UNL     1       4.232  17.162  23.206  1.00  0.00    -0.550 OA
ENDBRANCH   7   9
ENDBRANCH   6   7
ENDBRANCH   5   6
ENDBRANCH   4   5
ENDBRANCH   3   4
ENDBRANCH   2   3
ENDBRANCH   1   2
BRANCH   1  12
ATOM     12  C   UNL     1      -1.455   9.911  26.078  1.00  0.00     0.000 C 
BRANCH  12  13
ATOM     13  C   UNL     1      -1.370   8.763  25.055  1.00  0.00    -0.000 C 
BRANCH  13  14
ATOM     14  C   UNL     1      -0.744   9.145  23.698  1.00  0.00    -0.000 C 
BRANCH  14  15
ATOM     15  C   UNL     1      -1.540   8.686  22.460  1.00  0.00    -0.000 C 
BRANCH  15  16
ATOM     16  C   UNL     1      -3.059   8.545  22.680  1.00  0.00    -0.000 C 
BRANCH  16  17
ATOM     17  C   UNL     1      -3.908   9.716  22.142  1.00  0.00    -0.000 C 
BRANCH  17  18
ATOM     18  C   UNL     1      -3.110  10.980  21.777  1.00  0.00    -0.003 C 
ATOM     19  C   UNL     1      -3.843  12.271  22.136  1.00  0.00     0.004 C 
ENDBRANCH  17  18
ENDBRANCH  16  17
ENDBRANCH  15  16
ENDBRANCH  14  15
ENDBRANCH  13  14
ENDBRANCH  12  13
ENDBRANCH   1  12
TORSDOF 14
ENDMDL
MODEL 3
REMARK VINA RESULT:    -4.887      2.780      6.170
REMARK INTER + INTRA:         -10.696
REMARK INTER:                  -8.851
REMARK INTRA:                  -1.845
REMARK UNBOUND:                -1.809
REMARK SMILES CCCCCCCCCCCCCC[C@@H](C)C(=O)[O-]
REMARK SMILES IDX 9 1 10 2 11 3 12 4 13 5 14 6 15 7 16 8 17 9 18 10 19 11 8 12
REMARK SMILES IDX 7 13 6 14 5 15 4 16 3 17 2 18 1 19
REMARK H PARENT
REMARK Flexibility Score: inf
ROOT
ATOM      1  C   UNL     1       0.711  11.800  26.564  1.00  0.00     0.000 C 
ENDROOT
BRANCH   1   2
ATOM      2  C   UNL     1       1.620  11.114  25.532  1.00  0.00     0.000 C 
BRANCH   2   3
ATOM      3  C   UNL     1       1.046   9.781  25.026  1.00  0.00     0.000 C 
BRANCH   3   4
ATOM      4  C   UNL     1      -0.160   9.306  25.853  1.00  0.00     0.000 C 
BRANCH   4   5
ATOM      5  C   UNL     1      -1.324   8.802  24.982  1.00  0.00     0.001 C 
BRANCH   5   6
ATOM      6  C   UNL     1      -1.199   9.106  23.474  1.00  0.00     0.009 C 
BRANCH   6   7
ATOM      7  C   UNL     1      -2.358   8.559  22.610  1.00  0.00     0.032 C 
ATOM      8  C   UNL     1      -3.581   8.257  23.482  1.00  0.00     0.014 C 
BRANCH   7   9
ATOM      9  C   UNL     1      -2.734   9.519  21.513  1.00  0.00     0.044 C 
ATOM     10  O   UNL     1      -2.727   9.151  20.309  1.00  0.00    -0.550 OA
ATOM     11  O   UNL     1      -3.093  10.824  21.829  1.00  0.00    -0.550 OA
ENDBRANCH   7   9
ENDBRANCH   6   7
ENDBRANCH   5   6
ENDBRANCH   4   5
ENDBRANCH   3   4
ENDBRANCH   2   3
ENDBRANCH   1   2
BRANCH   1  12
ATOM     12  C   UNL     1       0.269  13.185  26.068  1.00  0.00     0.000 C 
BRANCH  12  13
ATOM     13  C   UNL     1      -1.241  13.261  25.773  1.00  0.00    -0.000 C 
BRANCH  13  14
ATOM     14  C   UNL     1      -2.155  12.918  26.967  1.00  0.00    -0.000 C 
BRANCH  14  15
ATOM     15  C   UNL     1      -2.945  11.601  26.826  1.00  0.00    -0.000 C 
BRANCH  15  16
ATOM     16  C   UNL     1      -2.878  10.668  28.050  1.00  0.00    -0.000 C 
BRANCH  16  17
ATOM     17  C   UNL     1      -2.054  11.207  29.238  1.00  0.00    -0.000 C 
BRANCH  17  18
ATOM     18  C   UNL     1      -2.869  11.510  30.507  1.00  0.00    -0.003 C 
ATOM     19  C   UNL     1      -2.043  11.390  31.787  1.00  0.00     0.004 C 
ENDBRANCH  17  18
ENDBRANCH  16  17
ENDBRANCH  15  16
ENDBRANCH  14  15
ENDBRANCH  13  14
ENDBRANCH  12  13
ENDBRANCH   1  12
TORSDOF 14
ENDMDL
MODEL 4
REMARK VINA RESULT:    -4.862      1.895      2.743
REMARK INTER + INTRA:         -10.650
REMARK INTER:                  -8.815
REMARK INTRA:                  -1.835
REMARK UNBOUND:                -1.809
REMARK SMILES CCCCCCCCCCCCCC[C@@H](C)C(=O)[O-]
REMARK SMILES IDX 9 1 10 2 11 3 12 4 13 5 14 6 15 7 16 8 17 9 18 10 19 11 8 12
REMARK SMILES IDX 7 13 6 14 5 15 4 16 3 17 2 18 1 19
REMARK H PARENT
REMARK Flexibility Score: inf
ROOT
ATOM      1  C   UNL     1      -0.822  10.009  25.144  1.00  0.00     0.000 C 
ENDROOT
BRANCH   1   2
ATOM      2  C   UNL     1      -2.228  10.049  25.762  1.00  0.00     0.000 C 
BRANCH   2   3
ATOM      3  C   UNL     1      -2.727  11.481  26.015  1.00  0.00     0.000 C 
BRANCH   3   4
ATOM      4  C   UNL     1      -1.759  12.547  25.475  1.00  0.00     0.000 C 
BRANCH   4   5
ATOM      5  C   UNL     1      -1.263  13.514  26.565  1.00  0.00     0.001 C 
BRANCH   5   6
ATOM      6  C   UNL     1       0.269  13.568  26.751  1.00  0.00     0.009 C 
BRANCH   6   7
ATOM      7  C   UNL     1       1.047  14.086  25.520  1.00  0.00     0.032 C 
ATOM      8  C   UNL     1       1.604  15.488  25.788  1.00  0.00     0.014 C 
BRANCH   7   9
ATOM      9  C   UNL     1       2.165  13.153  25.138  1.00  0.00     0.044 C 
ATOM     10  O   UNL     1       2.157  11.954  25.522  1.00  0.00    -0.550 OA
ATOM     11  O   UNL     1       3.215  13.615  24.355  1.00  0.00    -0.550 OA
ENDBRANCH   7   9
ENDBRANCH   6   7
ENDBRANCH   5   6
ENDBRANCH   4   5
ENDBRANCH   3   4
ENDBRANCH   2   3
ENDBRANCH   1   2
BRANCH   1  12
ATOM     12  C   UNL     1      -0.802   9.127  23.887  1.00  0.00     0.000 C 
BRANCH  12  13
ATOM     13  C   UNL     1      -2.035   8.213  23.777  1.00  0.00    -0.000 C 
BRANCH  13  14
ATOM     14  C   UNL     1      -2.398   7.778  22.342  1.00  0.00    -0.000 C 
BRANCH  14  15
ATOM     15  C   UNL     1      -2.368   8.906  21.292  1.00  0.00    -0.000 C 
BRANCH  15  16
ATOM     16  C   UNL     1      -3.745   9.308  20.729  1.00  0.00    -0.000 C 
BRANCH  16  17
ATOM     17  C   UNL     1      -4.730   9.888  21.765  1.00  0.00    -0.000 C 
BRANCH  17  18
ATOM     18  C   UNL     1      -4.145  10.986  22.670  1.00  0.00    -0.003 C 
ATOM     19  C   UNL     1      -3.657  12.205  21.888  1.00  0.00     0.004 C 
ENDBRANCH  17  18
ENDBRANCH  16  17
ENDBRANCH  15  16
ENDBRANCH  14  15
ENDBRANCH  13  14
ENDBRANCH  12  13
ENDBRANCH   1  12
TORSDOF 14
ENDMDL
MODEL 5
REMARK VINA RESULT:    -4.835      2.892      6.740
REMARK INTER + INTRA:         -10.601
REMARK INTER:                  -9.186
REMARK INTRA:                  -1.414
REMARK UNBOUND:                -1.809
REMARK SMILES CCCCCCCCCCCCCC[C@@H](C)C(=O)[O-]
REMARK SMILES IDX 9 1 10 2 11 3 12 4 13 5 14 6 15 7 16 8 17 9 18 10 19 11 8 12
REMARK SMILES IDX 7 13 6 14 5 15 4 16 3 17 2 18 1 19
REMARK H PARENT
REMARK Flexibility Score: inf
ROOT
ATOM      1  C   UNL     1      -1.298  12.842  26.709  1.00  0.00     0.000 C 
ENDROOT
BRANCH   1   2
ATOM      2  C   UNL     1      -2.016  11.544  27.111  1.00  0.00     0.000 C 
BRANCH   2   3
ATOM      3  C   UNL     1      -3.473  11.495  26.625  1.00  0.00     0.000 C 
BRANCH   3   4
ATOM      4  C   UNL     1      -4.070  10.080  26.688  1.00  0.00     0.000 C 
BRANCH   4   5
ATOM      5  C   UNL     1      -3.647   9.197  25.500  1.00  0.00     0.001 C 
BRANCH   5   6
ATOM      6  C   UNL     1      -3.514   9.929  24.148  1.00  0.00     0.009 C 
BRANCH   6   7
ATOM      7  C   UNL     1      -2.182   9.672  23.407  1.00  0.00     0.032 C 
ATOM      8  C   UNL     1      -1.411   8.527  24.071  1.00  0.00     0.014 C 
BRANCH   7   9
ATOM      9  C   UNL     1      -2.408   9.363  21.951  1.00  0.00     0.044 C 
ATOM     10  O   UNL     1      -1.809   8.402  21.400  1.00  0.00    -0.550 OA
ATOM     11  O   UNL     1      -3.285  10.141  21.206  1.00  0.00    -0.550 OA
ENDBRANCH   7   9
ENDBRANCH   6   7
ENDBRANCH   5   6
ENDBRANCH   4   5
ENDBRANCH   3   4
ENDBRANCH   2   3
ENDBRANCH   1   2
BRANCH   1  12
ATOM     12  C   UNL     1       0.149  12.556  26.281  1.00  0.00     0.000 C 
BRANCH  12  13
ATOM     13  C   UNL     1       0.381  11.083  25.896  1.00  0.00    -0.000 C 
BRANCH  13  14
ATOM     14  C   UNL     1       1.806  10.755  25.407  1.00  0.00    -0.000 C 
BRANCH  14  15
ATOM     15  C   UNL     1       2.226   9.280  25.567  1.00  0.00    -0.000 C 
BRANCH  15  16
ATOM     16  C   UNL     1       3.501   9.054  26.403  1.00  0.00    -0.000 C 
BRANCH  16  17
ATOM     17  C   UNL     1       4.182   7.685  26.199  1.00  0.00    -0.000 C 
BRANCH  17  18
ATOM     18  C   UNL     1       4.414   6.879  27.489  1.00  0.00    -0.003 C 
ATOM     19  C   UNL     1       3.142   6.212  28.010  1.00  0.00     0.004 C 
ENDBRANCH  17  18
ENDBRANCH  16  17
ENDBRANCH  15  16
ENDBRANCH  14  15
ENDBRANCH  13  14
ENDBRANCH  12  13
ENDBRANCH   1  12
TORSDOF 14
ENDMDL
MODEL 6
REMARK VINA RESULT:    -4.834      1.720      2.802
REMARK INTER + INTRA:         -10.599
REMARK INTER:                  -8.365
REMARK INTRA:                  -2.234
REMARK UNBOUND:                -1.809
REMARK SMILES CCCCCCCCCCCCCC[C@@H](C)C(=O)[O-]
REMARK SMILES IDX 9 1 10 2 11 3 12 4 13 5 14 6 15 7 16 8 17 9 18 10 19 11 8 12
REMARK SMILES IDX 7 13 6 14 5 15 4 16 3 17 2 18 1 19
REMARK H PARENT
REMARK Flexibility Score: inf
ROOT
ATOM      1  C   UNL     1      -1.567   8.284  24.879  1.00  0.00     0.000 C 
ENDROOT
BRANCH   1   2
ATOM      2  C   UNL     1      -1.010   8.899  26.172  1.00  0.00     0.000 C 
BRANCH   2   3
ATOM      3  C   UNL     1      -2.114   9.389  27.123  1.00  0.00     0.000 C 
BRANCH   3   4
ATOM      4  C   UNL     1      -3.342   9.931  26.372  1.00  0.00     0.000 C 
BRANCH   4   5
ATOM      5  C   UNL     1      -3.352  11.466  26.268  1.00  0.00     0.001 C 
BRANCH   5   6
ATOM      6  C   UNL     1      -2.128  12.088  25.562  1.00  0.00     0.009 C 
BRANCH   6   7
ATOM      7  C   UNL     1      -1.525  13.314  26.283  1.00  0.00     0.032 C 
ATOM      8  C   UNL     1      -2.122  13.458  27.687  1.00  0.00     0.014 C 
BRANCH   7   9
ATOM      9  C   UNL     1      -0.025  13.224  26.370  1.00  0.00     0.044 C 
ATOM     10  O   UNL     1       0.680  14.268  26.385  1.00  0.00    -0.550 OA
ATOM     11  O   UNL     1       0.591  11.980  26.436  1.00  0.00    -0.550 OA
ENDBRANCH   7   9
ENDBRANCH   6   7
ENDBRANCH   5   6
ENDBRANCH   4   5
ENDBRANCH   3   4
ENDBRANCH   2   3
ENDBRANCH   1   2
BRANCH   1  12
ATOM     12  C   UNL     1      -1.167   9.124  23.657  1.00  0.00     0.000 C 
BRANCH  12  13
ATOM     13  C   UNL     1      -1.949   8.742  22.386  1.00  0.00    -0.000 C 
BRANCH  13  14
ATOM     14  C   UNL     1      -3.144   7.794  22.617  1.00  0.00    -0.000 C 
BRANCH  14  15
ATOM     15  C   UNL     1      -4.476   8.494  22.950  1.00  0.00    -0.000 C 
BRANCH  15  16
ATOM     16  C   UNL     1      -4.778   9.751  22.110  1.00  0.00    -0.000 C 
BRANCH  16  17
ATOM     17  C   UNL     1      -5.045  11.033  22.925  1.00  0.00    -0.000 C 
BRANCH  17  18
ATOM     18  C   UNL     1      -4.220  12.257  22.494  1.00  0.00    -0.003 C 
ATOM     19  C   UNL     1      -3.203  11.935  21.399  1.00  0.00     0.004 C 
ENDBRANCH  17  18
ENDBRANCH  16  17
ENDBRANCH  15  16
ENDBRANCH  14  15
ENDBRANCH  13  14
ENDBRANCH  12  13
ENDBRANCH   1  12
TORSDOF 14
ENDMDL
MODEL 7
REMARK VINA RESULT:    -4.790      2.211      5.367
REMARK INTER + INTRA:         -10.520
REMARK INTER:                  -8.323
REMARK INTRA:                  -2.197
REMARK UNBOUND:                -1.809
REMARK SMILES CCCCCCCCCCCCCC[C@@H](C)C(=O)[O-]
REMARK SMILES IDX 9 1 10 2 11 3 12 4 13 5 14 6 15 7 16 8 17 9 18 10 19 11 8 12
REMARK SMILES IDX 7 13 6 14 5 15 4 16 3 17 2 18 1 19
REMARK H PARENT
REMARK Flexibility Score: inf
ROOT
ATOM      1  C   UNL     1      -3.500  11.710  23.152  1.00  0.00     0.000 C 
ENDROOT
BRANCH   1   2
ATOM      2  C   UNL     1      -3.234  11.174  21.737  1.00  0.00     0.000 C 
BRANCH   2   3
ATOM      3  C   UNL     1      -3.572   9.681  21.594  1.00  0.00     0.000 C 
BRANCH   3   4
ATOM      4  C   UNL     1      -2.319   8.789  21.594  1.00  0.00     0.000 C 
BRANCH   4   5
ATOM      5  C   UNL     1      -1.827   8.447  23.011  1.00  0.00     0.001 C 
BRANCH   5   6
ATOM      6  C   UNL     1      -0.497   9.113  23.427  1.00  0.00     0.009 C 
BRANCH   6   7
ATOM      7  C   UNL     1      -0.491   9.697  24.857  1.00  0.00     0.032 C 
ATOM      8  C   UNL     1      -1.087   8.694  25.850  1.00  0.00     0.014 C 
BRANCH   7   9
ATOM      9  C   UNL     1       0.897  10.087  25.291  1.00  0.00     0.044 C 
ATOM     10  O   UNL     1       1.116  11.220  25.795  1.00  0.00    -0.550 OA
ATOM     11  O   UNL     1       1.947   9.190  25.137  1.00  0.00    -0.550 OA
ENDBRANCH   7   9
ENDBRANCH   6   7
ENDBRANCH   5   6
ENDBRANCH   4   5
ENDBRANCH   3   4
ENDBRANCH   2   3
ENDBRANCH   1   2
BRANCH   1  12
ATOM     12  C   UNL     1      -4.664  10.957  23.813  1.00  0.00     0.000 C 
BRANCH  12  13
ATOM     13  C   UNL     1      -4.267  10.289  25.143  1.00  0.00    -0.000 C 
BRANCH  13  14
ATOM     14  C   UNL     1      -4.782  11.003  26.409  1.00  0.00    -0.000 C 
BRANCH  14  15
ATOM     15  C   UNL     1      -4.196  10.480  27.736  1.00  0.00    -0.000 C 
BRANCH  15  16
ATOM     16  C   UNL     1      -2.782  10.992  28.070  1.00  0.00    -0.000 C 
BRANCH  16  17
ATOM     17  C   UNL     1      -2.728  12.403  28.692  1.00  0.00    -0.000 C 
BRANCH  17  18
ATOM     18  C   UNL     1      -2.533  13.547  27.682  1.00  0.00    -0.003 C 
ATOM     19  C   UNL     1      -1.723  13.128  26.456  1.00  0.00     0.004 C 
ENDBRANCH  17  18
ENDBRANCH  16  17
ENDBRANCH  15  16
ENDBRANCH  14  15
ENDBRANCH  13  14
ENDBRANCH  12  13
ENDBRANCH   1  12
TORSDOF 14
ENDMDL
MODEL 8
REMARK VINA RESULT:    -4.777      2.655      3.956
REMARK INTER + INTRA:         -10.496
REMARK INTER:                  -9.164
REMARK INTRA:                  -1.332
REMARK UNBOUND:                -1.809
REMARK SMILES CCCCCCCCCCCCCC[C@@H](C)C(=O)[O-]
REMARK SMILES IDX 9 1 10 2 11 3 12 4 13 5 14 6 15 7 16 8 17 9 18 10 19 11 8 12
REMARK SMILES IDX 7 13 6 14 5 15 4 16 3 17 2 18 1 19
REMARK H PARENT
REMARK Flexibility Score: inf
ROOT
ATOM      1  C   UNL     1       1.515   9.997  25.485  1.00  0.00     0.000 C 
ENDROOT
BRANCH   1   2
ATOM      2  C   UNL     1       1.561  11.494  25.828  1.00  0.00     0.000 C 
BRANCH   2   3
ATOM      3  C   UNL     1       0.278  11.985  26.519  1.00  0.00     0.000 C 
BRANCH   3   4
ATOM      4  C   UNL     1       0.189  13.519  26.577  1.00  0.00     0.000 C 
BRANCH   4   5
ATOM      5  C   UNL     1       0.855  14.204  25.371  1.00  0.00     0.001 C 
BRANCH   5   6
ATOM      6  C   UNL     1       1.756  15.410  25.711  1.00  0.00     0.009 C 
BRANCH   6   7
ATOM      7  C   UNL     1       3.009  15.549  24.817  1.00  0.00     0.032 C 
ATOM      8  C   UNL     1       3.239  14.264  24.014  1.00  0.00     0.014 C 
BRANCH   7   9
ATOM      9  C   UNL     1       2.896  16.724  23.883  1.00  0.00     0.044 C 
ATOM     10  O   UNL     1       1.815  17.364  23.786  1.00  0.00    -0.550 OA
ATOM     11  O   UNL     1       3.992  17.111  23.122  1.00  0.00    -0.550 OA
ENDBRANCH   7   9
ENDBRANCH   6   7
ENDBRANCH   5   6
ENDBRANCH   4   5
ENDBRANCH   3   4
ENDBRANCH   2   3
ENDBRANCH   1   2
BRANCH   1  12
ATOM     12  C   UNL     1       0.296   9.673  24.609  1.00  0.00     0.000 C 
BRANCH  12  13
ATOM     13  C   UNL     1      -0.823   8.952  25.383  1.00  0.00    -0.000 C 
BRANCH  13  14
ATOM     14  C   UNL     1      -2.240   9.139  24.803  1.00  0.00    -0.000 C 
BRANCH  14  15
ATOM     15  C   UNL     1      -2.638  10.601  24.513  1.00  0.00    -0.000 C 
BRANCH  15  16
ATOM     16  C   UNL     1      -2.820  10.941  23.021  1.00  0.00    -0.000 C 
BRANCH  16  17
ATOM     17  C   UNL     1      -2.456   9.805  22.043  1.00  0.00    -0.000 C 
BRANCH  17  18
ATOM     18  C   UNL     1      -3.428   9.632  20.862  1.00  0.00    -0.003 C 
ATOM     19  C   UNL     1      -4.567   8.661  21.166  1.00  0.00     0.004 C 
ENDBRANCH  17  18
ENDBRANCH  16  17
ENDBRANCH  15  16
ENDBRANCH  14  15
ENDBRANCH  13  14
ENDBRANCH  12  13
ENDBRANCH   1  12
TORSDOF 14
ENDMDL
MODEL 9
REMARK VINA RESULT:    -4.773      2.664      5.133
REMARK INTER + INTRA:         -10.489
REMARK INTER:                  -8.357
REMARK INTRA:                  -2.132
REMARK UNBOUND:                -1.809
REMARK SMILES CCCCCCCCCCCCCC[C@@H](C)C(=O)[O-]
REMARK SMILES IDX 9 1 10 2 11 3 12 4 13 5 14 6 15 7 16 8 17 9 18 10 19 11 8 12
REMARK SMILES IDX 7 13 6 14 5 15 4 16 3 17 2 18 1 19
REMARK H PARENT
REMARK Flexibility Score: inf
ROOT
ATOM      1  C   UNL     1      -2.908  10.975  22.062  1.00  0.00     0.000 C 
ENDROOT
BRANCH   1   2
ATOM      2  C   UNL     1      -3.270   9.482  22.044  1.00  0.00     0.000 C 
BRANCH   2   3
ATOM      3  C   UNL     1      -2.038   8.569  22.163  1.00  0.00     0.000 C 
BRANCH   3   4
ATOM      4  C   UNL     1      -1.047   9.052  23.235  1.00  0.00     0.000 C 
BRANCH   4   5
ATOM      5  C   UNL     1      -1.398   8.548  24.646  1.00  0.00     0.001 C 
BRANCH   5   6
ATOM      6  C   UNL     1      -0.646   9.243  25.801  1.00  0.00     0.009 C 
BRANCH   6   7
ATOM      7  C   UNL     1       0.059  10.561  25.407  1.00  0.00     0.032 C 
ATOM      8  C   UNL     1      -0.418  11.712  26.298  1.00  0.00     0.014 C 
BRANCH   7   9
ATOM      9  C   UNL     1       1.557  10.435  25.489  1.00  0.00     0.044 C 
ATOM     10  O   UNL     1       2.284  11.461  25.559  1.00  0.00    -0.550 OA
ATOM     11  O   UNL     1       2.147   9.176  25.489  1.00  0.00    -0.550 OA
ENDBRANCH   7   9
ENDBRANCH   6   7
ENDBRANCH   5   6
ENDBRANCH   4   5
ENDBRANCH   3   4
ENDBRANCH   2   3
ENDBRANCH   1   2
BRANCH   1  12
ATOM     12  C   UNL     1      -3.540  11.676  23.273  1.00  0.00     0.000 C 
BRANCH  12  13
ATOM     13  C   UNL     1      -4.907  11.085  23.661  1.00  0.00    -0.000 C 
BRANCH  13  14
ATOM     14  C   UNL     1      -5.025  10.625  25.129  1.00  0.00    -0.000 C 
BRANCH  14  15
ATOM     15  C   UNL     1      -3.822  10.986  26.023  1.00  0.00    -0.000 C 
BRANCH  15  16
ATOM     16  C   UNL     1      -4.170  11.273  27.497  1.00  0.00    -0.000 C 
BRANCH  16  17
ATOM     17  C   UNL     1      -3.489  10.344  28.522  1.00  0.00    -0.000 C 
BRANCH  17  18
ATOM     18  C   UNL     1      -2.343  10.990  29.320  1.00  0.00    -0.003 C 
ATOM     19  C   UNL     1      -2.739  11.340  30.754  1.00  0.00     0.004 C 
ENDBRANCH  17  18
ENDBRANCH  16  17
ENDBRANCH  15  16
ENDBRANCH  14  15
ENDBRANCH  13  14
ENDBRANCH  12  13
ENDBRANCH   1  12
TORSDOF 14
ENDMDL
