MODEL 1
REMARK VINA RESULT:    -4.651      0.000      0.000
REMARK INTER + INTRA:          -6.603
REMARK INTER:                  -6.282
REMARK INTRA:                  -0.321
REMARK UNBOUND:                -0.321
REMARK SMILES CCCCCCCC(=O)[O-]
REMARK SMILES IDX 5 1 6 2 7 3 8 4 9 5 10 6 4 7 3 8 2 9 1 10
REMARK H PARENT
REMARK Flexibility Score: inf
ROOT
ATOM      1  C   UNL     1     104.127 311.443 193.217  1.00  0.00     0.000 C 
ENDROOT
BRANCH   1   2
ATOM      2  C   UNL     1     103.493 311.662 194.600  1.00  0.00     0.006 C 
BRANCH   2   3
ATOM      3  C   UNL     1     104.403 312.459 195.544  1.00  0.00     0.053 C 
BRANCH   3   4
ATOM      4  C   UNL     1     104.017 312.216 196.969  1.00  0.00     0.041 C 
ATOM      5  O   UNL     1     103.994 313.170 197.790  1.00  0.00    -0.550 OA
ATOM      6  O   UNL     1     103.634 310.945 197.378  1.00  0.00    -0.550 OA
ENDBRANCH   3   4
ENDBRANCH   2   3
ENDBRANCH   1   2
BRANCH   1   7
ATOM      7  C   UNL     1     105.469 312.178 193.059  1.00  0.00     0.000 C 
BRANCH   7   8
ATOM      8  C   UNL     1     105.388 313.324 192.028  1.00  0.00    -0.000 C 
BRANCH   8   9
ATOM      9  C   UNL     1     104.015 313.440 191.344  1.00  0.00    -0.003 C 
ATOM     10  C   UNL     1     103.993 314.470 190.217  1.00  0.00     0.004 C 
ENDBRANCH   8   9
ENDBRANCH   7   8
ENDBRANCH   1   7
TORSDOF 6
ENDMDL
MODEL 2
REMARK VINA RESULT:    -4.624     20.052     20.920
REMARK INTER + INTRA:          -6.567
REMARK INTER:                  -6.236
REMARK INTRA:                  -0.331
REMARK UNBOUND:                -0.321
REMARK SMILES CCCCCCCC(=O)[O-]
REMARK SMILES IDX 5 1 6 2 7 3 8 4 9 5 10 6 4 7 3 8 2 9 1 10
REMARK H PARENT
REMARK Flexibility Score: inf
ROOT
ATOM      1  C   UNL     1      88.187 326.600 193.979  1.00  0.00     0.000 C 
ENDROOT
BRANCH   1   2
ATOM      2  C   UNL     1      88.848 326.494 195.362  1.00  0.00     0.006 C 
BRANCH   2   3
ATOM      3  C   UNL     1      87.956 325.783 196.388  1.00  0.00     0.053 C 
BRANCH   3   4
ATOM      4  C   UNL     1      88.559 325.872 197.754  1.00  0.00     0.041 C 
ATOM      5  O   UNL     1      88.929 326.985 198.211  1.00  0.00    -0.550 OA
ATOM      6  O   UNL     1      88.666 324.733 198.542  1.00  0.00    -0.550 OA
ENDBRANCH   3   4
ENDBRANCH   2   3
ENDBRANCH   1   2
BRANCH   1   7
ATOM      7  C   UNL     1      86.752 326.043 193.966  1.00  0.00     0.000 C 
BRANCH   7   8
ATOM      8  C   UNL     1      86.628 324.775 193.095  1.00  0.00    -0.000 C 
BRANCH   8   9
ATOM      9  C   UNL     1      87.980 324.229 192.605  1.00  0.00    -0.003 C 
ATOM     10  C   UNL     1      87.994 323.922 191.109  1.00  0.00     0.004 C 
ENDBRANCH   8   9
ENDBRANCH   7   8
ENDBRANCH   1   7
TORSDOF 6
ENDMDL
MODEL 3
REMARK VINA RESULT:    -4.619     19.853     20.856
REMARK INTER + INTRA:          -6.561
REMARK INTER:                  -6.253
REMARK INTRA:                  -0.307
REMARK UNBOUND:                -0.321
REMARK SMILES CCCCCCCC(=O)[O-]
REMARK SMILES IDX 5 1 6 2 7 3 8 4 9 5 10 6 4 7 3 8 2 9 1 10
REMARK H PARENT
REMARK Flexibility Score: inf
ROOT
ATOM      1  C   UNL     1      88.134 325.144 193.185  1.00  0.00     0.000 C 
ENDROOT
BRANCH   1   2
ATOM      2  C   UNL     1      88.182 326.487 193.931  1.00  0.00     0.006 C 
BRANCH   2   3
ATOM      3  C   UNL     1      88.807 326.362 195.327  1.00  0.00     0.053 C 
BRANCH   3   4
ATOM      4  C   UNL     1      87.767 325.977 196.331  1.00  0.00     0.041 C 
ATOM      5  O   UNL     1      86.592 326.417 196.225  1.00  0.00    -0.550 OA
ATOM      6  O   UNL     1      88.083 325.094 197.355  1.00  0.00    -0.550 OA
ENDBRANCH   3   4
ENDBRANCH   2   3
ENDBRANCH   1   2
BRANCH   1   7
ATOM      7  C   UNL     1      86.697 324.693 192.871  1.00  0.00     0.000 C 
BRANCH   7   8
ATOM      8  C   UNL     1      86.653 323.612 191.770  1.00  0.00    -0.000 C 
BRANCH   8   9
ATOM      9  C   UNL     1      88.043 323.105 191.349  1.00  0.00    -0.003 C 
ATOM     10  C   UNL     1      88.379 323.419 189.893  1.00  0.00     0.004 C 
ENDBRANCH   8   9
ENDBRANCH   7   8
ENDBRANCH   1   7
TORSDOF 6
ENDMDL
MODEL 4
REMARK VINA RESULT:    -4.604      1.344      2.032
REMARK INTER + INTRA:          -6.540
REMARK INTER:                  -6.235
REMARK INTRA:                  -0.305
REMARK UNBOUND:                -0.321
REMARK SMILES CCCCCCCC(=O)[O-]
REMARK SMILES IDX 5 1 6 2 7 3 8 4 9 5 10 6 4 7 3 8 2 9 1 10
REMARK H PARENT
REMARK Flexibility Score: inf
ROOT
ATOM      1  C   UNL     1     104.051 312.949 192.311  1.00  0.00     0.000 C 
ENDROOT
BRANCH   1   2
ATOM      2  C   UNL     1     104.114 311.591 193.027  1.00  0.00     0.006 C 
BRANCH   2   3
ATOM      3  C   UNL     1     103.617 311.666 194.476  1.00  0.00     0.053 C 
BRANCH   3   4
ATOM      4  C   UNL     1     104.728 312.082 195.387  1.00  0.00     0.041 C 
ATOM      5  O   UNL     1     105.883 311.602 195.239  1.00  0.00    -0.550 OA
ATOM      6  O   UNL     1     104.501 313.039 196.369  1.00  0.00    -0.550 OA
ENDBRANCH   3   4
ENDBRANCH   2   3
ENDBRANCH   1   2
BRANCH   1   7
ATOM      7  C   UNL     1     105.425 313.410 191.794  1.00  0.00     0.000 C 
BRANCH   7   8
ATOM      8  C   UNL     1     105.303 314.477 190.686  1.00  0.00    -0.000 C 
BRANCH   8   9
ATOM      9  C   UNL     1     103.862 314.964 190.456  1.00  0.00    -0.003 C 
ATOM     10  C   UNL     1     103.362 314.706 189.037  1.00  0.00     0.004 C 
ENDBRANCH   8   9
ENDBRANCH   7   8
ENDBRANCH   1   7
TORSDOF 6
ENDMDL
MODEL 5
REMARK VINA RESULT:    -4.601      3.727      5.613
REMARK INTER + INTRA:          -6.536
REMARK INTER:                  -6.264
REMARK INTRA:                  -0.272
REMARK UNBOUND:                -0.321
REMARK SMILES CCCCCCCC(=O)[O-]
REMARK SMILES IDX 5 1 6 2 7 3 8 4 9 5 10 6 4 7 3 8 2 9 1 10
REMARK H PARENT
REMARK Flexibility Score: inf
ROOT
ATOM      1  C   UNL     1     105.492 311.926 193.019  1.00  0.00     0.000 C 
ENDROOT
BRANCH   1   2
ATOM      2  C   UNL     1     105.542 313.252 192.242  1.00  0.00     0.006 C 
BRANCH   2   3
ATOM      3  C   UNL     1     104.270 313.502 191.422  1.00  0.00     0.053 C 
BRANCH   3   4
ATOM      4  C   UNL     1     104.550 314.451 190.301  1.00  0.00     0.041 C 
ATOM      5  O   UNL     1     105.684 314.989 190.196  1.00  0.00    -0.550 OA
ATOM      6  O   UNL     1     103.576 314.703 189.342  1.00  0.00    -0.550 OA
ENDBRANCH   3   4
ENDBRANCH   2   3
ENDBRANCH   1   2
BRANCH   1   7
ATOM      7  C   UNL     1     104.054 311.418 193.228  1.00  0.00     0.000 C 
BRANCH   7   8
ATOM      8  C   UNL     1     103.451 311.910 194.560  1.00  0.00    -0.000 C 
BRANCH   8   9
ATOM      9  C   UNL     1     104.495 312.117 195.671  1.00  0.00    -0.003 C 
ATOM     10  C   UNL     1     104.064 311.532 197.014  1.00  0.00     0.004 C 
ENDBRANCH   8   9
ENDBRANCH   7   8
ENDBRANCH   1   7
TORSDOF 6
ENDMDL
MODEL 6
REMARK VINA RESULT:    -4.547     20.282     21.293
REMARK INTER + INTRA:          -6.463
REMARK INTER:                  -5.964
REMARK INTRA:                  -0.500
REMARK UNBOUND:                -0.321
REMARK SMILES CCCCCCCC(=O)[O-]
REMARK SMILES IDX 5 1 6 2 7 3 8 4 9 5 10 6 4 7 3 8 2 9 1 10
REMARK H PARENT
REMARK Flexibility Score: inf
ROOT
ATOM      1  C   UNL     1      88.133 326.199 193.762  1.00  0.00     0.000 C 
ENDROOT
BRANCH   1   2
ATOM      2  C   UNL     1      88.002 325.078 192.719  1.00  0.00     0.006 C 
BRANCH   2   3
ATOM      3  C   UNL     1      88.281 323.689 193.309  1.00  0.00     0.053 C 
BRANCH   3   4
ATOM      4  C   UNL     1      87.005 322.926 193.474  1.00  0.00     0.041 C 
ATOM      5  O   UNL     1      86.351 322.560 192.462  1.00  0.00    -0.550 OA
ATOM      6  O   UNL     1      86.563 322.576 194.743  1.00  0.00    -0.550 OA
ENDBRANCH   3   4
ENDBRANCH   2   3
ENDBRANCH   1   2
BRANCH   1   7
ATOM      7  C   UNL     1      86.776 326.620 194.351  1.00  0.00     0.000 C 
BRANCH   7   8
ATOM      8  C   UNL     1      86.639 326.228 195.838  1.00  0.00    -0.000 C 
BRANCH   8   9
ATOM      9  C   UNL     1      87.937 325.672 196.450  1.00  0.00    -0.003 C 
ATOM     10  C   UNL     1      88.439 326.493 197.635  1.00  0.00     0.004 C 
ENDBRANCH   8   9
ENDBRANCH   7   8
ENDBRANCH   1   7
TORSDOF 6
ENDMDL
MODEL 7
REMARK VINA RESULT:    -4.491     20.102     20.683
REMARK INTER + INTRA:          -6.387
REMARK INTER:                  -6.179
REMARK INTRA:                  -0.208
REMARK UNBOUND:                -0.321
REMARK SMILES CCCCCCCC(=O)[O-]
REMARK SMILES IDX 5 1 6 2 7 3 8 4 9 5 10 6 4 7 3 8 2 9 1 10
REMARK H PARENT
REMARK Flexibility Score: inf
ROOT
ATOM      1  C   UNL     1      88.787 325.553 195.865  1.00  0.00     0.000 C 
ENDROOT
BRANCH   1   2
ATOM      2  C   UNL     1      88.007 326.066 197.086  1.00  0.00     0.006 C 
BRANCH   2   3
ATOM      3  C   UNL     1      88.892 326.856 198.060  1.00  0.00     0.053 C 
BRANCH   3   4
ATOM      4  C   UNL     1      89.082 326.090 199.331  1.00  0.00     0.041 C 
ATOM      5  O   UNL     1      89.418 326.689 200.386  1.00  0.00    -0.550 OA
ATOM      6  O   UNL     1      88.839 324.723 199.362  1.00  0.00    -0.550 OA
ENDBRANCH   3   4
ENDBRANCH   2   3
ENDBRANCH   1   2
BRANCH   1   7
ATOM      7  C   UNL     1      88.718 326.520 194.671  1.00  0.00     0.000 C 
BRANCH   7   8
ATOM      8  C   UNL     1      87.840 325.971 193.527  1.00  0.00    -0.000 C 
BRANCH   8   9
ATOM      9  C   UNL     1      88.144 324.507 193.165  1.00  0.00    -0.003 C 
ATOM     10  C   UNL     1      87.883 324.187 191.695  1.00  0.00     0.004 C 
ENDBRANCH   8   9
ENDBRANCH   7   8
ENDBRANCH   1   7
TORSDOF 6
ENDMDL
MODEL 8
REMARK VINA RESULT:    -4.483     20.163     21.263
REMARK INTER + INTRA:          -6.376
REMARK INTER:                  -6.016
REMARK INTRA:                  -0.360
REMARK UNBOUND:                -0.321
REMARK SMILES CCCCCCCC(=O)[O-]
REMARK SMILES IDX 5 1 6 2 7 3 8 4 9 5 10 6 4 7 3 8 2 9 1 10
REMARK H PARENT
REMARK Flexibility Score: inf
ROOT
ATOM      1  C   UNL     1      88.466 323.798 193.338  1.00  0.00     0.000 C 
ENDROOT
BRANCH   1   2
ATOM      2  C   UNL     1      87.832 324.272 192.020  1.00  0.00     0.006 C 
BRANCH   2   3
ATOM      3  C   UNL     1      86.451 323.649 191.774  1.00  0.00     0.053 C 
BRANCH   3   4
ATOM      4  C   UNL     1      86.553 322.530 190.786  1.00  0.00     0.041 C 
ATOM      5  O   UNL     1      85.878 321.479 190.949  1.00  0.00    -0.550 OA
ATOM      6  O   UNL     1      87.354 322.667 189.660  1.00  0.00    -0.550 OA
ENDBRANCH   3   4
ENDBRANCH   2   3
ENDBRANCH   1   2
BRANCH   1   7
ATOM      7  C   UNL     1      88.355 324.848 194.457  1.00  0.00     0.000 C 
BRANCH   7   8
ATOM      8  C   UNL     1      88.174 326.276 193.901  1.00  0.00    -0.000 C 
BRANCH   8   9
ATOM      9  C   UNL     1      86.815 326.906 194.250  1.00  0.00    -0.003 C 
ATOM     10  C   UNL     1      86.271 326.446 195.601  1.00  0.00     0.004 C 
ENDBRANCH   8   9
ENDBRANCH   7   8
ENDBRANCH   1   7
TORSDOF 6
ENDMDL
MODEL 9
REMARK VINA RESULT:    -4.452      2.382      3.690
REMARK INTER + INTRA:          -6.334
REMARK INTER:                  -6.230
REMARK INTRA:                  -0.104
REMARK UNBOUND:                -0.321
REMARK SMILES CCCCCCCC(=O)[O-]
REMARK SMILES IDX 5 1 6 2 7 3 8 4 9 5 10 6 4 7 3 8 2 9 1 10
REMARK H PARENT
REMARK Flexibility Score: inf
ROOT
ATOM      1  C   UNL     1     103.886 311.234 197.108  1.00  0.00     0.000 C 
ENDROOT
BRANCH   1   2
ATOM      2  C   UNL     1     103.862 312.197 198.305  1.00  0.00     0.006 C 
BRANCH   2   3
ATOM      3  C   UNL     1     103.264 311.555 199.564  1.00  0.00     0.053 C 
BRANCH   3   4
ATOM      4  C   UNL     1     104.087 311.898 200.765  1.00  0.00     0.041 C 
ATOM      5  O   UNL     1     103.943 311.252 201.836  1.00  0.00    -0.550 OA
ATOM      6  O   UNL     1     105.050 312.897 200.687  1.00  0.00    -0.550 OA
ENDBRANCH   3   4
ENDBRANCH   2   3
ENDBRANCH   1   2
BRANCH   1   7
ATOM      7  C   UNL     1     104.440 311.891 195.832  1.00  0.00     0.000 C 
BRANCH   7   8
ATOM      8  C   UNL     1     103.424 311.858 194.671  1.00  0.00    -0.000 C 
BRANCH   8   9
ATOM      9  C   UNL     1     104.052 311.507 193.311  1.00  0.00    -0.003 C 
ATOM     10  C   UNL     1     104.097 312.691 192.349  1.00  0.00     0.004 C 
ENDBRANCH   8   9
ENDBRANCH   7   8
ENDBRANCH   1   7
TORSDOF 6
ENDMDL
