MODEL 1
REMARK VINA RESULT:    -3.723      0.000      0.000
REMARK INTER + INTRA:          -4.463
REMARK INTER:                  -4.376
REMARK INTRA:                  -0.087
REMARK UNBOUND:                -0.087
REMARK SMILES CCCCC(=O)[O-]
REMARK SMILES IDX 4 1 5 2 6 3 7 4 3 5 2 6 1 7
REMARK H PARENT
REMARK Flexibility Score: inf
ROOT
ATOM      1  C   UNL     1      18.075   9.663  50.178  1.00  0.00     0.053 C 
ENDROOT
BRANCH   1   2
ATOM      2  C   UNL     1      19.335   9.269  49.475  1.00  0.00     0.041 C 
ATOM      3  O   UNL     1      19.450   8.117  48.980  1.00  0.00    -0.550 OA
ATOM      4  O   UNL     1      20.401  10.156  49.408  1.00  0.00    -0.550 OA
ENDBRANCH   1   2
BRANCH   1   5
ATOM      5  C   UNL     1      18.355   9.942  51.661  1.00  0.00     0.006 C 
BRANCH   5   6
ATOM      6  C   UNL     1      18.716   8.670  52.441  1.00  0.00    -0.003 C 
ATOM      7  C   UNL     1      19.424   8.969  53.763  1.00  0.00     0.004 C 
ENDBRANCH   5   6
ENDBRANCH   1   5
TORSDOF 3
ENDMDL
MODEL 2
REMARK VINA RESULT:    -3.712      1.216      1.860
REMARK INTER + INTRA:          -4.450
REMARK INTER:                  -4.368
REMARK INTRA:                  -0.082
REMARK UNBOUND:                -0.087
REMARK SMILES CCCCC(=O)[O-]
REMARK SMILES IDX 4 1 5 2 6 3 7 4 3 5 2 6 1 7
REMARK H PARENT
REMARK Flexibility Score: inf
ROOT
ATOM      1  C   UNL     1      17.621   9.472  50.483  1.00  0.00     0.053 C 
ENDROOT
BRANCH   1   2
ATOM      2  C   UNL     1      17.930   8.230  49.709  1.00  0.00     0.041 C 
ATOM      3  O   UNL     1      19.021   8.125  49.089  1.00  0.00    -0.550 OA
ATOM      4  O   UNL     1      16.993   7.208  49.632  1.00  0.00    -0.550 OA
ENDBRANCH   1   2
BRANCH   1   5
ATOM      5  C   UNL     1      18.678   9.700  51.572  1.00  0.00     0.006 C 
BRANCH   5   6
ATOM      6  C   UNL     1      18.697   8.575  52.618  1.00  0.00    -0.003 C 
ATOM      7  C   UNL     1      19.497   8.944  53.868  1.00  0.00     0.004 C 
ENDBRANCH   5   6
ENDBRANCH   1   5
TORSDOF 3
ENDMDL
MODEL 3
REMARK VINA RESULT:    -3.671      3.734      4.461
REMARK INTER + INTRA:          -4.402
REMARK INTER:                  -4.382
REMARK INTRA:                  -0.020
REMARK UNBOUND:                -0.087
REMARK SMILES CCCCC(=O)[O-]
REMARK SMILES IDX 4 1 5 2 6 3 7 4 3 5 2 6 1 7
REMARK H PARENT
REMARK Flexibility Score: inf
ROOT
ATOM      1  C   UNL     1      15.708   7.058  49.791  1.00  0.00     0.053 C 
ENDROOT
BRANCH   1   2
ATOM      2  C   UNL     1      14.825   6.895  48.594  1.00  0.00     0.041 C 
ATOM      3  O   UNL     1      13.814   6.147  48.650  1.00  0.00    -0.550 OA
ATOM      4  O   UNL     1      15.144   7.532  47.402  1.00  0.00    -0.550 OA
ENDBRANCH   1   2
BRANCH   1   5
ATOM      5  C   UNL     1      16.778   8.126  49.524  1.00  0.00     0.006 C 
BRANCH   5   6
ATOM      6  C   UNL     1      17.613   8.447  50.773  1.00  0.00    -0.003 C 
ATOM      7  C   UNL     1      17.900   9.942  50.922  1.00  0.00     0.004 C 
ENDBRANCH   5   6
ENDBRANCH   1   5
TORSDOF 3
ENDMDL
MODEL 4
REMARK VINA RESULT:    -3.625      3.671      4.508
REMARK INTER + INTRA:          -4.349
REMARK INTER:                  -4.326
REMARK INTRA:                  -0.022
REMARK UNBOUND:                -0.087
REMARK SMILES CCCCC(=O)[O-]
REMARK SMILES IDX 4 1 5 2 6 3 7 4 3 5 2 6 1 7
REMARK H PARENT
REMARK Flexibility Score: inf
ROOT
ATOM      1  C   UNL     1      15.903   7.074  49.748  1.00  0.00     0.053 C 
ENDROOT
BRANCH   1   2
ATOM      2  C   UNL     1      14.896   7.043  48.643  1.00  0.00     0.041 C 
ATOM      3  O   UNL     1      14.947   7.893  47.716  1.00  0.00    -0.550 OA
ATOM      4  O   UNL     1      13.871   6.106  48.662  1.00  0.00    -0.550 OA
ENDBRANCH   1   2
BRANCH   1   5
ATOM      5  C   UNL     1      16.828   8.289  49.595  1.00  0.00     0.006 C 
BRANCH   5   6
ATOM      6  C   UNL     1      17.628   8.584  50.873  1.00  0.00    -0.003 C 
ATOM      7  C   UNL     1      18.083  10.041  50.961  1.00  0.00     0.004 C 
ENDBRANCH   5   6
ENDBRANCH   1   5
TORSDOF 3
ENDMDL
MODEL 5
REMARK VINA RESULT:    -3.604      3.359      4.595
REMARK INTER + INTRA:          -4.323
REMARK INTER:                  -4.293
REMARK INTRA:                  -0.030
REMARK UNBOUND:                -0.087
REMARK SMILES CCCCC(=O)[O-]
REMARK SMILES IDX 4 1 5 2 6 3 7 4 3 5 2 6 1 7
REMARK H PARENT
REMARK Flexibility Score: inf
ROOT
ATOM      1  C   UNL     1      16.562   8.158  49.269  1.00  0.00     0.053 C 
ENDROOT
BRANCH   1   2
ATOM      2  C   UNL     1      17.665   8.403  50.250  1.00  0.00     0.041 C 
ATOM      3  O   UNL     1      17.590   9.362  51.061  1.00  0.00    -0.550 OA
ATOM      4  O   UNL     1      18.799   7.601  50.236  1.00  0.00    -0.550 OA
ENDBRANCH   1   2
BRANCH   1   5
ATOM      5  C   UNL     1      15.658   7.017  49.755  1.00  0.00     0.006 C 
BRANCH   5   6
ATOM      6  C   UNL     1      14.539   6.686  48.756  1.00  0.00    -0.003 C 
ATOM      7  C   UNL     1      14.644   7.495  47.463  1.00  0.00     0.004 C 
ENDBRANCH   5   6
ENDBRANCH   1   5
TORSDOF 3
ENDMDL
MODEL 6
REMARK VINA RESULT:    -3.583      3.397      4.355
REMARK INTER + INTRA:          -4.298
REMARK INTER:                  -4.282
REMARK INTRA:                  -0.017
REMARK UNBOUND:                -0.087
REMARK SMILES CCCCC(=O)[O-]
REMARK SMILES IDX 4 1 5 2 6 3 7 4 3 5 2 6 1 7
REMARK H PARENT
REMARK Flexibility Score: inf
ROOT
ATOM      1  C   UNL     1      17.559   7.902  49.966  1.00  0.00     0.053 C 
ENDROOT
BRANCH   1   2
ATOM      2  C   UNL     1      17.861   8.844  51.089  1.00  0.00     0.041 C 
ATOM      3  O   UNL     1      17.681  10.081  50.943  1.00  0.00    -0.550 OA
ATOM      4  O   UNL     1      18.388   8.360  52.279  1.00  0.00    -0.550 OA
ENDBRANCH   1   2
BRANCH   1   5
ATOM      5  C   UNL     1      16.043   7.720  49.815  1.00  0.00     0.006 C 
BRANCH   5   6
ATOM      6  C   UNL     1      15.667   6.325  49.293  1.00  0.00    -0.003 C 
ATOM      7  C   UNL     1      14.263   6.279  48.690  1.00  0.00     0.004 C 
ENDBRANCH   5   6
ENDBRANCH   1   5
TORSDOF 3
ENDMDL
MODEL 7
REMARK VINA RESULT:    -3.542      4.159      4.951
REMARK INTER + INTRA:          -4.251
REMARK INTER:                  -4.154
REMARK INTRA:                  -0.097
REMARK UNBOUND:                -0.087
REMARK SMILES CCCCC(=O)[O-]
REMARK SMILES IDX 4 1 5 2 6 3 7 4 3 5 2 6 1 7
REMARK H PARENT
REMARK Flexibility Score: inf
ROOT
ATOM      1  C   UNL     1      14.841   7.768  47.392  1.00  0.00     0.053 C 
ENDROOT
BRANCH   1   2
ATOM      2  C   UNL     1      15.954   7.789  46.393  1.00  0.00     0.041 C 
ATOM      3  O   UNL     1      15.791   8.342  45.275  1.00  0.00    -0.550 OA
ATOM      4  O   UNL     1      17.156   7.155  46.679  1.00  0.00    -0.550 OA
ENDBRANCH   1   2
BRANCH   1   5
ATOM      5  C   UNL     1      15.118   6.723  48.481  1.00  0.00     0.006 C 
BRANCH   5   6
ATOM      6  C   UNL     1      15.349   7.357  49.861  1.00  0.00    -0.003 C 
ATOM      7  C   UNL     1      16.799   7.791  50.077  1.00  0.00     0.004 C 
ENDBRANCH   5   6
ENDBRANCH   1   5
TORSDOF 3
ENDMDL
MODEL 8
REMARK VINA RESULT:    -3.525      2.443      3.440
REMARK INTER + INTRA:          -4.230
REMARK INTER:                  -4.168
REMARK INTRA:                  -0.062
REMARK UNBOUND:                -0.087
REMARK SMILES CCCCC(=O)[O-]
REMARK SMILES IDX 4 1 5 2 6 3 7 4 3 5 2 6 1 7
REMARK H PARENT
REMARK Flexibility Score: inf
ROOT
ATOM      1  C   UNL     1      18.008   9.771  51.005  1.00  0.00     0.053 C 
ENDROOT
BRANCH   1   2
ATOM      2  C   UNL     1      18.946   8.850  51.719  1.00  0.00     0.041 C 
ATOM      3  O   UNL     1      19.989   8.439  51.146  1.00  0.00    -0.550 OA
ATOM      4  O   UNL     1      18.645   8.407  53.001  1.00  0.00    -0.550 OA
ENDBRANCH   1   2
BRANCH   1   5
ATOM      5  C   UNL     1      17.416   9.079  49.770  1.00  0.00     0.006 C 
BRANCH   5   6
ATOM      6  C   UNL     1      16.758   7.733  50.108  1.00  0.00    -0.003 C 
ATOM      7  C   UNL     1      15.432   7.523  49.376  1.00  0.00     0.004 C 
ENDBRANCH   5   6
ENDBRANCH   1   5
TORSDOF 3
ENDMDL
MODEL 9
REMARK VINA RESULT:    -3.500      2.624      3.299
REMARK INTER + INTRA:          -4.201
REMARK INTER:                  -4.102
REMARK INTRA:                  -0.099
REMARK UNBOUND:                -0.087
REMARK SMILES CCCCC(=O)[O-]
REMARK SMILES IDX 4 1 5 2 6 3 7 4 3 5 2 6 1 7
REMARK H PARENT
REMARK Flexibility Score: inf
ROOT
ATOM      1  C   UNL     1      17.716   8.206  50.473  1.00  0.00     0.053 C 
ENDROOT
BRANCH   1   2
ATOM      2  C   UNL     1      16.540   7.919  49.594  1.00  0.00     0.041 C 
ATOM      3  O   UNL     1      15.657   7.101  49.964  1.00  0.00    -0.550 OA
ATOM      4  O   UNL     1      16.444   8.517  48.344  1.00  0.00    -0.550 OA
ENDBRANCH   1   2
BRANCH   1   5
ATOM      5  C   UNL     1      17.843   9.715  50.720  1.00  0.00     0.006 C 
BRANCH   5   6
ATOM      6  C   UNL     1      19.146  10.297  50.151  1.00  0.00    -0.003 C 
ATOM      7  C   UNL     1      20.003   9.246  49.445  1.00  0.00     0.004 C 
ENDBRANCH   5   6
ENDBRANCH   1   5
TORSDOF 3
ENDMDL
