MODEL 1
REMARK VINA RESULT:    15.118      0.000      0.000
REMARK INTER + INTRA:          17.043
REMARK INTER:                  16.885
REMARK INTRA:                   0.158
REMARK UNBOUND:                 0.158
REMARK SMILES O=C([O-])c1ccccc1C(=O)[O-]
REMARK SMILES IDX 4 1 9 2 5 3 8 4 6 5 7 6 2 7 1 8 3 9 10 10 11 11 12 12
REMARK H PARENT
REMARK Flexibility Score: inf
ROOT
ATOM      1  C   UNL     1       8.934  12.885  16.238  1.00  0.00     0.006 A 
ATOM      2  C   UNL     1      10.222  12.369  15.921  1.00  0.00     0.006 A 
ATOM      3  C   UNL     1       7.876  12.689  15.331  1.00  0.00     0.010 A 
ATOM      4  C   UNL     1      10.388  11.621  14.742  1.00  0.00     0.010 A 
ATOM      5  C   UNL     1       8.069  11.964  14.156  1.00  0.00     0.001 A 
ATOM      6  C   UNL     1       9.319  11.420  13.868  1.00  0.00     0.001 A 
ENDROOT
BRANCH   1   7
ATOM      7  C   UNL     1       8.629  13.566  17.518  1.00  0.00     0.072 C 
ATOM      8  O   UNL     1       8.966  13.053  18.618  1.00  0.00    -0.545 OA
ATOM      9  O   UNL     1       7.904  14.753  17.521  1.00  0.00    -0.545 OA
ENDBRANCH   1   7
BRANCH   2  10
ATOM     10  C   UNL     1      11.425  12.639  16.743  1.00  0.00     0.072 C 
ATOM     11  O   UNL     1      12.271  13.501  16.384  1.00  0.00    -0.545 OA
ATOM     12  O   UNL     1      11.668  11.893  17.890  1.00  0.00    -0.545 OA
ENDBRANCH   2  10
TORSDOF 2
ENDMDL
MODEL 2
REMARK VINA RESULT:    16.487      4.032      4.988
REMARK INTER + INTRA:          18.572
REMARK INTER:                  18.764
REMARK INTRA:                  -0.191
REMARK UNBOUND:                 0.158
REMARK SMILES O=C([O-])c1ccccc1C(=O)[O-]
REMARK SMILES IDX 4 1 9 2 5 3 8 4 6 5 7 6 2 7 1 8 3 9 10 10 11 11 12 12
REMARK H PARENT
REMARK Flexibility Score: inf
ROOT
ATOM      1  C   UNL     1      13.583  12.467  17.362  1.00  0.00     0.006 A 
ATOM      2  C   UNL     1      14.301  13.563  16.806  1.00  0.00     0.006 A 
ATOM      3  C   UNL     1      13.931  11.158  16.983  1.00  0.00     0.010 A 
ATOM      4  C   UNL     1      15.382  13.305  15.943  1.00  0.00     0.010 A 
ATOM      5  C   UNL     1      14.992  10.926  16.108  1.00  0.00     0.001 A 
ATOM      6  C   UNL     1      15.724  11.996  15.599  1.00  0.00     0.001 A 
ENDROOT
BRANCH   1   7
ATOM      7  C   UNL     1      12.521  12.632  18.382  1.00  0.00     0.072 C 
ATOM      8  O   UNL     1      12.811  12.909  19.576  1.00  0.00    -0.545 OA
ATOM      9  O   UNL     1      11.190  12.414  18.044  1.00  0.00    -0.545 OA
ENDBRANCH   1   7
BRANCH   2  10
ATOM     10  C   UNL     1      13.923  14.977  17.036  1.00  0.00     0.072 C 
ATOM     11  O   UNL     1      13.078  15.547  16.296  1.00  0.00    -0.545 OA
ATOM     12  O   UNL     1      14.550  15.712  18.034  1.00  0.00    -0.545 OA
ENDBRANCH   2  10
TORSDOF 2
ENDMDL
MODEL 3
REMARK VINA RESULT:    16.500      4.058      5.294
REMARK INTER + INTRA:          18.587
REMARK INTER:                  18.779
REMARK INTRA:                  -0.192
REMARK UNBOUND:                 0.158
REMARK SMILES O=C([O-])c1ccccc1C(=O)[O-]
REMARK SMILES IDX 4 1 9 2 5 3 8 4 6 5 7 6 2 7 1 8 3 9 10 10 11 11 12 12
REMARK H PARENT
REMARK Flexibility Score: inf
ROOT
ATOM      1  C   UNL     1      14.305  13.581  16.821  1.00  0.00     0.006 A 
ATOM      2  C   UNL     1      13.593  12.486  17.387  1.00  0.00     0.006 A 
ATOM      3  C   UNL     1      15.377  13.321  15.948  1.00  0.00     0.010 A 
ATOM      4  C   UNL     1      13.939  11.176  17.008  1.00  0.00     0.010 A 
ATOM      5  C   UNL     1      15.717  12.013  15.603  1.00  0.00     0.001 A 
ATOM      6  C   UNL     1      14.991  10.944  16.122  1.00  0.00     0.001 A 
ENDROOT
BRANCH   1   7
ATOM      7  C   UNL     1      13.929  14.995  17.053  1.00  0.00     0.072 C 
ATOM      8  O   UNL     1      13.118  15.581  16.287  1.00  0.00    -0.545 OA
ATOM      9  O   UNL     1      14.523  15.714  18.084  1.00  0.00    -0.545 OA
ENDBRANCH   1   7
BRANCH   2  10
ATOM     10  C   UNL     1      12.542  12.652  18.419  1.00  0.00     0.072 C 
ATOM     11  O   UNL     1      12.845  12.935  19.608  1.00  0.00    -0.545 OA
ATOM     12  O   UNL     1      11.209  12.430  18.097  1.00  0.00    -0.545 OA
ENDBRANCH   2  10
TORSDOF 2
ENDMDL
