MODEL 1
REMARK VINA RESULT:    -3.668      0.000      0.000
REMARK INTER + INTRA:          -4.431
REMARK INTER:                  -4.311
REMARK INTRA:                  -0.121
REMARK UNBOUND:                -0.121
REMARK SMILES O=C([O-])CCC(=O)[O-]
REMARK SMILES IDX 4 1 2 2 1 3 3 4 5 5 6 6 7 7 8 8
REMARK H PARENT
REMARK Flexibility Score: inf
ROOT
ATOM      1  C   UNL     1     135.592 133.560 114.251  1.00  0.00     0.059 C 
ENDROOT
BRANCH   1   2
ATOM      2  C   UNL     1     136.504 133.207 115.386  1.00  0.00     0.042 C 
ATOM      3  O   UNL     1     136.658 134.005 116.347  1.00  0.00    -0.550 OA
ATOM      4  O   UNL     1     137.152 131.979 115.400  1.00  0.00    -0.550 OA
ENDBRANCH   1   2
BRANCH   1   5
ATOM      5  C   UNL     1     134.119 133.436 114.653  1.00  0.00     0.059 C 
BRANCH   5   6
ATOM      6  C   UNL     1     133.451 134.776 114.726  1.00  0.00     0.042 C 
ATOM      7  O   UNL     1     133.847 135.637 115.556  1.00  0.00    -0.550 OA
ATOM      8  O   UNL     1     132.365 135.059 113.908  1.00  0.00    -0.550 OA
ENDBRANCH   5   6
ENDBRANCH   1   5
TORSDOF 3
ENDMDL
MODEL 2
REMARK VINA RESULT:    -3.662      0.068      3.886
REMARK INTER + INTRA:          -4.425
REMARK INTER:                  -4.304
REMARK INTRA:                  -0.121
REMARK UNBOUND:                -0.121
REMARK SMILES O=C([O-])CCC(=O)[O-]
REMARK SMILES IDX 4 1 2 2 1 3 3 4 5 5 6 6 7 7 8 8
REMARK H PARENT
REMARK Flexibility Score: inf
ROOT
ATOM      1  C   UNL     1     134.108 133.380 114.643  1.00  0.00     0.059 C 
ENDROOT
BRANCH   1   2
ATOM      2  C   UNL     1     133.440 134.718 114.744  1.00  0.00     0.042 C 
ATOM      3  O   UNL     1     133.873 135.584 115.548  1.00  0.00    -0.550 OA
ATOM      4  O   UNL     1     132.365 135.021 113.919  1.00  0.00    -0.550 OA
ENDBRANCH   1   2
BRANCH   1   5
ATOM      5  C   UNL     1     135.578 133.513 114.234  1.00  0.00     0.059 C 
BRANCH   5   6
ATOM      6  C   UNL     1     136.500 133.145 115.357  1.00  0.00     0.042 C 
ATOM      7  O   UNL     1     136.728 133.966 116.284  1.00  0.00    -0.550 OA
ATOM      8  O   UNL     1     137.138 131.911 115.358  1.00  0.00    -0.550 OA
ENDBRANCH   5   6
ENDBRANCH   1   5
TORSDOF 3
ENDMDL
MODEL 3
REMARK VINA RESULT:    -3.657     10.401     11.510
REMARK INTER + INTRA:          -4.419
REMARK INTER:                  -4.303
REMARK INTRA:                  -0.115
REMARK UNBOUND:                -0.121
REMARK SMILES O=C([O-])CCC(=O)[O-]
REMARK SMILES IDX 4 1 2 2 1 3 3 4 5 5 6 6 7 7 8 8
REMARK H PARENT
REMARK Flexibility Score: inf
ROOT
ATOM      1  C   UNL     1     141.540 143.251 114.238  1.00  0.00     0.059 C 
ENDROOT
BRANCH   1   2
ATOM      2  C   UNL     1     140.219 143.244 114.947  1.00  0.00     0.042 C 
ATOM      3  O   UNL     1     139.763 142.174 115.428  1.00  0.00    -0.550 OA
ATOM      4  O   UNL     1     139.514 144.429 115.112  1.00  0.00    -0.550 OA
ENDBRANCH   1   2
BRANCH   1   5
ATOM      5  C   UNL     1     142.676 142.791 115.157  1.00  0.00     0.059 C 
BRANCH   5   6
ATOM      6  C   UNL     1     143.212 141.453 114.746  1.00  0.00     0.042 C 
ATOM      7  O   UNL     1     144.110 141.374 113.866  1.00  0.00    -0.550 OA
ATOM      8  O   UNL     1     142.691 140.293 115.303  1.00  0.00    -0.550 OA
ENDBRANCH   5   6
ENDBRANCH   1   5
TORSDOF 3
ENDMDL
MODEL 4
REMARK VINA RESULT:    -3.657     10.403     10.913
REMARK INTER + INTRA:          -4.419
REMARK INTER:                  -4.299
REMARK INTRA:                  -0.120
REMARK UNBOUND:                -0.121
REMARK SMILES O=C([O-])CCC(=O)[O-]
REMARK SMILES IDX 4 1 2 2 1 3 3 4 5 5 6 6 7 7 8 8
REMARK H PARENT
REMARK Flexibility Score: inf
ROOT
ATOM      1  C   UNL     1     142.721 142.795 115.008  1.00  0.00     0.059 C 
ENDROOT
BRANCH   1   2
ATOM      2  C   UNL     1     143.224 141.428 114.654  1.00  0.00     0.042 C 
ATOM      3  O   UNL     1     144.221 141.296 113.897  1.00  0.00    -0.550 OA
ATOM      4  O   UNL     1     142.614 140.303 115.193  1.00  0.00    -0.550 OA
ENDBRANCH   1   2
BRANCH   1   5
ATOM      5  C   UNL     1     141.521 143.196 114.145  1.00  0.00     0.059 C 
BRANCH   5   6
ATOM      6  C   UNL     1     140.254 143.239 114.945  1.00  0.00     0.042 C 
ATOM      7  O   UNL     1     139.823 142.197 115.505  1.00  0.00    -0.550 OA
ATOM      8  O   UNL     1     139.529 144.421 115.037  1.00  0.00    -0.550 OA
ENDBRANCH   5   6
ENDBRANCH   1   5
TORSDOF 3
ENDMDL
MODEL 5
REMARK VINA RESULT:    -3.621      1.826      2.676
REMARK INTER + INTRA:          -4.377
REMARK INTER:                  -4.245
REMARK INTRA:                  -0.132
REMARK UNBOUND:                -0.121
REMARK SMILES O=C([O-])CCC(=O)[O-]
REMARK SMILES IDX 4 1 2 2 1 3 3 4 5 5 6 6 7 7 8 8
REMARK H PARENT
REMARK Flexibility Score: inf
ROOT
ATOM      1  C   UNL     1     133.618 134.114 115.161  1.00  0.00     0.059 C 
ENDROOT
BRANCH   1   2
ATOM      2  C   UNL     1     134.613 133.557 114.189  1.00  0.00     0.042 C 
ATOM      3  O   UNL     1     134.573 133.895 112.977  1.00  0.00    -0.550 OA
ATOM      4  O   UNL     1     135.609 132.695 114.631  1.00  0.00    -0.550 OA
ENDBRANCH   1   2
BRANCH   1   5
ATOM      5  C   UNL     1     133.421 135.620 114.965  1.00  0.00     0.059 C 
BRANCH   5   6
ATOM      6  C   UNL     1     134.470 136.414 115.684  1.00  0.00     0.042 C 
ATOM      7  O   UNL     1     134.364 136.631 116.919  1.00  0.00    -0.550 OA
ATOM      8  O   UNL     1     135.542 136.949 114.980  1.00  0.00    -0.550 OA
ENDBRANCH   5   6
ENDBRANCH   1   5
TORSDOF 3
ENDMDL
MODEL 6
REMARK VINA RESULT:    -3.605      1.763      2.034
REMARK INTER + INTRA:          -4.358
REMARK INTER:                  -4.237
REMARK INTRA:                  -0.120
REMARK UNBOUND:                -0.121
REMARK SMILES O=C([O-])CCC(=O)[O-]
REMARK SMILES IDX 4 1 2 2 1 3 3 4 5 5 6 6 7 7 8 8
REMARK H PARENT
REMARK Flexibility Score: inf
ROOT
ATOM      1  C   UNL     1     134.584 134.872 115.997  1.00  0.00     0.059 C 
ENDROOT
BRANCH   1   2
ATOM      2  C   UNL     1     135.708 134.285 116.795  1.00  0.00     0.042 C 
ATOM      3  O   UNL     1     135.621 134.204 118.048  1.00  0.00    -0.550 OA
ATOM      4  O   UNL     1     136.834 133.791 116.149  1.00  0.00    -0.550 OA
ENDBRANCH   1   2
BRANCH   1   5
ATOM      5  C   UNL     1     133.860 133.804 115.172  1.00  0.00     0.059 C 
BRANCH   5   6
ATOM      6  C   UNL     1     134.100 133.984 113.703  1.00  0.00     0.042 C 
ATOM      7  O   UNL     1     135.227 133.717 113.208  1.00  0.00    -0.550 OA
ATOM      8  O   UNL     1     133.092 134.485 112.889  1.00  0.00    -0.550 OA
ENDBRANCH   5   6
ENDBRANCH   1   5
TORSDOF 3
ENDMDL
MODEL 7
REMARK VINA RESULT:    -3.604      9.861     10.893
REMARK INTER + INTRA:          -4.357
REMARK INTER:                  -4.219
REMARK INTRA:                  -0.138
REMARK UNBOUND:                -0.121
REMARK SMILES O=C([O-])CCC(=O)[O-]
REMARK SMILES IDX 4 1 2 2 1 3 3 4 5 5 6 6 7 7 8 8
REMARK H PARENT
REMARK Flexibility Score: inf
ROOT
ATOM      1  C   UNL     1     142.930 142.391 115.027  1.00  0.00     0.059 C 
ENDROOT
BRANCH   1   2
ATOM      2  C   UNL     1     141.849 142.902 114.124  1.00  0.00     0.042 C 
ATOM      3  O   UNL     1     140.992 143.715 114.559  1.00  0.00    -0.550 OA
ATOM      4  O   UNL     1     141.814 142.510 112.792  1.00  0.00    -0.550 OA
ENDBRANCH   1   2
BRANCH   1   5
ATOM      5  C   UNL     1     143.151 140.886 114.847  1.00  0.00     0.059 C 
BRANCH   5   6
ATOM      6  C   UNL     1     142.080 140.085 115.524  1.00  0.00     0.042 C 
ATOM      7  O   UNL     1     141.153 139.567 114.848  1.00  0.00    -0.550 OA
ATOM      8  O   UNL     1     142.083 139.947 116.907  1.00  0.00    -0.550 OA
ENDBRANCH   5   6
ENDBRANCH   1   5
TORSDOF 3
ENDMDL
MODEL 8
REMARK VINA RESULT:    -3.571     10.318     11.004
REMARK INTER + INTRA:          -4.318
REMARK INTER:                  -4.198
REMARK INTRA:                  -0.120
REMARK UNBOUND:                -0.121
REMARK SMILES O=C([O-])CCC(=O)[O-]
REMARK SMILES IDX 4 1 2 2 1 3 3 4 5 5 6 6 7 7 8 8
REMARK H PARENT
REMARK Flexibility Score: inf
ROOT
ATOM      1  C   UNL     1     142.513 142.869 114.947  1.00  0.00     0.059 C 
ENDROOT
BRANCH   1   2
ATOM      2  C   UNL     1     142.350 142.462 113.514  1.00  0.00     0.042 C 
ATOM      3  O   UNL     1     143.329 142.006 112.869  1.00  0.00    -0.550 OA
ATOM      4  O   UNL     1     141.105 142.549 112.905  1.00  0.00    -0.550 OA
ENDBRANCH   1   2
BRANCH   1   5
ATOM      5  C   UNL     1     142.016 141.779 115.902  1.00  0.00     0.059 C 
BRANCH   5   6
ATOM      6  C   UNL     1     140.785 142.211 116.641  1.00  0.00     0.042 C 
ATOM      7  O   UNL     1     140.791 142.274 117.899  1.00  0.00    -0.550 OA
ATOM      8  O   UNL     1     139.620 142.504 115.943  1.00  0.00    -0.550 OA
ENDBRANCH   5   6
ENDBRANCH   1   5
TORSDOF 3
ENDMDL
MODEL 9
REMARK VINA RESULT:    -3.550      9.897     10.569
REMARK INTER + INTRA:          -4.294
REMARK INTER:                  -4.131
REMARK INTRA:                  -0.162
REMARK UNBOUND:                -0.121
REMARK SMILES O=C([O-])CCC(=O)[O-]
REMARK SMILES IDX 4 1 2 2 1 3 3 4 5 5 6 6 7 7 8 8
REMARK H PARENT
REMARK Flexibility Score: inf
ROOT
ATOM      1  C   UNL     1     143.102 140.887 114.923  1.00  0.00     0.059 C 
ENDROOT
BRANCH   1   2
ATOM      2  C   UNL     1     141.981 140.248 115.687  1.00  0.00     0.042 C 
ATOM      3  O   UNL     1     141.928 140.353 116.940  1.00  0.00    -0.550 OA
ATOM      4  O   UNL     1     140.975 139.572 115.008  1.00  0.00    -0.550 OA
ENDBRANCH   1   2
BRANCH   1   5
ATOM      5  C   UNL     1     143.006 142.415 114.954  1.00  0.00     0.059 C 
BRANCH   5   6
ATOM      6  C   UNL     1     141.921 142.920 114.051  1.00  0.00     0.042 C 
ATOM      7  O   UNL     1     141.073 143.746 114.481  1.00  0.00    -0.550 OA
ATOM      8  O   UNL     1     141.822 142.446 112.749  1.00  0.00    -0.550 OA
ENDBRANCH   5   6
ENDBRANCH   1   5
TORSDOF 3
ENDMDL
