MODEL 1
REMARK VINA RESULT:    -5.186      0.000      0.000
REMARK INTER + INTRA:         -10.445
REMARK INTER:                  -7.914
REMARK INTRA:                  -2.531
REMARK UNBOUND:                -2.531
REMARK SMILES CC(=O)CCC=C(C)CCC=C(C)CCC=C(C)C
REMARK SMILES IDX 10 1 11 2 12 3 13 4 14 5 15 6 16 7 18 8 17 9 19 10 9 11 7 12
REMARK SMILES IDX 6 13 8 14 5 15 4 16 2 17 3 18 1 19
REMARK H PARENT
REMARK Flexibility Score: inf
ROOT
ATOM      1  C   UNL     1     -16.558  14.013 -31.341  1.00  0.00     0.032 C 
ENDROOT
BRANCH   1   2
ATOM      2  C   UNL     1     -17.529  12.935 -30.924  1.00  0.00    -0.028 C 
ATOM      3  C   UNL     1     -17.814  12.601 -29.644  1.00  0.00    -0.077 C 
ATOM      4  C   UNL     1     -18.832  11.519 -29.398  1.00  0.00     0.039 C 
BRANCH   3   5
ATOM      5  C   UNL     1     -17.104  13.213 -28.452  1.00  0.00     0.034 C 
BRANCH   5   6
ATOM      6  C   UNL     1     -16.181  12.185 -27.789  1.00  0.00     0.032 C 
BRANCH   6   7
ATOM      7  C   UNL     1     -14.793  12.254 -28.376  1.00  0.00    -0.028 C 
ATOM      8  C   UNL     1     -15.086  10.165 -29.726  1.00  0.00     0.039 C 
ATOM      9  C   UNL     1     -14.277  11.335 -29.223  1.00  0.00    -0.080 C 
ATOM     10  C   UNL     1     -12.866  11.490 -29.727  1.00  0.00     0.039 C 
ENDBRANCH   6   7
ENDBRANCH   5   6
ENDBRANCH   3   5
ENDBRANCH   1   2
BRANCH   1  11
ATOM     11  C   UNL     1     -15.399  13.443 -32.172  1.00  0.00     0.034 C 
BRANCH  11  12
ATOM     12  C   UNL     1     -14.081  14.112 -31.836  1.00  0.00    -0.077 C 
ATOM     13  C   UNL     1     -12.991  13.827 -32.583  1.00  0.00    -0.028 C 
ATOM     14  C   UNL     1     -14.025  15.078 -30.677  1.00  0.00     0.039 C 
BRANCH  13  15
ATOM     15  C   UNL     1     -11.607  14.385 -32.340  1.00  0.00     0.035 C 
BRANCH  15  16
ATOM     16  C   UNL     1     -10.620  13.928 -33.421  1.00  0.00     0.079 C 
BRANCH  16  17
ATOM     17  C   UNL     1     -10.535  12.426 -33.499  1.00  0.00     0.130 C 
ATOM     18  O   UNL     1     -10.876  11.856 -34.525  1.00  0.00    -0.300 OA
ATOM     19  C   UNL     1     -10.042  11.614 -32.340  1.00  0.00     0.087 C 
ENDBRANCH  16  17
ENDBRANCH  15  16
ENDBRANCH  13  15
ENDBRANCH  11  12
ENDBRANCH   1  11
TORSDOF 9
ENDMDL
MODEL 2
REMARK VINA RESULT:    -5.013     10.580     13.826
REMARK INTER + INTRA:         -10.181
REMARK INTER:                  -9.250
REMARK INTRA:                  -0.931
REMARK UNBOUND:                -2.531
REMARK SMILES CC(=O)CCC=C(C)CCC=C(C)CCC=C(C)C
REMARK SMILES IDX 10 1 11 2 12 3 13 4 14 5 15 6 16 7 18 8 17 9 19 10 9 11 7 12
REMARK SMILES IDX 6 13 8 14 5 15 4 16 2 17 3 18 1 19
REMARK H PARENT
REMARK Flexibility Score: inf
ROOT
ATOM      1  C   UNL     1     -25.384  17.685 -31.420  1.00  0.00     0.032 C 
ENDROOT
BRANCH   1   2
ATOM      2  C   UNL     1     -24.224  18.644 -31.308  1.00  0.00    -0.028 C 
ATOM      3  C   UNL     1     -23.745  19.404 -32.319  1.00  0.00    -0.077 C 
ATOM      4  C   UNL     1     -22.596  20.335 -32.032  1.00  0.00     0.039 C 
BRANCH   3   5
ATOM      5  C   UNL     1     -24.261  19.307 -33.741  1.00  0.00     0.034 C 
BRANCH   5   6
ATOM      6  C   UNL     1     -25.284  20.415 -34.019  1.00  0.00     0.032 C 
BRANCH   6   7
ATOM      7  C   UNL     1     -26.692  19.890 -33.879  1.00  0.00    -0.028 C 
ATOM      8  C   UNL     1     -27.597  22.075 -33.056  1.00  0.00     0.039 C 
ATOM      9  C   UNL     1     -27.734  20.616 -33.416  1.00  0.00    -0.080 C 
ATOM     10  C   UNL     1     -29.094  19.980 -33.291  1.00  0.00     0.039 C 
ENDBRANCH   6   7
ENDBRANCH   5   6
ENDBRANCH   3   5
ENDBRANCH   1   2
BRANCH   1  11
ATOM     11  C   UNL     1     -25.586  16.884 -30.125  1.00  0.00     0.034 C 
BRANCH  11  12
ATOM     12  C   UNL     1     -25.153  15.440 -30.282  1.00  0.00    -0.077 C 
ATOM     13  C   UNL     1     -25.951  14.460 -29.801  1.00  0.00    -0.028 C 
ATOM     14  C   UNL     1     -23.844  15.139 -30.972  1.00  0.00     0.039 C 
BRANCH  13  15
ATOM     15  C   UNL     1     -25.630  12.984 -29.849  1.00  0.00     0.035 C 
BRANCH  15  16
ATOM     16  C   UNL     1     -26.813  12.170 -30.387  1.00  0.00     0.079 C 
BRANCH  16  17
ATOM     17  C   UNL     1     -26.708  11.949 -31.874  1.00  0.00     0.130 C 
ATOM     18  O   UNL     1     -26.322  12.858 -32.592  1.00  0.00    -0.300 OA
ATOM     19  C   UNL     1     -27.072  10.632 -32.491  1.00  0.00     0.087 C 
ENDBRANCH  16  17
ENDBRANCH  15  16
ENDBRANCH  13  15
ENDBRANCH  11  12
ENDBRANCH   1  11
TORSDOF 9
ENDMDL
MODEL 3
REMARK VINA RESULT:    -4.927     10.814     14.286
REMARK INTER + INTRA:         -10.050
REMARK INTER:                  -9.128
REMARK INTRA:                  -0.922
REMARK UNBOUND:                -2.531
REMARK SMILES CC(=O)CCC=C(C)CCC=C(C)CCC=C(C)C
REMARK SMILES IDX 10 1 11 2 12 3 13 4 14 5 15 6 16 7 18 8 17 9 19 10 9 11 7 12
REMARK SMILES IDX 6 13 8 14 5 15 4 16 2 17 3 18 1 19
REMARK H PARENT
REMARK Flexibility Score: inf
ROOT
ATOM      1  C   UNL     1     -25.389  17.765 -31.435  1.00  0.00     0.032 C 
ENDROOT
BRANCH   1   2
ATOM      2  C   UNL     1     -24.214  18.708 -31.334  1.00  0.00    -0.028 C 
ATOM      3  C   UNL     1     -23.722  19.446 -32.356  1.00  0.00    -0.077 C 
ATOM      4  C   UNL     1     -22.560  20.363 -32.080  1.00  0.00     0.039 C 
BRANCH   3   5
ATOM      5  C   UNL     1     -24.240  19.338 -33.777  1.00  0.00     0.034 C 
BRANCH   5   6
ATOM      6  C   UNL     1     -25.283  20.428 -34.054  1.00  0.00     0.032 C 
BRANCH   6   7
ATOM      7  C   UNL     1     -26.680  19.879 -33.907  1.00  0.00    -0.028 C 
ATOM      8  C   UNL     1     -27.629  22.063 -33.132  1.00  0.00     0.039 C 
ATOM      9  C   UNL     1     -27.737  20.595 -33.462  1.00  0.00    -0.080 C 
ATOM     10  C   UNL     1     -29.085  19.936 -33.328  1.00  0.00     0.039 C 
ENDBRANCH   6   7
ENDBRANCH   5   6
ENDBRANCH   3   5
ENDBRANCH   1   2
BRANCH   1  11
ATOM     11  C   UNL     1     -25.577  16.953 -30.144  1.00  0.00     0.034 C 
BRANCH  11  12
ATOM     12  C   UNL     1     -25.194  15.499 -30.332  1.00  0.00    -0.077 C 
ATOM     13  C   UNL     1     -26.029  14.536 -29.879  1.00  0.00    -0.028 C 
ATOM     14  C   UNL     1     -23.892  15.167 -31.020  1.00  0.00     0.039 C 
BRANCH  13  15
ATOM     15  C   UNL     1     -25.760  13.051 -29.960  1.00  0.00     0.035 C 
BRANCH  15  16
ATOM     16  C   UNL     1     -26.683  12.262 -29.024  1.00  0.00     0.079 C 
BRANCH  16  17
ATOM     17  C   UNL     1     -28.109  12.267 -29.512  1.00  0.00     0.130 C 
ATOM     18  O   UNL     1     -28.336  12.162 -30.708  1.00  0.00    -0.300 OA
ATOM     19  C   UNL     1     -29.257  12.401 -28.557  1.00  0.00     0.087 C 
ENDBRANCH  16  17
ENDBRANCH  15  16
ENDBRANCH  13  15
ENDBRANCH  11  12
ENDBRANCH   1  11
TORSDOF 9
ENDMDL
MODEL 4
REMARK VINA RESULT:    -4.751     10.180     12.389
REMARK INTER + INTRA:          -9.781
REMARK INTER:                  -8.173
REMARK INTRA:                  -1.607
REMARK UNBOUND:                -2.531
REMARK SMILES CC(=O)CCC=C(C)CCC=C(C)CCC=C(C)C
REMARK SMILES IDX 10 1 11 2 12 3 13 4 14 5 15 6 16 7 18 8 17 9 19 10 9 11 7 12
REMARK SMILES IDX 6 13 8 14 5 15 4 16 2 17 3 18 1 19
REMARK H PARENT
REMARK Flexibility Score: inf
ROOT
ATOM      1  C   UNL     1     -26.269  13.605 -29.301  1.00  0.00     0.032 C 
ENDROOT
BRANCH   1   2
ATOM      2  C   UNL     1     -27.497  12.871 -29.785  1.00  0.00    -0.028 C 
ATOM      3  C   UNL     1     -28.270  12.066 -29.021  1.00  0.00    -0.077 C 
ATOM      4  C   UNL     1     -29.481  11.430 -29.652  1.00  0.00     0.039 C 
BRANCH   3   5
ATOM      5  C   UNL     1     -27.933  11.717 -27.584  1.00  0.00     0.034 C 
BRANCH   5   6
ATOM      6  C   UNL     1     -27.391  10.286 -27.491  1.00  0.00     0.032 C 
BRANCH   6   7
ATOM      7  C   UNL     1     -25.933  10.291 -27.104  1.00  0.00    -0.028 C 
ATOM      8  C   UNL     1     -25.144   9.876 -29.444  1.00  0.00     0.039 C 
ATOM      9  C   UNL     1     -24.915  10.076 -27.966  1.00  0.00    -0.080 C 
ATOM     10  C   UNL     1     -23.494  10.075 -27.464  1.00  0.00     0.039 C 
ENDBRANCH   6   7
ENDBRANCH   5   6
ENDBRANCH   3   5
ENDBRANCH   1   2
BRANCH   1  11
ATOM     11  C   UNL     1     -25.175  13.651 -30.378  1.00  0.00     0.034 C 
BRANCH  11  12
ATOM     12  C   UNL     1     -24.750  15.072 -30.689  1.00  0.00    -0.077 C 
ATOM     13  C   UNL     1     -25.620  16.083 -30.460  1.00  0.00    -0.028 C 
ATOM     14  C   UNL     1     -23.368  15.318 -31.246  1.00  0.00     0.039 C 
BRANCH  13  15
ATOM     15  C   UNL     1     -25.349  17.539 -30.760  1.00  0.00     0.035 C 
BRANCH  15  16
ATOM     16  C   UNL     1     -26.373  18.107 -31.750  1.00  0.00     0.079 C 
BRANCH  16  17
ATOM     17  C   UNL     1     -25.722  18.994 -32.779  1.00  0.00     0.130 C 
ATOM     18  O   UNL     1     -26.407  19.516 -33.645  1.00  0.00    -0.300 OA
ATOM     19  C   UNL     1     -24.244  19.246 -32.764  1.00  0.00     0.087 C 
ENDBRANCH  16  17
ENDBRANCH  15  16
ENDBRANCH  13  15
ENDBRANCH  11  12
ENDBRANCH   1  11
TORSDOF 9
ENDMDL
MODEL 5
REMARK VINA RESULT:    -4.599      3.134      5.094
REMARK INTER + INTRA:          -9.550
REMARK INTER:                  -7.471
REMARK INTRA:                  -2.079
REMARK UNBOUND:                -2.531
REMARK SMILES CC(=O)CCC=C(C)CCC=C(C)CCC=C(C)C
REMARK SMILES IDX 10 1 11 2 12 3 13 4 14 5 15 6 16 7 18 8 17 9 19 10 9 11 7 12
REMARK SMILES IDX 6 13 8 14 5 15 4 16 2 17 3 18 1 19
REMARK H PARENT
REMARK Flexibility Score: inf
ROOT
ATOM      1  C   UNL     1     -15.349  10.433 -28.816  1.00  0.00     0.032 C 
ENDROOT
BRANCH   1   2
ATOM      2  C   UNL     1     -16.785  10.694 -29.205  1.00  0.00    -0.028 C 
ATOM      3  C   UNL     1     -17.455  11.845 -28.970  1.00  0.00    -0.077 C 
ATOM      4  C   UNL     1     -18.878  11.955 -29.450  1.00  0.00     0.039 C 
BRANCH   3   5
ATOM      5  C   UNL     1     -16.863  13.000 -28.185  1.00  0.00     0.034 C 
BRANCH   5   6
ATOM      6  C   UNL     1     -16.819  14.269 -29.044  1.00  0.00     0.032 C 
BRANCH   6   7
ATOM      7  C   UNL     1     -15.528  14.344 -29.820  1.00  0.00    -0.028 C 
ATOM      8  C   UNL     1     -16.629  13.824 -32.010  1.00  0.00     0.039 C 
ATOM      9  C   UNL     1     -15.424  14.114 -31.149  1.00  0.00    -0.080 C 
ATOM     10  C   UNL     1     -14.076  14.188 -31.818  1.00  0.00     0.039 C 
ENDBRANCH   6   7
ENDBRANCH   5   6
ENDBRANCH   3   5
ENDBRANCH   1   2
BRANCH   1  11
ATOM     11  C   UNL     1     -14.386  10.732 -29.974  1.00  0.00     0.034 C 
BRANCH  11  12
ATOM     12  C   UNL     1     -12.969  10.956 -29.484  1.00  0.00    -0.077 C 
ATOM     13  C   UNL     1     -12.694  10.785 -28.171  1.00  0.00    -0.028 C 
ATOM     14  C   UNL     1     -11.906  11.363 -30.477  1.00  0.00     0.039 C 
BRANCH  13  15
ATOM     15  C   UNL     1     -11.341  11.013 -27.536  1.00  0.00     0.035 C 
BRANCH  15  16
ATOM     16  C   UNL     1     -11.349  10.636 -26.049  1.00  0.00     0.079 C 
BRANCH  16  17
ATOM     17  C   UNL     1     -11.104  11.834 -25.169  1.00  0.00     0.130 C 
ATOM     18  O   UNL     1     -11.325  12.955 -25.601  1.00  0.00    -0.300 OA
ATOM     19  C   UNL     1     -10.590  11.677 -23.769  1.00  0.00     0.087 C 
ENDBRANCH  16  17
ENDBRANCH  15  16
ENDBRANCH  13  15
ENDBRANCH  11  12
ENDBRANCH   1  11
TORSDOF 9
ENDMDL
MODEL 6
REMARK VINA RESULT:    -4.588      9.958     12.191
REMARK INTER + INTRA:          -9.532
REMARK INTER:                  -8.030
REMARK INTRA:                  -1.502
REMARK UNBOUND:                -2.531
REMARK SMILES CC(=O)CCC=C(C)CCC=C(C)CCC=C(C)C
REMARK SMILES IDX 10 1 11 2 12 3 13 4 14 5 15 6 16 7 18 8 17 9 19 10 9 11 7 12
REMARK SMILES IDX 6 13 8 14 5 15 4 16 2 17 3 18 1 19
REMARK H PARENT
REMARK Flexibility Score: inf
ROOT
ATOM      1  C   UNL     1     -25.333  13.278 -29.226  1.00  0.00     0.032 C 
ENDROOT
BRANCH   1   2
ATOM      2  C   UNL     1     -24.460  12.101 -29.590  1.00  0.00    -0.028 C 
ATOM      3  C   UNL     1     -24.329  10.975 -28.853  1.00  0.00    -0.077 C 
ATOM      4  C   UNL     1     -23.437   9.879 -29.375  1.00  0.00     0.039 C 
BRANCH   3   5
ATOM      5  C   UNL     1     -24.980  10.795 -27.496  1.00  0.00     0.034 C 
BRANCH   5   6
ATOM      6  C   UNL     1     -26.274   9.983 -27.622  1.00  0.00     0.032 C 
BRANCH   6   7
ATOM      7  C   UNL     1     -27.479  10.891 -27.591  1.00  0.00    -0.028 C 
ATOM      8  C   UNL     1     -27.921  10.652 -30.045  1.00  0.00     0.039 C 
ATOM      9  C   UNL     1     -28.209  11.225 -28.679  1.00  0.00    -0.080 C 
ATOM     10  C   UNL     1     -29.378  12.165 -28.537  1.00  0.00     0.039 C 
ENDBRANCH   6   7
ENDBRANCH   5   6
ENDBRANCH   3   5
ENDBRANCH   1   2
BRANCH   1  11
ATOM     11  C   UNL     1     -25.799  14.046 -30.472  1.00  0.00     0.034 C 
BRANCH  11  12
ATOM     12  C   UNL     1     -25.004  15.321 -30.677  1.00  0.00    -0.077 C 
ATOM     13  C   UNL     1     -25.620  16.513 -30.506  1.00  0.00    -0.028 C 
ATOM     14  C   UNL     1     -23.549  15.222 -31.066  1.00  0.00     0.039 C 
BRANCH  13  15
ATOM     15  C   UNL     1     -24.967  17.860 -30.717  1.00  0.00     0.035 C 
BRANCH  15  16
ATOM     16  C   UNL     1     -25.397  18.489 -32.047  1.00  0.00     0.079 C 
BRANCH  16  17
ATOM     17  C   UNL     1     -24.239  19.143 -32.755  1.00  0.00     0.130 C 
ATOM     18  O   UNL     1     -23.096  18.831 -32.457  1.00  0.00    -0.300 OA
ATOM     19  C   UNL     1     -24.461  20.176 -33.819  1.00  0.00     0.087 C 
ENDBRANCH  16  17
ENDBRANCH  15  16
ENDBRANCH  13  15
ENDBRANCH  11  12
ENDBRANCH   1  11
TORSDOF 9
ENDMDL
MODEL 7
REMARK VINA RESULT:    -4.481      1.297      2.550
REMARK INTER + INTRA:          -9.370
REMARK INTER:                  -7.316
REMARK INTRA:                  -2.054
REMARK UNBOUND:                -2.531
REMARK SMILES CC(=O)CCC=C(C)CCC=C(C)CCC=C(C)C
REMARK SMILES IDX 10 1 11 2 12 3 13 4 14 5 15 6 16 7 18 8 17 9 19 10 9 11 7 12
REMARK SMILES IDX 6 13 8 14 5 15 4 16 2 17 3 18 1 19
REMARK H PARENT
REMARK Flexibility Score: inf
ROOT
ATOM      1  C   UNL     1     -17.468  12.860 -29.880  1.00  0.00     0.032 C 
ENDROOT
BRANCH   1   2
ATOM      2  C   UNL     1     -17.360  12.043 -28.614  1.00  0.00    -0.028 C 
ATOM      3  C   UNL     1     -16.706  10.863 -28.506  1.00  0.00    -0.077 C 
ATOM      4  C   UNL     1     -16.668  10.189 -27.160  1.00  0.00     0.039 C 
BRANCH   3   5
ATOM      5  C   UNL     1     -16.076  10.156 -29.690  1.00  0.00     0.034 C 
BRANCH   5   6
ATOM      6  C   UNL     1     -14.777  10.855 -30.105  1.00  0.00     0.032 C 
BRANCH   6   7
ATOM      7  C   UNL     1     -13.628  10.410 -29.234  1.00  0.00    -0.028 C 
ATOM      8  C   UNL     1     -13.601  12.534 -27.908  1.00  0.00     0.039 C 
ATOM      9  C   UNL     1     -13.069  11.168 -28.264  1.00  0.00    -0.080 C 
ATOM     10  C   UNL     1     -11.905  10.632 -27.472  1.00  0.00     0.039 C 
ENDBRANCH   6   7
ENDBRANCH   5   6
ENDBRANCH   3   5
ENDBRANCH   1   2
BRANCH   1  11
ATOM     11  C   UNL     1     -16.589  14.118 -29.819  1.00  0.00     0.034 C 
BRANCH  11  12
ATOM     12  C   UNL     1     -15.589  14.163 -30.958  1.00  0.00    -0.077 C 
ATOM     13  C   UNL     1     -14.372  14.710 -30.742  1.00  0.00    -0.028 C 
ATOM     14  C   UNL     1     -15.984  13.595 -32.301  1.00  0.00     0.039 C 
BRANCH  13  15
ATOM     15  C   UNL     1     -13.294  14.860 -31.791  1.00  0.00     0.035 C 
BRANCH  15  16
ATOM     16  C   UNL     1     -12.484  13.567 -31.951  1.00  0.00     0.079 C 
BRANCH  16  17
ATOM     17  C   UNL     1     -11.519  13.653 -33.105  1.00  0.00     0.130 C 
ATOM     18  O   UNL     1     -11.579  12.826 -34.003  1.00  0.00    -0.300 OA
ATOM     19  C   UNL     1     -10.483  14.734 -33.173  1.00  0.00     0.087 C 
ENDBRANCH  16  17
ENDBRANCH  15  16
ENDBRANCH  13  15
ENDBRANCH  11  12
ENDBRANCH   1  11
TORSDOF 9
ENDMDL
MODEL 8
REMARK VINA RESULT:    -4.445      1.084      3.042
REMARK INTER + INTRA:          -9.314
REMARK INTER:                  -7.351
REMARK INTRA:                  -1.964
REMARK UNBOUND:                -2.531
REMARK SMILES CC(=O)CCC=C(C)CCC=C(C)CCC=C(C)C
REMARK SMILES IDX 10 1 11 2 12 3 13 4 14 5 15 6 16 7 18 8 17 9 19 10 9 11 7 12
REMARK SMILES IDX 6 13 8 14 5 15 4 16 2 17 3 18 1 19
REMARK H PARENT
REMARK Flexibility Score: inf
ROOT
ATOM      1  C   UNL     1     -14.292  11.828 -30.634  1.00  0.00     0.032 C 
ENDROOT
BRANCH   1   2
ATOM      2  C   UNL     1     -13.688  12.233 -29.310  1.00  0.00    -0.028 C 
ATOM      3  C   UNL     1     -13.943  11.633 -28.125  1.00  0.00    -0.077 C 
ATOM      4  C   UNL     1     -13.233  12.142 -26.899  1.00  0.00     0.039 C 
BRANCH   3   5
ATOM      5  C   UNL     1     -14.963  10.523 -27.964  1.00  0.00     0.034 C 
BRANCH   5   6
ATOM      6  C   UNL     1     -16.276  11.076 -27.397  1.00  0.00     0.032 C 
BRANCH   6   7
ATOM      7  C   UNL     1     -17.283  11.296 -28.498  1.00  0.00    -0.028 C 
ATOM      8  C   UNL     1     -16.981  13.782 -28.497  1.00  0.00     0.039 C 
ATOM      9  C   UNL     1     -17.634  12.510 -28.980  1.00  0.00    -0.080 C 
ATOM     10  C   UNL     1     -18.674  12.614 -30.064  1.00  0.00     0.039 C 
ENDBRANCH   6   7
ENDBRANCH   5   6
ENDBRANCH   3   5
ENDBRANCH   1   2
BRANCH   1  11
ATOM     11  C   UNL     1     -14.865  13.036 -31.390  1.00  0.00     0.034 C 
BRANCH  11  12
ATOM     12  C   UNL     1     -13.801  14.078 -31.675  1.00  0.00    -0.077 C 
ATOM     13  C   UNL     1     -12.752  13.746 -32.461  1.00  0.00    -0.028 C 
ATOM     14  C   UNL     1     -13.946  15.455 -31.073  1.00  0.00     0.039 C 
BRANCH  13  15
ATOM     15  C   UNL     1     -11.600  14.666 -32.796  1.00  0.00     0.035 C 
BRANCH  15  16
ATOM     16  C   UNL     1     -10.251  14.021 -32.456  1.00  0.00     0.079 C 
BRANCH  16  17
ATOM     17  C   UNL     1     -10.157  12.613 -32.983  1.00  0.00     0.130 C 
ATOM     18  O   UNL     1      -9.973  12.427 -34.176  1.00  0.00    -0.300 OA
ATOM     19  C   UNL     1     -10.288  11.431 -32.069  1.00  0.00     0.087 C 
ENDBRANCH  16  17
ENDBRANCH  15  16
ENDBRANCH  13  15
ENDBRANCH  11  12
ENDBRANCH   1  11
TORSDOF 9
ENDMDL
MODEL 9
REMARK VINA RESULT:    -4.393      1.339      2.005
REMARK INTER + INTRA:          -9.236
REMARK INTER:                  -6.948
REMARK INTRA:                  -2.288
REMARK UNBOUND:                -2.531
REMARK SMILES CC(=O)CCC=C(C)CCC=C(C)CCC=C(C)C
REMARK SMILES IDX 10 1 11 2 12 3 13 4 14 5 15 6 16 7 18 8 17 9 19 10 9 11 7 12
REMARK SMILES IDX 6 13 8 14 5 15 4 16 2 17 3 18 1 19
REMARK H PARENT
REMARK Flexibility Score: inf
ROOT
ATOM      1  C   UNL     1     -16.953  13.380 -31.141  1.00  0.00     0.032 C 
ENDROOT
BRANCH   1   2
ATOM      2  C   UNL     1     -18.259  12.966 -30.507  1.00  0.00    -0.028 C 
ATOM      3  C   UNL     1     -18.508  11.750 -29.969  1.00  0.00    -0.077 C 
ATOM      4  C   UNL     1     -19.858  11.507 -29.346  1.00  0.00     0.039 C 
BRANCH   3   5
ATOM      5  C   UNL     1     -17.520  10.601 -30.030  1.00  0.00     0.034 C 
BRANCH   5   6
ATOM      6  C   UNL     1     -17.023  10.244 -28.624  1.00  0.00     0.032 C 
BRANCH   6   7
ATOM      7  C   UNL     1     -15.626  10.769 -28.402  1.00  0.00    -0.028 C 
ATOM      8  C   UNL     1     -16.395  12.660 -26.951  1.00  0.00     0.039 C 
ATOM      9  C   UNL     1     -15.333  11.873 -27.679  1.00  0.00    -0.080 C 
ATOM     10  C   UNL     1     -13.901  12.324 -27.547  1.00  0.00     0.039 C 
ENDBRANCH   6   7
ENDBRANCH   5   6
ENDBRANCH   3   5
ENDBRANCH   1   2
BRANCH   1  11
ATOM     11  C   UNL     1     -16.166  14.346 -30.242  1.00  0.00     0.034 C 
BRANCH  11  12
ATOM     12  C   UNL     1     -14.703  14.415 -30.633  1.00  0.00    -0.077 C 
ATOM     13  C   UNL     1     -14.096  13.301 -31.103  1.00  0.00    -0.028 C 
ATOM     14  C   UNL     1     -13.967  15.724 -30.485  1.00  0.00     0.039 C 
BRANCH  13  15
ATOM     15  C   UNL     1     -12.638  13.211 -31.491  1.00  0.00     0.035 C 
BRANCH  15  16
ATOM     16  C   UNL     1     -12.423  13.606 -32.958  1.00  0.00     0.079 C 
BRANCH  16  17
ATOM     17  C   UNL     1     -10.965  13.574 -33.335  1.00  0.00     0.130 C 
ATOM     18  O   UNL     1     -10.569  12.750 -34.145  1.00  0.00    -0.300 OA
ATOM     19  C   UNL     1      -9.985  14.536 -32.733  1.00  0.00     0.087 C 
ENDBRANCH  16  17
ENDBRANCH  15  16
ENDBRANCH  13  15
ENDBRANCH  11  12
ENDBRANCH   1  11
TORSDOF 9
ENDMDL
