MODEL 1
REMARK VINA RESULT:    -2.273      0.000      0.000
REMARK INTER + INTRA:          -2.961
REMARK INTER:                  -2.738
REMARK INTRA:                  -0.223
REMARK UNBOUND:                -0.223
REMARK SMILES OCC(O)CO
REMARK SMILES IDX 3 1 5 2 6 3 2 5 1 6 4 8
REMARK H PARENT 6 4 1 7 4 9
REMARK Flexibility Score: inf
ROOT
ATOM      1  C   UNL     1      19.991  12.710  28.229  1.00  0.00     0.165 C 
ENDROOT
BRANCH   1   2
ATOM      2  C   UNL     1      20.775  11.693  29.072  1.00  0.00     0.190 C 
BRANCH   2   3
ATOM      3  O   UNL     1      21.667  10.977  28.262  1.00  0.00    -0.394 OA
ATOM      4  H   UNL     1      21.164  10.744  27.439  1.00  0.00     0.210 HD
ENDBRANCH   2   3
ENDBRANCH   1   2
BRANCH   1   5
ATOM      5  C   UNL     1      20.561  12.837  26.809  1.00  0.00     0.190 C 
BRANCH   5   6
ATOM      6  O   UNL     1      20.066  11.814  25.990  1.00  0.00    -0.394 OA
ATOM      7  H   UNL     1      19.309  12.208  25.484  1.00  0.00     0.210 HD
ENDBRANCH   5   6
ENDBRANCH   1   5
BRANCH   1   8
ATOM      8  O   UNL     1      18.643  12.326  28.149  1.00  0.00    -0.388 OA
ATOM      9  H   UNL     1      18.428  11.854  28.997  1.00  0.00     0.211 HD
ENDBRANCH   1   8
TORSDOF 5
ENDMDL
MODEL 2
REMARK VINA RESULT:    -2.259     11.772     12.912
REMARK INTER + INTRA:          -2.945
REMARK INTER:                  -2.940
REMARK INTRA:                  -0.005
REMARK UNBOUND:                -0.223
REMARK SMILES OCC(O)CO
REMARK SMILES IDX 3 1 5 2 6 3 2 5 1 6 4 8
REMARK H PARENT 6 4 1 7 4 9
REMARK Flexibility Score: inf
ROOT
ATOM      1  C   UNL     1      24.916   1.910  34.324  1.00  0.00     0.165 C 
ENDROOT
BRANCH   1   2
ATOM      2  C   UNL     1      24.920   0.448  34.794  1.00  0.00     0.190 C 
BRANCH   2   3
ATOM      3  O   UNL     1      23.624   0.049  35.147  1.00  0.00    -0.394 OA
ATOM      4  H   UNL     1      23.607  -0.939  35.060  1.00  0.00     0.210 HD
ENDBRANCH   2   3
ENDBRANCH   1   2
BRANCH   1   5
ATOM      5  C   UNL     1      25.297   2.036  32.842  1.00  0.00     0.190 C 
BRANCH   5   6
ATOM      6  O   UNL     1      24.373   2.845  32.167  1.00  0.00    -0.394 OA
ATOM      7  H   UNL     1      24.172   3.601  32.777  1.00  0.00     0.210 HD
ENDBRANCH   5   6
ENDBRANCH   1   5
BRANCH   1   8
ATOM      8  O   UNL     1      23.644   2.471  34.520  1.00  0.00    -0.388 OA
ATOM      9  H   UNL     1      23.782   3.435  34.715  1.00  0.00     0.211 HD
ENDBRANCH   1   8
TORSDOF 5
ENDMDL
MODEL 3
REMARK VINA RESULT:    -2.125      1.150      2.120
REMARK INTER + INTRA:          -2.782
REMARK INTER:                  -2.559
REMARK INTRA:                  -0.223
REMARK UNBOUND:                -0.223
REMARK SMILES OCC(O)CO
REMARK SMILES IDX 3 1 5 2 6 3 2 5 1 6 4 8
REMARK H PARENT 6 4 1 7 4 9
REMARK Flexibility Score: inf
ROOT
ATOM      1  C   UNL     1      21.111  12.138  28.504  1.00  0.00     0.165 C 
ENDROOT
BRANCH   1   2
ATOM      2  C   UNL     1      21.795  12.378  27.150  1.00  0.00     0.190 C 
BRANCH   2   3
ATOM      3  O   UNL     1      21.709  11.228  26.354  1.00  0.00    -0.394 OA
ATOM      4  H   UNL     1      20.746  11.104  26.153  1.00  0.00     0.210 HD
ENDBRANCH   2   3
ENDBRANCH   1   2
BRANCH   1   5
ATOM      5  C   UNL     1      19.598  12.382  28.434  1.00  0.00     0.190 C 
BRANCH   5   6
ATOM      6  O   UNL     1      19.177  12.466  27.100  1.00  0.00    -0.394 OA
ATOM      7  H   UNL     1      19.873  12.991  26.625  1.00  0.00     0.210 HD
ENDBRANCH   5   6
ENDBRANCH   1   5
BRANCH   1   8
ATOM      8  O   UNL     1      21.344  10.820  28.929  1.00  0.00    -0.388 OA
ATOM      9  H   UNL     1      20.580  10.567  29.512  1.00  0.00     0.211 HD
ENDBRANCH   1   8
TORSDOF 5
ENDMDL
MODEL 4
REMARK VINA RESULT:    -2.111      9.590     10.583
REMARK INTER + INTRA:          -2.766
REMARK INTER:                  -2.542
REMARK INTRA:                  -0.224
REMARK UNBOUND:                -0.223
REMARK SMILES OCC(O)CO
REMARK SMILES IDX 3 1 5 2 6 3 2 5 1 6 4 8
REMARK H PARENT 6 4 1 7 4 9
REMARK Flexibility Score: inf
ROOT
ATOM      1  C   UNL     1      19.069   8.533  38.165  1.00  0.00     0.165 C 
ENDROOT
BRANCH   1   2
ATOM      2  C   UNL     1      19.263   7.829  36.813  1.00  0.00     0.190 C 
BRANCH   2   3
ATOM      3  O   UNL     1      18.833   8.659  35.769  1.00  0.00    -0.394 OA
ATOM      4  H   UNL     1      17.924   8.968  36.020  1.00  0.00     0.210 HD
ENDBRANCH   2   3
ENDBRANCH   1   2
BRANCH   1   5
ATOM      5  C   UNL     1      19.233  10.054  38.048  1.00  0.00     0.190 C 
BRANCH   5   6
ATOM      6  O   UNL     1      18.002  10.659  37.761  1.00  0.00    -0.394 OA
ATOM      7  H   UNL     1      17.661  10.212  36.943  1.00  0.00     0.210 HD
ENDBRANCH   5   6
ENDBRANCH   1   5
BRANCH   1   8
ATOM      8  O   UNL     1      17.791   8.248  38.672  1.00  0.00    -0.388 OA
ATOM      9  H   UNL     1      17.357   7.629  38.026  1.00  0.00     0.211 HD
ENDBRANCH   1   8
TORSDOF 5
ENDMDL
MODEL 5
REMARK VINA RESULT:    -2.106     11.122     12.125
REMARK INTER + INTRA:          -2.759
REMARK INTER:                  -2.541
REMARK INTRA:                  -0.218
REMARK UNBOUND:                -0.223
REMARK SMILES OCC(O)CO
REMARK SMILES IDX 3 1 5 2 6 3 2 5 1 6 4 8
REMARK H PARENT 6 4 1 7 4 9
REMARK Flexibility Score: inf
ROOT
ATOM      1  C   UNL     1      24.925   2.914  33.480  1.00  0.00     0.165 C 
ENDROOT
BRANCH   1   2
ATOM      2  C   UNL     1      24.188   3.799  34.496  1.00  0.00     0.190 C 
BRANCH   2   3
ATOM      3  O   UNL     1      22.822   3.853  34.189  1.00  0.00    -0.394 OA
ATOM      4  H   UNL     1      22.756   4.302  33.306  1.00  0.00     0.210 HD
ENDBRANCH   2   3
ENDBRANCH   1   2
BRANCH   1   5
ATOM      5  C   UNL     1      25.056   1.466  33.970  1.00  0.00     0.190 C 
BRANCH   5   6
ATOM      6  O   UNL     1      23.941   1.107  34.740  1.00  0.00    -0.394 OA
ATOM      7  H   UNL     1      23.682   0.197  34.441  1.00  0.00     0.210 HD
ENDBRANCH   5   6
ENDBRANCH   1   5
BRANCH   1   8
ATOM      8  O   UNL     1      24.241   2.923  32.253  1.00  0.00    -0.388 OA
ATOM      9  H   UNL     1      24.926   2.821  31.541  1.00  0.00     0.211 HD
ENDBRANCH   1   8
TORSDOF 5
ENDMDL
MODEL 6
REMARK VINA RESULT:    -2.103      1.115      2.864
REMARK INTER + INTRA:          -2.756
REMARK INTER:                  -2.544
REMARK INTRA:                  -0.212
REMARK UNBOUND:                -0.223
REMARK SMILES OCC(O)CO
REMARK SMILES IDX 3 1 5 2 6 3 2 5 1 6 4 8
REMARK H PARENT 6 4 1 7 4 9
REMARK Flexibility Score: inf
ROOT
ATOM      1  C   UNL     1      21.290  12.332  27.339  1.00  0.00     0.165 C 
ENDROOT
BRANCH   1   2
ATOM      2  C   UNL     1      19.843  12.688  26.962  1.00  0.00     0.190 C 
BRANCH   2   3
ATOM      3  O   UNL     1      18.981  12.399  28.028  1.00  0.00    -0.394 OA
ATOM      4  H   UNL     1      18.900  11.411  28.057  1.00  0.00     0.210 HD
ENDBRANCH   2   3
ENDBRANCH   1   2
BRANCH   1   5
ATOM      5  C   UNL     1      21.447  12.094  28.847  1.00  0.00     0.190 C 
BRANCH   5   6
ATOM      6  O   UNL     1      21.287  10.735  29.147  1.00  0.00    -0.394 OA
ATOM      7  H   UNL     1      22.152  10.434  29.529  1.00  0.00     0.210 HD
ENDBRANCH   5   6
ENDBRANCH   1   5
BRANCH   1   8
ATOM      8  O   UNL     1      21.693  11.178  26.648  1.00  0.00    -0.388 OA
ATOM      9  H   UNL     1      21.896  11.457  25.716  1.00  0.00     0.211 HD
ENDBRANCH   1   8
TORSDOF 5
ENDMDL
MODEL 7
REMARK VINA RESULT:    -2.101     11.671     13.109
REMARK INTER + INTRA:          -2.754
REMARK INTER:                  -2.751
REMARK INTRA:                  -0.003
REMARK UNBOUND:                -0.223
REMARK SMILES OCC(O)CO
REMARK SMILES IDX 3 1 5 2 6 3 2 5 1 6 4 8
REMARK H PARENT 6 4 1 7 4 9
REMARK Flexibility Score: inf
ROOT
ATOM      1  C   UNL     1      24.357   1.984  34.381  1.00  0.00     0.165 C 
ENDROOT
BRANCH   1   2
ATOM      2  C   UNL     1      25.113   2.235  33.068  1.00  0.00     0.190 C 
BRANCH   2   3
ATOM      3  O   UNL     1      24.290   2.911  32.157  1.00  0.00    -0.394 OA
ATOM      4  H   UNL     1      23.374   2.558  32.300  1.00  0.00     0.210 HD
ENDBRANCH   2   3
ENDBRANCH   1   2
BRANCH   1   5
ATOM      5  C   UNL     1      24.755   0.648  35.024  1.00  0.00     0.190 C 
BRANCH   5   6
ATOM      6  O   UNL     1      23.626  -0.163  35.203  1.00  0.00    -0.394 OA
ATOM      7  H   UNL     1      23.383  -0.087  36.162  1.00  0.00     0.210 HD
ENDBRANCH   5   6
ENDBRANCH   1   5
BRANCH   1   8
ATOM      8  O   UNL     1      24.616   3.024  35.288  1.00  0.00    -0.388 OA
ATOM      9  H   UNL     1      24.826   3.831  34.747  1.00  0.00     0.211 HD
ENDBRANCH   1   8
TORSDOF 5
ENDMDL
MODEL 8
REMARK VINA RESULT:    -2.047     11.038     11.833
REMARK INTER + INTRA:          -2.689
REMARK INTER:                  -2.465
REMARK INTRA:                  -0.224
REMARK UNBOUND:                -0.223
REMARK SMILES OCC(O)CO
REMARK SMILES IDX 3 1 5 2 6 3 2 5 1 6 4 8
REMARK H PARENT 6 4 1 7 4 9
REMARK Flexibility Score: inf
ROOT
ATOM      1  C   UNL     1      24.446   2.755  34.654  1.00  0.00     0.165 C 
ENDROOT
BRANCH   1   2
ATOM      2  C   UNL     1      24.946   3.370  33.339  1.00  0.00     0.190 C 
BRANCH   2   3
ATOM      3  O   UNL     1      24.253   2.819  32.253  1.00  0.00    -0.394 OA
ATOM      4  H   UNL     1      24.546   1.873  32.191  1.00  0.00     0.210 HD
ENDBRANCH   2   3
ENDBRANCH   1   2
BRANCH   1   5
ATOM      5  C   UNL     1      23.270   3.545  35.245  1.00  0.00     0.190 C 
BRANCH   5   6
ATOM      6  O   UNL     1      22.474   4.077  34.222  1.00  0.00    -0.394 OA
ATOM      7  H   UNL     1      22.539   3.440  33.464  1.00  0.00     0.210 HD
ENDBRANCH   5   6
ENDBRANCH   1   5
BRANCH   1   8
ATOM      8  O   UNL     1      24.044   1.427  34.438  1.00  0.00    -0.388 OA
ATOM      9  H   UNL     1      24.277   1.206  33.498  1.00  0.00     0.211 HD
ENDBRANCH   1   8
TORSDOF 5
ENDMDL
MODEL 9
REMARK VINA RESULT:    -2.010     10.440     11.245
REMARK INTER + INTRA:          -2.645
REMARK INTER:                  -2.421
REMARK INTRA:                  -0.223
REMARK UNBOUND:                -0.223
REMARK SMILES OCC(O)CO
REMARK SMILES IDX 3 1 5 2 6 3 2 5 1 6 4 8
REMARK H PARENT 6 4 1 7 4 9
REMARK Flexibility Score: inf
ROOT
ATOM      1  C   UNL     1      19.093  10.592  37.884  1.00  0.00     0.165 C 
ENDROOT
BRANCH   1   2
ATOM      2  C   UNL     1      19.739  10.663  39.276  1.00  0.00     0.190 C 
BRANCH   2   3
ATOM      3  O   UNL     1      18.770  10.959  40.244  1.00  0.00    -0.394 OA
ATOM      4  H   UNL     1      18.295  11.767  39.920  1.00  0.00     0.210 HD
ENDBRANCH   2   3
ENDBRANCH   1   2
BRANCH   1   5
ATOM      5  C   UNL     1      18.614   9.174  37.545  1.00  0.00     0.190 C 
BRANCH   5   6
ATOM      6  O   UNL     1      17.948   8.608  38.641  1.00  0.00    -0.394 OA
ATOM      7  H   UNL     1      17.275   9.277  38.930  1.00  0.00     0.210 HD
ENDBRANCH   5   6
ENDBRANCH   1   5
BRANCH   1   8
ATOM      8  O   UNL     1      18.001  11.473  37.819  1.00  0.00    -0.388 OA
ATOM      9  H   UNL     1      18.361  12.358  37.547  1.00  0.00     0.211 HD
ENDBRANCH   1   8
TORSDOF 5
ENDMDL
