MODEL 1
REMARK VINA RESULT:    -4.429      0.000      0.000
REMARK INTER + INTRA:          -4.558
REMARK INTER:                  -4.558
REMARK INTRA:                   0.000
REMARK UNBOUND:                 0.000
REMARK SMILES Oc1ccc2[nH]ccc2c1
REMARK SMILES IDX 3 1 4 2 5 3 9 4 8 5 7 6 6 7 10 8 2 9 1 11
REMARK H PARENT 6 10 1 12
REMARK Flexibility Score: inf
ROOT
ATOM      1  C   UNL     1      32.850  20.468  31.157  1.00  0.00     0.048 A 
ATOM      2  C   UNL     1      32.692  21.527  32.070  1.00  0.00     0.030 A 
ATOM      3  C   UNL     1      32.246  22.751  31.576  1.00  0.00     0.046 A 
ATOM      4  C   UNL     1      31.967  22.933  30.247  1.00  0.00     0.003 A 
ATOM      5  C   UNL     1      31.555  24.237  30.087  1.00  0.00     0.028 A 
ATOM      6  C   UNL     1      31.607  24.793  31.362  1.00  0.00     0.083 A 
ATOM      7  N   UNL     1      32.030  23.882  32.268  1.00  0.00    -0.361 N 
ATOM      8  C   UNL     1      32.113  21.905  29.318  1.00  0.00     0.056 A 
ATOM      9  C   UNL     1      32.562  20.652  29.784  1.00  0.00     0.116 A 
ATOM     10  H   UNL     1      32.159  24.030  33.293  1.00  0.00     0.166 HD
ENDROOT
BRANCH   9  11
ATOM     11  O   UNL     1      32.727  19.587  28.901  1.00  0.00    -0.508 OA
ATOM     12  H   UNL     1      32.403  18.655  29.132  1.00  0.00     0.293 HD
ENDBRANCH   9  11
TORSDOF 1
ENDMDL
MODEL 2
REMARK VINA RESULT:    -4.216      1.940      2.544
REMARK INTER + INTRA:          -4.340
REMARK INTER:                  -4.340
REMARK INTRA:                   0.000
REMARK UNBOUND:                 0.000
REMARK SMILES Oc1ccc2[nH]ccc2c1
REMARK SMILES IDX 3 1 4 2 5 3 9 4 8 5 7 6 6 7 10 8 2 9 1 11
REMARK H PARENT 6 10 1 12
REMARK Flexibility Score: inf
ROOT
ATOM      1  C   UNL     1      32.801  20.666  30.213  1.00  0.00     0.048 A 
ATOM      2  C   UNL     1      32.792  21.415  29.021  1.00  0.00     0.030 A 
ATOM      3  C   UNL     1      32.312  22.722  29.078  1.00  0.00     0.046 A 
ATOM      4  C   UNL     1      31.858  23.273  30.246  1.00  0.00     0.003 A 
ATOM      5  C   UNL     1      31.457  24.560  29.967  1.00  0.00     0.028 A 
ATOM      6  C   UNL     1      31.695  24.727  28.605  1.00  0.00     0.083 A 
ATOM      7  N   UNL     1      32.216  23.602  28.066  1.00  0.00    -0.361 N 
ATOM      8  C   UNL     1      31.853  22.559  31.443  1.00  0.00     0.056 A 
ATOM      9  C   UNL     1      32.334  21.233  31.422  1.00  0.00     0.116 A 
ATOM     10  H   UNL     1      32.488  23.451  27.070  1.00  0.00     0.166 HD
ENDROOT
BRANCH   9  11
ATOM     11  O   UNL     1      32.353  20.470  32.587  1.00  0.00    -0.508 OA
ATOM     12  H   UNL     1      31.652  20.591  33.309  1.00  0.00     0.293 HD
ENDBRANCH   9  11
TORSDOF 1
ENDMDL
MODEL 3
REMARK VINA RESULT:    -4.128     10.889     12.194
REMARK INTER + INTRA:          -4.249
REMARK INTER:                  -4.249
REMARK INTRA:                   0.000
REMARK UNBOUND:                 0.000
REMARK SMILES Oc1ccc2[nH]ccc2c1
REMARK SMILES IDX 3 1 4 2 5 3 9 4 8 5 7 6 6 7 10 8 2 9 1 11
REMARK H PARENT 6 10 1 12
REMARK Flexibility Score: inf
ROOT
ATOM      1  C   UNL     1      30.119  11.161  30.135  1.00  0.00     0.048 A 
ATOM      2  C   UNL     1      30.846  11.947  31.049  1.00  0.00     0.030 A 
ATOM      3  C   UNL     1      31.552  11.290  32.054  1.00  0.00     0.046 A 
ATOM      4  C   UNL     1      31.548   9.926  32.164  1.00  0.00     0.003 A 
ATOM      5  C   UNL     1      32.331   9.596  33.248  1.00  0.00     0.028 A 
ATOM      6  C   UNL     1      32.783  10.813  33.752  1.00  0.00     0.083 A 
ATOM      7  N   UNL     1      32.304  11.844  33.020  1.00  0.00    -0.361 N 
ATOM      8  C   UNL     1      30.838   9.119  31.277  1.00  0.00     0.056 A 
ATOM      9  C   UNL     1      30.112   9.751  30.246  1.00  0.00     0.116 A 
ATOM     10  H   UNL     1      32.484  12.860  33.176  1.00  0.00     0.166 HD
ENDROOT
BRANCH   9  11
ATOM     11  O   UNL     1      29.384   8.996  29.329  1.00  0.00    -0.508 OA
ATOM     12  H   UNL     1      28.785   9.436  28.640  1.00  0.00     0.293 HD
ENDBRANCH   9  11
TORSDOF 1
ENDMDL
MODEL 4
REMARK VINA RESULT:    -4.123     11.479     13.154
REMARK INTER + INTRA:          -4.243
REMARK INTER:                  -4.243
REMARK INTRA:                   0.000
REMARK UNBOUND:                 0.000
REMARK SMILES Oc1ccc2[nH]ccc2c1
REMARK SMILES IDX 3 1 4 2 5 3 9 4 8 5 7 6 6 7 10 8 2 9 1 11
REMARK H PARENT 6 10 1 12
REMARK Flexibility Score: inf
ROOT
ATOM      1  C   UNL     1      32.172  11.371  32.939  1.00  0.00     0.048 A 
ATOM      2  C   UNL     1      32.455  10.080  33.424  1.00  0.00     0.030 A 
ATOM      3  C   UNL     1      31.854   8.999  32.783  1.00  0.00     0.046 A 
ATOM      4  C   UNL     1      31.013   9.170  31.716  1.00  0.00     0.003 A 
ATOM      5  C   UNL     1      30.592   7.921  31.318  1.00  0.00     0.028 A 
ATOM      6  C   UNL     1      31.217   7.033  32.189  1.00  0.00     0.083 A 
ATOM      7  N   UNL     1      31.986   7.695  33.082  1.00  0.00    -0.361 N 
ATOM      8  C   UNL     1      30.713  10.434  31.212  1.00  0.00     0.056 A 
ATOM      9  C   UNL     1      31.305  11.551  31.837  1.00  0.00     0.116 A 
ATOM     10  H   UNL     1      32.563   7.278  33.845  1.00  0.00     0.166 HD
ENDROOT
BRANCH   9  11
ATOM     11  O   UNL     1      31.042  12.840  31.377  1.00  0.00    -0.508 OA
ATOM     12  H   UNL     1      31.546  13.233  30.590  1.00  0.00     0.293 HD
ENDBRANCH   9  11
TORSDOF 1
ENDMDL
MODEL 5
REMARK VINA RESULT:    -4.049     11.930     13.666
REMARK INTER + INTRA:          -4.168
REMARK INTER:                  -4.168
REMARK INTRA:                   0.000
REMARK UNBOUND:                 0.000
REMARK SMILES Oc1ccc2[nH]ccc2c1
REMARK SMILES IDX 3 1 4 2 5 3 9 4 8 5 7 6 6 7 10 8 2 9 1 11
REMARK H PARENT 6 10 1 12
REMARK Flexibility Score: inf
ROOT
ATOM      1  C   UNL     1      30.842  11.190  31.209  1.00  0.00     0.048 A 
ATOM      2  C   UNL     1      30.251  10.130  30.496  1.00  0.00     0.030 A 
ATOM      3  C   UNL     1      30.501   8.832  30.936  1.00  0.00     0.046 A 
ATOM      4  C   UNL     1      31.294   8.579  32.023  1.00  0.00     0.003 A 
ATOM      5  C   UNL     1      31.341   7.213  32.191  1.00  0.00     0.028 A 
ATOM      6  C   UNL     1      30.552   6.694  31.169  1.00  0.00     0.083 A 
ATOM      7  N   UNL     1      30.041   7.686  30.404  1.00  0.00    -0.361 N 
ATOM      8  C   UNL     1      31.894   9.605  32.750  1.00  0.00     0.056 A 
ATOM      9  C   UNL     1      31.661  10.933  32.332  1.00  0.00     0.116 A 
ATOM     10  H   UNL     1      29.418   7.580  29.574  1.00  0.00     0.166 HD
ENDROOT
BRANCH   9  11
ATOM     11  O   UNL     1      32.234  12.000  33.020  1.00  0.00    -0.508 OA
ATOM     12  H   UNL     1      32.301  12.002  34.032  1.00  0.00     0.293 HD
ENDBRANCH   9  11
TORSDOF 1
ENDMDL
MODEL 6
REMARK VINA RESULT:    -4.008      2.011      3.327
REMARK INTER + INTRA:          -4.125
REMARK INTER:                  -4.125
REMARK INTRA:                   0.000
REMARK UNBOUND:                 0.000
REMARK SMILES Oc1ccc2[nH]ccc2c1
REMARK SMILES IDX 3 1 4 2 5 3 9 4 8 5 7 6 6 7 10 8 2 9 1 11
REMARK H PARENT 6 10 1 12
REMARK Flexibility Score: inf
ROOT
ATOM      1  C   UNL     1      31.622  24.751  29.976  1.00  0.00     0.048 A 
ATOM      2  C   UNL     1      31.458  24.018  31.167  1.00  0.00     0.030 A 
ATOM      3  C   UNL     1      31.888  22.693  31.179  1.00  0.00     0.046 A 
ATOM      4  C   UNL     1      32.452  22.108  30.078  1.00  0.00     0.003 A 
ATOM      5  C   UNL     1      32.763  20.809  30.413  1.00  0.00     0.028 A 
ATOM      6  C   UNL     1      32.359  20.670  31.738  1.00  0.00     0.083 A 
ATOM      7  N   UNL     1      31.825  21.823  32.202  1.00  0.00    -0.361 N 
ATOM      8  C   UNL     1      32.629  22.805  28.884  1.00  0.00     0.056 A 
ATOM      9  C   UNL     1      32.205  24.150  28.837  1.00  0.00     0.116 A 
ATOM     10  H   UNL     1      31.444  21.998  33.157  1.00  0.00     0.166 HD
ENDROOT
BRANCH   9  11
ATOM     11  O   UNL     1      32.357  24.897  27.671  1.00  0.00    -0.508 OA
ATOM     12  H   UNL     1      33.176  24.799  27.083  1.00  0.00     0.293 HD
ENDBRANCH   9  11
TORSDOF 1
ENDMDL
MODEL 7
REMARK VINA RESULT:    -3.940     10.933     12.122
REMARK INTER + INTRA:          -4.055
REMARK INTER:                  -4.055
REMARK INTRA:                   0.000
REMARK UNBOUND:                 0.000
REMARK SMILES Oc1ccc2[nH]ccc2c1
REMARK SMILES IDX 3 1 4 2 5 3 9 4 8 5 7 6 6 7 10 8 2 9 1 11
REMARK H PARENT 6 10 1 12
REMARK Flexibility Score: inf
ROOT
ATOM      1  C   UNL     1      32.446   9.977  33.227  1.00  0.00     0.048 A 
ATOM      2  C   UNL     1      32.143  11.282  32.798  1.00  0.00     0.030 A 
ATOM      3  C   UNL     1      31.180  11.432  31.802  1.00  0.00     0.046 A 
ATOM      4  C   UNL     1      30.542  10.355  31.248  1.00  0.00     0.003 A 
ATOM      5  C   UNL     1      29.662  10.836  30.305  1.00  0.00     0.028 A 
ATOM      6  C   UNL     1      29.816  12.218  30.337  1.00  0.00     0.083 A 
ATOM      7  N   UNL     1      30.744  12.578  31.252  1.00  0.00    -0.361 N 
ATOM      8  C   UNL     1      30.820   9.049  31.650  1.00  0.00     0.056 A 
ATOM      9  C   UNL     1      31.789   8.861  32.658  1.00  0.00     0.116 A 
ATOM     10  H   UNL     1      31.055  13.548  31.482  1.00  0.00     0.166 HD
ENDROOT
BRANCH   9  11
ATOM     11  O   UNL     1      32.108   7.580  33.100  1.00  0.00    -0.508 OA
ATOM     12  H   UNL     1      31.903   6.761  32.540  1.00  0.00     0.293 HD
ENDBRANCH   9  11
TORSDOF 1
ENDMDL
MODEL 8
REMARK VINA RESULT:    -3.919     11.592     13.082
REMARK INTER + INTRA:          -4.033
REMARK INTER:                  -4.033
REMARK INTRA:                   0.000
REMARK UNBOUND:                 0.000
REMARK SMILES Oc1ccc2[nH]ccc2c1
REMARK SMILES IDX 3 1 4 2 5 3 9 4 8 5 7 6 6 7 10 8 2 9 1 11
REMARK H PARENT 6 10 1 12
REMARK Flexibility Score: inf
ROOT
ATOM      1  C   UNL     1      30.842   7.672  31.491  1.00  0.00     0.048 A 
ATOM      2  C   UNL     1      30.531   8.856  30.797  1.00  0.00     0.030 A 
ATOM      3  C   UNL     1      31.019  10.057  31.309  1.00  0.00     0.046 A 
ATOM      4  C   UNL     1      31.775  10.099  32.450  1.00  0.00     0.003 A 
ATOM      5  C   UNL     1      32.094  11.418  32.686  1.00  0.00     0.028 A 
ATOM      6  C   UNL     1      31.497  12.126  31.646  1.00  0.00     0.083 A 
ATOM      7  N   UNL     1      30.842  11.291  30.809  1.00  0.00    -0.361 N 
ATOM      8  C   UNL     1      32.100   8.945  33.161  1.00  0.00     0.056 A 
ATOM      9  C   UNL     1      31.623   7.712  32.669  1.00  0.00     0.116 A 
ATOM     10  H   UNL     1      30.310  11.554  29.951  1.00  0.00     0.166 HD
ENDROOT
BRANCH   9  11
ATOM     11  O   UNL     1      31.915   6.525  33.337  1.00  0.00    -0.508 OA
ATOM     12  H   UNL     1      31.196   6.001  33.823  1.00  0.00     0.293 HD
ENDBRANCH   9  11
TORSDOF 1
ENDMDL
MODEL 9
REMARK VINA RESULT:    -3.881     11.522     12.513
REMARK INTER + INTRA:          -3.994
REMARK INTER:                  -3.994
REMARK INTRA:                   0.000
REMARK UNBOUND:                 0.000
REMARK SMILES Oc1ccc2[nH]ccc2c1
REMARK SMILES IDX 3 1 4 2 5 3 9 4 8 5 7 6 6 7 10 8 2 9 1 11
REMARK H PARENT 6 10 1 12
REMARK Flexibility Score: inf
ROOT
ATOM      1  C   UNL     1      32.011   9.098  32.939  1.00  0.00     0.048 A 
ATOM      2  C   UNL     1      31.154   8.599  31.940  1.00  0.00     0.030 A 
ATOM      3  C   UNL     1      30.576   9.514  31.063  1.00  0.00     0.046 A 
ATOM      4  C   UNL     1      30.823  10.858  31.157  1.00  0.00     0.003 A 
ATOM      5  C   UNL     1      30.110  11.480  30.157  1.00  0.00     0.028 A 
ATOM      6  C   UNL     1      29.449  10.453  29.490  1.00  0.00     0.083 A 
ATOM      7  N   UNL     1      29.736   9.254  30.047  1.00  0.00    -0.361 N 
ATOM      8  C   UNL     1      31.666  11.384  32.134  1.00  0.00     0.056 A 
ATOM      9  C   UNL     1      32.269  10.485  33.039  1.00  0.00     0.116 A 
ATOM     10  H   UNL     1      29.378   8.321  29.746  1.00  0.00     0.166 HD
ENDROOT
BRANCH   9  11
ATOM     11  O   UNL     1      33.121  10.952  34.037  1.00  0.00    -0.508 OA
ATOM     12  H   UNL     1      33.997  10.486  34.244  1.00  0.00     0.293 HD
ENDBRANCH   9  11
TORSDOF 1
ENDMDL
