MODEL 1
REMARK VINA RESULT:    -5.233      0.000      0.000
REMARK INTER + INTRA:          -9.137
REMARK INTER:                  -7.681
REMARK INTRA:                  -1.456
REMARK UNBOUND:                -1.456
REMARK SMILES Cc1cc2c(C(C)C)c(O)c(O)c(C=O)c2c(O)c1-c1c(C)cc2c(C(C)C)c(O)c(O)c(C=O)c2c1O
REMARK SMILES IDX 1 1 2 2 3 3 4 4 16 5 13 6 11 7 9 8 5 9 17 10 19 11 20 12
REMARK SMILES IDX 37 13 21 14 36 15 23 16 22 17 24 18 33 19 25 20 31 21 29 22
REMARK SMILES IDX 38 23 34 25 35 26 26 27 27 28 28 29 32 30 30 32 18 34 6 36
REMARK SMILES IDX 7 37 8 38 14 39 15 40 10 41 12 43
REMARK H PARENT 38 24 32 31 30 33 18 35 10 42 12 44
REMARK Flexibility Score: inf
ROOT
ATOM      1  C   UNL     1      15.448  -2.368 198.451  1.00  0.00     0.045 C 
ATOM      2  C   UNL     1      15.106  -3.837 198.380  1.00  0.00    -0.039 A 
ATOM      3  C   UNL     1      16.086  -4.753 197.991  1.00  0.00     0.013 A 
ATOM      4  C   UNL     1      15.817  -6.136 197.906  1.00  0.00    -0.006 A 
ATOM      5  C   UNL     1      14.561  -6.617 198.381  1.00  0.00     0.039 A 
ATOM      6  C   UNL     1      14.377  -8.021 198.545  1.00  0.00     0.072 A 
ATOM      7  C   UNL     1      15.398  -8.911 198.157  1.00  0.00     0.169 A 
ATOM      8  C   UNL     1      16.582  -8.432 197.585  1.00  0.00     0.162 A 
ATOM      9  C   UNL     1      16.781  -7.049 197.382  1.00  0.00     0.008 A 
ATOM     10  C   UNL     1      13.527  -5.675 198.655  1.00  0.00     0.132 A 
ATOM     11  C   UNL     1      13.806  -4.291 198.660  1.00  0.00     0.031 A 
ENDROOT
BRANCH  11  12
ATOM     12  C   UNL     1      12.731  -3.312 198.965  1.00  0.00     0.031 A 
ATOM     13  C   UNL     1      12.540  -2.855 200.287  1.00  0.00     0.132 A 
ATOM     14  C   UNL     1      11.909  -2.836 197.932  1.00  0.00    -0.039 A 
ATOM     15  C   UNL     1      11.545  -1.874 200.573  1.00  0.00     0.039 A 
ATOM     16  C   UNL     1      10.856  -1.969 198.235  1.00  0.00     0.013 A 
ATOM     17  C   UNL     1      12.117  -3.281 196.505  1.00  0.00     0.045 C 
ATOM     18  C   UNL     1      10.610  -1.530 199.554  1.00  0.00    -0.006 A 
ATOM     19  C   UNL     1      11.437  -1.247 201.848  1.00  0.00     0.072 A 
ATOM     20  C   UNL     1       9.469  -0.732 199.867  1.00  0.00     0.008 A 
ATOM     21  C   UNL     1      10.384  -0.348 202.105  1.00  0.00     0.169 A 
ATOM     22  C   UNL     1       9.426  -0.066 201.113  1.00  0.00     0.162 A 
BRANCH  13  23
ATOM     23  O   UNL     1      13.307  -3.405 201.320  1.00  0.00    -0.507 OA
ATOM     24  H   UNL     1      13.094  -3.292 202.303  1.00  0.00     0.293 HD
ENDBRANCH  13  23
BRANCH  19  25
ATOM     25  C   UNL     1      12.480  -1.402 202.890  1.00  0.00     0.264 C 
ATOM     26  O   UNL     1      12.255  -2.063 203.940  1.00  0.00    -0.298 OA
ENDBRANCH  19  25
BRANCH  20  27
ATOM     27  C   UNL     1       8.301  -0.575 198.875  1.00  0.00     0.017 C 
ATOM     28  C   UNL     1       8.291   0.825 198.254  1.00  0.00     0.012 C 
ATOM     29  C   UNL     1       6.928  -0.934 199.474  1.00  0.00     0.012 C 
ENDBRANCH  20  27
BRANCH  21  30
ATOM     30  O   UNL     1      10.326   0.260 203.367  1.00  0.00    -0.504 OA
ATOM     31  H   UNL     1      10.350   1.256 203.528  1.00  0.00     0.293 HD
ENDBRANCH  21  30
BRANCH  22  32
ATOM     32  O   UNL     1       8.440   0.902 201.322  1.00  0.00    -0.504 OA
ATOM     33  H   UNL     1       7.719   1.149 200.659  1.00  0.00     0.293 HD
ENDBRANCH  22  32
ENDBRANCH  11  12
BRANCH  10  34
ATOM     34  O   UNL     1      12.218  -6.113 198.883  1.00  0.00    -0.507 OA
ATOM     35  H   UNL     1      11.670  -6.628 198.205  1.00  0.00     0.293 HD
ENDBRANCH  10  34
BRANCH   9  36
ATOM     36  C   UNL     1      18.017  -6.560 196.607  1.00  0.00     0.017 C 
ATOM     37  C   UNL     1      19.299  -6.810 197.407  1.00  0.00     0.012 C 
ATOM     38  C   UNL     1      18.121  -7.137 195.183  1.00  0.00     0.012 C 
ENDBRANCH   9  36
BRANCH   6  39
ATOM     39  C   UNL     1      13.193  -8.587 199.222  1.00  0.00     0.264 C 
ATOM     40  O   UNL     1      12.306  -9.191 198.561  1.00  0.00    -0.298 OA
ENDBRANCH   6  39
BRANCH   8  41
ATOM     41  O   UNL     1      17.587  -9.338 197.237  1.00  0.00    -0.504 OA
ATOM     42  H   UNL     1      17.646 -10.272 197.622  1.00  0.00     0.293 HD
ENDBRANCH   8  41
BRANCH   7  43
ATOM     43  O   UNL     1      15.273 -10.294 198.346  1.00  0.00    -0.504 OA
ATOM     44  H   UNL     1      16.051 -10.940 198.338  1.00  0.00     0.293 HD
ENDBRANCH   7  43
TORSDOF 11
ENDMDL
MODEL 2
REMARK VINA RESULT:    -5.135      1.339      9.174
REMARK INTER + INTRA:          -8.992
REMARK INTER:                  -7.553
REMARK INTRA:                  -1.439
REMARK UNBOUND:                -1.456
REMARK SMILES Cc1cc2c(C(C)C)c(O)c(O)c(C=O)c2c(O)c1-c1c(C)cc2c(C(C)C)c(O)c(O)c(C=O)c2c1O
REMARK SMILES IDX 1 1 2 2 3 3 4 4 16 5 13 6 11 7 9 8 5 9 17 10 19 11 20 12
REMARK SMILES IDX 37 13 21 14 36 15 23 16 22 17 24 18 33 19 25 20 31 21 29 22
REMARK SMILES IDX 38 23 34 25 35 26 26 27 27 28 28 29 32 30 30 32 18 34 6 36
REMARK SMILES IDX 7 37 8 38 14 39 15 40 10 41 12 43
REMARK H PARENT 38 24 32 31 30 33 18 35 10 42 12 44
REMARK Flexibility Score: inf
ROOT
ATOM      1  C   UNL     1      12.481  -4.083 196.632  1.00  0.00     0.045 C 
ATOM      2  C   UNL     1      12.638  -3.488 198.010  1.00  0.00    -0.039 A 
ATOM      3  C   UNL     1      11.610  -2.706 198.543  1.00  0.00     0.013 A 
ATOM      4  C   UNL     1      11.708  -2.125 199.826  1.00  0.00    -0.006 A 
ATOM      5  C   UNL     1      12.815  -2.479 200.652  1.00  0.00     0.039 A 
ATOM      6  C   UNL     1      12.794  -2.112 202.029  1.00  0.00     0.072 A 
ATOM      7  C   UNL     1      11.729  -1.338 202.531  1.00  0.00     0.169 A 
ATOM      8  C   UNL     1      10.705  -0.899 201.684  1.00  0.00     0.162 A 
ATOM      9  C   UNL     1      10.715  -1.221 200.308  1.00  0.00     0.008 A 
ATOM     10  C   UNL     1      13.916  -3.169 200.063  1.00  0.00     0.132 A 
ATOM     11  C   UNL     1      13.818  -3.675 198.750  1.00  0.00     0.031 A 
ENDROOT
BRANCH  11  12
ATOM     12  C   UNL     1      14.959  -4.412 198.145  1.00  0.00     0.031 A 
ATOM     13  C   UNL     1      15.082  -5.806 198.328  1.00  0.00     0.132 A 
ATOM     14  C   UNL     1      15.912  -3.716 197.385  1.00  0.00    -0.039 A 
ATOM     15  C   UNL     1      16.146  -6.522 197.703  1.00  0.00     0.039 A 
ATOM     16  C   UNL     1      17.019  -4.400 196.877  1.00  0.00     0.013 A 
ATOM     17  C   UNL     1      15.783  -2.231 197.145  1.00  0.00     0.045 C 
ATOM     18  C   UNL     1      17.195  -5.786 197.081  1.00  0.00    -0.006 A 
ATOM     19  C   UNL     1      16.208  -7.946 197.703  1.00  0.00     0.072 A 
ATOM     20  C   UNL     1      18.382  -6.452 196.651  1.00  0.00     0.008 A 
ATOM     21  C   UNL     1      17.322  -8.604 197.146  1.00  0.00     0.169 A 
ATOM     22  C   UNL     1      18.386  -7.865 196.594  1.00  0.00     0.162 A 
BRANCH  13  23
ATOM     23  O   UNL     1      14.176  -6.471 199.162  1.00  0.00    -0.507 OA
ATOM     24  H   UNL     1      13.492  -6.000 199.740  1.00  0.00     0.293 HD
ENDBRANCH  13  23
BRANCH  19  25
ATOM     25  C   UNL     1      15.068  -8.782 198.150  1.00  0.00     0.264 C 
ATOM     26  O   UNL     1      15.111  -9.403 199.247  1.00  0.00    -0.298 OA
ENDBRANCH  19  25
BRANCH  20  27
ATOM     27  C   UNL     1      19.640  -5.666 196.239  1.00  0.00     0.017 C 
ATOM     28  C   UNL     1      20.091  -4.723 197.358  1.00  0.00     0.012 C 
ATOM     29  C   UNL     1      19.493  -4.920 194.900  1.00  0.00     0.012 C 
ENDBRANCH  20  27
BRANCH  21  30
ATOM     30  O   UNL     1      17.334 -10.005 197.151  1.00  0.00    -0.504 OA
ATOM     31  H   UNL     1      16.525 -10.588 196.995  1.00  0.00     0.293 HD
ENDBRANCH  21  30
BRANCH  22  32
ATOM     32  O   UNL     1      19.446  -8.507 195.948  1.00  0.00    -0.504 OA
ATOM     33  H   UNL     1      20.242  -8.920 196.411  1.00  0.00     0.293 HD
ENDBRANCH  22  32
ENDBRANCH  11  12
BRANCH  10  34
ATOM     34  O   UNL     1      15.114  -3.314 200.770  1.00  0.00    -0.507 OA
ATOM     35  H   UNL     1      15.675  -4.157 200.762  1.00  0.00     0.293 HD
ENDBRANCH  10  34
BRANCH   9  36
ATOM     36  C   UNL     1       9.669  -0.595 199.370  1.00  0.00     0.017 C 
ATOM     37  C   UNL     1       8.272  -1.155 199.656  1.00  0.00     0.012 C 
ATOM     38  C   UNL     1       9.670   0.945 199.383  1.00  0.00     0.012 C 
ENDBRANCH   9  36
BRANCH   6  39
ATOM     39  C   UNL     1      13.793  -2.615 202.995  1.00  0.00     0.264 C 
ATOM     40  O   UNL     1      14.698  -1.854 203.431  1.00  0.00    -0.298 OA
ENDBRANCH   6  39
BRANCH   8  41
ATOM     41  O   UNL     1       9.649  -0.157 202.217  1.00  0.00    -0.504 OA
ATOM     42  H   UNL     1       8.790  -0.578 202.550  1.00  0.00     0.293 HD
ENDBRANCH   8  41
BRANCH   7  43
ATOM     43  O   UNL     1      11.649  -0.998 203.889  1.00  0.00    -0.504 OA
ATOM     44  H   UNL     1      12.237  -1.396 204.608  1.00  0.00     0.293 HD
ENDBRANCH   7  43
TORSDOF 11
ENDMDL
MODEL 3
REMARK VINA RESULT:    -4.969      4.881      8.607
REMARK INTER + INTRA:          -8.749
REMARK INTER:                  -7.670
REMARK INTRA:                  -1.080
REMARK UNBOUND:                -1.456
REMARK SMILES Cc1cc2c(C(C)C)c(O)c(O)c(C=O)c2c(O)c1-c1c(C)cc2c(C(C)C)c(O)c(O)c(C=O)c2c1O
REMARK SMILES IDX 1 1 2 2 3 3 4 4 16 5 13 6 11 7 9 8 5 9 17 10 19 11 20 12
REMARK SMILES IDX 37 13 21 14 36 15 23 16 22 17 24 18 33 19 25 20 31 21 29 22
REMARK SMILES IDX 38 23 34 25 35 26 26 27 27 28 28 29 32 30 30 32 18 34 6 36
REMARK SMILES IDX 7 37 8 38 14 39 15 40 10 41 12 43
REMARK H PARENT 38 24 32 31 30 33 18 35 10 42 12 44
REMARK Flexibility Score: inf
ROOT
ATOM      1  C   UNL     1      14.346 -12.052 196.555  1.00  0.00     0.045 C 
ATOM      2  C   UNL     1      14.659 -12.104 198.031  1.00  0.00    -0.039 A 
ATOM      3  C   UNL     1      14.609 -13.328 198.701  1.00  0.00     0.013 A 
ATOM      4  C   UNL     1      14.891 -13.432 200.080  1.00  0.00    -0.006 A 
ATOM      5  C   UNL     1      15.390 -12.283 200.762  1.00  0.00     0.039 A 
ATOM      6  C   UNL     1      15.921 -12.437 202.076  1.00  0.00     0.072 A 
ATOM      7  C   UNL     1      15.867 -13.695 202.710  1.00  0.00     0.169 A 
ATOM      8  C   UNL     1      15.271 -14.789 202.074  1.00  0.00     0.162 A 
ATOM      9  C   UNL     1      14.708 -14.660 200.785  1.00  0.00     0.008 A 
ATOM     10  C   UNL     1      15.320 -11.017 200.112  1.00  0.00     0.132 A 
ATOM     11  C   UNL     1      14.962 -10.935 198.749  1.00  0.00     0.031 A 
ENDROOT
BRANCH  11  12
ATOM     12  C   UNL     1      14.909  -9.615 198.067  1.00  0.00     0.031 A 
ATOM     13  C   UNL     1      16.023  -9.145 197.339  1.00  0.00     0.132 A 
ATOM     14  C   UNL     1      13.741  -8.839 198.144  1.00  0.00    -0.039 A 
ATOM     15  C   UNL     1      15.954  -7.904 196.639  1.00  0.00     0.039 A 
ATOM     16  C   UNL     1      13.720  -7.570 197.560  1.00  0.00     0.013 A 
ATOM     17  C   UNL     1      12.524  -9.335 198.885  1.00  0.00     0.045 C 
ATOM     18  C   UNL     1      14.835  -7.052 196.865  1.00  0.00    -0.006 A 
ATOM     19  C   UNL     1      16.977  -7.477 195.744  1.00  0.00     0.072 A 
ATOM     20  C   UNL     1      14.839  -5.715 196.367  1.00  0.00     0.008 A 
ATOM     21  C   UNL     1      16.903  -6.206 195.143  1.00  0.00     0.169 A 
ATOM     22  C   UNL     1      15.826  -5.343 195.425  1.00  0.00     0.162 A 
BRANCH  13  23
ATOM     23  O   UNL     1      17.209  -9.888 197.346  1.00  0.00    -0.507 OA
ATOM     24  H   UNL     1      17.504 -10.472 198.118  1.00  0.00     0.293 HD
ENDBRANCH  13  23
BRANCH  19  25
ATOM     25  C   UNL     1      18.067  -8.382 195.307  1.00  0.00     0.264 C 
ATOM     26  O   UNL     1      19.272  -8.120 195.572  1.00  0.00    -0.298 OA
ENDBRANCH  19  25
BRANCH  20  27
ATOM     27  C   UNL     1      13.790  -4.684 196.823  1.00  0.00     0.017 C 
ATOM     28  C   UNL     1      12.889  -4.264 195.658  1.00  0.00     0.012 C 
ATOM     29  C   UNL     1      14.395  -3.459 197.534  1.00  0.00     0.012 C 
ENDBRANCH  20  27
BRANCH  21  30
ATOM     30  O   UNL     1      17.921  -5.832 194.256  1.00  0.00    -0.504 OA
ATOM     31  H   UNL     1      18.051  -6.219 193.333  1.00  0.00     0.293 HD
ENDBRANCH  21  30
BRANCH  22  32
ATOM     32  O   UNL     1      15.689  -4.124 194.755  1.00  0.00    -0.504 OA
ATOM     33  H   UNL     1      15.678  -4.012 193.752  1.00  0.00     0.293 HD
ENDBRANCH  22  32
ENDBRANCH  11  12
BRANCH  10  34
ATOM     34  O   UNL     1      15.567  -9.842 200.830  1.00  0.00    -0.507 OA
ATOM     35  H   UNL     1      16.176  -9.791 201.637  1.00  0.00     0.293 HD
ENDBRANCH  10  34
BRANCH   9  36
ATOM     36  C   UNL     1      13.918 -15.830 200.175  1.00  0.00     0.017 C 
ATOM     37  C   UNL     1      12.410 -15.622 200.348  1.00  0.00     0.012 C 
ATOM     38  C   UNL     1      14.280 -16.122 198.707  1.00  0.00     0.012 C 
ENDBRANCH   9  36
BRANCH   6  39
ATOM     39  C   UNL     1      16.644 -11.350 202.767  1.00  0.00     0.264 C 
ATOM     40  O   UNL     1      16.231 -10.911 203.874  1.00  0.00    -0.298 OA
ENDBRANCH   6  39
BRANCH   8  41
ATOM     41  O   UNL     1      15.258 -16.029 202.718  1.00  0.00    -0.504 OA
ATOM     42  H   UNL     1      15.147 -16.906 202.225  1.00  0.00     0.293 HD
ENDBRANCH   8  41
BRANCH   7  43
ATOM     43  O   UNL     1      16.422 -13.896 203.981  1.00  0.00    -0.504 OA
ATOM     44  H   UNL     1      17.384 -13.693 204.219  1.00  0.00     0.293 HD
ENDBRANCH   7  43
TORSDOF 11
ENDMDL
MODEL 4
REMARK VINA RESULT:    -4.953      3.849      6.295
REMARK INTER + INTRA:          -8.726
REMARK INTER:                  -7.315
REMARK INTRA:                  -1.412
REMARK UNBOUND:                -1.456
REMARK SMILES Cc1cc2c(C(C)C)c(O)c(O)c(C=O)c2c(O)c1-c1c(C)cc2c(C(C)C)c(O)c(O)c(C=O)c2c1O
REMARK SMILES IDX 1 1 2 2 3 3 4 4 16 5 13 6 11 7 9 8 5 9 17 10 19 11 20 12
REMARK SMILES IDX 37 13 21 14 36 15 23 16 22 17 24 18 33 19 25 20 31 21 29 22
REMARK SMILES IDX 38 23 34 25 35 26 26 27 27 28 28 29 32 30 30 32 18 34 6 36
REMARK SMILES IDX 7 37 8 38 14 39 15 40 10 41 12 43
REMARK H PARENT 38 24 32 31 30 33 18 35 10 42 12 44
REMARK Flexibility Score: inf
ROOT
ATOM      1  C   UNL     1      16.630  -5.581 198.157  1.00  0.00     0.045 C 
ATOM      2  C   UNL     1      16.232  -6.720 199.064  1.00  0.00    -0.039 A 
ATOM      3  C   UNL     1      15.733  -7.900 198.507  1.00  0.00     0.013 A 
ATOM      4  C   UNL     1      15.345  -8.994 199.311  1.00  0.00    -0.006 A 
ATOM      5  C   UNL     1      15.620  -8.944 200.709  1.00  0.00     0.039 A 
ATOM      6  C   UNL     1      15.475 -10.132 201.484  1.00  0.00     0.072 A 
ATOM      7  C   UNL     1      14.985 -11.307 200.879  1.00  0.00     0.169 A 
ATOM      8  C   UNL     1      14.611 -11.312 199.531  1.00  0.00     0.162 A 
ATOM      9  C   UNL     1      14.713 -10.142 198.745  1.00  0.00     0.008 A 
ATOM     10  C   UNL     1      16.008  -7.700 201.287  1.00  0.00     0.132 A 
ATOM     11  C   UNL     1      16.319  -6.598 200.461  1.00  0.00     0.031 A 
ENDROOT
BRANCH  11  12
ATOM     12  C   UNL     1      16.743  -5.307 201.064  1.00  0.00     0.031 A 
ATOM     13  C   UNL     1      15.791  -4.301 201.333  1.00  0.00     0.132 A 
ATOM     14  C   UNL     1      18.096  -5.095 201.374  1.00  0.00    -0.039 A 
ATOM     15  C   UNL     1      16.188  -3.084 201.962  1.00  0.00     0.039 A 
ATOM     16  C   UNL     1      18.500  -3.856 201.876  1.00  0.00     0.013 A 
ATOM     17  C   UNL     1      19.128  -6.169 201.130  1.00  0.00     0.045 C 
ATOM     18  C   UNL     1      17.578  -2.812 202.112  1.00  0.00    -0.006 A 
ATOM     19  C   UNL     1      15.243  -2.121 202.421  1.00  0.00     0.072 A 
ATOM     20  C   UNL     1      18.016  -1.518 202.523  1.00  0.00     0.008 A 
ATOM     21  C   UNL     1      15.687  -0.897 202.959  1.00  0.00     0.169 A 
ATOM     22  C   UNL     1      17.064  -0.610 203.041  1.00  0.00     0.162 A 
BRANCH  13  23
ATOM     23  O   UNL     1      14.462  -4.491 200.937  1.00  0.00    -0.507 OA
ATOM     24  H   UNL     1      14.138  -4.394 199.984  1.00  0.00     0.293 HD
ENDBRANCH  13  23
BRANCH  19  25
ATOM     25  C   UNL     1      13.791  -2.411 202.481  1.00  0.00     0.264 C 
ATOM     26  O   UNL     1      12.981  -1.833 201.706  1.00  0.00    -0.298 OA
ENDBRANCH  19  25
BRANCH  20  27
ATOM     27  C   UNL     1      19.495  -1.101 202.426  1.00  0.00     0.017 C 
ATOM     28  C   UNL     1      20.125  -0.978 203.817  1.00  0.00     0.012 C 
ATOM     29  C   UNL     1      19.726   0.172 201.590  1.00  0.00     0.012 C 
ENDBRANCH  20  27
BRANCH  21  30
ATOM     30  O   UNL     1      14.726   0.015 203.414  1.00  0.00    -0.504 OA
ATOM     31  H   UNL     1      13.891  -0.235 203.924  1.00  0.00     0.293 HD
ENDBRANCH  21  30
BRANCH  22  32
ATOM     32  O   UNL     1      17.518   0.555 203.666  1.00  0.00    -0.504 OA
ATOM     33  H   UNL     1      16.932   1.214 204.159  1.00  0.00     0.293 HD
ENDBRANCH  22  32
ENDBRANCH  11  12
BRANCH  10  34
ATOM     34  O   UNL     1      16.046  -7.550 202.677  1.00  0.00    -0.507 OA
ATOM     35  H   UNL     1      15.499  -6.867 203.186  1.00  0.00     0.293 HD
ENDBRANCH  10  34
BRANCH   9  36
ATOM     36  C   UNL     1      14.147 -10.130 197.315  1.00  0.00     0.017 C 
ATOM     37  C   UNL     1      14.987 -11.009 196.386  1.00  0.00     0.012 C 
ATOM     38  C   UNL     1      12.653 -10.499 197.240  1.00  0.00     0.012 C 
ENDBRANCH   9  36
BRANCH   6  39
ATOM     39  C   UNL     1      15.935 -10.221 202.885  1.00  0.00     0.264 C 
ATOM     40  O   UNL     1      15.111 -10.125 203.834  1.00  0.00    -0.298 OA
ENDBRANCH   6  39
BRANCH   8  41
ATOM     41  O   UNL     1      14.155 -12.500 198.953  1.00  0.00    -0.504 OA
ATOM     42  H   UNL     1      13.550 -12.523 198.143  1.00  0.00     0.293 HD
ENDBRANCH   8  41
BRANCH   7  43
ATOM     43  O   UNL     1      14.875 -12.506 201.596  1.00  0.00    -0.504 OA
ATOM     44  H   UNL     1      14.358 -13.313 201.274  1.00  0.00     0.293 HD
ENDBRANCH   7  43
TORSDOF 11
ENDMDL
MODEL 5
REMARK VINA RESULT:    -4.943      9.643     11.965
REMARK INTER + INTRA:          -8.711
REMARK INTER:                  -7.441
REMARK INTRA:                  -1.270
REMARK UNBOUND:                -1.456
REMARK SMILES Cc1cc2c(C(C)C)c(O)c(O)c(C=O)c2c(O)c1-c1c(C)cc2c(C(C)C)c(O)c(O)c(C=O)c2c1O
REMARK SMILES IDX 1 1 2 2 3 3 4 4 16 5 13 6 11 7 9 8 5 9 17 10 19 11 20 12
REMARK SMILES IDX 37 13 21 14 36 15 23 16 22 17 24 18 33 19 25 20 31 21 29 22
REMARK SMILES IDX 38 23 34 25 35 26 26 27 27 28 28 29 32 30 30 32 18 34 6 36
REMARK SMILES IDX 7 37 8 38 14 39 15 40 10 41 12 43
REMARK H PARENT 38 24 32 31 30 33 18 35 10 42 12 44
REMARK Flexibility Score: inf
ROOT
ATOM      1  C   UNL     1       6.770  -8.396 194.292  1.00  0.00     0.045 C 
ATOM      2  C   UNL     1       5.582  -8.133 193.399  1.00  0.00    -0.039 A 
ATOM      3  C   UNL     1       5.655  -8.462 192.044  1.00  0.00     0.013 A 
ATOM      4  C   UNL     1       4.573  -8.235 191.166  1.00  0.00    -0.006 A 
ATOM      5  C   UNL     1       3.328  -7.806 191.714  1.00  0.00     0.039 A 
ATOM      6  C   UNL     1       2.167  -7.824 190.887  1.00  0.00     0.072 A 
ATOM      7  C   UNL     1       2.281  -8.180 189.528  1.00  0.00     0.169 A 
ATOM      8  C   UNL     1       3.528  -8.487 188.974  1.00  0.00     0.162 A 
ATOM      9  C   UNL     1       4.701  -8.448 189.760  1.00  0.00     0.008 A 
ATOM     10  C   UNL     1       3.295  -7.354 193.066  1.00  0.00     0.132 A 
ATOM     11  C   UNL     1       4.418  -7.527 193.902  1.00  0.00     0.031 A 
ENDROOT
BRANCH  11  12
ATOM     12  C   UNL     1       4.375  -7.073 195.317  1.00  0.00     0.031 A 
ATOM     13  C   UNL     1       3.871  -7.926 196.322  1.00  0.00     0.132 A 
ATOM     14  C   UNL     1       4.843  -5.793 195.652  1.00  0.00    -0.039 A 
ATOM     15  C   UNL     1       3.879  -7.513 197.687  1.00  0.00     0.039 A 
ATOM     16  C   UNL     1       4.737  -5.345 196.971  1.00  0.00     0.013 A 
ATOM     17  C   UNL     1       5.421  -4.876 194.601  1.00  0.00     0.045 C 
ATOM     18  C   UNL     1       4.194  -6.158 197.991  1.00  0.00    -0.006 A 
ATOM     19  C   UNL     1       3.557  -8.402 198.753  1.00  0.00     0.072 A 
ATOM     20  C   UNL     1       3.991  -5.651 199.309  1.00  0.00     0.008 A 
ATOM     21  C   UNL     1       3.496  -7.924 200.077  1.00  0.00     0.169 A 
ATOM     22  C   UNL     1       3.744  -6.566 200.358  1.00  0.00     0.162 A 
BRANCH  13  23
ATOM     23  O   UNL     1       3.324  -9.163 195.961  1.00  0.00    -0.507 OA
ATOM     24  H   UNL     1       3.331  -9.979 196.559  1.00  0.00     0.293 HD
ENDBRANCH  13  23
BRANCH  19  25
ATOM     25  C   UNL     1       3.411  -9.862 198.543  1.00  0.00     0.264 C 
ATOM     26  O   UNL     1       2.279 -10.416 198.601  1.00  0.00    -0.298 OA
ENDBRANCH  19  25
BRANCH  20  27
ATOM     27  C   UNL     1       4.049  -4.142 199.609  1.00  0.00     0.017 C 
ATOM     28  C   UNL     1       2.930  -3.393 198.879  1.00  0.00     0.012 C 
ATOM     29  C   UNL     1       5.424  -3.508 199.331  1.00  0.00     0.012 C 
ENDBRANCH  20  27
BRANCH  21  30
ATOM     30  O   UNL     1       3.193  -8.835 201.097  1.00  0.00    -0.504 OA
ATOM     31  H   UNL     1       3.529  -8.769 202.047  1.00  0.00     0.293 HD
ENDBRANCH  21  30
BRANCH  22  32
ATOM     32  O   UNL     1       3.789  -6.104 201.677  1.00  0.00    -0.504 OA
ATOM     33  H   UNL     1       4.520  -6.315 202.341  1.00  0.00     0.293 HD
ENDBRANCH  22  32
ENDBRANCH  11  12
BRANCH  10  34
ATOM     34  O   UNL     1       2.161  -6.701 193.561  1.00  0.00    -0.507 OA
ATOM     35  H   UNL     1       1.265  -7.151 193.698  1.00  0.00     0.293 HD
ENDBRANCH  10  34
BRANCH   9  36
ATOM     36  C   UNL     1       6.075  -8.632 189.093  1.00  0.00     0.017 C 
ATOM     37  C   UNL     1       6.266 -10.077 188.624  1.00  0.00     0.012 C 
ATOM     38  C   UNL     1       6.348  -7.631 187.956  1.00  0.00     0.012 C 
ENDBRANCH   9  36
BRANCH   6  39
ATOM     39  C   UNL     1       0.811  -7.599 191.427  1.00  0.00     0.264 C 
ATOM     40  O   UNL     1       0.183  -8.536 191.989  1.00  0.00    -0.298 OA
ENDBRANCH   6  39
BRANCH   8  41
ATOM     41  O   UNL     1       3.604  -8.863 187.630  1.00  0.00    -0.504 OA
ATOM     42  H   UNL     1       4.364  -9.414 187.253  1.00  0.00     0.293 HD
ENDBRANCH   8  41
BRANCH   7  43
ATOM     43  O   UNL     1       1.156  -8.255 188.696  1.00  0.00    -0.504 OA
ATOM     44  H   UNL     1       0.808  -7.484 188.141  1.00  0.00     0.293 HD
ENDBRANCH   7  43
TORSDOF 11
ENDMDL
MODEL 6
REMARK VINA RESULT:    -4.886      9.397     11.648
REMARK INTER + INTRA:          -8.627
REMARK INTER:                  -7.502
REMARK INTRA:                  -1.126
REMARK UNBOUND:                -1.456
REMARK SMILES Cc1cc2c(C(C)C)c(O)c(O)c(C=O)c2c(O)c1-c1c(C)cc2c(C(C)C)c(O)c(O)c(C=O)c2c1O
REMARK SMILES IDX 1 1 2 2 3 3 4 4 16 5 13 6 11 7 9 8 5 9 17 10 19 11 20 12
REMARK SMILES IDX 37 13 21 14 36 15 23 16 22 17 24 18 33 19 25 20 31 21 29 22
REMARK SMILES IDX 38 23 34 25 35 26 26 27 27 28 28 29 32 30 30 32 18 34 6 36
REMARK SMILES IDX 7 37 8 38 14 39 15 40 10 41 12 43
REMARK H PARENT 38 24 32 31 30 33 18 35 10 42 12 44
REMARK Flexibility Score: inf
ROOT
ATOM      1  C   UNL     1       6.400  -8.982 194.714  1.00  0.00     0.045 C 
ATOM      2  C   UNL     1       5.319  -8.590 193.737  1.00  0.00    -0.039 A 
ATOM      3  C   UNL     1       5.427  -8.978 192.399  1.00  0.00     0.013 A 
ATOM      4  C   UNL     1       4.445  -8.636 191.445  1.00  0.00    -0.006 A 
ATOM      5  C   UNL     1       3.243  -8.016 191.896  1.00  0.00     0.039 A 
ATOM      6  C   UNL     1       2.144  -7.904 190.995  1.00  0.00     0.072 A 
ATOM      7  C   UNL     1       2.289  -8.324 189.658  1.00  0.00     0.169 A 
ATOM      8  C   UNL     1       3.512  -8.824 189.197  1.00  0.00     0.162 A 
ATOM      9  C   UNL     1       4.627  -8.920 190.058  1.00  0.00     0.008 A 
ATOM     10  C   UNL     1       3.191  -7.512 193.229  1.00  0.00     0.132 A 
ATOM     11  C   UNL     1       4.225  -7.808 194.143  1.00  0.00     0.031 A 
ENDROOT
BRANCH  11  12
ATOM     12  C   UNL     1       4.159  -7.297 195.537  1.00  0.00     0.031 A 
ATOM     13  C   UNL     1       4.844  -6.117 195.896  1.00  0.00     0.132 A 
ATOM     14  C   UNL     1       3.405  -7.991 196.498  1.00  0.00    -0.039 A 
ATOM     15  C   UNL     1       4.737  -5.596 197.219  1.00  0.00     0.039 A 
ATOM     16  C   UNL     1       3.402  -7.546 197.821  1.00  0.00     0.013 A 
ATOM     17  C   UNL     1       2.634  -9.235 196.131  1.00  0.00     0.045 C 
ATOM     18  C   UNL     1       4.115  -6.395 198.221  1.00  0.00    -0.006 A 
ATOM     19  C   UNL     1       5.254  -4.318 197.579  1.00  0.00     0.072 A 
ATOM     20  C   UNL     1       4.192  -6.013 199.594  1.00  0.00     0.008 A 
ATOM     21  C   UNL     1       5.199  -3.885 198.918  1.00  0.00     0.169 A 
ATOM     22  C   UNL     1       4.642  -4.711 199.913  1.00  0.00     0.162 A 
BRANCH  13  23
ATOM     23  O   UNL     1       5.663  -5.486 194.952  1.00  0.00    -0.507 OA
ATOM     24  H   UNL     1       6.067  -5.956 194.152  1.00  0.00     0.293 HD
ENDBRANCH  13  23
BRANCH  19  25
ATOM     25  C   UNL     1       5.735  -3.351 196.563  1.00  0.00     0.264 C 
ATOM     26  O   UNL     1       6.963  -3.095 196.442  1.00  0.00    -0.298 OA
ENDBRANCH  19  25
BRANCH  20  27
ATOM     27  C   UNL     1       3.786  -6.979 200.722  1.00  0.00     0.017 C 
ATOM     28  C   UNL     1       2.348  -6.717 201.180  1.00  0.00     0.012 C 
ATOM     29  C   UNL     1       4.762  -6.987 201.913  1.00  0.00     0.012 C 
ENDBRANCH  20  27
BRANCH  21  30
ATOM     30  O   UNL     1       5.702  -2.614 199.224  1.00  0.00    -0.504 OA
ATOM     31  H   UNL     1       5.170  -1.873 199.656  1.00  0.00     0.293 HD
ENDBRANCH  21  30
BRANCH  22  32
ATOM     32  O   UNL     1       4.488  -4.250 201.224  1.00  0.00    -0.504 OA
ATOM     33  H   UNL     1       3.603  -4.117 201.692  1.00  0.00     0.293 HD
ENDBRANCH  22  32
ENDBRANCH  11  12
BRANCH  10  34
ATOM     34  O   UNL     1       2.133  -6.688 193.628  1.00  0.00    -0.507 OA
ATOM     35  H   UNL     1       1.214  -6.705 193.206  1.00  0.00     0.293 HD
ENDBRANCH  10  34
BRANCH   9  36
ATOM     36  C   UNL     1       6.000  -9.320 189.490  1.00  0.00     0.017 C 
ATOM     37  C   UNL     1       6.005 -10.789 189.056  1.00  0.00     0.012 C 
ATOM     38  C   UNL     1       6.493  -8.398 188.359  1.00  0.00     0.012 C 
ENDBRANCH   9  36
BRANCH   6  39
ATOM     39  C   UNL     1       0.803  -7.469 191.436  1.00  0.00     0.264 C 
ATOM     40  O   UNL     1       0.052  -8.259 192.069  1.00  0.00    -0.298 OA
ENDBRANCH   6  39
BRANCH   8  41
ATOM     41  O   UNL     1       3.616  -9.259 187.873  1.00  0.00    -0.504 OA
ATOM     42  H   UNL     1       4.177  -8.784 187.178  1.00  0.00     0.293 HD
ENDBRANCH   8  41
BRANCH   7  43
ATOM     43  O   UNL     1       1.218  -8.273 188.755  1.00  0.00    -0.504 OA
ATOM     44  H   UNL     1       1.283  -8.543 187.783  1.00  0.00     0.293 HD
ENDBRANCH   7  43
TORSDOF 11
ENDMDL
MODEL 7
REMARK VINA RESULT:    -4.811      5.788      8.518
REMARK INTER + INTRA:          -8.517
REMARK INTER:                  -7.260
REMARK INTRA:                  -1.257
REMARK UNBOUND:                -1.456
REMARK SMILES Cc1cc2c(C(C)C)c(O)c(O)c(C=O)c2c(O)c1-c1c(C)cc2c(C(C)C)c(O)c(O)c(C=O)c2c1O
REMARK SMILES IDX 1 1 2 2 3 3 4 4 16 5 13 6 11 7 9 8 5 9 17 10 19 11 20 12
REMARK SMILES IDX 37 13 21 14 36 15 23 16 22 17 24 18 33 19 25 20 31 21 29 22
REMARK SMILES IDX 38 23 34 25 35 26 26 27 27 28 28 29 32 30 30 32 18 34 6 36
REMARK SMILES IDX 7 37 8 38 14 39 15 40 10 41 12 43
REMARK H PARENT 38 24 32 31 30 33 18 35 10 42 12 44
REMARK Flexibility Score: inf
ROOT
ATOM      1  C   UNL     1      15.431  -8.260 200.353  1.00  0.00     0.045 C 
ATOM      2  C   UNL     1      15.276  -9.735 200.074  1.00  0.00    -0.039 A 
ATOM      3  C   UNL     1      15.461 -10.653 201.110  1.00  0.00     0.013 A 
ATOM      4  C   UNL     1      15.330 -12.044 200.902  1.00  0.00    -0.006 A 
ATOM      5  C   UNL     1      14.844 -12.501 199.642  1.00  0.00     0.039 A 
ATOM      6  C   UNL     1      14.461 -13.868 199.505  1.00  0.00     0.072 A 
ATOM      7  C   UNL     1      14.647 -14.758 200.581  1.00  0.00     0.169 A 
ATOM      8  C   UNL     1      15.232 -14.322 201.775  1.00  0.00     0.162 A 
ATOM      9  C   UNL     1      15.649 -12.981 201.930  1.00  0.00     0.008 A 
ATOM     10  C   UNL     1      14.779 -11.579 198.557  1.00  0.00     0.132 A 
ATOM     11  C   UNL     1      14.988 -10.201 198.780  1.00  0.00     0.031 A 
ENDROOT
BRANCH  11  12
ATOM     12  C   UNL     1      14.901  -9.238 197.651  1.00  0.00     0.031 A 
ATOM     13  C   UNL     1      16.056  -8.899 196.915  1.00  0.00     0.132 A 
ATOM     14  C   UNL     1      13.661  -8.672 197.314  1.00  0.00    -0.039 A 
ATOM     15  C   UNL     1      15.964  -8.018 195.797  1.00  0.00     0.039 A 
ATOM     16  C   UNL     1      13.596  -7.717 196.297  1.00  0.00     0.013 A 
ATOM     17  C   UNL     1      12.405  -9.047 198.062  1.00  0.00     0.045 C 
ATOM     18  C   UNL     1      14.742  -7.321 195.573  1.00  0.00    -0.006 A 
ATOM     19  C   UNL     1      17.059  -7.791 194.914  1.00  0.00     0.072 A 
ATOM     20  C   UNL     1      14.682  -6.268 194.612  1.00  0.00     0.008 A 
ATOM     21  C   UNL     1      16.944  -6.848 193.875  1.00  0.00     0.169 A 
ATOM     22  C   UNL     1      15.754  -6.115 193.703  1.00  0.00     0.162 A 
BRANCH  13  23
ATOM     23  O   UNL     1      17.298  -9.401 197.319  1.00  0.00    -0.507 OA
ATOM     24  H   UNL     1      17.539  -9.604 198.280  1.00  0.00     0.293 HD
ENDBRANCH  13  23
BRANCH  19  25
ATOM     25  C   UNL     1      18.289  -8.617 194.960  1.00  0.00     0.264 C 
ATOM     26  O   UNL     1      19.357  -8.163 195.454  1.00  0.00    -0.298 OA
ENDBRANCH  19  25
BRANCH  20  27
ATOM     27  C   UNL     1      13.476  -5.313 194.540  1.00  0.00     0.017 C 
ATOM     28  C   UNL     1      13.252  -4.608 195.881  1.00  0.00     0.012 C 
ATOM     29  C   UNL     1      12.185  -5.982 194.035  1.00  0.00     0.012 C 
ENDBRANCH  20  27
BRANCH  21  30
ATOM     30  O   UNL     1      18.039  -6.669 193.019  1.00  0.00    -0.504 OA
ATOM     31  H   UNL     1      18.444  -7.392 192.443  1.00  0.00     0.293 HD
ENDBRANCH  21  30
BRANCH  22  32
ATOM     32  O   UNL     1      15.593  -5.253 192.614  1.00  0.00    -0.504 OA
ATOM     33  H   UNL     1      15.056  -5.461 191.785  1.00  0.00     0.293 HD
ENDBRANCH  22  32
ENDBRANCH  11  12
BRANCH  10  34
ATOM     34  O   UNL     1      14.547 -12.038 197.256  1.00  0.00    -0.507 OA
ATOM     35  H   UNL     1      13.782 -11.719 196.674  1.00  0.00     0.293 HD
ENDBRANCH  10  34
BRANCH   9  36
ATOM     36  C   UNL     1      16.433 -12.565 203.187  1.00  0.00     0.017 C 
ATOM     37  C   UNL     1      17.925 -12.414 202.877  1.00  0.00     0.012 C 
ATOM     38  C   UNL     1      15.872 -11.307 203.876  1.00  0.00     0.012 C 
ENDBRANCH   9  36
BRANCH   6  39
ATOM     39  C   UNL     1      13.758 -14.374 198.308  1.00  0.00     0.264 C 
ATOM     40  O   UNL     1      14.366 -15.082 197.462  1.00  0.00    -0.298 OA
ENDBRANCH   6  39
BRANCH   8  41
ATOM     41  O   UNL     1      15.377 -15.222 202.833  1.00  0.00    -0.504 OA
ATOM     42  H   UNL     1      15.532 -16.213 202.699  1.00  0.00     0.293 HD
ENDBRANCH   8  41
BRANCH   7  43
ATOM     43  O   UNL     1      14.240 -16.097 200.501  1.00  0.00    -0.504 OA
ATOM     44  H   UNL     1      14.866 -16.886 200.584  1.00  0.00     0.293 HD
ENDBRANCH   7  43
TORSDOF 11
ENDMDL
MODEL 8
REMARK VINA RESULT:    -4.778      5.490      7.436
REMARK INTER + INTRA:          -8.468
REMARK INTER:                  -7.121
REMARK INTRA:                  -1.347
REMARK UNBOUND:                -1.456
REMARK SMILES Cc1cc2c(C(C)C)c(O)c(O)c(C=O)c2c(O)c1-c1c(C)cc2c(C(C)C)c(O)c(O)c(C=O)c2c1O
REMARK SMILES IDX 1 1 2 2 3 3 4 4 16 5 13 6 11 7 9 8 5 9 17 10 19 11 20 12
REMARK SMILES IDX 37 13 21 14 36 15 23 16 22 17 24 18 33 19 25 20 31 21 29 22
REMARK SMILES IDX 38 23 34 25 35 26 26 27 27 28 28 29 32 30 30 32 18 34 6 36
REMARK SMILES IDX 7 37 8 38 14 39 15 40 10 41 12 43
REMARK H PARENT 38 24 32 31 30 33 18 35 10 42 12 44
REMARK Flexibility Score: inf
ROOT
ATOM      1  C   UNL     1      10.828  -0.028 195.555  1.00  0.00     0.045 C 
ATOM      2  C   UNL     1       9.639  -0.927 195.319  1.00  0.00    -0.039 A 
ATOM      3  C   UNL     1       9.486  -1.554 194.081  1.00  0.00     0.013 A 
ATOM      4  C   UNL     1       8.392  -2.403 193.808  1.00  0.00    -0.006 A 
ATOM      5  C   UNL     1       7.512  -2.746 194.877  1.00  0.00     0.039 A 
ATOM      6  C   UNL     1       6.567  -3.796 194.683  1.00  0.00     0.072 A 
ATOM      7  C   UNL     1       6.458  -4.415 193.422  1.00  0.00     0.169 A 
ATOM      8  C   UNL     1       7.247  -3.991 192.348  1.00  0.00     0.162 A 
ATOM      9  C   UNL     1       8.171  -2.933 192.501  1.00  0.00     0.008 A 
ATOM     10  C   UNL     1       7.596  -2.011 196.095  1.00  0.00     0.132 A 
ATOM     11  C   UNL     1       8.662  -1.111 196.312  1.00  0.00     0.031 A 
ENDROOT
BRANCH  11  12
ATOM     12  C   UNL     1       8.759  -0.361 197.592  1.00  0.00     0.031 A 
ATOM     13  C   UNL     1       9.490  -0.893 198.675  1.00  0.00     0.132 A 
ATOM     14  C   UNL     1       8.125   0.886 197.717  1.00  0.00    -0.039 A 
ATOM     15  C   UNL     1       9.630  -0.149 199.884  1.00  0.00     0.039 A 
ATOM     16  C   UNL     1       8.161   1.555 198.942  1.00  0.00     0.013 A 
ATOM     17  C   UNL     1       7.368   1.493 196.561  1.00  0.00     0.045 C 
ATOM     18  C   UNL     1       8.845   1.027 200.059  1.00  0.00    -0.006 A 
ATOM     19  C   UNL     1      10.506  -0.556 200.931  1.00  0.00     0.072 A 
ATOM     20  C   UNL     1       8.784   1.666 201.333  1.00  0.00     0.008 A 
ATOM     21  C   UNL     1      10.544   0.166 202.140  1.00  0.00     0.169 A 
ATOM     22  C   UNL     1       9.715   1.289 202.328  1.00  0.00     0.162 A 
BRANCH  13  23
ATOM     23  O   UNL     1      10.040  -2.175 198.567  1.00  0.00    -0.507 OA
ATOM     24  H   UNL     1       9.961  -2.885 199.283  1.00  0.00     0.293 HD
ENDBRANCH  13  23
BRANCH  19  25
ATOM     25  C   UNL     1      11.493  -1.647 200.751  1.00  0.00     0.264 C 
ATOM     26  O   UNL     1      11.377  -2.737 201.375  1.00  0.00    -0.298 OA
ENDBRANCH  19  25
BRANCH  20  27
ATOM     27  C   UNL     1       7.741   2.757 201.636  1.00  0.00     0.017 C 
ATOM     28  C   UNL     1       6.332   2.292 201.259  1.00  0.00     0.012 C 
ATOM     29  C   UNL     1       8.071   4.122 201.002  1.00  0.00     0.012 C 
ENDBRANCH  20  27
BRANCH  21  30
ATOM     30  O   UNL     1      11.433  -0.258 203.137  1.00  0.00    -0.504 OA
ATOM     31  H   UNL     1      11.168  -0.489 204.083  1.00  0.00     0.293 HD
ENDBRANCH  21  30
BRANCH  22  32
ATOM     32  O   UNL     1       9.820   2.073 203.481  1.00  0.00    -0.504 OA
ATOM     33  H   UNL     1      10.586   2.038 204.138  1.00  0.00     0.293 HD
ENDBRANCH  22  32
ENDBRANCH  11  12
BRANCH  10  34
ATOM     34  O   UNL     1       6.601  -2.146 197.069  1.00  0.00    -0.507 OA
ATOM     35  H   UNL     1       6.088  -1.367 197.463  1.00  0.00     0.293 HD
ENDBRANCH  10  34
BRANCH   9  36
ATOM     36  C   UNL     1       8.910  -2.379 191.270  1.00  0.00     0.017 C 
ATOM     37  C   UNL     1       8.733  -0.862 191.163  1.00  0.00     0.012 C 
ATOM     38  C   UNL     1      10.396  -2.778 191.211  1.00  0.00     0.012 C 
ENDBRANCH   9  36
BRANCH   6  39
ATOM     39  C   UNL     1       5.768  -4.352 195.794  1.00  0.00     0.264 C 
ATOM     40  O   UNL     1       4.535  -4.103 195.881  1.00  0.00    -0.298 OA
ENDBRANCH   6  39
BRANCH   8  41
ATOM     41  O   UNL     1       7.136  -4.644 191.119  1.00  0.00    -0.504 OA
ATOM     42  H   UNL     1       7.722  -5.425 190.853  1.00  0.00     0.293 HD
ENDBRANCH   8  41
BRANCH   7  43
ATOM     43  O   UNL     1       5.574  -5.482 193.207  1.00  0.00    -0.504 OA
ATOM     44  H   UNL     1       4.616  -5.497 193.528  1.00  0.00     0.293 HD
ENDBRANCH   7  43
TORSDOF 11
ENDMDL
MODEL 9
REMARK VINA RESULT:    -4.771     10.668     14.127
REMARK INTER + INTRA:          -8.459
REMARK INTER:                  -7.015
REMARK INTRA:                  -1.443
REMARK UNBOUND:                -1.456
REMARK SMILES Cc1cc2c(C(C)C)c(O)c(O)c(C=O)c2c(O)c1-c1c(C)cc2c(C(C)C)c(O)c(O)c(C=O)c2c1O
REMARK SMILES IDX 1 1 2 2 3 3 4 4 16 5 13 6 11 7 9 8 5 9 17 10 19 11 20 12
REMARK SMILES IDX 37 13 21 14 36 15 23 16 22 17 24 18 33 19 25 20 31 21 29 22
REMARK SMILES IDX 38 23 34 25 35 26 26 27 27 28 28 29 32 30 30 32 18 34 6 36
REMARK SMILES IDX 7 37 8 38 14 39 15 40 10 41 12 43
REMARK H PARENT 38 24 32 31 30 33 18 35 10 42 12 44
REMARK Flexibility Score: inf
ROOT
ATOM      1  C   UNL     1       4.500  -6.295 195.566  1.00  0.00     0.045 C 
ATOM      2  C   UNL     1       3.853  -7.327 196.456  1.00  0.00    -0.039 A 
ATOM      3  C   UNL     1       3.689  -7.056 197.816  1.00  0.00     0.013 A 
ATOM      4  C   UNL     1       3.091  -7.989 198.692  1.00  0.00    -0.006 A 
ATOM      5  C   UNL     1       2.503  -9.164 198.139  1.00  0.00     0.039 A 
ATOM      6  C   UNL     1       1.676  -9.978 198.967  1.00  0.00     0.072 A 
ATOM      7  C   UNL     1       1.523  -9.659 200.331  1.00  0.00     0.169 A 
ATOM      8  C   UNL     1       2.197  -8.568 200.889  1.00  0.00     0.162 A 
ATOM      9  C   UNL     1       3.048  -7.761 200.100  1.00  0.00     0.008 A 
ATOM     10  C   UNL     1       2.783  -9.495 196.780  1.00  0.00     0.132 A 
ATOM     11  C   UNL     1       3.449  -8.572 195.945  1.00  0.00     0.031 A 
ENDROOT
BRANCH  11  12
ATOM     12  C   UNL     1       3.721  -8.911 194.524  1.00  0.00     0.031 A 
ATOM     13  C   UNL     1       2.792  -8.564 193.519  1.00  0.00     0.132 A 
ATOM     14  C   UNL     1       4.911  -9.573 194.181  1.00  0.00    -0.039 A 
ATOM     15  C   UNL     1       3.077  -8.839 192.149  1.00  0.00     0.039 A 
ATOM     16  C   UNL     1       5.130  -9.950 192.855  1.00  0.00     0.013 A 
ATOM     17  C   UNL     1       5.936  -9.923 195.232  1.00  0.00     0.045 C 
ATOM     18  C   UNL     1       4.199  -9.658 191.834  1.00  0.00    -0.006 A 
ATOM     19  C   UNL     1       2.264  -8.345 191.088  1.00  0.00     0.072 A 
ATOM     20  C   UNL     1       4.383 -10.143 190.505  1.00  0.00     0.008 A 
ATOM     21  C   UNL     1       2.539  -8.715 189.757  1.00  0.00     0.169 A 
ATOM     22  C   UNL     1       3.610  -9.580 189.463  1.00  0.00     0.162 A 
BRANCH  13  23
ATOM     23  O   UNL     1       1.571  -7.985 193.885  1.00  0.00    -0.507 OA
ATOM     24  H   UNL     1       1.476  -7.271 194.595  1.00  0.00     0.293 HD
ENDBRANCH  13  23
BRANCH  19  25
ATOM     25  C   UNL     1       1.205  -7.333 191.316  1.00  0.00     0.264 C 
ATOM     26  O   UNL     1      -0.013  -7.661 191.329  1.00  0.00    -0.298 OA
ENDBRANCH  19  25
BRANCH  20  27
ATOM     27  C   UNL     1       5.408 -11.246 190.186  1.00  0.00     0.017 C 
ATOM     28  C   UNL     1       6.612 -10.678 189.428  1.00  0.00     0.012 C 
ATOM     29  C   UNL     1       4.805 -12.459 189.452  1.00  0.00     0.012 C 
ENDBRANCH  20  27
BRANCH  21  30
ATOM     30  O   UNL     1       1.725  -8.193 188.743  1.00  0.00    -0.504 OA
ATOM     31  H   UNL     1       1.750  -7.237 188.420  1.00  0.00     0.293 HD
ENDBRANCH  21  30
BRANCH  22  32
ATOM     32  O   UNL     1       3.955  -9.871 188.140  1.00  0.00    -0.504 OA
ATOM     33  H   UNL     1       4.895 -10.023 187.806  1.00  0.00     0.293 HD
ENDBRANCH  22  32
ENDBRANCH  11  12
BRANCH  10  34
ATOM     34  O   UNL     1       2.433 -10.752 196.276  1.00  0.00    -0.507 OA
ATOM     35  H   UNL     1       2.711 -11.091 195.363  1.00  0.00     0.293 HD
ENDBRANCH  10  34
BRANCH   9  36
ATOM     36  C   UNL     1       3.901  -6.669 200.768  1.00  0.00     0.017 C 
ATOM     37  C   UNL     1       3.046  -5.449 201.126  1.00  0.00     0.012 C 
ATOM     38  C   UNL     1       4.703  -7.169 201.984  1.00  0.00     0.012 C 
ENDBRANCH   9  36
BRANCH   6  39
ATOM     39  C   UNL     1       0.867 -11.088 198.425  1.00  0.00     0.264 C 
ATOM     40  O   UNL     1       1.144 -12.282 198.718  1.00  0.00    -0.298 OA
ENDBRANCH   6  39
BRANCH   8  41
ATOM     41  O   UNL     1       2.001  -8.261 202.237  1.00  0.00    -0.504 OA
ATOM     42  H   UNL     1       2.289  -7.383 202.652  1.00  0.00     0.293 HD
ENDBRANCH   8  41
BRANCH   7  43
ATOM     43  O   UNL     1       0.680 -10.407 201.166  1.00  0.00    -0.504 OA
ATOM     44  H   UNL     1       0.596 -11.414 201.129  1.00  0.00     0.293 HD
ENDBRANCH   7  43
TORSDOF 11
ENDMDL
