MODEL 1
REMARK VINA RESULT:    -5.935      0.000      0.000
REMARK INTER + INTRA:         -16.872
REMARK INTER:                 -14.957
REMARK INTRA:                  -1.915
REMARK UNBOUND:                -1.915
REMARK SMILES CCCCCCCCCCCCCCCCCCCCCCCCCCCC(=O)[O-]
REMARK SMILES IDX 15 1 16 2 17 3 18 4 19 5 20 6 21 7 22 8 23 9 24 10 25 11
REMARK SMILES IDX 26 12 27 13 28 14 29 15 30 16 14 17 13 18 12 19 11 20 10 21
REMARK SMILES IDX 9 22 8 23 7 24 6 25 5 26 4 27 3 28 2 29 1 30
REMARK H PARENT
REMARK Flexibility Score: inf
ROOT
ATOM      1  C   UNL     1       6.735 -16.436  -6.356  1.00  0.00     0.000 C 
ENDROOT
BRANCH   1   2
ATOM      2  C   UNL     1       7.647 -16.051  -7.532  1.00  0.00     0.000 C 
BRANCH   2   3
ATOM      3  C   UNL     1       6.901 -15.287  -8.636  1.00  0.00     0.000 C 
BRANCH   3   4
ATOM      4  C   UNL     1       7.581 -13.940  -8.921  1.00  0.00     0.000 C 
BRANCH   4   5
ATOM      5  C   UNL     1       7.693 -13.047  -7.671  1.00  0.00     0.000 C 
BRANCH   5   6
ATOM      6  C   UNL     1       8.904 -12.091  -7.651  1.00  0.00     0.000 C 
BRANCH   6   7
ATOM      7  C   UNL     1      10.201 -12.690  -7.078  1.00  0.00     0.000 C 
BRANCH   7   8
ATOM      8  C   UNL     1      11.465 -11.955  -7.560  1.00  0.00     0.000 C 
BRANCH   8   9
ATOM      9  C   UNL     1      11.166 -10.517  -8.020  1.00  0.00     0.000 C 
BRANCH   9  10
ATOM     10  C   UNL     1      12.096  -9.460  -7.393  1.00  0.00     0.000 C 
BRANCH  10  11
ATOM     11  C   UNL     1      12.396  -9.748  -5.910  1.00  0.00     0.000 C 
BRANCH  11  12
ATOM     12  C   UNL     1      11.643  -8.805  -4.960  1.00  0.00     0.006 C 
BRANCH  12  13
ATOM     13  C   UNL     1      12.165  -8.872  -3.517  1.00  0.00     0.053 C 
BRANCH  13  14
ATOM     14  C   UNL     1      12.311  -7.497  -2.943  1.00  0.00     0.041 C 
ATOM     15  O   UNL     1      11.296  -6.864  -2.546  1.00  0.00    -0.550 OA
ATOM     16  O   UNL     1      13.569  -6.918  -2.835  1.00  0.00    -0.550 OA
ENDBRANCH  13  14
ENDBRANCH  12  13
ENDBRANCH  11  12
ENDBRANCH  10  11
ENDBRANCH   9  10
ENDBRANCH   8   9
ENDBRANCH   7   8
ENDBRANCH   6   7
ENDBRANCH   5   6
ENDBRANCH   4   5
ENDBRANCH   3   4
ENDBRANCH   2   3
ENDBRANCH   1   2
BRANCH   1  17
ATOM     17  C   UNL     1       5.425 -15.628  -6.337  1.00  0.00     0.000 C 
BRANCH  17  18
ATOM     18  C   UNL     1       4.372 -16.235  -5.392  1.00  0.00     0.000 C 
BRANCH  18  19
ATOM     19  C   UNL     1       4.695 -17.668  -4.929  1.00  0.00     0.000 C 
BRANCH  19  20
ATOM     20  C   UNL     1       3.466 -18.593  -4.972  1.00  0.00     0.000 C 
BRANCH  20  21
ATOM     21  C   UNL     1       3.029 -19.072  -3.577  1.00  0.00     0.000 C 
BRANCH  21  22
ATOM     22  C   UNL     1       2.201 -18.057  -2.769  1.00  0.00    -0.000 C 
BRANCH  22  23
ATOM     23  C   UNL     1       2.917 -17.588  -1.492  1.00  0.00    -0.000 C 
BRANCH  23  24
ATOM     24  C   UNL     1       4.266 -18.293  -1.270  1.00  0.00    -0.000 C 
BRANCH  24  25
ATOM     25  C   UNL     1       4.738 -18.360   0.198  1.00  0.00    -0.000 C 
BRANCH  25  26
ATOM     26  C   UNL     1       3.602 -18.177   1.226  1.00  0.00    -0.000 C 
BRANCH  26  27
ATOM     27  C   UNL     1       3.690 -19.194   2.375  1.00  0.00    -0.000 C 
BRANCH  27  28
ATOM     28  C   UNL     1       4.608 -18.686   3.496  1.00  0.00    -0.000 C 
BRANCH  28  29
ATOM     29  C   UNL     1       4.489 -17.170   3.713  1.00  0.00    -0.003 C 
ATOM     30  C   UNL     1       3.178 -16.768   4.390  1.00  0.00     0.004 C 
ENDBRANCH  28  29
ENDBRANCH  27  28
ENDBRANCH  26  27
ENDBRANCH  25  26
ENDBRANCH  24  25
ENDBRANCH  23  24
ENDBRANCH  22  23
ENDBRANCH  21  22
ENDBRANCH  20  21
ENDBRANCH  19  20
ENDBRANCH  18  19
ENDBRANCH  17  18
ENDBRANCH   1  17
TORSDOF 26
ENDMDL
MODEL 2
REMARK VINA RESULT:    -5.917      5.521      9.566
REMARK INTER + INTRA:         -16.826
REMARK INTER:                 -13.070
REMARK INTRA:                  -3.756
REMARK UNBOUND:                -1.915
REMARK SMILES CCCCCCCCCCCCCCCCCCCCCCCCCCCC(=O)[O-]
REMARK SMILES IDX 15 1 16 2 17 3 18 4 19 5 20 6 21 7 22 8 23 9 24 10 25 11
REMARK SMILES IDX 26 12 27 13 28 14 29 15 30 16 14 17 13 18 12 19 11 20 10 21
REMARK SMILES IDX 9 22 8 23 7 24 6 25 5 26 4 27 3 28 2 29 1 30
REMARK H PARENT
REMARK Flexibility Score: inf
ROOT
ATOM      1  C   UNL     1       6.397 -14.917   1.746  1.00  0.00     0.000 C 
ENDROOT
BRANCH   1   2
ATOM      2  C   UNL     1       6.897 -14.370   3.093  1.00  0.00     0.000 C 
BRANCH   2   3
ATOM      3  C   UNL     1       7.419 -15.473   4.024  1.00  0.00     0.000 C 
BRANCH   3   4
ATOM      4  C   UNL     1       6.785 -15.356   5.417  1.00  0.00     0.000 C 
BRANCH   4   5
ATOM      5  C   UNL     1       7.741 -15.773   6.550  1.00  0.00     0.000 C 
BRANCH   5   6
ATOM      6  C   UNL     1       8.625 -14.642   7.116  1.00  0.00     0.000 C 
BRANCH   6   7
ATOM      7  C   UNL     1       8.051 -13.222   6.959  1.00  0.00     0.000 C 
BRANCH   7   8
ATOM      8  C   UNL     1       8.816 -12.378   5.924  1.00  0.00     0.000 C 
BRANCH   8   9
ATOM      9  C   UNL     1      10.087 -13.083   5.416  1.00  0.00     0.000 C 
BRANCH   9  10
ATOM     10  C   UNL     1      10.710 -12.418   4.173  1.00  0.00     0.000 C 
BRANCH  10  11
ATOM     11  C   UNL     1      10.951 -10.911   4.372  1.00  0.00     0.000 C 
BRANCH  11  12
ATOM     12  C   UNL     1      12.184 -10.617   5.239  1.00  0.00     0.006 C 
BRANCH  12  13
ATOM     13  C   UNL     1      13.253  -9.800   4.499  1.00  0.00     0.053 C 
BRANCH  13  14
ATOM     14  C   UNL     1      12.621  -8.700   3.703  1.00  0.00     0.041 C 
ATOM     15  O   UNL     1      12.086  -7.721   4.288  1.00  0.00    -0.550 OA
ATOM     16  O   UNL     1      12.633  -8.751   2.315  1.00  0.00    -0.550 OA
ENDBRANCH  13  14
ENDBRANCH  12  13
ENDBRANCH  11  12
ENDBRANCH  10  11
ENDBRANCH   9  10
ENDBRANCH   8   9
ENDBRANCH   7   8
ENDBRANCH   6   7
ENDBRANCH   5   6
ENDBRANCH   4   5
ENDBRANCH   3   4
ENDBRANCH   2   3
ENDBRANCH   1   2
BRANCH   1  17
ATOM     17  C   UNL     1       4.916 -14.584   1.487  1.00  0.00     0.000 C 
BRANCH  17  18
ATOM     18  C   UNL     1       4.090 -14.526   2.785  1.00  0.00     0.000 C 
BRANCH  18  19
ATOM     19  C   UNL     1       3.143 -15.725   2.981  1.00  0.00     0.000 C 
BRANCH  19  20
ATOM     20  C   UNL     1       3.696 -16.755   3.982  1.00  0.00     0.000 C 
BRANCH  20  21
ATOM     21  C   UNL     1       3.939 -18.135   3.346  1.00  0.00     0.000 C 
BRANCH  21  22
ATOM     22  C   UNL     1       5.327 -18.324   2.709  1.00  0.00    -0.000 C 
BRANCH  22  23
ATOM     23  C   UNL     1       5.272 -18.394   1.174  1.00  0.00    -0.000 C 
BRANCH  23  24
ATOM     24  C   UNL     1       3.838 -18.315   0.623  1.00  0.00    -0.000 C 
BRANCH  24  25
ATOM     25  C   UNL     1       3.684 -17.526  -0.694  1.00  0.00    -0.000 C 
BRANCH  25  26
ATOM     26  C   UNL     1       2.269 -17.607  -1.307  1.00  0.00    -0.000 C 
BRANCH  26  27
ATOM     27  C   UNL     1       2.304 -17.955  -2.803  1.00  0.00    -0.000 C 
BRANCH  27  28
ATOM     28  C   UNL     1       3.453 -18.922  -3.121  1.00  0.00    -0.000 C 
BRANCH  28  29
ATOM     29  C   UNL     1       4.305 -18.453  -4.310  1.00  0.00    -0.003 C 
ATOM     30  C   UNL     1       4.076 -16.982  -4.661  1.00  0.00     0.004 C 
ENDBRANCH  28  29
ENDBRANCH  27  28
ENDBRANCH  26  27
ENDBRANCH  25  26
ENDBRANCH  24  25
ENDBRANCH  23  24
ENDBRANCH  22  23
ENDBRANCH  21  22
ENDBRANCH  20  21
ENDBRANCH  19  20
ENDBRANCH  18  19
ENDBRANCH  17  18
ENDBRANCH   1  17
TORSDOF 26
ENDMDL
MODEL 3
REMARK VINA RESULT:    -5.744      4.853      9.358
REMARK INTER + INTRA:         -16.391
REMARK INTER:                 -13.027
REMARK INTRA:                  -3.364
REMARK UNBOUND:                -1.915
REMARK SMILES CCCCCCCCCCCCCCCCCCCCCCCCCCCC(=O)[O-]
REMARK SMILES IDX 15 1 16 2 17 3 18 4 19 5 20 6 21 7 22 8 23 9 24 10 25 11
REMARK SMILES IDX 26 12 27 13 28 14 29 15 30 16 14 17 13 18 12 19 11 20 10 21
REMARK SMILES IDX 9 22 8 23 7 24 6 25 5 26 4 27 3 28 2 29 1 30
REMARK H PARENT
REMARK Flexibility Score: inf
ROOT
ATOM      1  C   UNL     1       3.535 -15.818   1.808  1.00  0.00     0.000 C 
ENDROOT
BRANCH   1   2
ATOM      2  C   UNL     1       4.858 -15.395   1.150  1.00  0.00     0.000 C 
BRANCH   2   3
ATOM      3  C   UNL     1       5.030 -15.975  -0.261  1.00  0.00     0.000 C 
BRANCH   3   4
ATOM      4  C   UNL     1       5.330 -17.480  -0.199  1.00  0.00     0.000 C 
BRANCH   4   5
ATOM      5  C   UNL     1       4.330 -18.326  -1.007  1.00  0.00     0.000 C 
BRANCH   5   6
ATOM      6  C   UNL     1       2.949 -17.675  -1.234  1.00  0.00     0.000 C 
BRANCH   6   7
ATOM      7  C   UNL     1       2.490 -17.606  -2.702  1.00  0.00     0.000 C 
BRANCH   7   8
ATOM      8  C   UNL     1       2.932 -18.829  -3.526  1.00  0.00     0.000 C 
BRANCH   8   9
ATOM      9  C   UNL     1       3.877 -18.448  -4.680  1.00  0.00     0.000 C 
BRANCH   9  10
ATOM     10  C   UNL     1       4.024 -16.928  -4.885  1.00  0.00     0.000 C 
BRANCH  10  11
ATOM     11  C   UNL     1       5.492 -16.497  -5.054  1.00  0.00     0.000 C 
BRANCH  11  12
ATOM     12  C   UNL     1       5.636 -15.170  -5.813  1.00  0.00     0.006 C 
BRANCH  12  13
ATOM     13  C   UNL     1       5.360 -15.310  -7.317  1.00  0.00     0.053 C 
BRANCH  13  14
ATOM     14  C   UNL     1       6.629 -15.192  -8.102  1.00  0.00     0.041 C 
ATOM     15  O   UNL     1       7.465 -14.292  -7.824  1.00  0.00    -0.550 OA
ATOM     16  O   UNL     1       6.896 -16.084  -9.134  1.00  0.00    -0.550 OA
ENDBRANCH  13  14
ENDBRANCH  12  13
ENDBRANCH  11  12
ENDBRANCH  10  11
ENDBRANCH   9  10
ENDBRANCH   8   9
ENDBRANCH   7   8
ENDBRANCH   6   7
ENDBRANCH   5   6
ENDBRANCH   4   5
ENDBRANCH   3   4
ENDBRANCH   2   3
ENDBRANCH   1   2
BRANCH   1  17
ATOM     17  C   UNL     1       3.602 -15.776   3.346  1.00  0.00     0.000 C 
BRANCH  17  18
ATOM     18  C   UNL     1       3.289 -17.141   3.987  1.00  0.00     0.000 C 
BRANCH  18  19
ATOM     19  C   UNL     1       3.626 -18.347   3.091  1.00  0.00     0.000 C 
BRANCH  19  20
ATOM     20  C   UNL     1       4.834 -19.147   3.610  1.00  0.00     0.000 C 
BRANCH  20  21
ATOM     21  C   UNL     1       6.181 -18.551   3.164  1.00  0.00     0.000 C 
BRANCH  21  22
ATOM     22  C   UNL     1       6.957 -17.800   4.261  1.00  0.00    -0.000 C 
BRANCH  22  23
ATOM     23  C   UNL     1       7.185 -16.319   3.919  1.00  0.00    -0.000 C 
BRANCH  23  24
ATOM     24  C   UNL     1       6.821 -15.374   5.077  1.00  0.00    -0.000 C 
BRANCH  24  25
ATOM     25  C   UNL     1       7.527 -15.675   6.416  1.00  0.00    -0.000 C 
BRANCH  25  26
ATOM     26  C   UNL     1       8.701 -14.723   6.729  1.00  0.00    -0.000 C 
BRANCH  26  27
ATOM     27  C   UNL     1       8.220 -13.341   7.193  1.00  0.00    -0.000 C 
BRANCH  27  28
ATOM     28  C   UNL     1       8.498 -12.270   6.128  1.00  0.00    -0.000 C 
BRANCH  28  29
ATOM     29  C   UNL     1       9.834 -12.494   5.404  1.00  0.00    -0.003 C 
ATOM     30  C   UNL     1      10.202 -11.342   4.467  1.00  0.00     0.004 C 
ENDBRANCH  28  29
ENDBRANCH  27  28
ENDBRANCH  26  27
ENDBRANCH  25  26
ENDBRANCH  24  25
ENDBRANCH  23  24
ENDBRANCH  22  23
ENDBRANCH  21  22
ENDBRANCH  20  21
ENDBRANCH  19  20
ENDBRANCH  18  19
ENDBRANCH  17  18
ENDBRANCH   1  17
TORSDOF 26
ENDMDL
MODEL 4
REMARK VINA RESULT:    -5.741      7.057     13.183
REMARK INTER + INTRA:         -16.382
REMARK INTER:                 -12.493
REMARK INTRA:                  -3.890
REMARK UNBOUND:                -1.915
REMARK SMILES CCCCCCCCCCCCCCCCCCCCCCCCCCCC(=O)[O-]
REMARK SMILES IDX 15 1 16 2 17 3 18 4 19 5 20 6 21 7 22 8 23 9 24 10 25 11
REMARK SMILES IDX 26 12 27 13 28 14 29 15 30 16 14 17 13 18 12 19 11 20 10 21
REMARK SMILES IDX 9 22 8 23 7 24 6 25 5 26 4 27 3 28 2 29 1 30
REMARK H PARENT
REMARK Flexibility Score: inf
ROOT
ATOM      1  C   UNL     1      11.128 -10.581   0.886  1.00  0.00     0.000 C 
ENDROOT
BRANCH   1   2
ATOM      2  C   UNL     1      12.660 -10.633   0.783  1.00  0.00     0.000 C 
BRANCH   2   3
ATOM      3  C   UNL     1      13.355  -9.751   1.830  1.00  0.00     0.000 C 
BRANCH   3   4
ATOM      4  C   UNL     1      12.434  -8.606   2.275  1.00  0.00     0.000 C 
BRANCH   4   5
ATOM      5  C   UNL     1      12.279  -8.519   3.805  1.00  0.00     0.000 C 
BRANCH   5   6
ATOM      6  C   UNL     1      13.117  -9.535   4.610  1.00  0.00     0.000 C 
BRANCH   6   7
ATOM      7  C   UNL     1      12.302 -10.598   5.370  1.00  0.00     0.000 C 
BRANCH   7   8
ATOM      8  C   UNL     1      11.668 -11.646   4.439  1.00  0.00     0.000 C 
BRANCH   8   9
ATOM      9  C   UNL     1      10.130 -11.642   4.515  1.00  0.00     0.000 C 
BRANCH   9  10
ATOM     10  C   UNL     1       9.580 -11.763   5.950  1.00  0.00     0.000 C 
BRANCH  10  11
ATOM     11  C   UNL     1       8.220 -12.485   5.999  1.00  0.00     0.000 C 
BRANCH  11  12
ATOM     12  C   UNL     1       8.105 -13.450   7.188  1.00  0.00     0.006 C 
BRANCH  12  13
ATOM     13  C   UNL     1       8.951 -14.720   7.010  1.00  0.00     0.053 C 
BRANCH  13  14
ATOM     14  C   UNL     1       8.663 -15.367   5.691  1.00  0.00     0.041 C 
ATOM     15  O   UNL     1       9.545 -15.392   4.791  1.00  0.00    -0.550 OA
ATOM     16  O   UNL     1       7.425 -15.953   5.458  1.00  0.00    -0.550 OA
ENDBRANCH  13  14
ENDBRANCH  12  13
ENDBRANCH  11  12
ENDBRANCH  10  11
ENDBRANCH   9  10
ENDBRANCH   8   9
ENDBRANCH   7   8
ENDBRANCH   6   7
ENDBRANCH   5   6
ENDBRANCH   4   5
ENDBRANCH   3   4
ENDBRANCH   2   3
ENDBRANCH   1   2
BRANCH   1  17
ATOM     17  C   UNL     1      10.460 -10.195  -0.447  1.00  0.00     0.000 C 
BRANCH  17  18
ATOM     18  C   UNL     1      10.391  -8.670  -0.651  1.00  0.00     0.000 C 
BRANCH  18  19
ATOM     19  C   UNL     1      10.646  -8.218  -2.101  1.00  0.00     0.000 C 
BRANCH  19  20
ATOM     20  C   UNL     1      11.812  -7.220  -2.211  1.00  0.00     0.000 C 
BRANCH  20  21
ATOM     21  C   UNL     1      13.027  -7.624  -1.358  1.00  0.00     0.000 C 
BRANCH  21  22
ATOM     22  C   UNL     1      14.389  -7.513  -2.068  1.00  0.00    -0.000 C 
BRANCH  22  23
ATOM     23  C   UNL     1      14.728  -8.761  -2.900  1.00  0.00    -0.000 C 
BRANCH  23  24
ATOM     24  C   UNL     1      14.026 -10.030  -2.389  1.00  0.00    -0.000 C 
BRANCH  24  25
ATOM     25  C   UNL     1      13.069 -10.701  -3.396  1.00  0.00    -0.000 C 
BRANCH  25  26
ATOM     26  C   UNL     1      12.839  -9.878  -4.681  1.00  0.00    -0.000 C 
BRANCH  26  27
ATOM     27  C   UNL     1      11.472 -10.167  -5.319  1.00  0.00    -0.000 C 
BRANCH  27  28
ATOM     28  C   UNL     1      11.577 -11.270  -6.382  1.00  0.00    -0.000 C 
BRANCH  28  29
ATOM     29  C   UNL     1      11.762 -10.706  -7.799  1.00  0.00    -0.003 C 
ATOM     30  C   UNL     1      10.677  -9.701  -8.184  1.00  0.00     0.004 C 
ENDBRANCH  28  29
ENDBRANCH  27  28
ENDBRANCH  26  27
ENDBRANCH  25  26
ENDBRANCH  24  25
ENDBRANCH  23  24
ENDBRANCH  22  23
ENDBRANCH  21  22
ENDBRANCH  20  21
ENDBRANCH  19  20
ENDBRANCH  18  19
ENDBRANCH  17  18
ENDBRANCH   1  17
TORSDOF 26
ENDMDL
MODEL 5
REMARK VINA RESULT:    -5.734      4.497      9.101
REMARK INTER + INTRA:         -16.365
REMARK INTER:                 -14.589
REMARK INTRA:                  -1.776
REMARK UNBOUND:                -1.915
REMARK SMILES CCCCCCCCCCCCCCCCCCCCCCCCCCCC(=O)[O-]
REMARK SMILES IDX 15 1 16 2 17 3 18 4 19 5 20 6 21 7 22 8 23 9 24 10 25 11
REMARK SMILES IDX 26 12 27 13 28 14 29 15 30 16 14 17 13 18 12 19 11 20 10 21
REMARK SMILES IDX 9 22 8 23 7 24 6 25 5 26 4 27 3 28 2 29 1 30
REMARK H PARENT
REMARK Flexibility Score: inf
ROOT
ATOM      1  C   UNL     1       9.914 -14.870   5.424  1.00  0.00     0.000 C 
ENDROOT
BRANCH   1   2
ATOM      2  C   UNL     1      10.680 -13.584   5.074  1.00  0.00     0.000 C 
BRANCH   2   3
ATOM      3  C   UNL     1       9.824 -12.320   5.240  1.00  0.00     0.000 C 
BRANCH   3   4
ATOM      4  C   UNL     1      10.577 -11.083   4.730  1.00  0.00     0.000 C 
BRANCH   4   5
ATOM      5  C   UNL     1      12.076 -11.104   5.082  1.00  0.00     0.000 C 
BRANCH   5   6
ATOM      6  C   UNL     1      12.876  -9.862   4.633  1.00  0.00     0.000 C 
BRANCH   6   7
ATOM      7  C   UNL     1      12.024  -8.637   4.254  1.00  0.00     0.000 C 
BRANCH   7   8
ATOM      8  C   UNL     1      12.309  -8.126   2.831  1.00  0.00     0.000 C 
BRANCH   8   9
ATOM      9  C   UNL     1      12.739  -9.256   1.878  1.00  0.00     0.000 C 
BRANCH   9  10
ATOM     10  C   UNL     1      12.365  -8.999   0.405  1.00  0.00     0.000 C 
BRANCH  10  11
ATOM     11  C   UNL     1      13.547  -9.242  -0.552  1.00  0.00     0.000 C 
BRANCH  11  12
ATOM     12  C   UNL     1      14.375  -7.973  -0.804  1.00  0.00     0.006 C 
BRANCH  12  13
ATOM     13  C   UNL     1      14.468  -7.607  -2.292  1.00  0.00     0.053 C 
BRANCH  13  14
ATOM     14  C   UNL     1      13.102  -7.433  -2.881  1.00  0.00     0.041 C 
ATOM     15  O   UNL     1      12.354  -6.502  -2.480  1.00  0.00    -0.550 OA
ATOM     16  O   UNL     1      12.660  -8.291  -3.880  1.00  0.00    -0.550 OA
ENDBRANCH  13  14
ENDBRANCH  12  13
ENDBRANCH  11  12
ENDBRANCH  10  11
ENDBRANCH   9  10
ENDBRANCH   8   9
ENDBRANCH   7   8
ENDBRANCH   6   7
ENDBRANCH   5   6
ENDBRANCH   4   5
ENDBRANCH   3   4
ENDBRANCH   2   3
ENDBRANCH   1   2
BRANCH   1  17
ATOM     17  C   UNL     1       9.133 -14.750   6.746  1.00  0.00     0.000 C 
BRANCH  17  18
ATOM     18  C   UNL     1       7.656 -15.156   6.596  1.00  0.00     0.000 C 
BRANCH  18  19
ATOM     19  C   UNL     1       7.369 -16.043   5.370  1.00  0.00     0.000 C 
BRANCH  19  20
ATOM     20  C   UNL     1       6.333 -15.417   4.420  1.00  0.00     0.000 C 
BRANCH  20  21
ATOM     21  C   UNL     1       5.075 -16.287   4.250  1.00  0.00     0.000 C 
BRANCH  21  22
ATOM     22  C   UNL     1       5.314 -17.656   3.588  1.00  0.00    -0.000 C 
BRANCH  22  23
ATOM     23  C   UNL     1       4.075 -18.565   3.640  1.00  0.00    -0.000 C 
BRANCH  23  24
ATOM     24  C   UNL     1       3.771 -19.240   2.292  1.00  0.00    -0.000 C 
BRANCH  24  25
ATOM     25  C   UNL     1       4.417 -18.569   1.062  1.00  0.00    -0.000 C 
BRANCH  25  26
ATOM     26  C   UNL     1       3.448 -17.676   0.258  1.00  0.00    -0.000 C 
BRANCH  26  27
ATOM     27  C   UNL     1       4.191 -16.697  -0.664  1.00  0.00    -0.000 C 
BRANCH  27  28
ATOM     28  C   UNL     1       3.388 -16.422  -1.943  1.00  0.00    -0.000 C 
BRANCH  28  29
ATOM     29  C   UNL     1       2.276 -17.457  -2.173  1.00  0.00    -0.003 C 
ATOM     30  C   UNL     1       2.671 -18.543  -3.174  1.00  0.00     0.004 C 
ENDBRANCH  28  29
ENDBRANCH  27  28
ENDBRANCH  26  27
ENDBRANCH  25  26
ENDBRANCH  24  25
ENDBRANCH  23  24
ENDBRANCH  22  23
ENDBRANCH  21  22
ENDBRANCH  20  21
ENDBRANCH  19  20
ENDBRANCH  18  19
ENDBRANCH  17  18
ENDBRANCH   1  17
TORSDOF 26
ENDMDL
MODEL 6
REMARK VINA RESULT:    -5.731      5.252      9.874
REMARK INTER + INTRA:         -16.357
REMARK INTER:                 -14.425
REMARK INTRA:                  -1.932
REMARK UNBOUND:                -1.915
REMARK SMILES CCCCCCCCCCCCCCCCCCCCCCCCCCCC(=O)[O-]
REMARK SMILES IDX 15 1 16 2 17 3 18 4 19 5 20 6 21 7 22 8 23 9 24 10 25 11
REMARK SMILES IDX 26 12 27 13 28 14 29 15 30 16 14 17 13 18 12 19 11 20 10 21
REMARK SMILES IDX 9 22 8 23 7 24 6 25 5 26 4 27 3 28 2 29 1 30
REMARK H PARENT
REMARK Flexibility Score: inf
ROOT
ATOM      1  C   UNL     1      14.263  -8.056  -1.183  1.00  0.00     0.000 C 
ENDROOT
BRANCH   1   2
ATOM      2  C   UNL     1      14.054  -7.426  -2.570  1.00  0.00     0.000 C 
BRANCH   2   3
ATOM      3  C   UNL     1      12.570  -7.278  -2.936  1.00  0.00     0.000 C 
BRANCH   3   4
ATOM      4  C   UNL     1      12.267  -7.973  -4.271  1.00  0.00     0.000 C 
BRANCH   4   5
ATOM      5  C   UNL     1      12.109  -9.499  -4.131  1.00  0.00     0.000 C 
BRANCH   5   6
ATOM      6  C   UNL     1      11.971 -10.271  -5.461  1.00  0.00     0.000 C 
BRANCH   6   7
ATOM      7  C   UNL     1      12.294  -9.458  -6.727  1.00  0.00     0.000 C 
BRANCH   7   8
ATOM      8  C   UNL     1      11.506  -9.932  -7.961  1.00  0.00     0.000 C 
BRANCH   8   9
ATOM      9  C   UNL     1      10.030  -9.498  -7.916  1.00  0.00     0.000 C 
BRANCH   9  10
ATOM     10  C   UNL     1       9.037 -10.677  -7.942  1.00  0.00     0.000 C 
BRANCH  10  11
ATOM     11  C   UNL     1       8.892 -11.353  -6.567  1.00  0.00     0.000 C 
BRANCH  11  12
ATOM     12  C   UNL     1       8.709 -12.874  -6.671  1.00  0.00     0.006 C 
BRANCH  12  13
ATOM     13  C   UNL     1       8.528 -13.355  -8.118  1.00  0.00     0.053 C 
BRANCH  13  14
ATOM     14  C   UNL     1       7.656 -14.571  -8.167  1.00  0.00     0.041 C 
ATOM     15  O   UNL     1       6.944 -14.800  -9.181  1.00  0.00    -0.550 OA
ATOM     16  O   UNL     1       7.638 -15.458  -7.098  1.00  0.00    -0.550 OA
ENDBRANCH  13  14
ENDBRANCH  12  13
ENDBRANCH  11  12
ENDBRANCH  10  11
ENDBRANCH   9  10
ENDBRANCH   8   9
ENDBRANCH   7   8
ENDBRANCH   6   7
ENDBRANCH   5   6
ENDBRANCH   4   5
ENDBRANCH   3   4
ENDBRANCH   2   3
ENDBRANCH   1   2
BRANCH   1  17
ATOM     17  C   UNL     1      12.934  -8.424  -0.497  1.00  0.00     0.000 C 
BRANCH  17  18
ATOM     18  C   UNL     1      13.009  -9.770   0.247  1.00  0.00     0.000 C 
BRANCH  18  19
ATOM     19  C   UNL     1      13.136  -9.637   1.776  1.00  0.00     0.000 C 
BRANCH  19  20
ATOM     20  C   UNL     1      12.361  -8.427   2.328  1.00  0.00     0.000 C 
BRANCH  20  21
ATOM     21  C   UNL     1      12.161  -8.490   3.852  1.00  0.00     0.000 C 
BRANCH  21  22
ATOM     22  C   UNL     1      13.164  -9.382   4.605  1.00  0.00    -0.000 C 
BRANCH  22  23
ATOM     23  C   UNL     1      12.477 -10.477   5.438  1.00  0.00    -0.000 C 
BRANCH  23  24
ATOM     24  C   UNL     1      11.422 -11.262   4.641  1.00  0.00    -0.000 C 
BRANCH  24  25
ATOM     25  C   UNL     1      10.316 -11.923   5.489  1.00  0.00    -0.000 C 
BRANCH  25  26
ATOM     26  C   UNL     1       9.865 -13.301   4.961  1.00  0.00    -0.000 C 
BRANCH  26  27
ATOM     27  C   UNL     1      10.230 -14.440   5.924  1.00  0.00    -0.000 C 
BRANCH  27  28
ATOM     28  C   UNL     1       9.099 -14.700   6.930  1.00  0.00    -0.000 C 
BRANCH  28  29
ATOM     29  C   UNL     1       7.708 -14.452   6.328  1.00  0.00    -0.003 C 
ATOM     30  C   UNL     1       7.127 -15.690   5.644  1.00  0.00     0.004 C 
ENDBRANCH  28  29
ENDBRANCH  27  28
ENDBRANCH  26  27
ENDBRANCH  25  26
ENDBRANCH  24  25
ENDBRANCH  23  24
ENDBRANCH  22  23
ENDBRANCH  21  22
ENDBRANCH  20  21
ENDBRANCH  19  20
ENDBRANCH  18  19
ENDBRANCH  17  18
ENDBRANCH   1  17
TORSDOF 26
ENDMDL
MODEL 7
REMARK VINA RESULT:    -5.704      4.668      9.191
REMARK INTER + INTRA:         -16.289
REMARK INTER:                 -14.251
REMARK INTRA:                  -2.038
REMARK UNBOUND:                -1.915
REMARK SMILES CCCCCCCCCCCCCCCCCCCCCCCCCCCC(=O)[O-]
REMARK SMILES IDX 15 1 16 2 17 3 18 4 19 5 20 6 21 7 22 8 23 9 24 10 25 11
REMARK SMILES IDX 26 12 27 13 28 14 29 15 30 16 14 17 13 18 12 19 11 20 10 21
REMARK SMILES IDX 9 22 8 23 7 24 6 25 5 26 4 27 3 28 2 29 1 30
REMARK H PARENT
REMARK Flexibility Score: inf
ROOT
ATOM      1  C   UNL     1       9.340 -12.570   4.654  1.00  0.00     0.000 C 
ENDROOT
BRANCH   1   2
ATOM      2  C   UNL     1      10.838 -12.227   4.709  1.00  0.00     0.000 C 
BRANCH   2   3
ATOM      3  C   UNL     1      11.098 -10.771   5.121  1.00  0.00     0.000 C 
BRANCH   3   4
ATOM      4  C   UNL     1      12.591 -10.542   5.398  1.00  0.00     0.000 C 
BRANCH   4   5
ATOM      5  C   UNL     1      13.228  -9.515   4.444  1.00  0.00     0.000 C 
BRANCH   5   6
ATOM      6  C   UNL     1      12.231  -8.622   3.675  1.00  0.00     0.000 C 
BRANCH   6   7
ATOM      7  C   UNL     1      12.495  -8.497   2.164  1.00  0.00     0.000 C 
BRANCH   7   8
ATOM      8  C   UNL     1      13.189  -9.737   1.572  1.00  0.00     0.000 C 
BRANCH   8   9
ATOM      9  C   UNL     1      13.354  -9.643   0.044  1.00  0.00     0.000 C 
BRANCH   9  10
ATOM     10  C   UNL     1      12.955  -8.273  -0.539  1.00  0.00     0.000 C 
BRANCH  10  11
ATOM     11  C   UNL     1      13.923  -7.799  -1.639  1.00  0.00     0.000 C 
BRANCH  11  12
ATOM     12  C   UNL     1      13.290  -7.829  -3.038  1.00  0.00     0.006 C 
BRANCH  12  13
ATOM     13  C   UNL     1      13.184  -9.248  -3.614  1.00  0.00     0.053 C 
BRANCH  13  14
ATOM     14  C   UNL     1      12.130  -9.311  -4.675  1.00  0.00     0.041 C 
ATOM     15  O   UNL     1      10.929  -9.052  -4.393  1.00  0.00    -0.550 OA
ATOM     16  O   UNL     1      12.473  -9.644  -5.980  1.00  0.00    -0.550 OA
ENDBRANCH  13  14
ENDBRANCH  12  13
ENDBRANCH  11  12
ENDBRANCH  10  11
ENDBRANCH   9  10
ENDBRANCH   8   9
ENDBRANCH   7   8
ENDBRANCH   6   7
ENDBRANCH   5   6
ENDBRANCH   4   5
ENDBRANCH   3   4
ENDBRANCH   2   3
ENDBRANCH   1   2
BRANCH   1  17
ATOM     17  C   UNL     1       8.548 -11.940   5.814  1.00  0.00     0.000 C 
BRANCH  17  18
ATOM     18  C   UNL     1       7.642 -12.958   6.531  1.00  0.00     0.000 C 
BRANCH  18  19
ATOM     19  C   UNL     1       8.409 -14.078   7.258  1.00  0.00     0.000 C 
BRANCH  19  20
ATOM     20  C   UNL     1       8.024 -15.480   6.752  1.00  0.00     0.000 C 
BRANCH  20  21
ATOM     21  C   UNL     1       6.920 -15.446   5.682  1.00  0.00     0.000 C 
BRANCH  21  22
ATOM     22  C   UNL     1       7.260 -16.177   4.370  1.00  0.00    -0.000 C 
BRANCH  22  23
ATOM     23  C   UNL     1       6.100 -17.044   3.855  1.00  0.00    -0.000 C 
BRANCH  23  24
ATOM     24  C   UNL     1       4.724 -16.391   4.069  1.00  0.00    -0.000 C 
BRANCH  24  25
ATOM     25  C   UNL     1       3.513 -17.290   3.742  1.00  0.00    -0.000 C 
BRANCH  25  26
ATOM     26  C   UNL     1       3.870 -18.783   3.585  1.00  0.00    -0.000 C 
BRANCH  26  27
ATOM     27  C   UNL     1       3.647 -19.286   2.151  1.00  0.00    -0.000 C 
BRANCH  27  28
ATOM     28  C   UNL     1       3.672 -18.125   1.146  1.00  0.00    -0.000 C 
BRANCH  28  29
ATOM     29  C   UNL     1       4.887 -18.186   0.208  1.00  0.00    -0.003 C 
ATOM     30  C   UNL     1       4.505 -18.494  -1.240  1.00  0.00     0.004 C 
ENDBRANCH  28  29
ENDBRANCH  27  28
ENDBRANCH  26  27
ENDBRANCH  25  26
ENDBRANCH  24  25
ENDBRANCH  23  24
ENDBRANCH  22  23
ENDBRANCH  21  22
ENDBRANCH  20  21
ENDBRANCH  19  20
ENDBRANCH  18  19
ENDBRANCH  17  18
ENDBRANCH   1  17
TORSDOF 26
ENDMDL
MODEL 8
REMARK VINA RESULT:    -5.686      5.915     10.247
REMARK INTER + INTRA:         -16.243
REMARK INTER:                 -12.937
REMARK INTRA:                  -3.307
REMARK UNBOUND:                -1.915
REMARK SMILES CCCCCCCCCCCCCCCCCCCCCCCCCCCC(=O)[O-]
REMARK SMILES IDX 15 1 16 2 17 3 18 4 19 5 20 6 21 7 22 8 23 9 24 10 25 11
REMARK SMILES IDX 26 12 27 13 28 14 29 15 30 16 14 17 13 18 12 19 11 20 10 21
REMARK SMILES IDX 9 22 8 23 7 24 6 25 5 26 4 27 3 28 2 29 1 30
REMARK H PARENT
REMARK Flexibility Score: inf
ROOT
ATOM      1  C   UNL     1      11.243  -7.199  -2.602  1.00  0.00     0.000 C 
ENDROOT
BRANCH   1   2
ATOM      2  C   UNL     1      10.455  -8.515  -2.700  1.00  0.00     0.000 C 
BRANCH   2   3
ATOM      3  C   UNL     1      10.389  -9.061  -4.134  1.00  0.00     0.000 C 
BRANCH   3   4
ATOM      4  C   UNL     1      11.081 -10.429  -4.228  1.00  0.00     0.000 C 
BRANCH   4   5
ATOM      5  C   UNL     1      12.171 -10.477  -5.315  1.00  0.00     0.000 C 
BRANCH   5   6
ATOM      6  C   UNL     1      12.030  -9.426  -6.436  1.00  0.00     0.000 C 
BRANCH   6   7
ATOM      7  C   UNL     1      11.669  -9.991  -7.822  1.00  0.00     0.000 C 
BRANCH   7   8
ATOM      8  C   UNL     1      10.275  -9.552  -8.304  1.00  0.00     0.000 C 
BRANCH   8   9
ATOM      9  C   UNL     1       9.143 -10.335  -7.613  1.00  0.00     0.000 C 
BRANCH   9  10
ATOM     10  C   UNL     1       9.432 -11.841  -7.465  1.00  0.00     0.000 C 
BRANCH  10  11
ATOM     11  C   UNL     1       8.203 -12.629  -6.975  1.00  0.00     0.000 C 
BRANCH  11  12
ATOM     12  C   UNL     1       8.429 -14.149  -6.994  1.00  0.00     0.006 C 
BRANCH  12  13
ATOM     13  C   UNL     1       7.120 -14.944  -7.109  1.00  0.00     0.053 C 
BRANCH  13  14
ATOM     14  C   UNL     1       6.471 -14.705  -8.437  1.00  0.00     0.041 C 
ATOM     15  O   UNL     1       5.218 -14.602  -8.520  1.00  0.00    -0.550 OA
ATOM     16  O   UNL     1       7.249 -14.585  -9.582  1.00  0.00    -0.550 OA
ENDBRANCH  13  14
ENDBRANCH  12  13
ENDBRANCH  11  12
ENDBRANCH  10  11
ENDBRANCH   9  10
ENDBRANCH   8   9
ENDBRANCH   7   8
ENDBRANCH   6   7
ENDBRANCH   5   6
ENDBRANCH   4   5
ENDBRANCH   3   4
ENDBRANCH   2   3
ENDBRANCH   1   2
BRANCH   1  17
ATOM     17  C   UNL     1      12.488  -7.188  -3.507  1.00  0.00     0.000 C 
BRANCH  17  18
ATOM     18  C   UNL     1      13.800  -7.273  -2.704  1.00  0.00     0.000 C 
BRANCH  18  19
ATOM     19  C   UNL     1      14.014  -8.620  -1.991  1.00  0.00     0.000 C 
BRANCH  19  20
ATOM     20  C   UNL     1      14.178  -8.462  -0.469  1.00  0.00     0.000 C 
BRANCH  20  21
ATOM     21  C   UNL     1      12.835  -8.473   0.282  1.00  0.00     0.000 C 
BRANCH  21  22
ATOM     22  C   UNL     1      12.876  -9.111   1.682  1.00  0.00    -0.000 C 
BRANCH  22  23
ATOM     23  C   UNL     1      13.443 -10.540   1.667  1.00  0.00    -0.000 C 
BRANCH  23  24
ATOM     24  C   UNL     1      13.795 -11.059   3.072  1.00  0.00    -0.000 C 
BRANCH  24  25
ATOM     25  C   UNL     1      13.810  -9.988   4.182  1.00  0.00    -0.000 C 
BRANCH  25  26
ATOM     26  C   UNL     1      12.590 -10.051   5.126  1.00  0.00    -0.000 C 
BRANCH  26  27
ATOM     27  C   UNL     1      11.932 -11.439   5.131  1.00  0.00    -0.000 C 
BRANCH  27  28
ATOM     28  C   UNL     1      10.428 -11.342   4.835  1.00  0.00    -0.000 C 
BRANCH  28  29
ATOM     29  C   UNL     1      10.125 -10.460   3.614  1.00  0.00    -0.003 C 
ATOM     30  C   UNL     1       9.799 -11.272   2.361  1.00  0.00     0.004 C 
ENDBRANCH  28  29
ENDBRANCH  27  28
ENDBRANCH  26  27
ENDBRANCH  25  26
ENDBRANCH  24  25
ENDBRANCH  23  24
ENDBRANCH  22  23
ENDBRANCH  21  22
ENDBRANCH  20  21
ENDBRANCH  19  20
ENDBRANCH  18  19
ENDBRANCH  17  18
ENDBRANCH   1  17
TORSDOF 26
ENDMDL
MODEL 9
REMARK VINA RESULT:    -5.671      5.114     11.199
REMARK INTER + INTRA:         -16.206
REMARK INTER:                 -14.510
REMARK INTRA:                  -1.696
REMARK UNBOUND:                -1.915
REMARK SMILES CCCCCCCCCCCCCCCCCCCCCCCCCCCC(=O)[O-]
REMARK SMILES IDX 15 1 16 2 17 3 18 4 19 5 20 6 21 7 22 8 23 9 24 10 25 11
REMARK SMILES IDX 26 12 27 13 28 14 29 15 30 16 14 17 13 18 12 19 11 20 10 21
REMARK SMILES IDX 9 22 8 23 7 24 6 25 5 26 4 27 3 28 2 29 1 30
REMARK H PARENT
REMARK Flexibility Score: inf
ROOT
ATOM      1  C   UNL     1      13.289  -9.699  -3.686  1.00  0.00     0.000 C 
ENDROOT
BRANCH   1   2
ATOM      2  C   UNL     1      14.529  -9.207  -2.923  1.00  0.00     0.000 C 
BRANCH   2   3
ATOM      3  C   UNL     1      14.288  -7.877  -2.194  1.00  0.00     0.000 C 
BRANCH   3   4
ATOM      4  C   UNL     1      14.350  -8.071  -0.672  1.00  0.00     0.000 C 
BRANCH   4   5
ATOM      5  C   UNL     1      13.032  -8.602  -0.080  1.00  0.00     0.000 C 
BRANCH   5   6
ATOM      6  C   UNL     1      13.148  -9.241   1.320  1.00  0.00     0.000 C 
BRANCH   6   7
ATOM      7  C   UNL     1      11.999  -8.909   2.289  1.00  0.00     0.000 C 
BRANCH   7   8
ATOM      8  C   UNL     1      12.494  -8.463   3.676  1.00  0.00     0.000 C 
BRANCH   8   9
ATOM      9  C   UNL     1      13.184  -9.604   4.447  1.00  0.00     0.000 C 
BRANCH   9  10
ATOM     10  C   UNL     1      12.250 -10.347   5.421  1.00  0.00     0.000 C 
BRANCH  10  11
ATOM     11  C   UNL     1      11.575 -11.568   4.771  1.00  0.00     0.000 C 
BRANCH  11  12
ATOM     12  C   UNL     1      10.216 -11.901   5.405  1.00  0.00     0.006 C 
BRANCH  12  13
ATOM     13  C   UNL     1       9.636 -13.233   4.908  1.00  0.00     0.053 C 
BRANCH  13  14
ATOM     14  C   UNL     1       8.731 -13.834   5.939  1.00  0.00     0.041 C 
ATOM     15  O   UNL     1       8.304 -15.011   5.799  1.00  0.00    -0.550 OA
ATOM     16  O   UNL     1       8.369 -13.099   7.061  1.00  0.00    -0.550 OA
ENDBRANCH  13  14
ENDBRANCH  12  13
ENDBRANCH  11  12
ENDBRANCH  10  11
ENDBRANCH   9  10
ENDBRANCH   8   9
ENDBRANCH   7   8
ENDBRANCH   6   7
ENDBRANCH   5   6
ENDBRANCH   4   5
ENDBRANCH   3   4
ENDBRANCH   2   3
ENDBRANCH   1   2
BRANCH   1  17
ATOM     17  C   UNL     1      12.441  -8.540  -4.242  1.00  0.00     0.000 C 
BRANCH  17  18
ATOM     18  C   UNL     1      11.553  -8.974  -5.423  1.00  0.00     0.000 C 
BRANCH  18  19
ATOM     19  C   UNL     1      12.308  -9.731  -6.532  1.00  0.00     0.000 C 
BRANCH  19  20
ATOM     20  C   UNL     1      11.544  -9.736  -7.868  1.00  0.00     0.000 C 
BRANCH  20  21
ATOM     21  C   UNL     1      10.025  -9.572  -7.687  1.00  0.00     0.000 C 
BRANCH  21  22
ATOM     22  C   UNL     1       9.206 -10.866  -7.842  1.00  0.00    -0.000 C 
BRANCH  22  23
ATOM     23  C   UNL     1       9.432 -11.853  -6.685  1.00  0.00    -0.000 C 
BRANCH  23  24
ATOM     24  C   UNL     1       8.251 -12.818  -6.482  1.00  0.00    -0.000 C 
BRANCH  24  25
ATOM     25  C   UNL     1       8.348 -14.147  -7.259  1.00  0.00    -0.000 C 
BRANCH  25  26
ATOM     26  C   UNL     1       7.603 -14.135  -8.611  1.00  0.00    -0.000 C 
BRANCH  26  27
ATOM     27  C   UNL     1       6.476 -15.177  -8.662  1.00  0.00    -0.000 C 
BRANCH  27  28
ATOM     28  C   UNL     1       5.121 -14.547  -8.311  1.00  0.00    -0.000 C 
BRANCH  28  29
ATOM     29  C   UNL     1       4.704 -14.820  -6.857  1.00  0.00    -0.003 C 
ATOM     30  C   UNL     1       5.394 -16.048  -6.263  1.00  0.00     0.004 C 
ENDBRANCH  28  29
ENDBRANCH  27  28
ENDBRANCH  26  27
ENDBRANCH  25  26
ENDBRANCH  24  25
ENDBRANCH  23  24
ENDBRANCH  22  23
ENDBRANCH  21  22
ENDBRANCH  20  21
ENDBRANCH  19  20
ENDBRANCH  18  19
ENDBRANCH  17  18
ENDBRANCH   1  17
TORSDOF 26
ENDMDL
