MODEL 1
REMARK VINA RESULT:    -5.823      0.000      0.000
REMARK INTER + INTRA:          -8.271
REMARK INTER:                  -7.865
REMARK INTRA:                  -0.406
REMARK UNBOUND:                -0.406
REMARK SMILES CCCCCCC=CC(=O)[O-]
REMARK SMILES IDX 5 1 6 2 7 3 8 4 9 5 10 6 11 7 4 8 3 9 2 10 1 11
REMARK H PARENT
REMARK Flexibility Score: inf
ROOT
ATOM      1  C   UNL     1      14.736  72.023  72.364  1.00  0.00     0.004 C 
ENDROOT
BRANCH   1   2
ATOM      2  C   UNL     1      16.076  72.707  72.059  1.00  0.00     0.027 C 
BRANCH   2   3
ATOM      3  C   UNL     1      17.214  71.726  72.088  1.00  0.00    -0.025 C 
ATOM      4  C   UNL     1      18.485  72.123  71.960  1.00  0.00     0.020 C 
BRANCH   4   5
ATOM      5  C   UNL     1      19.610  71.174  71.953  1.00  0.00     0.064 C 
ATOM      6  O   UNL     1      20.119  70.775  70.872  1.00  0.00    -0.545 OA
ATOM      7  O   UNL     1      20.121  70.712  73.159  1.00  0.00    -0.545 OA
ENDBRANCH   4   5
ENDBRANCH   2   3
ENDBRANCH   1   2
BRANCH   1   8
ATOM      8  C   UNL     1      14.851  70.492  72.352  1.00  0.00     0.000 C 
BRANCH   8   9
ATOM      9  C   UNL     1      14.109  69.876  73.545  1.00  0.00    -0.000 C 
BRANCH   9  10
ATOM     10  C   UNL     1      14.627  70.449  74.869  1.00  0.00    -0.003 C 
ATOM     11  C   UNL     1      13.901  69.828  76.059  1.00  0.00     0.004 C 
ENDBRANCH   9  10
ENDBRANCH   8   9
ENDBRANCH   1   8
TORSDOF 6
ENDMDL
MODEL 2
REMARK VINA RESULT:    -5.694      0.393      1.045
REMARK INTER + INTRA:          -8.097
REMARK INTER:                  -7.733
REMARK INTRA:                  -0.364
REMARK UNBOUND:                -0.406
REMARK SMILES CCCCCCC=CC(=O)[O-]
REMARK SMILES IDX 5 1 6 2 7 3 8 4 9 5 10 6 11 7 4 8 3 9 2 10 1 11
REMARK H PARENT
REMARK Flexibility Score: inf
ROOT
ATOM      1  C   UNL     1      15.097  72.105  72.472  1.00  0.00     0.004 C 
ENDROOT
BRANCH   1   2
ATOM      2  C   UNL     1      16.442  72.714  72.053  1.00  0.00     0.027 C 
BRANCH   2   3
ATOM      3  C   UNL     1      17.557  71.712  72.161  1.00  0.00    -0.025 C 
ATOM      4  C   UNL     1      18.786  71.979  71.705  1.00  0.00     0.020 C 
BRANCH   4   5
ATOM      5  C   UNL     1      19.881  70.999  71.773  1.00  0.00     0.064 C 
ATOM      6  O   UNL     1      20.427  70.705  72.869  1.00  0.00    -0.545 OA
ATOM      7  O   UNL     1      20.321  70.385  70.607  1.00  0.00    -0.545 OA
ENDBRANCH   4   5
ENDBRANCH   2   3
ENDBRANCH   1   2
BRANCH   1   8
ATOM      8  C   UNL     1      15.104  70.572  72.394  1.00  0.00     0.000 C 
BRANCH   8   9
ATOM      9  C   UNL     1      14.081  69.967  73.363  1.00  0.00    -0.000 C 
BRANCH   9  10
ATOM     10  C   UNL     1      14.094  70.706  74.706  1.00  0.00    -0.003 C 
ATOM     11  C   UNL     1      13.983  69.729  75.873  1.00  0.00     0.004 C 
ENDBRANCH   9  10
ENDBRANCH   8   9
ENDBRANCH   1   8
TORSDOF 6
ENDMDL
MODEL 3
REMARK VINA RESULT:    -5.613      1.208      1.999
REMARK INTER + INTRA:          -7.987
REMARK INTER:                  -7.730
REMARK INTRA:                  -0.258
REMARK UNBOUND:                -0.406
REMARK SMILES CCCCCCC=CC(=O)[O-]
REMARK SMILES IDX 5 1 6 2 7 3 8 4 9 5 10 6 11 7 4 8 3 9 2 10 1 11
REMARK H PARENT
REMARK Flexibility Score: inf
ROOT
ATOM      1  C   UNL     1      16.916  72.790  72.133  1.00  0.00     0.004 C 
ENDROOT
BRANCH   1   2
ATOM      2  C   UNL     1      18.354  72.821  71.598  1.00  0.00     0.027 C 
BRANCH   2   3
ATOM      3  C   UNL     1      19.109  71.578  71.977  1.00  0.00    -0.025 C 
ATOM      4  C   UNL     1      20.154  71.146  71.262  1.00  0.00     0.020 C 
BRANCH   4   5
ATOM      5  C   UNL     1      20.884  69.914  71.598  1.00  0.00     0.064 C 
ATOM      6  O   UNL     1      20.724  68.859  70.929  1.00  0.00    -0.545 OA
ATOM      7  O   UNL     1      21.766  69.914  72.671  1.00  0.00    -0.545 OA
ENDBRANCH   4   5
ENDBRANCH   2   3
ENDBRANCH   1   2
BRANCH   1   8
ATOM      8  C   UNL     1      16.355  71.362  72.207  1.00  0.00     0.000 C 
BRANCH   8   9
ATOM      9  C   UNL     1      14.837  71.378  72.422  1.00  0.00    -0.000 C 
BRANCH   9  10
ATOM     10  C   UNL     1      14.329  69.998  72.857  1.00  0.00    -0.003 C 
ATOM     11  C   UNL     1      14.159  69.927  74.372  1.00  0.00     0.004 C 
ENDBRANCH   9  10
ENDBRANCH   8   9
ENDBRANCH   1   8
TORSDOF 6
ENDMDL
MODEL 4
REMARK VINA RESULT:    -5.515      5.294      6.562
REMARK INTER + INTRA:          -7.856
REMARK INTER:                  -7.257
REMARK INTRA:                  -0.599
REMARK UNBOUND:                -0.406
REMARK SMILES CCCCCCC=CC(=O)[O-]
REMARK SMILES IDX 5 1 6 2 7 3 8 4 9 5 10 6 11 7 4 8 3 9 2 10 1 11
REMARK H PARENT
REMARK Flexibility Score: inf
ROOT
ATOM      1  C   UNL     1      13.314  72.563  71.975  1.00  0.00     0.004 C 
ENDROOT
BRANCH   1   2
ATOM      2  C   UNL     1      12.188  72.828  72.985  1.00  0.00     0.027 C 
BRANCH   2   3
ATOM      3  C   UNL     1      11.017  71.915  72.756  1.00  0.00    -0.025 C 
ATOM      4  C   UNL     1      10.916  71.166  71.651  1.00  0.00     0.020 C 
BRANCH   4   5
ATOM      5  C   UNL     1       9.761  70.292  71.394  1.00  0.00     0.064 C 
ATOM      6  O   UNL     1       9.894  69.197  70.787  1.00  0.00    -0.545 OA
ATOM      7  O   UNL     1       8.500  70.681  71.830  1.00  0.00    -0.545 OA
ENDBRANCH   4   5
ENDBRANCH   2   3
ENDBRANCH   1   2
BRANCH   1   8
ATOM      8  C   UNL     1      14.693  72.499  72.648  1.00  0.00     0.000 C 
BRANCH   8   9
ATOM      9  C   UNL     1      15.333  71.119  72.459  1.00  0.00    -0.000 C 
BRANCH   9  10
ATOM     10  C   UNL     1      14.340  70.002  72.799  1.00  0.00    -0.003 C 
ATOM     11  C   UNL     1      14.179  69.849  74.309  1.00  0.00     0.004 C 
ENDBRANCH   9  10
ENDBRANCH   8   9
ENDBRANCH   1   8
TORSDOF 6
ENDMDL
MODEL 5
REMARK VINA RESULT:    -5.490      2.354      3.021
REMARK INTER + INTRA:          -7.822
REMARK INTER:                  -7.279
REMARK INTRA:                  -0.543
REMARK UNBOUND:                -0.406
REMARK SMILES CCCCCCC=CC(=O)[O-]
REMARK SMILES IDX 5 1 6 2 7 3 8 4 9 5 10 6 11 7 4 8 3 9 2 10 1 11
REMARK H PARENT
REMARK Flexibility Score: inf
ROOT
ATOM      1  C   UNL     1      15.356  70.958  72.312  1.00  0.00     0.004 C 
ENDROOT
BRANCH   1   2
ATOM      2  C   UNL     1      15.941  72.255  72.889  1.00  0.00     0.027 C 
BRANCH   2   3
ATOM      3  C   UNL     1      17.047  71.972  73.867  1.00  0.00    -0.025 C 
ATOM      4  C   UNL     1      16.802  71.800  75.171  1.00  0.00     0.020 C 
BRANCH   4   5
ATOM      5  C   UNL     1      17.876  71.556  76.148  1.00  0.00     0.064 C 
ATOM      6  O   UNL     1      17.629  71.480  77.381  1.00  0.00    -0.545 OA
ATOM      7  O   UNL     1      19.183  71.405  75.703  1.00  0.00    -0.545 OA
ENDBRANCH   4   5
ENDBRANCH   2   3
ENDBRANCH   1   2
BRANCH   1   8
ATOM      8  C   UNL     1      13.830  70.891  72.466  1.00  0.00     0.000 C 
BRANCH   8   9
ATOM      9  C   UNL     1      13.428  70.860  73.946  1.00  0.00    -0.000 C 
BRANCH   9  10
ATOM     10  C   UNL     1      14.069  69.667  74.663  1.00  0.00    -0.003 C 
ATOM     11  C   UNL     1      13.972  69.819  76.179  1.00  0.00     0.004 C 
ENDBRANCH   9  10
ENDBRANCH   8   9
ENDBRANCH   1   8
TORSDOF 6
ENDMDL
MODEL 6
REMARK VINA RESULT:    -5.190      2.851      5.385
REMARK INTER + INTRA:          -7.417
REMARK INTER:                  -7.151
REMARK INTRA:                  -0.266
REMARK UNBOUND:                -0.406
REMARK SMILES CCCCCCC=CC(=O)[O-]
REMARK SMILES IDX 5 1 6 2 7 3 8 4 9 5 10 6 11 7 4 8 3 9 2 10 1 11
REMARK H PARENT
REMARK Flexibility Score: inf
ROOT
ATOM      1  C   UNL     1      18.470  73.021  71.611  1.00  0.00     0.004 C 
ENDROOT
BRANCH   1   2
ATOM      2  C   UNL     1      16.996  73.214  71.990  1.00  0.00     0.027 C 
BRANCH   2   3
ATOM      3  C   UNL     1      16.445  72.004  72.691  1.00  0.00    -0.025 C 
ATOM      4  C   UNL     1      15.228  71.524  72.410  1.00  0.00     0.020 C 
BRANCH   4   5
ATOM      5  C   UNL     1      14.659  70.360  73.109  1.00  0.00     0.064 C 
ATOM      6  O   UNL     1      14.061  69.449  72.478  1.00  0.00    -0.545 OA
ATOM      7  O   UNL     1      14.785  70.265  74.489  1.00  0.00    -0.545 OA
ENDBRANCH   4   5
ENDBRANCH   2   3
ENDBRANCH   1   2
BRANCH   1   8
ATOM      8  C   UNL     1      18.884  71.542  71.623  1.00  0.00     0.000 C 
BRANCH   8   9
ATOM      9  C   UNL     1      20.344  71.376  71.185  1.00  0.00    -0.000 C 
BRANCH   9  10
ATOM     10  C   UNL     1      20.774  69.906  71.254  1.00  0.00    -0.003 C 
ATOM     11  C   UNL     1      20.225  69.116  70.069  1.00  0.00     0.004 C 
ENDBRANCH   9  10
ENDBRANCH   8   9
ENDBRANCH   1   8
TORSDOF 6
ENDMDL
MODEL 7
REMARK VINA RESULT:    -5.167     12.013     13.540
REMARK INTER + INTRA:          -7.385
REMARK INTER:                  -7.147
REMARK INTRA:                  -0.238
REMARK UNBOUND:                -0.406
REMARK SMILES CCCCCCC=CC(=O)[O-]
REMARK SMILES IDX 5 1 6 2 7 3 8 4 9 5 10 6 11 7 4 8 3 9 2 10 1 11
REMARK H PARENT
REMARK Flexibility Score: inf
ROOT
ATOM      1  C   UNL     1      13.261  60.540  73.670  1.00  0.00     0.004 C 
ENDROOT
BRANCH   1   2
ATOM      2  C   UNL     1      13.619  59.320  72.809  1.00  0.00     0.027 C 
BRANCH   2   3
ATOM      3  C   UNL     1      13.309  58.034  73.521  1.00  0.00    -0.025 C 
ATOM      4  C   UNL     1      13.256  56.867  72.870  1.00  0.00     0.020 C 
BRANCH   4   5
ATOM      5  C   UNL     1      12.922  55.602  73.544  1.00  0.00     0.064 C 
ATOM      6  O   UNL     1      11.780  55.410  74.040  1.00  0.00    -0.545 OA
ATOM      7  O   UNL     1      13.881  54.602  73.634  1.00  0.00    -0.545 OA
ENDBRANCH   4   5
ENDBRANCH   2   3
ENDBRANCH   1   2
BRANCH   1   8
ATOM      8  C   UNL     1      13.292  61.847  72.865  1.00  0.00     0.000 C 
BRANCH   8   9
ATOM      9  C   UNL     1      14.011  61.651  71.525  1.00  0.00    -0.000 C 
BRANCH   9  10
ATOM     10  C   UNL     1      13.880  62.899  70.644  1.00  0.00    -0.003 C 
ATOM     11  C   UNL     1      13.646  62.520  69.184  1.00  0.00     0.004 C 
ENDBRANCH   9  10
ENDBRANCH   8   9
ENDBRANCH   1   8
TORSDOF 6
ENDMDL
MODEL 8
REMARK VINA RESULT:    -5.115      6.596      8.322
REMARK INTER + INTRA:          -7.315
REMARK INTER:                  -6.958
REMARK INTRA:                  -0.357
REMARK UNBOUND:                -0.406
REMARK SMILES CCCCCCC=CC(=O)[O-]
REMARK SMILES IDX 5 1 6 2 7 3 8 4 9 5 10 6 11 7 4 8 3 9 2 10 1 11
REMARK H PARENT
REMARK Flexibility Score: inf
ROOT
ATOM      1  C   UNL     1      11.099  72.074  73.340  1.00  0.00     0.004 C 
ENDROOT
BRANCH   1   2
ATOM      2  C   UNL     1      11.203  72.144  74.870  1.00  0.00     0.027 C 
BRANCH   2   3
ATOM      3  C   UNL     1       9.847  72.249  75.510  1.00  0.00    -0.025 C 
ATOM      4  C   UNL     1       9.701  72.303  76.838  1.00  0.00     0.020 C 
BRANCH   4   5
ATOM      5  C   UNL     1       8.380  72.372  77.484  1.00  0.00     0.064 C 
ATOM      6  O   UNL     1       7.563  73.288  77.200  1.00  0.00    -0.545 OA
ATOM      7  O   UNL     1       8.027  71.410  78.421  1.00  0.00    -0.545 OA
ENDBRANCH   4   5
ENDBRANCH   2   3
ENDBRANCH   1   2
BRANCH   1   8
ATOM      8  C   UNL     1      12.304  71.361  72.709  1.00  0.00     0.000 C 
BRANCH   8   9
ATOM      9  C   UNL     1      13.530  71.437  73.627  1.00  0.00    -0.000 C 
BRANCH   9  10
ATOM     10  C   UNL     1      14.042  70.034  73.974  1.00  0.00    -0.003 C 
ATOM     11  C   UNL     1      14.026  69.801  75.483  1.00  0.00     0.004 C 
ENDBRANCH   9  10
ENDBRANCH   8   9
ENDBRANCH   1   8
TORSDOF 6
ENDMDL
MODEL 9
REMARK VINA RESULT:    -5.111      3.259      4.932
REMARK INTER + INTRA:          -7.309
REMARK INTER:                  -6.956
REMARK INTRA:                  -0.353
REMARK UNBOUND:                -0.406
REMARK SMILES CCCCCCC=CC(=O)[O-]
REMARK SMILES IDX 5 1 6 2 7 3 8 4 9 5 10 6 11 7 4 8 3 9 2 10 1 11
REMARK H PARENT
REMARK Flexibility Score: inf
ROOT
ATOM      1  C   UNL     1      17.990  71.887  71.910  1.00  0.00     0.004 C 
ENDROOT
BRANCH   1   2
ATOM      2  C   UNL     1      16.811  72.864  72.011  1.00  0.00     0.027 C 
BRANCH   2   3
ATOM      3  C   UNL     1      15.535  72.152  72.363  1.00  0.00    -0.025 C 
ATOM      4  C   UNL     1      15.530  70.872  72.751  1.00  0.00     0.020 C 
BRANCH   4   5
ATOM      5  C   UNL     1      14.288  70.149  73.068  1.00  0.00     0.064 C 
ATOM      6  O   UNL     1      13.370  70.026  72.214  1.00  0.00    -0.545 OA
ATOM      7  O   UNL     1      14.125  69.592  74.329  1.00  0.00    -0.545 OA
ENDBRANCH   4   5
ENDBRANCH   2   3
ENDBRANCH   1   2
BRANCH   1   8
ATOM      8  C   UNL     1      19.123  72.243  72.884  1.00  0.00     0.000 C 
BRANCH   8   9
ATOM      9  C   UNL     1      19.040  71.394  74.158  1.00  0.00    -0.000 C 
BRANCH   9  10
ATOM     10  C   UNL     1      20.209  70.404  74.236  1.00  0.00    -0.003 C 
ATOM     11  C   UNL     1      20.589  70.114  75.685  1.00  0.00     0.004 C 
ENDBRANCH   9  10
ENDBRANCH   8   9
ENDBRANCH   1   8
TORSDOF 6
ENDMDL
