MODEL 1
REMARK VINA RESULT:    -6.207      0.000      0.000
REMARK INTER + INTRA:          -7.150
REMARK INTER:                  -6.932
REMARK INTRA:                  -0.218
REMARK UNBOUND:                -0.218
REMARK SMILES CC(C)c1ccc(C(=O)[O-])cc1
REMARK SMILES IDX 7 1 6 2 11 3 5 4 12 5 4 6 8 7 9 8 10 9 2 10 1 11 3 12
REMARK H PARENT
REMARK Flexibility Score: inf
ROOT
ATOM      1  C   UNL     1     -15.361  93.331 -11.307  1.00  0.00    -0.003 A 
ATOM      2  C   UNL     1     -14.507  92.863 -12.320  1.00  0.00     0.010 A 
ATOM      3  C   UNL     1     -15.645  92.493 -10.214  1.00  0.00     0.010 A 
ATOM      4  C   UNL     1     -13.948  91.584 -12.241  1.00  0.00     0.004 A 
ATOM      5  C   UNL     1     -15.086  91.215 -10.137  1.00  0.00     0.004 A 
ATOM      6  C   UNL     1     -14.231  90.745 -11.151  1.00  0.00    -0.045 A 
ENDROOT
BRANCH   1   7
ATOM      7  C   UNL     1     -15.950  94.686 -11.393  1.00  0.00     0.071 C 
ATOM      8  O   UNL     1     -16.306  95.159 -12.505  1.00  0.00    -0.545 OA
ATOM      9  O   UNL     1     -16.119  95.455 -10.248  1.00  0.00    -0.545 OA
ENDBRANCH   1   7
BRANCH   6  10
ATOM     10  C   UNL     1     -13.617  89.359 -11.079  1.00  0.00     0.013 C 
ATOM     11  C   UNL     1     -13.117  88.906 -12.456  1.00  0.00     0.012 C 
ATOM     12  C   UNL     1     -14.605  88.347 -10.490  1.00  0.00     0.012 C 
ENDBRANCH   6  10
TORSDOF 2
ENDMDL
MODEL 2
REMARK VINA RESULT:    -5.846      3.005      5.230
REMARK INTER + INTRA:          -6.747
REMARK INTER:                  -6.526
REMARK INTRA:                  -0.221
REMARK UNBOUND:                -0.218
REMARK SMILES CC(C)c1ccc(C(=O)[O-])cc1
REMARK SMILES IDX 7 1 6 2 11 3 5 4 12 5 4 6 8 7 9 8 10 9 2 10 1 11 3 12
REMARK H PARENT
REMARK Flexibility Score: inf
ROOT
ATOM      1  C   UNL     1     -14.264  90.703 -11.224  1.00  0.00    -0.003 A 
ATOM      2  C   UNL     1     -15.087  91.145 -10.174  1.00  0.00     0.010 A 
ATOM      3  C   UNL     1     -14.010  91.569 -12.301  1.00  0.00     0.010 A 
ATOM      4  C   UNL     1     -15.645  92.427 -10.202  1.00  0.00     0.004 A 
ATOM      5  C   UNL     1     -14.568  92.851 -12.328  1.00  0.00     0.004 A 
ATOM      6  C   UNL     1     -15.393  93.294 -11.278  1.00  0.00    -0.045 A 
ENDROOT
BRANCH   1   7
ATOM      7  C   UNL     1     -13.676  89.346 -11.190  1.00  0.00     0.071 C 
ATOM      8  O   UNL     1     -12.875  88.972 -12.088  1.00  0.00    -0.545 OA
ATOM      9  O   UNL     1     -13.999  88.463 -10.166  1.00  0.00    -0.545 OA
ENDBRANCH   1   7
BRANCH   6  10
ATOM     10  C   UNL     1     -16.004  94.682 -11.294  1.00  0.00     0.013 C 
ATOM     11  C   UNL     1     -17.441  94.658 -10.761  1.00  0.00     0.012 C 
ATOM     12  C   UNL     1     -15.947  95.295 -12.698  1.00  0.00     0.012 C 
ENDBRANCH   6  10
TORSDOF 2
ENDMDL
MODEL 3
REMARK VINA RESULT:    -5.819      3.007      5.038
REMARK INTER + INTRA:          -6.717
REMARK INTER:                  -6.495
REMARK INTRA:                  -0.222
REMARK UNBOUND:                -0.218
REMARK SMILES CC(C)c1ccc(C(=O)[O-])cc1
REMARK SMILES IDX 7 1 6 2 11 3 5 4 12 5 4 6 8 7 9 8 10 9 2 10 1 11 3 12
REMARK H PARENT
REMARK Flexibility Score: inf
ROOT
ATOM      1  C   UNL     1     -14.261  90.701 -11.207  1.00  0.00    -0.003 A 
ATOM      2  C   UNL     1     -13.998  91.591 -12.263  1.00  0.00     0.010 A 
ATOM      3  C   UNL     1     -15.114  91.110 -10.168  1.00  0.00     0.010 A 
ATOM      4  C   UNL     1     -14.575  92.865 -12.276  1.00  0.00     0.004 A 
ATOM      5  C   UNL     1     -15.691  92.383 -10.183  1.00  0.00     0.004 A 
ATOM      6  C   UNL     1     -15.427  93.276 -11.238  1.00  0.00    -0.045 A 
ENDROOT
BRANCH   1   7
ATOM      7  C   UNL     1     -13.648  89.354 -11.197  1.00  0.00     0.071 C 
ATOM      8  O   UNL     1     -12.875  88.995 -12.124  1.00  0.00    -0.545 OA
ATOM      9  O   UNL     1     -13.918  88.466 -10.162  1.00  0.00    -0.545 OA
ENDBRANCH   1   7
BRANCH   6  10
ATOM     10  C   UNL     1     -16.046  94.660 -11.267  1.00  0.00     0.013 C 
ATOM     11  C   UNL     1     -17.426  94.662 -10.599  1.00  0.00     0.012 C 
ATOM     12  C   UNL     1     -16.127  95.200 -12.700  1.00  0.00     0.012 C 
ENDBRANCH   6  10
TORSDOF 2
ENDMDL
MODEL 4
REMARK VINA RESULT:    -5.346      1.363      1.823
REMARK INTER + INTRA:          -6.189
REMARK INTER:                  -5.968
REMARK INTRA:                  -0.221
REMARK UNBOUND:                -0.218
REMARK SMILES CC(C)c1ccc(C(=O)[O-])cc1
REMARK SMILES IDX 7 1 6 2 11 3 5 4 12 5 4 6 8 7 9 8 10 9 2 10 1 11 3 12
REMARK H PARENT
REMARK Flexibility Score: inf
ROOT
ATOM      1  C   UNL     1     -16.562  94.571 -11.330  1.00  0.00    -0.003 A 
ATOM      2  C   UNL     1     -15.594  94.409 -12.337  1.00  0.00     0.010 A 
ATOM      3  C   UNL     1     -16.640  93.618 -10.301  1.00  0.00     0.010 A 
ATOM      4  C   UNL     1     -14.723  93.316 -12.312  1.00  0.00     0.004 A 
ATOM      5  C   UNL     1     -15.768  92.525 -10.278  1.00  0.00     0.004 A 
ATOM      6  C   UNL     1     -14.799  92.362 -11.284  1.00  0.00    -0.045 A 
ENDROOT
BRANCH   1   7
ATOM      7  C   UNL     1     -17.483  95.729 -11.359  1.00  0.00     0.071 C 
ATOM      8  O   UNL     1     -17.376  96.610 -12.254  1.00  0.00    -0.545 OA
ATOM      9  O   UNL     1     -18.479  95.862 -10.399  1.00  0.00    -0.545 OA
ENDBRANCH   1   7
BRANCH   6  10
ATOM     10  C   UNL     1     -13.846  91.182 -11.272  1.00  0.00     0.013 C 
ATOM     11  C   UNL     1     -13.515  90.725 -12.697  1.00  0.00     0.012 C 
ATOM     12  C   UNL     1     -14.410  90.025 -10.439  1.00  0.00     0.012 C 
ENDBRANCH   6  10
TORSDOF 2
ENDMDL
MODEL 5
REMARK VINA RESULT:    -4.933      2.755      5.430
REMARK INTER + INTRA:          -5.727
REMARK INTER:                  -5.516
REMARK INTRA:                  -0.211
REMARK UNBOUND:                -0.218
REMARK SMILES CC(C)c1ccc(C(=O)[O-])cc1
REMARK SMILES IDX 7 1 6 2 11 3 5 4 12 5 4 6 8 7 9 8 10 9 2 10 1 11 3 12
REMARK H PARENT
REMARK Flexibility Score: inf
ROOT
ATOM      1  C   UNL     1     -14.997  92.633 -10.764  1.00  0.00    -0.003 A 
ATOM      2  C   UNL     1     -16.183  93.052 -10.138  1.00  0.00     0.010 A 
ATOM      3  C   UNL     1     -14.597  93.262 -11.956  1.00  0.00     0.010 A 
ATOM      4  C   UNL     1     -16.954  94.078 -10.692  1.00  0.00     0.004 A 
ATOM      5  C   UNL     1     -15.368  94.288 -12.509  1.00  0.00     0.004 A 
ATOM      6  C   UNL     1     -16.556  94.708 -11.883  1.00  0.00    -0.045 A 
ENDROOT
BRANCH   1   7
ATOM      7  C   UNL     1     -14.184  91.546 -10.174  1.00  0.00     0.071 C 
ATOM      8  O   UNL     1     -13.066  91.795  -9.651  1.00  0.00    -0.545 OA
ATOM      9  O   UNL     1     -14.644  90.234 -10.189  1.00  0.00    -0.545 OA
ENDBRANCH   1   7
BRANCH   6  10
ATOM     10  C   UNL     1     -17.403  95.820 -12.473  1.00  0.00     0.013 C 
ATOM     11  C   UNL     1     -18.862  95.378 -12.633  1.00  0.00     0.012 C 
ATOM     12  C   UNL     1     -16.824  96.308 -13.806  1.00  0.00     0.012 C 
ENDBRANCH   6  10
TORSDOF 2
ENDMDL
MODEL 6
REMARK VINA RESULT:    -4.901      2.055      3.187
REMARK INTER + INTRA:          -5.692
REMARK INTER:                  -5.480
REMARK INTRA:                  -0.212
REMARK UNBOUND:                -0.218
REMARK SMILES CC(C)c1ccc(C(=O)[O-])cc1
REMARK SMILES IDX 7 1 6 2 11 3 5 4 12 5 4 6 8 7 9 8 10 9 2 10 1 11 3 12
REMARK H PARENT
REMARK Flexibility Score: inf
ROOT
ATOM      1  C   UNL     1     -16.510  95.089 -12.426  1.00  0.00    -0.003 A 
ATOM      2  C   UNL     1     -15.329  94.348 -12.603  1.00  0.00     0.010 A 
ATOM      3  C   UNL     1     -17.328  94.814 -11.317  1.00  0.00     0.010 A 
ATOM      4  C   UNL     1     -14.975  93.351 -11.688  1.00  0.00     0.004 A 
ATOM      5  C   UNL     1     -16.972  93.817 -10.404  1.00  0.00     0.004 A 
ATOM      6  C   UNL     1     -15.791  93.074 -10.580  1.00  0.00    -0.045 A 
ENDROOT
BRANCH   1   7
ATOM      7  C   UNL     1     -16.881  96.143 -13.396  1.00  0.00     0.071 C 
ATOM      8  O   UNL     1     -18.061  96.581 -13.445  1.00  0.00    -0.545 OA
ATOM      9  O   UNL     1     -15.932  96.666 -14.268  1.00  0.00    -0.545 OA
ENDBRANCH   1   7
BRANCH   6  10
ATOM     10  C   UNL     1     -15.393  91.990  -9.596  1.00  0.00     0.013 C 
ATOM     11  C   UNL     1     -14.556  92.566  -8.448  1.00  0.00     0.012 C 
ATOM     12  C   UNL     1     -14.650  90.849 -10.301  1.00  0.00     0.012 C 
ENDBRANCH   6  10
TORSDOF 2
ENDMDL
MODEL 7
REMARK VINA RESULT:    -4.836     15.796     16.758
REMARK INTER + INTRA:          -5.619
REMARK INTER:                  -5.403
REMARK INTRA:                  -0.216
REMARK UNBOUND:                -0.218
REMARK SMILES CC(C)c1ccc(C(=O)[O-])cc1
REMARK SMILES IDX 7 1 6 2 11 3 5 4 12 5 4 6 8 7 9 8 10 9 2 10 1 11 3 12
REMARK H PARENT
REMARK Flexibility Score: inf
ROOT
ATOM      1  C   UNL     1     -24.864  82.341 -19.645  1.00  0.00    -0.003 A 
ATOM      2  C   UNL     1     -23.982  83.402 -19.379  1.00  0.00     0.010 A 
ATOM      3  C   UNL     1     -25.815  82.486 -20.669  1.00  0.00     0.010 A 
ATOM      4  C   UNL     1     -24.050  84.584 -20.123  1.00  0.00     0.004 A 
ATOM      5  C   UNL     1     -25.882  83.668 -21.413  1.00  0.00     0.004 A 
ATOM      6  C   UNL     1     -24.999  84.731 -21.147  1.00  0.00    -0.045 A 
ENDROOT
BRANCH   1   7
ATOM      7  C   UNL     1     -24.789  81.092 -18.855  1.00  0.00     0.071 C 
ATOM      8  O   UNL     1     -23.676  80.548 -18.621  1.00  0.00    -0.545 OA
ATOM      9  O   UNL     1     -25.945  80.500 -18.360  1.00  0.00    -0.545 OA
ENDBRANCH   1   7
BRANCH   6  10
ATOM     10  C   UNL     1     -25.061  86.020 -21.946  1.00  0.00     0.013 C 
ATOM     11  C   UNL     1     -25.869  85.832 -23.235  1.00  0.00     0.012 C 
ATOM     12  C   UNL     1     -23.655  86.550 -22.249  1.00  0.00     0.012 C 
ENDBRANCH   6  10
TORSDOF 2
ENDMDL
MODEL 8
REMARK VINA RESULT:    -4.835      2.081      2.876
REMARK INTER + INTRA:          -5.618
REMARK INTER:                  -5.411
REMARK INTRA:                  -0.208
REMARK UNBOUND:                -0.218
REMARK SMILES CC(C)c1ccc(C(=O)[O-])cc1
REMARK SMILES IDX 7 1 6 2 11 3 5 4 12 5 4 6 8 7 9 8 10 9 2 10 1 11 3 12
REMARK H PARENT
REMARK Flexibility Score: inf
ROOT
ATOM      1  C   UNL     1     -16.584  93.869  -8.810  1.00  0.00    -0.003 A 
ATOM      2  C   UNL     1     -16.633  93.842 -10.215  1.00  0.00     0.010 A 
ATOM      3  C   UNL     1     -15.659  93.046  -8.145  1.00  0.00     0.010 A 
ATOM      4  C   UNL     1     -15.774  93.009 -10.938  1.00  0.00     0.004 A 
ATOM      5  C   UNL     1     -14.801  92.214  -8.870  1.00  0.00     0.004 A 
ATOM      6  C   UNL     1     -14.849  92.185 -10.276  1.00  0.00    -0.045 A 
ENDROOT
BRANCH   1   7
ATOM      7  C   UNL     1     -17.494  94.753  -8.049  1.00  0.00     0.071 C 
ATOM      8  O   UNL     1     -18.726  94.497  -7.980  1.00  0.00    -0.545 OA
ATOM      9  O   UNL     1     -17.002  95.878  -7.397  1.00  0.00    -0.545 OA
ENDBRANCH   1   7
BRANCH   6  10
ATOM     10  C   UNL     1     -13.924  91.287 -11.074  1.00  0.00     0.013 C 
ATOM     11  C   UNL     1     -13.986  91.620 -12.569  1.00  0.00     0.012 C 
ATOM     12  C   UNL     1     -14.239  89.808 -10.825  1.00  0.00     0.012 C 
ENDBRANCH   6  10
TORSDOF 2
ENDMDL
MODEL 9
REMARK VINA RESULT:    -4.816     14.836     15.696
REMARK INTER + INTRA:          -5.597
REMARK INTER:                  -5.384
REMARK INTRA:                  -0.213
REMARK UNBOUND:                -0.218
REMARK SMILES CC(C)c1ccc(C(=O)[O-])cc1
REMARK SMILES IDX 7 1 6 2 11 3 5 4 12 5 4 6 8 7 9 8 10 9 2 10 1 11 3 12
REMARK H PARENT
REMARK Flexibility Score: inf
ROOT
ATOM      1  C   UNL     1     -24.938  84.844 -20.887  1.00  0.00    -0.003 A 
ATOM      2  C   UNL     1     -23.772  84.731 -20.111  1.00  0.00     0.010 A 
ATOM      3  C   UNL     1     -25.835  83.763 -20.932  1.00  0.00     0.010 A 
ATOM      4  C   UNL     1     -23.509  83.559 -19.394  1.00  0.00     0.004 A 
ATOM      5  C   UNL     1     -25.571  82.592 -20.215  1.00  0.00     0.004 A 
ATOM      6  C   UNL     1     -24.403  82.477 -19.438  1.00  0.00    -0.045 A 
ENDROOT
BRANCH   1   7
ATOM      7  C   UNL     1     -25.213  86.086 -21.644  1.00  0.00     0.071 C 
ATOM      8  O   UNL     1     -24.852  87.204 -21.191  1.00  0.00    -0.545 OA
ATOM      9  O   UNL     1     -25.875  86.035 -22.865  1.00  0.00    -0.545 OA
ENDBRANCH   1   7
BRANCH   6  10
ATOM     10  C   UNL     1     -24.104  81.212 -18.655  1.00  0.00     0.013 C 
ATOM     11  C   UNL     1     -25.141  80.990 -17.548  1.00  0.00     0.012 C 
ATOM     12  C   UNL     1     -22.683  81.240 -18.082  1.00  0.00     0.012 C 
ENDBRANCH   6  10
TORSDOF 2
ENDMDL
