MODEL 1
REMARK VINA RESULT:    -4.168      0.000      0.000
REMARK INTER + INTRA:          -5.469
REMARK INTER:                  -5.387
REMARK INTRA:                  -0.082
REMARK UNBOUND:                -0.082
REMARK SMILES CCCCCCC(C)=O
REMARK SMILES IDX 4 1 3 2 2 3 1 4 5 5 6 6 7 7 9 8 8 9
REMARK H PARENT
REMARK Flexibility Score: inf
ROOT
ATOM      1  C   UNL     1      26.197  58.640  -9.402  1.00  0.00     0.000 C 
ENDROOT
BRANCH   1   2
ATOM      2  C   UNL     1      27.359  58.935 -10.368  1.00  0.00    -0.000 C 
BRANCH   2   3
ATOM      3  C   UNL     1      27.866  60.382 -10.272  1.00  0.00    -0.003 C 
ATOM      4  C   UNL     1      29.385  60.422 -10.132  1.00  0.00     0.004 C 
ENDBRANCH   2   3
ENDBRANCH   1   2
BRANCH   1   5
ATOM      5  C   UNL     1      25.888  57.143  -9.192  1.00  0.00     0.008 C 
BRANCH   5   6
ATOM      6  C   UNL     1      24.451  56.852  -8.732  1.00  0.00     0.075 C 
BRANCH   6   7
ATOM      7  C   UNL     1      24.337  55.530  -8.022  1.00  0.00     0.129 C 
ATOM      8  O   UNL     1      25.340  54.865  -7.813  1.00  0.00    -0.300 OA
ATOM      9  C   UNL     1      23.003  55.029  -7.556  1.00  0.00     0.087 C 
ENDBRANCH   6   7
ENDBRANCH   5   6
ENDBRANCH   1   5
TORSDOF 5
ENDMDL
MODEL 2
REMARK VINA RESULT:    -4.165      2.428      5.594
REMARK INTER + INTRA:          -5.464
REMARK INTER:                  -5.297
REMARK INTRA:                  -0.167
REMARK UNBOUND:                -0.082
REMARK SMILES CCCCCCC(C)=O
REMARK SMILES IDX 4 1 3 2 2 3 1 4 5 5 6 6 7 7 9 8 8 9
REMARK H PARENT
REMARK Flexibility Score: inf
ROOT
ATOM      1  C   UNL     1      25.218  58.126  -9.007  1.00  0.00     0.000 C 
ENDROOT
BRANCH   1   2
ATOM      2  C   UNL     1      25.733  56.677  -9.077  1.00  0.00    -0.000 C 
BRANCH   2   3
ATOM      3  C   UNL     1      25.262  55.816  -7.895  1.00  0.00    -0.003 C 
ATOM      4  C   UNL     1      23.827  55.342  -8.099  1.00  0.00     0.004 C 
ENDBRANCH   2   3
ENDBRANCH   1   2
BRANCH   1   5
ATOM      5  C   UNL     1      26.225  59.199  -9.471  1.00  0.00     0.008 C 
BRANCH   5   6
ATOM      6  C   UNL     1      27.269  58.694 -10.479  1.00  0.00     0.075 C 
BRANCH   6   7
ATOM      7  C   UNL     1      28.463  59.607 -10.570  1.00  0.00     0.129 C 
ATOM      8  O   UNL     1      29.474  59.228 -11.140  1.00  0.00    -0.300 OA
ATOM      9  C   UNL     1      28.414  60.983  -9.977  1.00  0.00     0.087 C 
ENDBRANCH   6   7
ENDBRANCH   5   6
ENDBRANCH   1   5
TORSDOF 5
ENDMDL
MODEL 3
REMARK VINA RESULT:    -4.156      2.568      5.708
REMARK INTER + INTRA:          -5.453
REMARK INTER:                  -5.315
REMARK INTRA:                  -0.138
REMARK UNBOUND:                -0.082
REMARK SMILES CCCCCCC(C)=O
REMARK SMILES IDX 4 1 3 2 2 3 1 4 5 5 6 6 7 7 9 8 8 9
REMARK H PARENT
REMARK Flexibility Score: inf
ROOT
ATOM      1  C   UNL     1      25.279  58.144  -8.973  1.00  0.00     0.000 C 
ENDROOT
BRANCH   1   2
ATOM      2  C   UNL     1      25.798  56.701  -9.099  1.00  0.00    -0.000 C 
BRANCH   2   3
ATOM      3  C   UNL     1      25.303  55.786  -7.968  1.00  0.00    -0.003 C 
ATOM      4  C   UNL     1      23.812  55.496  -8.110  1.00  0.00     0.004 C 
ENDBRANCH   2   3
ENDBRANCH   1   2
BRANCH   1   5
ATOM      5  C   UNL     1      26.295  59.239  -9.359  1.00  0.00     0.008 C 
BRANCH   5   6
ATOM      6  C   UNL     1      27.318  58.807 -10.421  1.00  0.00     0.075 C 
BRANCH   6   7
ATOM      7  C   UNL     1      28.423  59.816 -10.592  1.00  0.00     0.129 C 
ATOM      8  O   UNL     1      28.172  61.009 -10.514  1.00  0.00    -0.300 OA
ATOM      9  C   UNL     1      29.830  59.367 -10.846  1.00  0.00     0.087 C 
ENDBRANCH   6   7
ENDBRANCH   5   6
ENDBRANCH   1   5
TORSDOF 5
ENDMDL
MODEL 4
REMARK VINA RESULT:    -4.001      1.920      5.822
REMARK INTER + INTRA:          -5.253
REMARK INTER:                  -5.169
REMARK INTRA:                  -0.083
REMARK UNBOUND:                -0.082
REMARK SMILES CCCCCCC(C)=O
REMARK SMILES IDX 4 1 3 2 2 3 1 4 5 5 6 6 7 7 9 8 8 9
REMARK H PARENT
REMARK Flexibility Score: inf
ROOT
ATOM      1  C   UNL     1      24.462  56.249  -8.941  1.00  0.00     0.000 C 
ENDROOT
BRANCH   1   2
ATOM      2  C   UNL     1      24.256  55.548  -7.586  1.00  0.00    -0.000 C 
BRANCH   2   3
ATOM      3  C   UNL     1      22.844  54.965  -7.422  1.00  0.00    -0.003 C 
ATOM      4  C   UNL     1      22.591  54.539  -5.978  1.00  0.00     0.004 C 
ENDBRANCH   2   3
ENDBRANCH   1   2
BRANCH   1   5
ATOM      5  C   UNL     1      25.826  56.950  -9.111  1.00  0.00     0.008 C 
BRANCH   5   6
ATOM      6  C   UNL     1      25.753  58.485  -9.117  1.00  0.00     0.075 C 
BRANCH   6   7
ATOM      7  C   UNL     1      26.896  59.107  -9.875  1.00  0.00     0.129 C 
ATOM      8  O   UNL     1      27.387  58.515 -10.824  1.00  0.00    -0.300 OA
ATOM      9  C   UNL     1      27.426  60.452  -9.482  1.00  0.00     0.087 C 
ENDBRANCH   6   7
ENDBRANCH   5   6
ENDBRANCH   1   5
TORSDOF 5
ENDMDL
MODEL 5
REMARK VINA RESULT:    -3.834      2.436      5.906
REMARK INTER + INTRA:          -5.037
REMARK INTER:                  -4.961
REMARK INTRA:                  -0.077
REMARK UNBOUND:                -0.082
REMARK SMILES CCCCCCC(C)=O
REMARK SMILES IDX 4 1 3 2 2 3 1 4 5 5 6 6 7 7 9 8 8 9
REMARK H PARENT
REMARK Flexibility Score: inf
ROOT
ATOM      1  C   UNL     1      26.017  58.475  -9.377  1.00  0.00     0.000 C 
ENDROOT
BRANCH   1   2
ATOM      2  C   UNL     1      25.764  57.017  -8.955  1.00  0.00    -0.000 C 
BRANCH   2   3
ATOM      3  C   UNL     1      24.286  56.732  -8.644  1.00  0.00    -0.003 C 
ATOM      4  C   UNL     1      24.086  55.281  -8.215  1.00  0.00     0.004 C 
ENDBRANCH   2   3
ENDBRANCH   1   2
BRANCH   1   5
ATOM      5  C   UNL     1      27.178  58.673 -10.374  1.00  0.00     0.008 C 
BRANCH   5   6
ATOM      6  C   UNL     1      28.173  59.775  -9.978  1.00  0.00     0.075 C 
BRANCH   6   7
ATOM      7  C   UNL     1      29.550  59.526 -10.534  1.00  0.00     0.129 C 
ATOM      8  O   UNL     1      29.681  58.900 -11.575  1.00  0.00    -0.300 OA
ATOM      9  C   UNL     1      30.762  60.052  -9.826  1.00  0.00     0.087 C 
ENDBRANCH   6   7
ENDBRANCH   5   6
ENDBRANCH   1   5
TORSDOF 5
ENDMDL
MODEL 6
REMARK VINA RESULT:    -3.694     16.711     18.960
REMARK INTER + INTRA:          -4.856
REMARK INTER:                  -4.365
REMARK INTRA:                  -0.490
REMARK UNBOUND:                -0.082
REMARK SMILES CCCCCCC(C)=O
REMARK SMILES IDX 4 1 3 2 2 3 1 4 5 5 6 6 7 7 9 8 8 9
REMARK H PARENT
REMARK Flexibility Score: inf
ROOT
ATOM      1  C   UNL     1      15.935  43.213   0.857  1.00  0.00     0.000 C 
ENDROOT
BRANCH   1   2
ATOM      2  C   UNL     1      15.655  44.588   1.490  1.00  0.00    -0.000 C 
BRANCH   2   3
ATOM      3  C   UNL     1      14.952  45.558   0.528  1.00  0.00    -0.003 C 
ATOM      4  C   UNL     1      15.724  45.688  -0.781  1.00  0.00     0.004 C 
ENDBRANCH   2   3
ENDBRANCH   1   2
BRANCH   1   5
ATOM      5  C   UNL     1      17.348  42.650   1.119  1.00  0.00     0.008 C 
BRANCH   5   6
ATOM      6  C   UNL     1      18.401  43.072   0.083  1.00  0.00     0.075 C 
BRANCH   6   7
ATOM      7  C   UNL     1      19.186  44.277   0.527  1.00  0.00     0.129 C 
ATOM      8  O   UNL     1      19.658  44.313   1.652  1.00  0.00    -0.300 OA
ATOM      9  C   UNL     1      19.404  45.429  -0.408  1.00  0.00     0.087 C 
ENDBRANCH   6   7
ENDBRANCH   5   6
ENDBRANCH   1   5
TORSDOF 5
ENDMDL
MODEL 7
REMARK VINA RESULT:    -3.644     15.219     17.119
REMARK INTER + INTRA:          -4.791
REMARK INTER:                  -4.598
REMARK INTRA:                  -0.193
REMARK UNBOUND:                -0.082
REMARK SMILES CCCCCCC(C)=O
REMARK SMILES IDX 4 1 3 2 2 3 1 4 5 5 6 6 7 7 9 8 8 9
REMARK H PARENT
REMARK Flexibility Score: inf
ROOT
ATOM      1  C   UNL     1      31.505  45.314   0.723  1.00  0.00     0.000 C 
ENDROOT
BRANCH   1   2
ATOM      2  C   UNL     1      29.980  45.330   0.934  1.00  0.00    -0.000 C 
BRANCH   2   3
ATOM      3  C   UNL     1      29.198  44.910  -0.320  1.00  0.00    -0.003 C 
ATOM      4  C   UNL     1      28.129  45.941  -0.670  1.00  0.00     0.004 C 
ENDBRANCH   2   3
ENDBRANCH   1   2
BRANCH   1   5
ATOM      5  C   UNL     1      32.343  45.341   2.019  1.00  0.00     0.008 C 
BRANCH   5   6
ATOM      6  C   UNL     1      33.514  46.335   1.995  1.00  0.00     0.075 C 
BRANCH   6   7
ATOM      7  C   UNL     1      33.247  47.553   2.838  1.00  0.00     0.129 C 
ATOM      8  O   UNL     1      33.946  48.546   2.709  1.00  0.00    -0.300 OA
ATOM      9  C   UNL     1      32.120  47.560   3.827  1.00  0.00     0.087 C 
ENDBRANCH   6   7
ENDBRANCH   5   6
ENDBRANCH   1   5
TORSDOF 5
ENDMDL
MODEL 8
REMARK VINA RESULT:    -3.574     15.419     16.678
REMARK INTER + INTRA:          -4.700
REMARK INTER:                  -4.530
REMARK INTRA:                  -0.170
REMARK UNBOUND:                -0.082
REMARK SMILES CCCCCCC(C)=O
REMARK SMILES IDX 4 1 3 2 2 3 1 4 5 5 6 6 7 7 9 8 8 9
REMARK H PARENT
REMARK Flexibility Score: inf
ROOT
ATOM      1  C   UNL     1      32.678  46.444   1.937  1.00  0.00     0.000 C 
ENDROOT
BRANCH   1   2
ATOM      2  C   UNL     1      32.703  46.680   3.459  1.00  0.00    -0.000 C 
BRANCH   2   3
ATOM      3  C   UNL     1      32.579  48.163   3.837  1.00  0.00    -0.003 C 
ATOM      4  C   UNL     1      33.564  49.016   3.042  1.00  0.00     0.004 C 
ENDBRANCH   2   3
ENDBRANCH   1   2
BRANCH   1   5
ATOM      5  C   UNL     1      31.864  45.215   1.482  1.00  0.00     0.008 C 
BRANCH   5   6
ATOM      6  C   UNL     1      30.351  45.461   1.375  1.00  0.00     0.075 C 
BRANCH   6   7
ATOM      7  C   UNL     1      29.800  45.052   0.036  1.00  0.00     0.129 C 
ATOM      8  O   UNL     1      30.453  44.318  -0.691  1.00  0.00    -0.300 OA
ATOM      9  C   UNL     1      28.450  45.527  -0.409  1.00  0.00     0.087 C 
ENDBRANCH   6   7
ENDBRANCH   5   6
ENDBRANCH   1   5
TORSDOF 5
ENDMDL
MODEL 9
REMARK VINA RESULT:    -3.520     17.626     18.693
REMARK INTER + INTRA:          -4.630
REMARK INTER:                  -4.403
REMARK INTRA:                  -0.227
REMARK UNBOUND:                -0.082
REMARK SMILES CCCCCCC(C)=O
REMARK SMILES IDX 4 1 3 2 2 3 1 4 5 5 6 6 7 7 9 8 8 9
REMARK H PARENT
REMARK Flexibility Score: inf
ROOT
ATOM      1  C   UNL     1      15.761  44.625   1.507  1.00  0.00     0.000 C 
ENDROOT
BRANCH   1   2
ATOM      2  C   UNL     1      14.992  45.397   0.420  1.00  0.00    -0.000 C 
BRANCH   2   3
ATOM      3  C   UNL     1      15.863  45.748  -0.795  1.00  0.00    -0.003 C 
ATOM      4  C   UNL     1      15.014  45.902  -2.053  1.00  0.00     0.004 C 
ENDBRANCH   2   3
ENDBRANCH   1   2
BRANCH   1   5
ATOM      5  C   UNL     1      16.923  43.752   0.987  1.00  0.00     0.008 C 
BRANCH   5   6
ATOM      6  C   UNL     1      18.221  43.875   1.800  1.00  0.00     0.075 C 
BRANCH   6   7
ATOM      7  C   UNL     1      19.434  44.011   0.919  1.00  0.00     0.129 C 
ATOM      8  O   UNL     1      19.453  44.857   0.039  1.00  0.00    -0.300 OA
ATOM      9  C   UNL     1      20.625  43.124   1.123  1.00  0.00     0.087 C 
ENDBRANCH   6   7
ENDBRANCH   5   6
ENDBRANCH   1   5
TORSDOF 5
ENDMDL
