MODEL 1
REMARK VINA RESULT:     3.812      0.000      0.000
REMARK INTER + INTRA:           8.955
REMARK INTER:                   8.716
REMARK INTRA:                   0.239
REMARK UNBOUND:                 0.239
REMARK SMILES CCCCCCCCCCCCCCCCCCCCCCCC(=O)[O-]
REMARK SMILES IDX 13 1 14 2 15 3 16 4 17 5 18 6 19 7 20 8 21 9 22 10 23 11
REMARK SMILES IDX 24 12 25 13 26 14 12 15 11 16 10 17 9 18 8 19 7 20 6 21 5 22
REMARK SMILES IDX 4 23 3 24 2 25 1 26
REMARK H PARENT
REMARK Flexibility Score: inf
ROOT
ATOM      1  C   UNL     1      40.124  43.817  21.393  1.00  0.00     0.000 C 
ENDROOT
BRANCH   1   2
ATOM      2  C   UNL     1      40.120  45.311  21.769  1.00  0.00     0.000 C 
BRANCH   2   3
ATOM      3  C   UNL     1      40.041  45.572  23.291  1.00  0.00     0.000 C 
BRANCH   3   4
ATOM      4  C   UNL     1      38.653  45.294  23.902  1.00  0.00     0.000 C 
BRANCH   4   5
ATOM      5  C   UNL     1      38.568  45.475  25.427  1.00  0.00     0.000 C 
BRANCH   5   6
ATOM      6  C   UNL     1      37.237  46.108  25.876  1.00  0.00     0.000 C 
BRANCH   6   7
ATOM      7  C   UNL     1      36.067  45.723  24.958  1.00  0.00     0.000 C 
BRANCH   7   8
ATOM      8  C   UNL     1      34.754  46.422  25.357  1.00  0.00     0.000 C 
BRANCH   8   9
ATOM      9  C   UNL     1      33.507  45.584  25.022  1.00  0.00     0.000 C 
BRANCH   9  10
ATOM     10  C   UNL     1      32.803  45.966  23.708  1.00  0.00     0.006 C 
BRANCH  10  11
ATOM     11  C   UNL     1      33.747  45.960  22.499  1.00  0.00     0.053 C 
BRANCH  11  12
ATOM     12  C   UNL     1      34.493  47.253  22.413  1.00  0.00     0.041 C 
ATOM     13  O   UNL     1      34.398  48.104  23.336  1.00  0.00    -0.550 OA
ATOM     14  O   UNL     1      35.335  47.499  21.335  1.00  0.00    -0.550 OA
ENDBRANCH  11  12
ENDBRANCH  10  11
ENDBRANCH   9  10
ENDBRANCH   8   9
ENDBRANCH   7   8
ENDBRANCH   6   7
ENDBRANCH   5   6
ENDBRANCH   4   5
ENDBRANCH   3   4
ENDBRANCH   2   3
ENDBRANCH   1   2
BRANCH   1  15
ATOM     15  C   UNL     1      40.081  43.593  19.872  1.00  0.00     0.000 C 
BRANCH  15  16
ATOM     16  C   UNL     1      40.125  42.100  19.493  1.00  0.00     0.000 C 
BRANCH  16  17
ATOM     17  C   UNL     1      38.935  41.612  18.644  1.00  0.00     0.000 C 
BRANCH  17  18
ATOM     18  C   UNL     1      38.923  40.084  18.464  1.00  0.00    -0.000 C 
BRANCH  18  19
ATOM     19  C   UNL     1      38.837  39.327  19.801  1.00  0.00    -0.000 C 
BRANCH  19  20
ATOM     20  C   UNL     1      37.409  39.111  20.339  1.00  0.00    -0.000 C 
BRANCH  20  21
ATOM     21  C   UNL     1      36.866  37.683  20.108  1.00  0.00    -0.000 C 
BRANCH  21  22
ATOM     22  C   UNL     1      37.987  36.629  20.125  1.00  0.00    -0.000 C 
BRANCH  22  23
ATOM     23  C   UNL     1      37.657  35.397  19.268  1.00  0.00    -0.000 C 
BRANCH  23  24
ATOM     24  C   UNL     1      38.232  35.491  17.843  1.00  0.00    -0.000 C 
BRANCH  24  25
ATOM     25  C   UNL     1      39.479  36.386  17.768  1.00  0.00    -0.003 C 
ATOM     26  C   UNL     1      39.443  37.352  16.584  1.00  0.00     0.004 C 
ENDBRANCH  24  25
ENDBRANCH  23  24
ENDBRANCH  22  23
ENDBRANCH  21  22
ENDBRANCH  20  21
ENDBRANCH  19  20
ENDBRANCH  18  19
ENDBRANCH  17  18
ENDBRANCH  16  17
ENDBRANCH  15  16
ENDBRANCH   1  15
TORSDOF 22
ENDMDL
MODEL 2
REMARK VINA RESULT:     4.138      1.170      2.315
REMARK INTER + INTRA:           9.699
REMARK INTER:                   9.444
REMARK INTRA:                   0.255
REMARK UNBOUND:                 0.239
REMARK SMILES CCCCCCCCCCCCCCCCCCCCCCCC(=O)[O-]
REMARK SMILES IDX 13 1 14 2 15 3 16 4 17 5 18 6 19 7 20 8 21 9 22 10 23 11
REMARK SMILES IDX 24 12 25 13 26 14 12 15 11 16 10 17 9 18 8 19 7 20 6 21 5 22
REMARK SMILES IDX 4 23 3 24 2 25 1 26
REMARK H PARENT
REMARK Flexibility Score: inf
ROOT
ATOM      1  C   UNL     1      40.125  43.601  21.012  1.00  0.00     0.000 C 
ENDROOT
BRANCH   1   2
ATOM      2  C   UNL     1      39.928  45.128  21.051  1.00  0.00     0.000 C 
BRANCH   2   3
ATOM      3  C   UNL     1      40.036  45.737  22.468  1.00  0.00     0.000 C 
BRANCH   3   4
ATOM      4  C   UNL     1      38.679  45.904  23.181  1.00  0.00     0.000 C 
BRANCH   4   5
ATOM      5  C   UNL     1      38.519  45.080  24.470  1.00  0.00     0.000 C 
BRANCH   5   6
ATOM      6  C   UNL     1      37.570  45.745  25.484  1.00  0.00     0.000 C 
BRANCH   6   7
ATOM      7  C   UNL     1      36.276  46.253  24.831  1.00  0.00     0.000 C 
BRANCH   7   8
ATOM      8  C   UNL     1      35.014  45.696  25.514  1.00  0.00     0.000 C 
BRANCH   8   9
ATOM      9  C   UNL     1      33.838  45.512  24.538  1.00  0.00     0.000 C 
BRANCH   9  10
ATOM     10  C   UNL     1      33.375  46.798  23.831  1.00  0.00     0.006 C 
BRANCH  10  11
ATOM     11  C   UNL     1      34.515  47.797  23.598  1.00  0.00     0.053 C 
BRANCH  11  12
ATOM     12  C   UNL     1      35.032  47.683  22.199  1.00  0.00     0.041 C 
ATOM     13  O   UNL     1      35.152  46.553  21.657  1.00  0.00    -0.550 OA
ATOM     14  O   UNL     1      35.336  48.828  21.475  1.00  0.00    -0.550 OA
ENDBRANCH  11  12
ENDBRANCH  10  11
ENDBRANCH   9  10
ENDBRANCH   8   9
ENDBRANCH   7   8
ENDBRANCH   6   7
ENDBRANCH   5   6
ENDBRANCH   4   5
ENDBRANCH   3   4
ENDBRANCH   2   3
ENDBRANCH   1   2
BRANCH   1  15
ATOM     15  C   UNL     1      40.008  43.026  19.590  1.00  0.00     0.000 C 
BRANCH  15  16
ATOM     16  C   UNL     1      40.112  41.489  19.562  1.00  0.00     0.000 C 
BRANCH  16  17
ATOM     17  C   UNL     1      39.407  40.815  18.370  1.00  0.00     0.000 C 
BRANCH  17  18
ATOM     18  C   UNL     1      39.954  39.406  18.079  1.00  0.00    -0.000 C 
BRANCH  18  19
ATOM     19  C   UNL     1      39.185  38.688  16.955  1.00  0.00    -0.000 C 
BRANCH  19  20
ATOM     20  C   UNL     1      40.057  37.847  16.002  1.00  0.00    -0.000 C 
BRANCH  20  21
ATOM     21  C   UNL     1      40.123  36.350  16.377  1.00  0.00    -0.000 C 
BRANCH  21  22
ATOM     22  C   UNL     1      38.789  35.629  16.118  1.00  0.00    -0.000 C 
BRANCH  22  23
ATOM     23  C   UNL     1      38.071  35.223  17.414  1.00  0.00    -0.000 C 
BRANCH  23  24
ATOM     24  C   UNL     1      38.624  35.947  18.655  1.00  0.00    -0.000 C 
BRANCH  24  25
ATOM     25  C   UNL     1      37.516  36.576  19.514  1.00  0.00    -0.003 C 
ATOM     26  C   UNL     1      37.328  35.863  20.852  1.00  0.00     0.004 C 
ENDBRANCH  24  25
ENDBRANCH  23  24
ENDBRANCH  22  23
ENDBRANCH  21  22
ENDBRANCH  20  21
ENDBRANCH  19  20
ENDBRANCH  18  19
ENDBRANCH  17  18
ENDBRANCH  16  17
ENDBRANCH  15  16
ENDBRANCH   1  15
TORSDOF 22
ENDMDL
MODEL 3
REMARK VINA RESULT:     4.678      1.743      2.125
REMARK INTER + INTRA:          10.933
REMARK INTER:                  12.134
REMARK INTRA:                  -1.201
REMARK UNBOUND:                 0.239
REMARK SMILES CCCCCCCCCCCCCCCCCCCCCCCC(=O)[O-]
REMARK SMILES IDX 13 1 14 2 15 3 16 4 17 5 18 6 19 7 20 8 21 9 22 10 23 11
REMARK SMILES IDX 24 12 25 13 26 14 12 15 11 16 10 17 9 18 8 19 7 20 6 21 5 22
REMARK SMILES IDX 4 23 3 24 2 25 1 26
REMARK H PARENT
REMARK Flexibility Score: inf
ROOT
ATOM      1  C   UNL     1      40.120  43.288  20.693  1.00  0.00     0.000 C 
ENDROOT
BRANCH   1   2
ATOM      2  C   UNL     1      40.118  44.828  20.736  1.00  0.00     0.000 C 
BRANCH   2   3
ATOM      3  C   UNL     1      39.815  45.415  22.133  1.00  0.00     0.000 C 
BRANCH   3   4
ATOM      4  C   UNL     1      39.524  44.349  23.209  1.00  0.00     0.000 C 
BRANCH   4   5
ATOM      5  C   UNL     1      39.767  44.807  24.657  1.00  0.00     0.000 C 
BRANCH   5   6
ATOM      6  C   UNL     1      38.644  45.718  25.188  1.00  0.00     0.000 C 
BRANCH   6   7
ATOM      7  C   UNL     1      37.264  45.328  24.637  1.00  0.00     0.000 C 
BRANCH   7   8
ATOM      8  C   UNL     1      36.386  46.554  24.333  1.00  0.00     0.000 C 
BRANCH   8   9
ATOM      9  C   UNL     1      34.908  46.189  24.106  1.00  0.00     0.000 C 
BRANCH   9  10
ATOM     10  C   UNL     1      34.236  45.448  25.276  1.00  0.00     0.006 C 
BRANCH  10  11
ATOM     11  C   UNL     1      33.442  46.380  26.199  1.00  0.00     0.053 C 
BRANCH  11  12
ATOM     12  C   UNL     1      32.121  46.721  25.585  1.00  0.00     0.041 C 
ATOM     13  O   UNL     1      31.514  47.770  25.927  1.00  0.00    -0.550 OA
ATOM     14  O   UNL     1      31.582  45.906  24.597  1.00  0.00    -0.550 OA
ENDBRANCH  11  12
ENDBRANCH  10  11
ENDBRANCH   9  10
ENDBRANCH   8   9
ENDBRANCH   7   8
ENDBRANCH   6   7
ENDBRANCH   5   6
ENDBRANCH   4   5
ENDBRANCH   3   4
ENDBRANCH   2   3
ENDBRANCH   1   2
BRANCH   1  15
ATOM     15  C   UNL     1      39.225  42.728  19.575  1.00  0.00     0.000 C 
BRANCH  15  16
ATOM     16  C   UNL     1      40.030  41.997  18.482  1.00  0.00     0.000 C 
BRANCH  16  17
ATOM     17  C   UNL     1      40.113  40.468  18.653  1.00  0.00     0.000 C 
BRANCH  17  18
ATOM     18  C   UNL     1      38.728  39.799  18.672  1.00  0.00    -0.000 C 
BRANCH  18  19
ATOM     19  C   UNL     1      38.742  38.417  19.349  1.00  0.00    -0.000 C 
BRANCH  19  20
ATOM     20  C   UNL     1      37.411  37.643  19.282  1.00  0.00    -0.000 C 
BRANCH  20  21
ATOM     21  C   UNL     1      37.084  36.855  20.569  1.00  0.00    -0.000 C 
BRANCH  21  22
ATOM     22  C   UNL     1      37.110  35.333  20.340  1.00  0.00    -0.000 C 
BRANCH  22  23
ATOM     23  C   UNL     1      37.823  34.940  19.037  1.00  0.00    -0.000 C 
BRANCH  23  24
ATOM     24  C   UNL     1      39.355  34.901  19.184  1.00  0.00    -0.000 C 
BRANCH  24  25
ATOM     25  C   UNL     1      40.082  35.133  17.850  1.00  0.00    -0.003 C 
ATOM     26  C   UNL     1      39.235  35.909  16.842  1.00  0.00     0.004 C 
ENDBRANCH  24  25
ENDBRANCH  23  24
ENDBRANCH  22  23
ENDBRANCH  21  22
ENDBRANCH  20  21
ENDBRANCH  19  20
ENDBRANCH  18  19
ENDBRANCH  17  18
ENDBRANCH  16  17
ENDBRANCH  15  16
ENDBRANCH   1  15
TORSDOF 22
ENDMDL
MODEL 4
REMARK VINA RESULT:     5.302     11.454     19.175
REMARK INTER + INTRA:          12.360
REMARK INTER:                  13.512
REMARK INTRA:                  -1.152
REMARK UNBOUND:                 0.239
REMARK SMILES CCCCCCCCCCCCCCCCCCCCCCCC(=O)[O-]
REMARK SMILES IDX 13 1 14 2 15 3 16 4 17 5 18 6 19 7 20 8 21 9 22 10 23 11
REMARK SMILES IDX 24 12 25 13 26 14 12 15 11 16 10 17 9 18 8 19 7 20 6 21 5 22
REMARK SMILES IDX 4 23 3 24 2 25 1 26
REMARK H PARENT
REMARK Flexibility Score: inf
ROOT
ATOM      1  C   UNL     1      24.088  50.849  26.726  1.00  0.00     0.000 C 
ENDROOT
BRANCH   1   2
ATOM      2  C   UNL     1      24.599  51.407  25.385  1.00  0.00     0.000 C 
BRANCH   2   3
ATOM      3  C   UNL     1      25.835  50.664  24.828  1.00  0.00     0.000 C 
BRANCH   3   4
ATOM      4  C   UNL     1      26.434  49.629  25.803  1.00  0.00     0.000 C 
BRANCH   4   5
ATOM      5  C   UNL     1      27.918  49.844  26.145  1.00  0.00     0.000 C 
BRANCH   5   6
ATOM      6  C   UNL     1      28.826  48.745  25.561  1.00  0.00     0.000 C 
BRANCH   6   7
ATOM      7  C   UNL     1      30.281  48.874  26.034  1.00  0.00     0.000 C 
BRANCH   7   8
ATOM      8  C   UNL     1      30.988  47.510  26.138  1.00  0.00     0.000 C 
BRANCH   8   9
ATOM      9  C   UNL     1      32.509  47.639  26.336  1.00  0.00     0.000 C 
BRANCH   9  10
ATOM     10  C   UNL     1      33.303  46.339  26.123  1.00  0.00     0.006 C 
BRANCH  10  11
ATOM     11  C   UNL     1      33.423  45.946  24.645  1.00  0.00     0.053 C 
BRANCH  11  12
ATOM     12  C   UNL     1      34.536  46.702  23.992  1.00  0.00     0.041 C 
ATOM     13  O   UNL     1      35.735  46.393  24.224  1.00  0.00    -0.550 OA
ATOM     14  O   UNL     1      34.250  47.716  23.087  1.00  0.00    -0.550 OA
ENDBRANCH  11  12
ENDBRANCH  10  11
ENDBRANCH   9  10
ENDBRANCH   8   9
ENDBRANCH   7   8
ENDBRANCH   6   7
ENDBRANCH   5   6
ENDBRANCH   4   5
ENDBRANCH   3   4
ENDBRANCH   2   3
ENDBRANCH   1   2
BRANCH   1  15
ATOM     15  C   UNL     1      22.808  51.553  27.209  1.00  0.00     0.000 C 
BRANCH  15  16
ATOM     16  C   UNL     1      22.956  52.146  28.623  1.00  0.00     0.000 C 
BRANCH  16  17
ATOM     17  C   UNL     1      21.776  53.023  29.084  1.00  0.00     0.000 C 
BRANCH  17  18
ATOM     18  C   UNL     1      21.802  53.302  30.597  1.00  0.00    -0.000 C 
BRANCH  18  19
ATOM     19  C   UNL     1      23.132  53.917  31.067  1.00  0.00    -0.000 C 
BRANCH  19  20
ATOM     20  C   UNL     1      23.019  54.874  32.270  1.00  0.00    -0.000 C 
BRANCH  20  21
ATOM     21  C   UNL     1      24.314  54.978  33.106  1.00  0.00    -0.000 C 
BRANCH  21  22
ATOM     22  C   UNL     1      24.121  54.455  34.540  1.00  0.00    -0.000 C 
BRANCH  22  23
ATOM     23  C   UNL     1      22.715  54.734  35.091  1.00  0.00    -0.000 C 
BRANCH  23  24
ATOM     24  C   UNL     1      22.158  53.566  35.925  1.00  0.00    -0.000 C 
BRANCH  24  25
ATOM     25  C   UNL     1      20.748  53.144  35.482  1.00  0.00    -0.003 C 
ATOM     26  C   UNL     1      20.266  53.901  34.245  1.00  0.00     0.004 C 
ENDBRANCH  24  25
ENDBRANCH  23  24
ENDBRANCH  22  23
ENDBRANCH  21  22
ENDBRANCH  20  21
ENDBRANCH  19  20
ENDBRANCH  18  19
ENDBRANCH  17  18
ENDBRANCH  16  17
ENDBRANCH  15  16
ENDBRANCH   1  15
TORSDOF 22
ENDMDL
MODEL 5
REMARK VINA RESULT:     5.956     10.513     15.120
REMARK INTER + INTRA:          13.855
REMARK INTER:                  13.891
REMARK INTRA:                  -0.035
REMARK UNBOUND:                 0.239
REMARK SMILES CCCCCCCCCCCCCCCCCCCCCCCC(=O)[O-]
REMARK SMILES IDX 13 1 14 2 15 3 16 4 17 5 18 6 19 7 20 8 21 9 22 10 23 11
REMARK SMILES IDX 24 12 25 13 26 14 12 15 11 16 10 17 9 18 8 19 7 20 6 21 5 22
REMARK SMILES IDX 4 23 3 24 2 25 1 26
REMARK H PARENT
REMARK Flexibility Score: inf
ROOT
ATOM      1  C   UNL     1      26.096  49.833  25.615  1.00  0.00     0.000 C 
ENDROOT
BRANCH   1   2
ATOM      2  C   UNL     1      25.519  51.086  24.929  1.00  0.00     0.000 C 
BRANCH   2   3
ATOM      3  C   UNL     1      24.080  51.435  25.373  1.00  0.00     0.000 C 
BRANCH   3   4
ATOM      4  C   UNL     1      23.835  52.945  25.565  1.00  0.00     0.000 C 
BRANCH   4   5
ATOM      5  C   UNL     1      22.860  53.305  26.700  1.00  0.00     0.000 C 
BRANCH   5   6
ATOM      6  C   UNL     1      22.784  52.214  27.784  1.00  0.00     0.000 C 
BRANCH   6   7
ATOM      7  C   UNL     1      21.684  52.491  28.820  1.00  0.00     0.000 C 
BRANCH   7   8
ATOM      8  C   UNL     1      22.208  53.275  30.036  1.00  0.00     0.000 C 
BRANCH   8   9
ATOM      9  C   UNL     1      21.099  54.052  30.768  1.00  0.00     0.000 C 
BRANCH   9  10
ATOM     10  C   UNL     1      21.586  54.936  31.931  1.00  0.00     0.006 C 
BRANCH  10  11
ATOM     11  C   UNL     1      22.995  54.570  32.412  1.00  0.00     0.053 C 
BRANCH  11  12
ATOM     12  C   UNL     1      23.035  54.499  33.906  1.00  0.00     0.041 C 
ATOM     13  O   UNL     1      24.116  54.247  34.500  1.00  0.00    -0.550 OA
ATOM     14  O   UNL     1      21.889  54.761  34.645  1.00  0.00    -0.550 OA
ENDBRANCH  11  12
ENDBRANCH  10  11
ENDBRANCH   9  10
ENDBRANCH   8   9
ENDBRANCH   7   8
ENDBRANCH   6   7
ENDBRANCH   5   6
ENDBRANCH   4   5
ENDBRANCH   3   4
ENDBRANCH   2   3
ENDBRANCH   1   2
BRANCH   1  15
ATOM     15  C   UNL     1      27.557  50.023  26.057  1.00  0.00     0.000 C 
BRANCH  15  16
ATOM     16  C   UNL     1      28.499  48.961  25.459  1.00  0.00     0.000 C 
BRANCH  16  17
ATOM     17  C   UNL     1      29.554  48.407  26.436  1.00  0.00     0.000 C 
BRANCH  17  18
ATOM     18  C   UNL     1      30.831  47.933  25.721  1.00  0.00    -0.000 C 
BRANCH  18  19
ATOM     19  C   UNL     1      32.010  47.717  26.687  1.00  0.00    -0.000 C 
BRANCH  19  20
ATOM     20  C   UNL     1      33.294  47.164  26.038  1.00  0.00    -0.000 C 
BRANCH  20  21
ATOM     21  C   UNL     1      33.275  45.634  25.826  1.00  0.00    -0.000 C 
BRANCH  21  22
ATOM     22  C   UNL     1      32.876  45.253  24.390  1.00  0.00    -0.000 C 
BRANCH  22  23
ATOM     23  C   UNL     1      33.162  46.371  23.376  1.00  0.00    -0.000 C 
BRANCH  23  24
ATOM     24  C   UNL     1      34.479  47.114  23.664  1.00  0.00    -0.000 C 
BRANCH  24  25
ATOM     25  C   UNL     1      35.419  47.141  22.448  1.00  0.00    -0.003 C 
ATOM     26  C   UNL     1      35.187  48.353  21.547  1.00  0.00     0.004 C 
ENDBRANCH  24  25
ENDBRANCH  23  24
ENDBRANCH  22  23
ENDBRANCH  21  22
ENDBRANCH  20  21
ENDBRANCH  19  20
ENDBRANCH  18  19
ENDBRANCH  17  18
ENDBRANCH  16  17
ENDBRANCH  15  16
ENDBRANCH   1  15
TORSDOF 22
ENDMDL
MODEL 6
REMARK VINA RESULT:     6.278     11.483     16.222
REMARK INTER + INTRA:          14.592
REMARK INTER:                  15.595
REMARK INTRA:                  -1.002
REMARK UNBOUND:                 0.239
REMARK SMILES CCCCCCCCCCCCCCCCCCCCCCCC(=O)[O-]
REMARK SMILES IDX 13 1 14 2 15 3 16 4 17 5 18 6 19 7 20 8 21 9 22 10 23 11
REMARK SMILES IDX 24 12 25 13 26 14 12 15 11 16 10 17 9 18 8 19 7 20 6 21 5 22
REMARK SMILES IDX 4 23 3 24 2 25 1 26
REMARK H PARENT
REMARK Flexibility Score: inf
ROOT
ATOM      1  C   UNL     1      24.610  51.696  24.978  1.00  0.00     0.000 C 
ENDROOT
BRANCH   1   2
ATOM      2  C   UNL     1      23.606  52.256  26.003  1.00  0.00     0.000 C 
BRANCH   2   3
ATOM      3  C   UNL     1      23.201  51.244  27.100  1.00  0.00     0.000 C 
BRANCH   3   4
ATOM      4  C   UNL     1      22.424  51.871  28.274  1.00  0.00     0.000 C 
BRANCH   4   5
ATOM      5  C   UNL     1      23.114  53.075  28.939  1.00  0.00     0.000 C 
BRANCH   5   6
ATOM      6  C   UNL     1      23.540  52.787  30.390  1.00  0.00     0.000 C 
BRANCH   6   7
ATOM      7  C   UNL     1      24.562  53.807  30.916  1.00  0.00     0.000 C 
BRANCH   7   8
ATOM      8  C   UNL     1      23.918  54.867  31.827  1.00  0.00     0.000 C 
BRANCH   8   9
ATOM      9  C   UNL     1      24.184  54.610  33.321  1.00  0.00     0.000 C 
BRANCH   9  10
ATOM     10  C   UNL     1      22.955  54.770  34.235  1.00  0.00     0.006 C 
BRANCH  10  11
ATOM     11  C   UNL     1      21.687  54.138  33.649  1.00  0.00     0.053 C 
BRANCH  11  12
ATOM     12  C   UNL     1      20.669  53.918  34.723  1.00  0.00     0.041 C 
ATOM     13  O   UNL     1      19.964  52.874  34.726  1.00  0.00    -0.550 OA
ATOM     14  O   UNL     1      20.532  54.843  35.750  1.00  0.00    -0.550 OA
ENDBRANCH  11  12
ENDBRANCH  10  11
ENDBRANCH   9  10
ENDBRANCH   8   9
ENDBRANCH   7   8
ENDBRANCH   6   7
ENDBRANCH   5   6
ENDBRANCH   4   5
ENDBRANCH   3   4
ENDBRANCH   2   3
ENDBRANCH   1   2
BRANCH   1  15
ATOM     15  C   UNL     1      25.850  51.078  25.645  1.00  0.00     0.000 C 
BRANCH  15  16
ATOM     16  C   UNL     1      26.491  49.968  24.789  1.00  0.00     0.000 C 
BRANCH  16  17
ATOM     17  C   UNL     1      27.253  48.893  25.588  1.00  0.00     0.000 C 
BRANCH  17  18
ATOM     18  C   UNL     1      28.679  49.334  25.961  1.00  0.00    -0.000 C 
BRANCH  18  19
ATOM     19  C   UNL     1      29.745  48.291  25.581  1.00  0.00    -0.000 C 
BRANCH  19  20
ATOM     20  C   UNL     1      30.762  47.963  26.692  1.00  0.00    -0.000 C 
BRANCH  20  21
ATOM     21  C   UNL     1      32.230  47.960  26.210  1.00  0.00    -0.000 C 
BRANCH  21  22
ATOM     22  C   UNL     1      32.749  46.536  25.944  1.00  0.00    -0.000 C 
BRANCH  22  23
ATOM     23  C   UNL     1      34.013  46.517  25.072  1.00  0.00    -0.000 C 
BRANCH  23  24
ATOM     24  C   UNL     1      33.883  47.394  23.814  1.00  0.00    -0.000 C 
BRANCH  24  25
ATOM     25  C   UNL     1      34.793  46.922  22.669  1.00  0.00    -0.003 C 
ATOM     26  C   UNL     1      35.274  48.070  21.783  1.00  0.00     0.004 C 
ENDBRANCH  24  25
ENDBRANCH  23  24
ENDBRANCH  22  23
ENDBRANCH  21  22
ENDBRANCH  20  21
ENDBRANCH  19  20
ENDBRANCH  18  19
ENDBRANCH  17  18
ENDBRANCH  16  17
ENDBRANCH  15  16
ENDBRANCH   1  15
TORSDOF 22
ENDMDL
MODEL 7
REMARK VINA RESULT:     6.282     12.223     17.111
REMARK INTER + INTRA:          14.600
REMARK INTER:                  15.482
REMARK INTRA:                  -0.882
REMARK UNBOUND:                 0.239
REMARK SMILES CCCCCCCCCCCCCCCCCCCCCCCC(=O)[O-]
REMARK SMILES IDX 13 1 14 2 15 3 16 4 17 5 18 6 19 7 20 8 21 9 22 10 23 11
REMARK SMILES IDX 24 12 25 13 26 14 12 15 11 16 10 17 9 18 8 19 7 20 6 21 5 22
REMARK SMILES IDX 4 23 3 24 2 25 1 26
REMARK H PARENT
REMARK Flexibility Score: inf
ROOT
ATOM      1  C   UNL     1      23.655  51.259  26.434  1.00  0.00     0.000 C 
ENDROOT
BRANCH   1   2
ATOM      2  C   UNL     1      22.900  52.410  27.127  1.00  0.00     0.000 C 
BRANCH   2   3
ATOM      3  C   UNL     1      22.775  52.244  28.658  1.00  0.00     0.000 C 
BRANCH   3   4
ATOM      4  C   UNL     1      21.642  53.079  29.287  1.00  0.00     0.000 C 
BRANCH   4   5
ATOM      5  C   UNL     1      21.934  53.607  30.702  1.00  0.00     0.000 C 
BRANCH   5   6
ATOM      6  C   UNL     1      20.728  54.336  31.324  1.00  0.00     0.000 C 
BRANCH   6   7
ATOM      7  C   UNL     1      20.964  54.713  32.794  1.00  0.00     0.000 C 
BRANCH   7   8
ATOM      8  C   UNL     1      20.848  53.502  33.737  1.00  0.00     0.000 C 
BRANCH   8   9
ATOM      9  C   UNL     1      20.883  53.898  35.224  1.00  0.00     0.000 C 
BRANCH   9  10
ATOM     10  C   UNL     1      22.246  53.708  35.914  1.00  0.00     0.006 C 
BRANCH  10  11
ATOM     11  C   UNL     1      23.083  54.992  35.949  1.00  0.00     0.053 C 
BRANCH  11  12
ATOM     12  C   UNL     1      24.328  54.826  35.136  1.00  0.00     0.041 C 
ATOM     13  O   UNL     1      25.456  54.827  35.696  1.00  0.00    -0.550 OA
ATOM     14  O   UNL     1      24.241  54.621  33.765  1.00  0.00    -0.550 OA
ENDBRANCH  11  12
ENDBRANCH  10  11
ENDBRANCH   9  10
ENDBRANCH   8   9
ENDBRANCH   7   8
ENDBRANCH   6   7
ENDBRANCH   5   6
ENDBRANCH   4   5
ENDBRANCH   3   4
ENDBRANCH   2   3
ENDBRANCH   1   2
BRANCH   1  15
ATOM     15  C   UNL     1      24.481  51.737  25.228  1.00  0.00     0.000 C 
BRANCH  15  16
ATOM     16  C   UNL     1      25.680  50.816  24.930  1.00  0.00     0.000 C 
BRANCH  16  17
ATOM     17  C   UNL     1      26.293  50.131  26.167  1.00  0.00     0.000 C 
BRANCH  17  18
ATOM     18  C   UNL     1      27.808  49.902  26.026  1.00  0.00    -0.000 C 
BRANCH  18  19
ATOM     19  C   UNL     1      28.167  48.428  25.768  1.00  0.00    -0.000 C 
BRANCH  19  20
ATOM     20  C   UNL     1      29.435  47.929  26.488  1.00  0.00    -0.000 C 
BRANCH  20  21
ATOM     21  C   UNL     1      30.734  48.611  26.005  1.00  0.00    -0.000 C 
BRANCH  21  22
ATOM     22  C   UNL     1      31.992  47.849  26.458  1.00  0.00    -0.000 C 
BRANCH  22  23
ATOM     23  C   UNL     1      33.135  47.928  25.435  1.00  0.00    -0.000 C 
BRANCH  23  24
ATOM     24  C   UNL     1      33.463  46.564  24.801  1.00  0.00    -0.000 C 
BRANCH  24  25
ATOM     25  C   UNL     1      34.785  46.580  24.018  1.00  0.00    -0.003 C 
ATOM     26  C   UNL     1      34.617  47.079  22.583  1.00  0.00     0.004 C 
ENDBRANCH  24  25
ENDBRANCH  23  24
ENDBRANCH  22  23
ENDBRANCH  21  22
ENDBRANCH  20  21
ENDBRANCH  19  20
ENDBRANCH  18  19
ENDBRANCH  17  18
ENDBRANCH  16  17
ENDBRANCH  15  16
ENDBRANCH   1  15
TORSDOF 22
ENDMDL
MODEL 8
REMARK VINA RESULT:     6.323     11.351     19.028
REMARK INTER + INTRA:          14.695
REMARK INTER:                  15.637
REMARK INTRA:                  -0.942
REMARK UNBOUND:                 0.239
REMARK SMILES CCCCCCCCCCCCCCCCCCCCCCCC(=O)[O-]
REMARK SMILES IDX 13 1 14 2 15 3 16 4 17 5 18 6 19 7 20 8 21 9 22 10 23 11
REMARK SMILES IDX 24 12 25 13 26 14 12 15 11 16 10 17 9 18 8 19 7 20 6 21 5 22
REMARK SMILES IDX 4 23 3 24 2 25 1 26
REMARK H PARENT
REMARK Flexibility Score: inf
ROOT
ATOM      1  C   UNL     1      24.445  51.890  25.112  1.00  0.00     0.000 C 
ENDROOT
BRANCH   1   2
ATOM      2  C   UNL     1      25.553  50.934  24.632  1.00  0.00     0.000 C 
BRANCH   2   3
ATOM      3  C   UNL     1      25.959  49.872  25.680  1.00  0.00     0.000 C 
BRANCH   3   4
ATOM      4  C   UNL     1      27.413  50.008  26.177  1.00  0.00     0.000 C 
BRANCH   4   5
ATOM      5  C   UNL     1      28.429  49.097  25.467  1.00  0.00     0.000 C 
BRANCH   5   6
ATOM      6  C   UNL     1      29.138  48.133  26.435  1.00  0.00     0.000 C 
BRANCH   6   7
ATOM      7  C   UNL     1      30.665  48.293  26.409  1.00  0.00     0.000 C 
BRANCH   7   8
ATOM      8  C   UNL     1      31.362  47.162  25.633  1.00  0.00     0.000 C 
BRANCH   8   9
ATOM      9  C   UNL     1      32.833  46.973  26.045  1.00  0.00     0.000 C 
BRANCH   9  10
ATOM     10  C   UNL     1      33.602  45.913  25.236  1.00  0.00     0.006 C 
BRANCH  10  11
ATOM     11  C   UNL     1      33.546  46.158  23.723  1.00  0.00     0.053 C 
BRANCH  11  12
ATOM     12  C   UNL     1      34.787  46.854  23.260  1.00  0.00     0.041 C 
ATOM     13  O   UNL     1      34.719  47.759  22.387  1.00  0.00    -0.550 OA
ATOM     14  O   UNL     1      36.014  46.537  23.829  1.00  0.00    -0.550 OA
ENDBRANCH  11  12
ENDBRANCH  10  11
ENDBRANCH   9  10
ENDBRANCH   8   9
ENDBRANCH   7   8
ENDBRANCH   6   7
ENDBRANCH   5   6
ENDBRANCH   4   5
ENDBRANCH   3   4
ENDBRANCH   2   3
ENDBRANCH   1   2
BRANCH   1  15
ATOM     15  C   UNL     1      23.760  51.401  26.399  1.00  0.00     0.000 C 
BRANCH  15  16
ATOM     16  C   UNL     1      23.093  52.546  27.186  1.00  0.00     0.000 C 
BRANCH  16  17
ATOM     17  C   UNL     1      22.148  52.091  28.315  1.00  0.00     0.000 C 
BRANCH  17  18
ATOM     18  C   UNL     1      22.235  52.992  29.559  1.00  0.00    -0.000 C 
BRANCH  18  19
ATOM     19  C   UNL     1      20.902  53.691  29.882  1.00  0.00    -0.000 C 
BRANCH  19  20
ATOM     20  C   UNL     1      21.004  54.862  30.881  1.00  0.00    -0.000 C 
BRANCH  20  21
ATOM     21  C   UNL     1      21.865  54.546  32.124  1.00  0.00    -0.000 C 
BRANCH  21  22
ATOM     22  C   UNL     1      21.061  53.815  33.214  1.00  0.00    -0.000 C 
BRANCH  22  23
ATOM     23  C   UNL     1      20.797  54.692  34.447  1.00  0.00    -0.000 C 
BRANCH  23  24
ATOM     24  C   UNL     1      21.586  54.230  35.686  1.00  0.00    -0.000 C 
BRANCH  24  25
ATOM     25  C   UNL     1      22.874  55.042  35.902  1.00  0.00    -0.003 C 
ATOM     26  C   UNL     1      24.073  54.454  35.160  1.00  0.00     0.004 C 
ENDBRANCH  24  25
ENDBRANCH  23  24
ENDBRANCH  22  23
ENDBRANCH  21  22
ENDBRANCH  20  21
ENDBRANCH  19  20
ENDBRANCH  18  19
ENDBRANCH  17  18
ENDBRANCH  16  17
ENDBRANCH  15  16
ENDBRANCH   1  15
TORSDOF 22
ENDMDL
