MODEL 1
REMARK VINA RESULT:    -3.681      0.000      0.000
REMARK INTER + INTRA:          -5.502
REMARK INTER:                  -5.187
REMARK INTRA:                  -0.315
REMARK UNBOUND:                -0.315
REMARK SMILES CCCCCCCCC(=O)[O-]
REMARK SMILES IDX 6 1 7 2 8 3 9 4 10 5 11 6 5 7 4 8 3 9 2 10 1 11
REMARK H PARENT
REMARK Flexibility Score: inf
ROOT
ATOM      1  C   UNL     1     164.370 159.107 151.728  1.00  0.00     0.000 C 
ENDROOT
BRANCH   1   2
ATOM      2  C   UNL     1     163.059 159.582 151.068  1.00  0.00     0.006 C 
BRANCH   2   3
ATOM      3  C   UNL     1     162.423 158.559 150.112  1.00  0.00     0.053 C 
BRANCH   3   4
ATOM      4  C   UNL     1     160.977 158.324 150.423  1.00  0.00     0.041 C 
ATOM      5  O   UNL     1     160.626 157.304 151.073  1.00  0.00    -0.550 OA
ATOM      6  O   UNL     1     160.021 159.251 150.027  1.00  0.00    -0.550 OA
ENDBRANCH   3   4
ENDBRANCH   2   3
ENDBRANCH   1   2
BRANCH   1   7
ATOM      7  C   UNL     1     165.528 160.125 151.692  1.00  0.00     0.000 C 
BRANCH   7   8
ATOM      8  C   UNL     1     166.864 159.610 152.258  1.00  0.00    -0.000 C 
BRANCH   8   9
ATOM      9  C   UNL     1     166.729 158.238 152.943  1.00  0.00    -0.000 C 
BRANCH   9  10
ATOM     10  C   UNL     1     166.689 158.347 154.474  1.00  0.00    -0.003 C 
ATOM     11  C   UNL     1     167.396 159.598 154.996  1.00  0.00     0.004 C 
ENDBRANCH   9  10
ENDBRANCH   8   9
ENDBRANCH   7   8
ENDBRANCH   1   7
TORSDOF 7
ENDMDL
MODEL 2
REMARK VINA RESULT:    -3.583     13.039     13.846
REMARK INTER + INTRA:          -5.364
REMARK INTER:                  -4.951
REMARK INTRA:                  -0.412
REMARK UNBOUND:                -0.315
REMARK SMILES CCCCCCCCC(=O)[O-]
REMARK SMILES IDX 6 1 7 2 8 3 9 4 10 5 11 6 5 7 4 8 3 9 2 10 1 11
REMARK H PARENT
REMARK Flexibility Score: inf
ROOT
ATOM      1  C   UNL     1     162.680 157.484 166.662  1.00  0.00     0.000 C 
ENDROOT
BRANCH   1   2
ATOM      2  C   UNL     1     162.822 158.351 165.394  1.00  0.00     0.006 C 
BRANCH   2   3
ATOM      3  C   UNL     1     161.932 159.604 165.379  1.00  0.00     0.053 C 
BRANCH   3   4
ATOM      4  C   UNL     1     160.505 159.276 165.064  1.00  0.00     0.041 C 
ATOM      5  O   UNL     1     160.232 158.378 164.224  1.00  0.00    -0.550 OA
ATOM      6  O   UNL     1     159.477 159.937 165.724  1.00  0.00    -0.550 OA
ENDBRANCH   3   4
ENDBRANCH   2   3
ENDBRANCH   1   2
BRANCH   1   7
ATOM      7  C   UNL     1     163.420 156.131 166.617  1.00  0.00     0.000 C 
BRANCH   7   8
ATOM      8  C   UNL     1     163.478 155.469 165.229  1.00  0.00    -0.000 C 
BRANCH   8   9
ATOM      9  C   UNL     1     164.907 155.067 164.821  1.00  0.00    -0.000 C 
BRANCH   9  10
ATOM     10  C   UNL     1     165.782 156.280 164.473  1.00  0.00    -0.003 C 
ATOM     11  C   UNL     1     167.272 155.941 164.440  1.00  0.00     0.004 C 
ENDBRANCH   9  10
ENDBRANCH   8   9
ENDBRANCH   7   8
ENDBRANCH   1   7
TORSDOF 7
ENDMDL
MODEL 3
REMARK VINA RESULT:    -3.570     13.196     14.120
REMARK INTER + INTRA:          -5.346
REMARK INTER:                  -4.755
REMARK INTRA:                  -0.591
REMARK UNBOUND:                -0.315
REMARK SMILES CCCCCCCCC(=O)[O-]
REMARK SMILES IDX 6 1 7 2 8 3 9 4 10 5 11 6 5 7 4 8 3 9 2 10 1 11
REMARK H PARENT
REMARK Flexibility Score: inf
ROOT
ATOM      1  C   UNL     1     161.977 155.864 165.679  1.00  0.00     0.000 C 
ENDROOT
BRANCH   1   2
ATOM      2  C   UNL     1     161.554 157.068 164.813  1.00  0.00     0.006 C 
BRANCH   2   3
ATOM      3  C   UNL     1     162.562 158.228 164.804  1.00  0.00     0.053 C 
BRANCH   3   4
ATOM      4  C   UNL     1     162.025 159.442 165.498  1.00  0.00     0.041 C 
ATOM      5  O   UNL     1     162.772 160.125 166.248  1.00  0.00    -0.550 OA
ATOM      6  O   UNL     1     160.711 159.841 165.289  1.00  0.00    -0.550 OA
ENDBRANCH   3   4
ENDBRANCH   2   3
ENDBRANCH   1   2
BRANCH   1   7
ATOM      7  C   UNL     1     163.176 156.120 166.616  1.00  0.00     0.000 C 
BRANCH   7   8
ATOM      8  C   UNL     1     164.428 155.278 166.313  1.00  0.00    -0.000 C 
BRANCH   8   9
ATOM      9  C   UNL     1     165.154 155.731 165.034  1.00  0.00    -0.000 C 
BRANCH   9  10
ATOM     10  C   UNL     1     165.081 154.684 163.914  1.00  0.00    -0.003 C 
ATOM     11  C   UNL     1     164.743 153.287 164.434  1.00  0.00     0.004 C 
ENDBRANCH   9  10
ENDBRANCH   8   9
ENDBRANCH   7   8
ENDBRANCH   1   7
TORSDOF 7
ENDMDL
MODEL 4
REMARK VINA RESULT:    -3.536     13.022     14.268
REMARK INTER + INTRA:          -5.298
REMARK INTER:                  -4.603
REMARK INTRA:                  -0.694
REMARK UNBOUND:                -0.315
REMARK SMILES CCCCCCCCC(=O)[O-]
REMARK SMILES IDX 6 1 7 2 8 3 9 4 10 5 11 6 5 7 4 8 3 9 2 10 1 11
REMARK H PARENT
REMARK Flexibility Score: inf
ROOT
ATOM      1  C   UNL     1     163.926 155.760 166.535  1.00  0.00     0.000 C 
ENDROOT
BRANCH   1   2
ATOM      2  C   UNL     1     162.763 156.769 166.438  1.00  0.00     0.006 C 
BRANCH   2   3
ATOM      3  C   UNL     1     162.914 157.804 165.311  1.00  0.00     0.053 C 
BRANCH   3   4
ATOM      4  C   UNL     1     162.277 159.113 165.663  1.00  0.00     0.041 C 
ATOM      5  O   UNL     1     161.146 159.413 165.195  1.00  0.00    -0.550 OA
ATOM      6  O   UNL     1     162.915 159.987 166.535  1.00  0.00    -0.550 OA
ENDBRANCH   3   4
ENDBRANCH   2   3
ENDBRANCH   1   2
BRANCH   1   7
ATOM      7  C   UNL     1     164.722 155.550 165.231  1.00  0.00     0.000 C 
BRANCH   7   8
ATOM      8  C   UNL     1     164.373 154.267 164.457  1.00  0.00    -0.000 C 
BRANCH   8   9
ATOM      9  C   UNL     1     163.208 154.466 163.471  1.00  0.00    -0.000 C 
BRANCH   9  10
ATOM     10  C   UNL     1     161.960 153.663 163.865  1.00  0.00    -0.003 C 
ATOM     11  C   UNL     1     160.765 154.555 164.199  1.00  0.00     0.004 C 
ENDBRANCH   9  10
ENDBRANCH   8   9
ENDBRANCH   7   8
ENDBRANCH   1   7
TORSDOF 7
ENDMDL
MODEL 5
REMARK VINA RESULT:    -3.529     13.157     14.098
REMARK INTER + INTRA:          -5.288
REMARK INTER:                  -4.910
REMARK INTRA:                  -0.378
REMARK UNBOUND:                -0.315
REMARK SMILES CCCCCCCCC(=O)[O-]
REMARK SMILES IDX 6 1 7 2 8 3 9 4 10 5 11 6 5 7 4 8 3 9 2 10 1 11
REMARK H PARENT
REMARK Flexibility Score: inf
ROOT
ATOM      1  C   UNL     1     161.684 154.435 164.126  1.00  0.00     0.000 C 
ENDROOT
BRANCH   1   2
ATOM      2  C   UNL     1     163.119 154.460 163.560  1.00  0.00     0.006 C 
BRANCH   2   3
ATOM      3  C   UNL     1     164.212 154.127 164.588  1.00  0.00     0.053 C 
BRANCH   3   4
ATOM      4  C   UNL     1     164.603 155.323 165.400  1.00  0.00     0.041 C 
ATOM      5  O   UNL     1     164.465 155.312 166.652  1.00  0.00    -0.550 OA
ATOM      6  O   UNL     1     165.153 156.437 164.777  1.00  0.00    -0.550 OA
ENDBRANCH   3   4
ENDBRANCH   2   3
ENDBRANCH   1   2
BRANCH   1   7
ATOM      7  C   UNL     1     161.244 155.721 164.856  1.00  0.00     0.000 C 
BRANCH   7   8
ATOM      8  C   UNL     1     161.484 157.025 164.075  1.00  0.00    -0.000 C 
BRANCH   8   9
ATOM      9  C   UNL     1     160.571 158.173 164.540  1.00  0.00    -0.000 C 
BRANCH   9  10
ATOM     10  C   UNL     1     161.346 159.286 165.260  1.00  0.00    -0.003 C 
ATOM     11  C   UNL     1     162.861 159.093 165.185  1.00  0.00     0.004 C 
ENDBRANCH   9  10
ENDBRANCH   8   9
ENDBRANCH   7   8
ENDBRANCH   1   7
TORSDOF 7
ENDMDL
MODEL 6
REMARK VINA RESULT:    -3.527     12.929     14.185
REMARK INTER + INTRA:          -5.285
REMARK INTER:                  -4.778
REMARK INTRA:                  -0.507
REMARK UNBOUND:                -0.315
REMARK SMILES CCCCCCCCC(=O)[O-]
REMARK SMILES IDX 6 1 7 2 8 3 9 4 10 5 11 6 5 7 4 8 3 9 2 10 1 11
REMARK H PARENT
REMARK Flexibility Score: inf
ROOT
ATOM      1  C   UNL     1     162.544 157.399 166.761  1.00  0.00     0.000 C 
ENDROOT
BRANCH   1   2
ATOM      2  C   UNL     1     163.330 156.121 166.400  1.00  0.00     0.006 C 
BRANCH   2   3
ATOM      3  C   UNL     1     164.158 156.229 165.109  1.00  0.00     0.053 C 
BRANCH   3   4
ATOM      4  C   UNL     1     163.643 155.321 164.035  1.00  0.00     0.041 C 
ATOM      5  O   UNL     1     162.413 155.292 163.767  1.00  0.00    -0.550 OA
ATOM      6  O   UNL     1     164.526 154.535 163.305  1.00  0.00    -0.550 OA
ENDBRANCH   3   4
ENDBRANCH   2   3
ENDBRANCH   1   2
BRANCH   1   7
ATOM      7  C   UNL     1     162.865 158.633 165.892  1.00  0.00     0.000 C 
BRANCH   7   8
ATOM      8  C   UNL     1     161.652 159.260 165.182  1.00  0.00    -0.000 C 
BRANCH   8   9
ATOM      9  C   UNL     1     160.640 158.208 164.695  1.00  0.00    -0.000 C 
BRANCH   9  10
ATOM     10  C   UNL     1     159.352 158.840 164.147  1.00  0.00    -0.003 C 
ATOM     11  C   UNL     1     158.513 159.509 165.236  1.00  0.00     0.004 C 
ENDBRANCH   9  10
ENDBRANCH   8   9
ENDBRANCH   7   8
ENDBRANCH   1   7
TORSDOF 7
ENDMDL
MODEL 7
REMARK VINA RESULT:    -3.464     12.973     14.108
REMARK INTER + INTRA:          -5.197
REMARK INTER:                  -4.673
REMARK INTRA:                  -0.524
REMARK UNBOUND:                -0.315
REMARK SMILES CCCCCCCCC(=O)[O-]
REMARK SMILES IDX 6 1 7 2 8 3 9 4 10 5 11 6 5 7 4 8 3 9 2 10 1 11
REMARK H PARENT
REMARK Flexibility Score: inf
ROOT
ATOM      1  C   UNL     1     163.104 155.876 166.110  1.00  0.00     0.000 C 
ENDROOT
BRANCH   1   2
ATOM      2  C   UNL     1     164.257 155.244 165.303  1.00  0.00     0.006 C 
BRANCH   2   3
ATOM      3  C   UNL     1     165.296 156.252 164.785  1.00  0.00     0.053 C 
BRANCH   3   4
ATOM      4  C   UNL     1     166.435 155.576 164.087  1.00  0.00     0.041 C 
ATOM      5  O   UNL     1     167.256 156.252 163.412  1.00  0.00    -0.550 OA
ATOM      6  O   UNL     1     166.610 154.203 164.210  1.00  0.00    -0.550 OA
ENDBRANCH   3   4
ENDBRANCH   2   3
ENDBRANCH   1   2
BRANCH   1   7
ATOM      7  C   UNL     1     161.762 155.988 165.358  1.00  0.00     0.000 C 
BRANCH   7   8
ATOM      8  C   UNL     1     161.703 157.104 164.300  1.00  0.00    -0.000 C 
BRANCH   8   9
ATOM      9  C   UNL     1     160.879 158.319 164.762  1.00  0.00    -0.000 C 
BRANCH   9  10
ATOM     10  C   UNL     1     161.759 159.452 165.308  1.00  0.00    -0.003 C 
ATOM     11  C   UNL     1     163.213 159.343 164.849  1.00  0.00     0.004 C 
ENDBRANCH   9  10
ENDBRANCH   8   9
ENDBRANCH   7   8
ENDBRANCH   1   7
TORSDOF 7
ENDMDL
MODEL 8
REMARK VINA RESULT:    -3.441     12.823     13.536
REMARK INTER + INTRA:          -5.165
REMARK INTER:                  -4.402
REMARK INTRA:                  -0.763
REMARK UNBOUND:                -0.315
REMARK SMILES CCCCCCCCC(=O)[O-]
REMARK SMILES IDX 6 1 7 2 8 3 9 4 10 5 11 6 5 7 4 8 3 9 2 10 1 11
REMARK H PARENT
REMARK Flexibility Score: inf
ROOT
ATOM      1  C   UNL     1     161.868 156.439 163.818  1.00  0.00     0.000 C 
ENDROOT
BRANCH   1   2
ATOM      2  C   UNL     1     161.686 156.574 165.344  1.00  0.00     0.006 C 
BRANCH   2   3
ATOM      3  C   UNL     1     162.565 157.655 165.994  1.00  0.00     0.053 C 
BRANCH   3   4
ATOM      4  C   UNL     1     162.507 158.951 165.245  1.00  0.00     0.041 C 
ATOM      5  O   UNL     1     161.454 159.641 165.253  1.00  0.00    -0.550 OA
ATOM      6  O   UNL     1     163.628 159.414 164.567  1.00  0.00    -0.550 OA
ENDBRANCH   3   4
ENDBRANCH   2   3
ENDBRANCH   1   2
BRANCH   1   7
ATOM      7  C   UNL     1     161.780 154.999 163.273  1.00  0.00     0.000 C 
BRANCH   7   8
ATOM      8  C   UNL     1     162.670 153.974 163.999  1.00  0.00    -0.000 C 
BRANCH   8   9
ATOM      9  C   UNL     1     164.166 154.167 163.697  1.00  0.00    -0.000 C 
BRANCH   9  10
ATOM     10  C   UNL     1     164.947 154.698 164.908  1.00  0.00    -0.003 C 
ATOM     11  C   UNL     1     165.671 156.011 164.613  1.00  0.00     0.004 C 
ENDBRANCH   9  10
ENDBRANCH   8   9
ENDBRANCH   7   8
ENDBRANCH   1   7
TORSDOF 7
ENDMDL
MODEL 9
REMARK VINA RESULT:    -3.402      5.538      7.997
REMARK INTER + INTRA:          -5.109
REMARK INTER:                  -4.305
REMARK INTRA:                  -0.804
REMARK UNBOUND:                -0.315
REMARK SMILES CCCCCCCCC(=O)[O-]
REMARK SMILES IDX 6 1 7 2 8 3 9 4 10 5 11 6 5 7 4 8 3 9 2 10 1 11
REMARK H PARENT
REMARK Flexibility Score: inf
ROOT
ATOM      1  C   UNL     1     158.149 158.635 150.834  1.00  0.00     0.000 C 
ENDROOT
BRANCH   1   2
ATOM      2  C   UNL     1     159.093 157.811 149.935  1.00  0.00     0.006 C 
BRANCH   2   3
ATOM      3  C   UNL     1     160.276 157.169 150.678  1.00  0.00     0.053 C 
BRANCH   3   4
ATOM      4  C   UNL     1     159.909 155.851 151.286  1.00  0.00     0.041 C 
ATOM      5  O   UNL     1     159.899 155.711 152.537  1.00  0.00    -0.550 OA
ATOM      6  O   UNL     1     159.543 154.786 150.471  1.00  0.00    -0.550 OA
ENDBRANCH   3   4
ENDBRANCH   2   3
ENDBRANCH   1   2
BRANCH   1   7
ATOM      7  C   UNL     1     156.892 157.887 151.324  1.00  0.00     0.000 C 
BRANCH   7   8
ATOM      8  C   UNL     1     156.195 157.022 150.260  1.00  0.00    -0.000 C 
BRANCH   8   9
ATOM      9  C   UNL     1     156.101 155.540 150.666  1.00  0.00    -0.000 C 
BRANCH   9  10
ATOM     10  C   UNL     1     156.365 155.322 152.162  1.00  0.00    -0.003 C 
ATOM     11  C   UNL     1     156.746 153.879 152.490  1.00  0.00     0.004 C 
ENDBRANCH   9  10
ENDBRANCH   8   9
ENDBRANCH   7   8
ENDBRANCH   1   7
TORSDOF 7
ENDMDL
