MODEL 1
REMARK VINA RESULT:    -5.930      0.000      0.000
REMARK INTER + INTRA:         -10.081
REMARK INTER:                  -9.050
REMARK INTRA:                  -1.032
REMARK UNBOUND:                -1.032
REMARK SMILES CC(=O)CCC=C(C)CCC=C(C)CCC=C(C)C
REMARK SMILES IDX 10 1 11 2 12 3 13 4 14 5 15 6 16 7 18 8 17 9 19 10 9 11 7 12
REMARK SMILES IDX 6 13 8 14 5 15 4 16 2 17 3 18 1 19
REMARK H PARENT
REMARK Flexibility Score: inf
ROOT
ATOM      1  C   UNL     1      17.448 -10.596  63.467  1.00  0.00     0.032 C 
ENDROOT
BRANCH   1   2
ATOM      2  C   UNL     1      16.025 -10.222  63.120  1.00  0.00    -0.028 C 
ATOM      3  C   UNL     1      14.928 -10.627  63.801  1.00  0.00    -0.077 C 
ATOM      4  C   UNL     1      15.022 -11.476  65.045  1.00  0.00     0.039 C 
BRANCH   3   5
ATOM      5  C   UNL     1      13.559 -10.213  63.299  1.00  0.00     0.034 C 
BRANCH   5   6
ATOM      6  C   UNL     1      13.626  -8.944  62.436  1.00  0.00     0.032 C 
BRANCH   6   7
ATOM      7  C   UNL     1      12.998  -7.760  63.133  1.00  0.00    -0.028 C 
ATOM      8  C   UNL     1      11.217  -6.201  63.787  1.00  0.00     0.039 C 
ATOM      9  C   UNL     1      11.711  -7.375  62.984  1.00  0.00    -0.080 C 
ATOM     10  C   UNL     1      10.771  -8.071  62.028  1.00  0.00     0.039 C 
ENDBRANCH   6   7
ENDBRANCH   5   6
ENDBRANCH   3   5
ENDBRANCH   1   2
BRANCH   1  11
ATOM     11  C   UNL     1      18.161  -9.442  64.181  1.00  0.00     0.034 C 
BRANCH  11  12
ATOM     12  C   UNL     1      19.525  -9.852  64.703  1.00  0.00    -0.077 C 
ATOM     13  C   UNL     1      19.724 -10.376  65.936  1.00  0.00    -0.028 C 
ATOM     14  C   UNL     1      20.726  -9.675  63.806  1.00  0.00     0.039 C 
BRANCH  13  15
ATOM     15  C   UNL     1      18.652 -10.633  66.974  1.00  0.00     0.035 C 
BRANCH  15  16
ATOM     16  C   UNL     1      18.722  -9.619  68.124  1.00  0.00     0.079 C 
BRANCH  16  17
ATOM     17  C   UNL     1      19.479 -10.157  69.310  1.00  0.00     0.130 C 
ATOM     18  O   UNL     1      19.569  -9.482  70.325  1.00  0.00    -0.300 OA
ATOM     19  C   UNL     1      20.096 -11.522  69.279  1.00  0.00     0.087 C 
ENDBRANCH  16  17
ENDBRANCH  15  16
ENDBRANCH  13  15
ENDBRANCH  11  12
ENDBRANCH   1  11
TORSDOF 9
ENDMDL
MODEL 2
REMARK VINA RESULT:    -5.897      2.976      6.851
REMARK INTER + INTRA:         -10.031
REMARK INTER:                  -7.663
REMARK INTRA:                  -2.368
REMARK UNBOUND:                -1.032
REMARK SMILES CC(=O)CCC=C(C)CCC=C(C)CCC=C(C)C
REMARK SMILES IDX 10 1 11 2 12 3 13 4 14 5 15 6 16 7 18 8 17 9 19 10 9 11 7 12
REMARK SMILES IDX 6 13 8 14 5 15 4 16 2 17 3 18 1 19
REMARK H PARENT
REMARK Flexibility Score: inf
ROOT
ATOM      1  C   UNL     1      16.209 -13.234  63.345  1.00  0.00     0.032 C 
ENDROOT
BRANCH   1   2
ATOM      2  C   UNL     1      16.668 -12.497  64.582  1.00  0.00    -0.028 C 
ATOM      3  C   UNL     1      15.855 -11.848  65.447  1.00  0.00    -0.077 C 
ATOM      4  C   UNL     1      14.355 -11.839  65.286  1.00  0.00     0.039 C 
BRANCH   3   5
ATOM      5  C   UNL     1      16.471 -11.106  66.617  1.00  0.00     0.034 C 
BRANCH   5   6
ATOM      6  C   UNL     1      17.290  -9.892  66.157  1.00  0.00     0.032 C 
BRANCH   6   7
ATOM      7  C   UNL     1      18.766 -10.084  66.412  1.00  0.00    -0.028 C 
ATOM      8  C   UNL     1      21.159 -10.222  65.872  1.00  0.00     0.039 C 
ATOM      9  C   UNL     1      19.720 -10.066  65.454  1.00  0.00    -0.080 C 
ATOM     10  C   UNL     1      19.383  -9.916  63.989  1.00  0.00     0.039 C 
ENDBRANCH   6   7
ENDBRANCH   5   6
ENDBRANCH   3   5
ENDBRANCH   1   2
BRANCH   1  11
ATOM     11  C   UNL     1      16.392 -12.371  62.091  1.00  0.00     0.034 C 
BRANCH  11  12
ATOM     12  C   UNL     1      15.140 -11.582  61.755  1.00  0.00    -0.077 C 
ATOM     13  C   UNL     1      15.056 -10.235  61.866  1.00  0.00    -0.028 C 
ATOM     14  C   UNL     1      13.924 -12.330  61.268  1.00  0.00     0.039 C 
BRANCH  13  15
ATOM     15  C   UNL     1      16.164  -9.313  62.330  1.00  0.00     0.035 C 
BRANCH  15  16
ATOM     16  C   UNL     1      15.639  -8.231  63.282  1.00  0.00     0.079 C 
BRANCH  16  17
ATOM     17  C   UNL     1      14.796  -7.206  62.569  1.00  0.00     0.130 C 
ATOM     18  O   UNL     1      15.284  -6.546  61.664  1.00  0.00    -0.300 OA
ATOM     19  C   UNL     1      13.354  -7.007  62.927  1.00  0.00     0.087 C 
ENDBRANCH  16  17
ENDBRANCH  15  16
ENDBRANCH  13  15
ENDBRANCH  11  12
ENDBRANCH   1  11
TORSDOF 9
ENDMDL
MODEL 3
REMARK VINA RESULT:    -5.770      1.340      1.848
REMARK INTER + INTRA:          -9.838
REMARK INTER:                  -8.895
REMARK INTRA:                  -0.943
REMARK UNBOUND:                -1.032
REMARK SMILES CC(=O)CCC=C(C)CCC=C(C)CCC=C(C)C
REMARK SMILES IDX 10 1 11 2 12 3 13 4 14 5 15 6 16 7 18 8 17 9 19 10 9 11 7 12
REMARK SMILES IDX 6 13 8 14 5 15 4 16 2 17 3 18 1 19
REMARK H PARENT
REMARK Flexibility Score: inf
ROOT
ATOM      1  C   UNL     1      17.087 -10.589  63.290  1.00  0.00     0.032 C 
ENDROOT
BRANCH   1   2
ATOM      2  C   UNL     1      16.288  -9.351  62.954  1.00  0.00    -0.028 C 
ATOM      3  C   UNL     1      14.959  -9.204  63.161  1.00  0.00    -0.077 C 
ATOM      4  C   UNL     1      14.125 -10.276  63.817  1.00  0.00     0.039 C 
BRANCH   3   5
ATOM      5  C   UNL     1      14.286  -7.919  62.720  1.00  0.00     0.034 C 
BRANCH   5   6
ATOM      6  C   UNL     1      12.769  -7.958  62.956  1.00  0.00     0.032 C 
BRANCH   6   7
ATOM      7  C   UNL     1      12.238  -6.617  63.405  1.00  0.00    -0.028 C 
ATOM      8  C   UNL     1      10.974  -4.516  63.254  1.00  0.00     0.039 C 
ATOM      9  C   UNL     1      11.470  -5.803  62.647  1.00  0.00    -0.080 C 
ATOM     10  C   UNL     1      11.116  -6.136  61.217  1.00  0.00     0.039 C 
ENDBRANCH   6   7
ENDBRANCH   5   6
ENDBRANCH   3   5
ENDBRANCH   1   2
BRANCH   1  11
ATOM     11  C   UNL     1      17.933 -10.372  64.551  1.00  0.00     0.034 C 
BRANCH  11  12
ATOM     12  C   UNL     1      17.739 -11.483  65.565  1.00  0.00    -0.077 C 
ATOM     13  C   UNL     1      17.657 -11.268  66.900  1.00  0.00    -0.028 C 
ATOM     14  C   UNL     1      17.625 -12.903  65.068  1.00  0.00     0.039 C 
BRANCH  13  15
ATOM     15  C   UNL     1      17.744  -9.922  67.587  1.00  0.00     0.035 C 
BRANCH  15  16
ATOM     16  C   UNL     1      19.193  -9.555  67.933  1.00  0.00     0.079 C 
BRANCH  16  17
ATOM     17  C   UNL     1      19.631 -10.142  69.248  1.00  0.00     0.130 C 
ATOM     18  O   UNL     1      19.495  -9.493  70.275  1.00  0.00    -0.300 OA
ATOM     19  C   UNL     1      20.201 -11.527  69.325  1.00  0.00     0.087 C 
ENDBRANCH  16  17
ENDBRANCH  15  16
ENDBRANCH  13  15
ENDBRANCH  11  12
ENDBRANCH   1  11
TORSDOF 9
ENDMDL
MODEL 4
REMARK VINA RESULT:    -5.753      2.865      4.474
REMARK INTER + INTRA:          -9.811
REMARK INTER:                  -7.852
REMARK INTRA:                  -1.960
REMARK UNBOUND:                -1.032
REMARK SMILES CC(=O)CCC=C(C)CCC=C(C)CCC=C(C)C
REMARK SMILES IDX 10 1 11 2 12 3 13 4 14 5 15 6 16 7 18 8 17 9 19 10 9 11 7 12
REMARK SMILES IDX 6 13 8 14 5 15 4 16 2 17 3 18 1 19
REMARK H PARENT
REMARK Flexibility Score: inf
ROOT
ATOM      1  C   UNL     1      17.431 -10.004  67.131  1.00  0.00     0.032 C 
ENDROOT
BRANCH   1   2
ATOM      2  C   UNL     1      17.326 -10.104  65.627  1.00  0.00    -0.028 C 
ATOM      3  C   UNL     1      17.492 -11.239  64.909  1.00  0.00    -0.077 C 
ATOM      4  C   UNL     1      17.755 -12.572  65.566  1.00  0.00     0.039 C 
BRANCH   3   5
ATOM      5  C   UNL     1      17.409 -11.171  63.397  1.00  0.00     0.034 C 
BRANCH   5   6
ATOM      6  C   UNL     1      16.406 -10.108  62.927  1.00  0.00     0.032 C 
BRANCH   6   7
ATOM      7  C   UNL     1      15.234 -10.727  62.203  1.00  0.00    -0.028 C 
ATOM      8  C   UNL     1      12.962 -11.615  61.914  1.00  0.00     0.039 C 
ATOM      9  C   UNL     1      14.057 -11.050  62.782  1.00  0.00    -0.080 C 
ATOM     10  C   UNL     1      13.819 -10.881  64.264  1.00  0.00     0.039 C 
ENDBRANCH   6   7
ENDBRANCH   5   6
ENDBRANCH   3   5
ENDBRANCH   1   2
BRANCH   1  11
ATOM     11  C   UNL     1      18.822  -9.517  67.554  1.00  0.00     0.034 C 
BRANCH  11  12
ATOM     12  C   UNL     1      19.732 -10.666  67.946  1.00  0.00    -0.077 C 
ATOM     13  C   UNL     1      20.923 -10.910  67.348  1.00  0.00    -0.028 C 
ATOM     14  C   UNL     1      19.298 -11.585  69.060  1.00  0.00     0.039 C 
BRANCH  13  15
ATOM     15  C   UNL     1      21.531 -10.102  66.220  1.00  0.00     0.035 C 
BRANCH  15  16
ATOM     16  C   UNL     1      21.111 -10.642  64.847  1.00  0.00     0.079 C 
BRANCH  16  17
ATOM     17  C   UNL     1      21.864  -9.983  63.722  1.00  0.00     0.130 C 
ATOM     18  O   UNL     1      21.486  -8.904  63.292  1.00  0.00    -0.300 OA
ATOM     19  C   UNL     1      23.094 -10.614  63.142  1.00  0.00     0.087 C 
ENDBRANCH  16  17
ENDBRANCH  15  16
ENDBRANCH  13  15
ENDBRANCH  11  12
ENDBRANCH   1  11
TORSDOF 9
ENDMDL
MODEL 5
REMARK VINA RESULT:    -5.741      1.562      2.415
REMARK INTER + INTRA:          -9.794
REMARK INTER:                  -8.349
REMARK INTRA:                  -1.445
REMARK UNBOUND:                -1.032
REMARK SMILES CC(=O)CCC=C(C)CCC=C(C)CCC=C(C)C
REMARK SMILES IDX 10 1 11 2 12 3 13 4 14 5 15 6 16 7 18 8 17 9 19 10 9 11 7 12
REMARK SMILES IDX 6 13 8 14 5 15 4 16 2 17 3 18 1 19
REMARK H PARENT
REMARK Flexibility Score: inf
ROOT
ATOM      1  C   UNL     1      17.002 -10.404  63.351  1.00  0.00     0.032 C 
ENDROOT
BRANCH   1   2
ATOM      2  C   UNL     1      15.876 -10.319  62.346  1.00  0.00    -0.028 C 
ATOM      3  C   UNL     1      15.197 -11.378  61.848  1.00  0.00    -0.077 C 
ATOM      4  C   UNL     1      15.470 -12.791  62.300  1.00  0.00     0.039 C 
BRANCH   3   5
ATOM      5  C   UNL     1      14.126 -11.137  60.803  1.00  0.00     0.034 C 
BRANCH   5   6
ATOM      6  C   UNL     1      13.873  -9.639  60.578  1.00  0.00     0.032 C 
BRANCH   6   7
ATOM      7  C   UNL     1      12.447  -9.259  60.900  1.00  0.00    -0.028 C 
ATOM      8  C   UNL     1      10.616  -8.151  62.106  1.00  0.00     0.039 C 
ATOM      9  C   UNL     1      12.076  -8.486  61.945  1.00  0.00    -0.080 C 
ATOM     10  C   UNL     1      13.073  -7.972  62.957  1.00  0.00     0.039 C 
ENDBRANCH   6   7
ENDBRANCH   5   6
ENDBRANCH   3   5
ENDBRANCH   1   2
BRANCH   1  11
ATOM     11  C   UNL     1      16.581  -9.811  64.701  1.00  0.00     0.034 C 
BRANCH  11  12
ATOM     12  C   UNL     1      16.387 -10.883  65.757  1.00  0.00    -0.077 C 
ATOM     13  C   UNL     1      17.302 -11.157  66.717  1.00  0.00    -0.028 C 
ATOM     14  C   UNL     1      15.109 -11.685  65.747  1.00  0.00     0.039 C 
BRANCH  13  15
ATOM     15  C   UNL     1      18.635 -10.462  66.895  1.00  0.00     0.035 C 
BRANCH  15  16
ATOM     16  C   UNL     1      18.643  -9.560  68.136  1.00  0.00     0.079 C 
BRANCH  16  17
ATOM     17  C   UNL     1      19.500 -10.119  69.241  1.00  0.00     0.130 C 
ATOM     18  O   UNL     1      19.681  -9.464  70.256  1.00  0.00    -0.300 OA
ATOM     19  C   UNL     1      20.110 -11.484  69.130  1.00  0.00     0.087 C 
ENDBRANCH  16  17
ENDBRANCH  15  16
ENDBRANCH  13  15
ENDBRANCH  11  12
ENDBRANCH   1  11
TORSDOF 9
ENDMDL
MODEL 6
REMARK VINA RESULT:    -5.660      2.583      7.481
REMARK INTER + INTRA:          -9.670
REMARK INTER:                  -7.791
REMARK INTRA:                  -1.879
REMARK UNBOUND:                -1.032
REMARK SMILES CC(=O)CCC=C(C)CCC=C(C)CCC=C(C)C
REMARK SMILES IDX 10 1 11 2 12 3 13 4 14 5 15 6 16 7 18 8 17 9 19 10 9 11 7 12
REMARK SMILES IDX 6 13 8 14 5 15 4 16 2 17 3 18 1 19
REMARK H PARENT
REMARK Flexibility Score: inf
ROOT
ATOM      1  C   UNL     1      14.749 -10.888  64.286  1.00  0.00     0.032 C 
ENDROOT
BRANCH   1   2
ATOM      2  C   UNL     1      16.087 -10.190  64.184  1.00  0.00    -0.028 C 
ATOM      3  C   UNL     1      17.186 -10.701  63.583  1.00  0.00    -0.077 C 
ATOM      4  C   UNL     1      17.171 -12.039  62.885  1.00  0.00     0.039 C 
BRANCH   3   5
ATOM      5  C   UNL     1      18.475  -9.904  63.609  1.00  0.00     0.034 C 
BRANCH   5   6
ATOM      6  C   UNL     1      19.504 -10.512  64.572  1.00  0.00     0.032 C 
BRANCH   6   7
ATOM      7  C   UNL     1      19.484  -9.828  65.918  1.00  0.00    -0.028 C 
ATOM      8  C   UNL     1      18.994  -9.547  68.309  1.00  0.00     0.039 C 
ATOM      9  C   UNL     1      18.884 -10.324  67.023  1.00  0.00    -0.080 C 
ATOM     10  C   UNL     1      18.098 -11.614  66.998  1.00  0.00     0.039 C 
ENDBRANCH   6   7
ENDBRANCH   5   6
ENDBRANCH   3   5
ENDBRANCH   1   2
BRANCH   1  11
ATOM     11  C   UNL     1      13.634 -10.028  63.678  1.00  0.00     0.034 C 
BRANCH  11  12
ATOM     12  C   UNL     1      13.976  -9.564  62.274  1.00  0.00    -0.077 C 
ATOM     13  C   UNL     1      14.151  -8.262  61.943  1.00  0.00    -0.028 C 
ATOM     14  C   UNL     1      14.134 -10.599  61.189  1.00  0.00     0.039 C 
BRANCH  13  15
ATOM     15  C   UNL     1      14.040  -7.084  62.887  1.00  0.00     0.035 C 
BRANCH  15  16
ATOM     16  C   UNL     1      12.747  -6.292  62.654  1.00  0.00     0.079 C 
BRANCH  16  17
ATOM     17  C   UNL     1      11.543  -6.980  63.242  1.00  0.00     0.130 C 
ATOM     18  O   UNL     1      11.368  -6.964  64.451  1.00  0.00    -0.300 OA
ATOM     19  C   UNL     1      10.535  -7.658  62.364  1.00  0.00     0.087 C 
ENDBRANCH  16  17
ENDBRANCH  15  16
ENDBRANCH  13  15
ENDBRANCH  11  12
ENDBRANCH   1  11
TORSDOF 9
ENDMDL
MODEL 7
REMARK VINA RESULT:    -5.647     13.054     15.898
REMARK INTER + INTRA:          -9.650
REMARK INTER:                  -6.900
REMARK INTRA:                  -2.750
REMARK UNBOUND:                -1.032
REMARK SMILES CC(=O)CCC=C(C)CCC=C(C)CCC=C(C)C
REMARK SMILES IDX 10 1 11 2 12 3 13 4 14 5 15 6 16 7 18 8 17 9 19 10 9 11 7 12
REMARK SMILES IDX 6 13 8 14 5 15 4 16 2 17 3 18 1 19
REMARK H PARENT
REMARK Flexibility Score: inf
ROOT
ATOM      1  C   UNL     1       7.983  -1.533  62.750  1.00  0.00     0.032 C 
ENDROOT
BRANCH   1   2
ATOM      2  C   UNL     1       8.441  -0.148  63.147  1.00  0.00    -0.028 C 
ATOM      3  C   UNL     1       9.353   0.591  62.474  1.00  0.00    -0.077 C 
ATOM      4  C   UNL     1       9.985   0.113  61.190  1.00  0.00     0.039 C 
BRANCH   3   5
ATOM      5  C   UNL     1       9.753   1.945  63.027  1.00  0.00     0.034 C 
BRANCH   5   6
ATOM      6  C   UNL     1       8.764   2.443  64.091  1.00  0.00     0.032 C 
BRANCH   6   7
ATOM      7  C   UNL     1       7.862   3.527  63.552  1.00  0.00    -0.028 C 
ATOM      8  C   UNL     1       5.773   4.776  63.213  1.00  0.00     0.039 C 
ATOM      9  C   UNL     1       6.531   3.603  63.778  1.00  0.00    -0.080 C 
ATOM     10  C   UNL     1       5.789   2.543  64.557  1.00  0.00     0.039 C 
ENDBRANCH   6   7
ENDBRANCH   5   6
ENDBRANCH   3   5
ENDBRANCH   1   2
BRANCH   1  11
ATOM     11  C   UNL     1       6.845  -1.462  61.725  1.00  0.00     0.034 C 
BRANCH  11  12
ATOM     12  C   UNL     1       5.749  -0.505  62.156  1.00  0.00    -0.077 C 
ATOM     13  C   UNL     1       5.509   0.678  61.542  1.00  0.00    -0.028 C 
ATOM     14  C   UNL     1       4.875  -0.887  63.325  1.00  0.00     0.039 C 
BRANCH  13  15
ATOM     15  C   UNL     1       6.270   1.232  60.356  1.00  0.00     0.035 C 
BRANCH  15  16
ATOM     16  C   UNL     1       6.173   2.761  60.285  1.00  0.00     0.079 C 
BRANCH  16  17
ATOM     17  C   UNL     1       7.235   3.358  59.401  1.00  0.00     0.130 C 
ATOM     18  O   UNL     1       7.023   3.486  58.204  1.00  0.00    -0.300 OA
ATOM     19  C   UNL     1       8.539   3.832  59.970  1.00  0.00     0.087 C 
ENDBRANCH  16  17
ENDBRANCH  15  16
ENDBRANCH  13  15
ENDBRANCH  11  12
ENDBRANCH   1  11
TORSDOF 9
ENDMDL
MODEL 8
REMARK VINA RESULT:    -5.635      3.073      7.288
REMARK INTER + INTRA:          -9.632
REMARK INTER:                  -7.647
REMARK INTRA:                  -1.985
REMARK UNBOUND:                -1.032
REMARK SMILES CC(=O)CCC=C(C)CCC=C(C)CCC=C(C)C
REMARK SMILES IDX 10 1 11 2 12 3 13 4 14 5 15 6 16 7 18 8 17 9 19 10 9 11 7 12
REMARK SMILES IDX 6 13 8 14 5 15 4 16 2 17 3 18 1 19
REMARK H PARENT
REMARK Flexibility Score: inf
ROOT
ATOM      1  C   UNL     1      14.885 -11.695  64.770  1.00  0.00     0.032 C 
ENDROOT
BRANCH   1   2
ATOM      2  C   UNL     1      15.996 -11.364  65.740  1.00  0.00    -0.028 C 
ATOM      3  C   UNL     1      17.200 -11.980  65.783  1.00  0.00    -0.077 C 
ATOM      4  C   UNL     1      17.585 -13.059  64.801  1.00  0.00     0.039 C 
BRANCH   3   5
ATOM      5  C   UNL     1      18.195 -11.573  66.851  1.00  0.00     0.034 C 
BRANCH   5   6
ATOM      6  C   UNL     1      18.717 -10.145  66.633  1.00  0.00     0.032 C 
BRANCH   6   7
ATOM      7  C   UNL     1      19.985 -10.133  65.814  1.00  0.00    -0.028 C 
ATOM      8  C   UNL     1      21.386  -9.881  63.811  1.00  0.00     0.039 C 
ATOM      9  C   UNL     1      20.037  -9.914  64.481  1.00  0.00    -0.080 C 
ATOM     10  C   UNL     1      18.790  -9.722  63.650  1.00  0.00     0.039 C 
ENDBRANCH   6   7
ENDBRANCH   5   6
ENDBRANCH   3   5
ENDBRANCH   1   2
BRANCH   1  11
ATOM     11  C   UNL     1      14.409 -10.440  64.029  1.00  0.00     0.034 C 
BRANCH  11  12
ATOM     12  C   UNL     1      15.105 -10.271  62.692  1.00  0.00    -0.077 C 
ATOM     13  C   UNL     1      15.544  -9.077  62.226  1.00  0.00    -0.028 C 
ATOM     14  C   UNL     1      15.326 -11.491  61.833  1.00  0.00     0.039 C 
BRANCH  13  15
ATOM     15  C   UNL     1      15.419  -7.747  62.939  1.00  0.00     0.035 C 
BRANCH  15  16
ATOM     16  C   UNL     1      14.612  -6.736  62.114  1.00  0.00     0.079 C 
BRANCH  16  17
ATOM     17  C   UNL     1      13.164  -7.130  61.989  1.00  0.00     0.130 C 
ATOM     18  O   UNL     1      12.708  -7.417  60.892  1.00  0.00    -0.300 OA
ATOM     19  C   UNL     1      12.278  -7.211  63.196  1.00  0.00     0.087 C 
ENDBRANCH  16  17
ENDBRANCH  15  16
ENDBRANCH  13  15
ENDBRANCH  11  12
ENDBRANCH   1  11
TORSDOF 9
ENDMDL
MODEL 9
REMARK VINA RESULT:    -5.565      2.775      7.262
REMARK INTER + INTRA:          -9.525
REMARK INTER:                  -6.924
REMARK INTRA:                  -2.601
REMARK UNBOUND:                -1.032
REMARK SMILES CC(=O)CCC=C(C)CCC=C(C)CCC=C(C)C
REMARK SMILES IDX 10 1 11 2 12 3 13 4 14 5 15 6 16 7 18 8 17 9 19 10 9 11 7 12
REMARK SMILES IDX 6 13 8 14 5 15 4 16 2 17 3 18 1 19
REMARK H PARENT
REMARK Flexibility Score: inf
ROOT
ATOM      1  C   UNL     1      15.172 -11.556  65.568  1.00  0.00     0.032 C 
ENDROOT
BRANCH   1   2
ATOM      2  C   UNL     1      16.253 -10.722  64.919  1.00  0.00    -0.028 C 
ATOM      3  C   UNL     1      17.307 -11.216  64.230  1.00  0.00    -0.077 C 
ATOM      4  C   UNL     1      17.487 -12.695  63.988  1.00  0.00     0.039 C 
BRANCH   3   5
ATOM      5  C   UNL     1      18.341 -10.253  63.681  1.00  0.00     0.034 C 
BRANCH   5   6
ATOM      6  C   UNL     1      19.021  -9.447  64.798  1.00  0.00     0.032 C 
BRANCH   6   7
ATOM      7  C   UNL     1      19.804 -10.337  65.733  1.00  0.00    -0.028 C 
ATOM      8  C   UNL     1      20.376 -11.464  67.840  1.00  0.00     0.039 C 
ATOM      9  C   UNL     1      19.534 -10.499  67.047  1.00  0.00    -0.080 C 
ATOM     10  C   UNL     1      18.433  -9.730  67.739  1.00  0.00     0.039 C 
ENDBRANCH   6   7
ENDBRANCH   5   6
ENDBRANCH   3   5
ENDBRANCH   1   2
BRANCH   1  11
ATOM     11  C   UNL     1      13.862 -11.473  64.774  1.00  0.00     0.034 C 
BRANCH  11  12
ATOM     12  C   UNL     1      13.782 -12.538  63.696  1.00  0.00    -0.077 C 
ATOM     13  C   UNL     1      13.651 -12.254  62.378  1.00  0.00    -0.028 C 
ATOM     14  C   UNL     1      13.857 -13.988  64.105  1.00  0.00     0.039 C 
BRANCH  13  15
ATOM     15  C   UNL     1      13.564 -10.869  61.774  1.00  0.00     0.035 C 
BRANCH  15  16
ATOM     16  C   UNL     1      14.948 -10.333  61.384  1.00  0.00     0.079 C 
BRANCH  16  17
ATOM     17  C   UNL     1      15.199  -8.953  61.932  1.00  0.00     0.130 C 
ATOM     18  O   UNL     1      16.234  -8.369  61.646  1.00  0.00    -0.300 OA
ATOM     19  C   UNL     1      14.184  -8.268  62.796  1.00  0.00     0.087 C 
ENDBRANCH  16  17
ENDBRANCH  15  16
ENDBRANCH  13  15
ENDBRANCH  11  12
ENDBRANCH   1  11
TORSDOF 9
ENDMDL
