MODEL 1
REMARK VINA RESULT:    -5.535      0.000      0.000
REMARK INTER + INTRA:          -9.029
REMARK INTER:                  -8.123
REMARK INTRA:                  -0.906
REMARK UNBOUND:                -0.906
REMARK SMILES CC(C)COC(=O)c1ccccc1C(=O)OCC(C)C
REMARK SMILES IDX 8 1 9 2 10 3 11 4 12 5 13 6 6 7 7 8 5 9 4 10 2 11 1 12 3 13
REMARK SMILES IDX 14 14 15 15 16 16 17 17 18 18 19 19 20 20
REMARK H PARENT
REMARK Flexibility Score: inf
ROOT
ATOM      1  C   UNL     1       8.485  -3.188  40.119  1.00  0.00     0.074 A 
ATOM      2  C   UNL     1       8.268  -1.826  40.401  1.00  0.00     0.016 A 
ATOM      3  C   UNL     1       8.351  -1.345  41.708  1.00  0.00     0.001 A 
ATOM      4  C   UNL     1       8.653  -2.214  42.754  1.00  0.00     0.001 A 
ATOM      5  C   UNL     1       8.852  -3.572  42.500  1.00  0.00     0.016 A 
ATOM      6  C   UNL     1       8.753  -4.082  41.191  1.00  0.00     0.074 A 
ENDROOT
BRANCH   1   7
ATOM      7  C   UNL     1       8.499  -3.614  38.701  1.00  0.00     0.339 C 
ATOM      8  O   UNL     1       9.598  -3.855  38.128  1.00  0.00    -0.246 OA
BRANCH   7   9
ATOM      9  O   UNL     1       7.296  -3.801  38.014  1.00  0.00    -0.462 OA
BRANCH   9  10
ATOM     10  C   UNL     1       7.123  -3.439  36.647  1.00  0.00     0.236 C 
BRANCH  10  11
ATOM     11  C   UNL     1       6.859  -1.929  36.534  1.00  0.00     0.021 C 
ATOM     12  C   UNL     1       5.675  -1.510  37.413  1.00  0.00     0.011 C 
ATOM     13  C   UNL     1       6.606  -1.538  35.073  1.00  0.00     0.011 C 
ENDBRANCH  10  11
ENDBRANCH   9  10
ENDBRANCH   7   9
ENDBRANCH   1   7
BRANCH   6  14
ATOM     14  C   UNL     1       8.857  -5.548  41.004  1.00  0.00     0.339 C 
ATOM     15  O   UNL     1       9.923  -6.048  40.549  1.00  0.00    -0.246 OA
BRANCH  14  16
ATOM     16  O   UNL     1       7.799  -6.381  41.381  1.00  0.00    -0.462 OA
BRANCH  16  17
ATOM     17  C   UNL     1       7.953  -7.783  41.576  1.00  0.00     0.236 C 
BRANCH  17  18
ATOM     18  C   UNL     1       7.906  -8.114  43.075  1.00  0.00     0.021 C 
ATOM     19  C   UNL     1       7.479  -9.570  43.289  1.00  0.00     0.011 C 
ATOM     20  C   UNL     1       9.262  -7.849  43.741  1.00  0.00     0.011 C 
ENDBRANCH  17  18
ENDBRANCH  16  17
ENDBRANCH  14  16
ENDBRANCH   6  14
TORSDOF 8
ENDMDL
MODEL 2
REMARK VINA RESULT:    -5.445      2.054      4.103
REMARK INTER + INTRA:          -8.897
REMARK INTER:                  -7.390
REMARK INTRA:                  -1.508
REMARK UNBOUND:                -0.906
REMARK SMILES CC(C)COC(=O)c1ccccc1C(=O)OCC(C)C
REMARK SMILES IDX 8 1 9 2 10 3 11 4 12 5 13 6 6 7 7 8 5 9 4 10 2 11 1 12 3 13
REMARK SMILES IDX 14 14 15 15 16 16 17 17 18 18 19 19 20 20
REMARK H PARENT
REMARK Flexibility Score: inf
ROOT
ATOM      1  C   UNL     1       8.280  -3.885  40.172  1.00  0.00     0.074 A 
ATOM      2  C   UNL     1       7.992  -5.140  40.742  1.00  0.00     0.016 A 
ATOM      3  C   UNL     1       7.826  -5.278  42.120  1.00  0.00     0.001 A 
ATOM      4  C   UNL     1       7.946  -4.167  42.952  1.00  0.00     0.001 A 
ATOM      5  C   UNL     1       8.252  -2.917  42.411  1.00  0.00     0.016 A 
ATOM      6  C   UNL     1       8.443  -2.760  41.025  1.00  0.00     0.074 A 
ENDROOT
BRANCH   1   7
ATOM      7  C   UNL     1       8.328  -3.783  38.695  1.00  0.00     0.339 C 
ATOM      8  O   UNL     1       9.436  -3.871  38.096  1.00  0.00    -0.246 OA
BRANCH   7   9
ATOM      9  O   UNL     1       7.145  -3.645  37.964  1.00  0.00    -0.462 OA
BRANCH   9  10
ATOM     10  C   UNL     1       7.130  -3.381  36.564  1.00  0.00     0.236 C 
BRANCH  10  11
ATOM     11  C   UNL     1       6.769  -1.909  36.312  1.00  0.00     0.021 C 
ATOM     12  C   UNL     1       5.721  -1.418  37.318  1.00  0.00     0.011 C 
ATOM     13  C   UNL     1       6.263  -1.720  34.877  1.00  0.00     0.011 C 
ENDBRANCH  10  11
ENDBRANCH   9  10
ENDBRANCH   7   9
ENDBRANCH   1   7
BRANCH   6  14
ATOM     14  C   UNL     1       8.882  -1.435  40.528  1.00  0.00     0.339 C 
ATOM     15  O   UNL     1       8.048  -0.663  39.980  1.00  0.00    -0.246 OA
BRANCH  14  16
ATOM     16  O   UNL     1      10.204  -1.019  40.713  1.00  0.00    -0.462 OA
BRANCH  16  17
ATOM     17  C   UNL     1      11.320  -1.755  40.219  1.00  0.00     0.236 C 
BRANCH  17  18
ATOM     18  C   UNL     1      12.150  -2.298  41.391  1.00  0.00     0.021 C 
ATOM     19  C   UNL     1      11.860  -1.501  42.668  1.00  0.00     0.011 C 
ATOM     20  C   UNL     1      11.876  -3.790  41.617  1.00  0.00     0.011 C 
ENDBRANCH  17  18
ENDBRANCH  16  17
ENDBRANCH  14  16
ENDBRANCH   6  14
TORSDOF 8
ENDMDL
MODEL 3
REMARK VINA RESULT:    -5.391      1.252      5.948
REMARK INTER + INTRA:          -8.818
REMARK INTER:                  -7.965
REMARK INTRA:                  -0.852
REMARK UNBOUND:                -0.906
REMARK SMILES CC(C)COC(=O)c1ccccc1C(=O)OCC(C)C
REMARK SMILES IDX 8 1 9 2 10 3 11 4 12 5 13 6 6 7 7 8 5 9 4 10 2 11 1 12 3 13
REMARK SMILES IDX 14 14 15 15 16 16 17 17 18 18 19 19 20 20
REMARK H PARENT
REMARK Flexibility Score: inf
ROOT
ATOM      1  C   UNL     1       8.985  -2.704  42.033  1.00  0.00     0.074 A 
ATOM      2  C   UNL     1       9.171  -1.748  43.049  1.00  0.00     0.016 A 
ATOM      3  C   UNL     1       8.935  -0.394  42.809  1.00  0.00     0.001 A 
ATOM      4  C   UNL     1       8.508   0.027  41.551  1.00  0.00     0.001 A 
ATOM      5  C   UNL     1       8.337  -0.901  40.523  1.00  0.00     0.016 A 
ATOM      6  C   UNL     1       8.590  -2.269  40.739  1.00  0.00     0.074 A 
ENDROOT
BRANCH   1   7
ATOM      7  C   UNL     1       9.139  -4.135  42.383  1.00  0.00     0.339 C 
ATOM      8  O   UNL     1      10.294  -4.633  42.492  1.00  0.00    -0.246 OA
BRANCH   7   9
ATOM      9  O   UNL     1       8.011  -4.917  42.647  1.00  0.00    -0.462 OA
BRANCH   9  10
ATOM     10  C   UNL     1       7.547  -5.925  41.754  1.00  0.00     0.236 C 
BRANCH  10  11
ATOM     11  C   UNL     1       7.929  -7.315  42.286  1.00  0.00     0.021 C 
ATOM     12  C   UNL     1       8.204  -7.271  43.794  1.00  0.00     0.011 C 
ATOM     13  C   UNL     1       9.150  -7.859  41.535  1.00  0.00     0.011 C 
ENDBRANCH  10  11
ENDBRANCH   9  10
ENDBRANCH   7   9
ENDBRANCH   1   7
BRANCH   6  14
ATOM     14  C   UNL     1       8.503  -3.185  39.577  1.00  0.00     0.339 C 
ATOM     15  O   UNL     1       9.500  -3.892  39.261  1.00  0.00    -0.246 OA
BRANCH  14  16
ATOM     16  O   UNL     1       7.305  -3.306  38.867  1.00  0.00    -0.462 OA
BRANCH  16  17
ATOM     17  C   UNL     1       7.261  -3.488  37.455  1.00  0.00     0.236 C 
BRANCH  17  18
ATOM     18  C   UNL     1       6.846  -2.179  36.769  1.00  0.00     0.021 C 
ATOM     19  C   UNL     1       6.510  -2.429  35.295  1.00  0.00     0.011 C 
ATOM     20  C   UNL     1       5.655  -1.533  37.488  1.00  0.00     0.011 C 
ENDBRANCH  17  18
ENDBRANCH  16  17
ENDBRANCH  14  16
ENDBRANCH   6  14
TORSDOF 8
ENDMDL
MODEL 4
REMARK VINA RESULT:    -5.374      2.144      6.002
REMARK INTER + INTRA:          -8.793
REMARK INTER:                  -7.333
REMARK INTRA:                  -1.460
REMARK UNBOUND:                -0.906
REMARK SMILES CC(C)COC(=O)c1ccccc1C(=O)OCC(C)C
REMARK SMILES IDX 8 1 9 2 10 3 11 4 12 5 13 6 6 7 7 8 5 9 4 10 2 11 1 12 3 13
REMARK SMILES IDX 14 14 15 15 16 16 17 17 18 18 19 19 20 20
REMARK H PARENT
REMARK Flexibility Score: inf
ROOT
ATOM      1  C   UNL     1       8.418  -2.702  41.072  1.00  0.00     0.074 A 
ATOM      2  C   UNL     1       8.247  -2.870  42.459  1.00  0.00     0.016 A 
ATOM      3  C   UNL     1       7.910  -4.115  42.991  1.00  0.00     0.001 A 
ATOM      4  C   UNL     1       7.741  -5.212  42.149  1.00  0.00     0.001 A 
ATOM      5  C   UNL     1       7.885  -5.064  40.769  1.00  0.00     0.016 A 
ATOM      6  C   UNL     1       8.204  -3.812  40.209  1.00  0.00     0.074 A 
ENDROOT
BRANCH   1   7
ATOM      7  C   UNL     1       8.889  -1.387  40.580  1.00  0.00     0.339 C 
ATOM      8  O   UNL     1       8.056  -0.550  40.131  1.00  0.00    -0.246 OA
BRANCH   7   9
ATOM      9  O   UNL     1      10.243  -1.051  40.664  1.00  0.00    -0.462 OA
BRANCH   9  10
ATOM     10  C   UNL     1      11.286  -1.962  40.329  1.00  0.00     0.236 C 
BRANCH  10  11
ATOM     11  C   UNL     1      12.090  -2.325  41.587  1.00  0.00     0.021 C 
ATOM     12  C   UNL     1      11.793  -3.761  42.035  1.00  0.00     0.011 C 
ATOM     13  C   UNL     1      11.786  -1.338  42.720  1.00  0.00     0.011 C 
ENDBRANCH  10  11
ENDBRANCH   9  10
ENDBRANCH   7   9
ENDBRANCH   1   7
BRANCH   6  14
ATOM     14  C   UNL     1       8.227  -3.694  38.732  1.00  0.00     0.339 C 
ATOM     15  O   UNL     1       9.327  -3.748  38.116  1.00  0.00    -0.246 OA
BRANCH  14  16
ATOM     16  O   UNL     1       7.030  -3.578  38.019  1.00  0.00    -0.462 OA
BRANCH  16  17
ATOM     17  C   UNL     1       6.277  -2.370  37.968  1.00  0.00     0.236 C 
BRANCH  17  18
ATOM     18  C   UNL     1       6.592  -1.610  36.671  1.00  0.00     0.021 C 
ATOM     19  C   UNL     1       6.679  -2.581  35.489  1.00  0.00     0.011 C 
ATOM     20  C   UNL     1       5.542  -0.526  36.398  1.00  0.00     0.011 C 
ENDBRANCH  17  18
ENDBRANCH  16  17
ENDBRANCH  14  16
ENDBRANCH   6  14
TORSDOF 8
ENDMDL
MODEL 5
REMARK VINA RESULT:    -5.239      2.262      5.360
REMARK INTER + INTRA:          -8.594
REMARK INTER:                  -7.073
REMARK INTRA:                  -1.521
REMARK UNBOUND:                -0.906
REMARK SMILES CC(C)COC(=O)c1ccccc1C(=O)OCC(C)C
REMARK SMILES IDX 8 1 9 2 10 3 11 4 12 5 13 6 6 7 7 8 5 9 4 10 2 11 1 12 3 13
REMARK SMILES IDX 14 14 15 15 16 16 17 17 18 18 19 19 20 20
REMARK H PARENT
REMARK Flexibility Score: inf
ROOT
ATOM      1  C   UNL     1       8.444  -3.065  42.380  1.00  0.00     0.074 A 
ATOM      2  C   UNL     1       8.777  -2.176  43.419  1.00  0.00     0.016 A 
ATOM      3  C   UNL     1       9.000  -0.824  43.157  1.00  0.00     0.001 A 
ATOM      4  C   UNL     1       8.894  -0.337  41.855  1.00  0.00     0.001 A 
ATOM      5  C   UNL     1       8.585  -1.206  40.807  1.00  0.00     0.016 A 
ATOM      6  C   UNL     1       8.376  -2.578  41.047  1.00  0.00     0.074 A 
ENDROOT
BRANCH   1   7
ATOM      7  C   UNL     1       8.105  -4.462  42.739  1.00  0.00     0.339 C 
ATOM      8  O   UNL     1       6.905  -4.774  42.980  1.00  0.00    -0.246 OA
BRANCH   7   9
ATOM      9  O   UNL     1       9.101  -5.443  42.756  1.00  0.00    -0.462 OA
BRANCH   9  10
ATOM     10  C   UNL     1       8.834  -6.807  43.065  1.00  0.00     0.236 C 
BRANCH  10  11
ATOM     11  C   UNL     1       8.575  -7.597  41.772  1.00  0.00     0.021 C 
ATOM     12  C   UNL     1       7.868  -8.924  42.069  1.00  0.00     0.011 C 
ATOM     13  C   UNL     1       9.890  -7.846  41.024  1.00  0.00     0.011 C 
ENDBRANCH  10  11
ENDBRANCH   9  10
ENDBRANCH   7   9
ENDBRANCH   1   7
BRANCH   6  14
ATOM     14  C   UNL     1       8.169  -3.465  39.879  1.00  0.00     0.339 C 
ATOM     15  O   UNL     1       7.126  -3.348  39.179  1.00  0.00    -0.246 OA
BRANCH  14  16
ATOM     16  O   UNL     1       9.151  -4.394  39.521  1.00  0.00    -0.462 OA
BRANCH  16  17
ATOM     17  C   UNL     1      10.501  -4.025  39.253  1.00  0.00     0.236 C 
BRANCH  17  18
ATOM     18  C   UNL     1      11.435  -4.664  40.291  1.00  0.00     0.021 C 
ATOM     19  C   UNL     1      12.607  -5.365  39.596  1.00  0.00     0.011 C 
ATOM     20  C   UNL     1      11.950  -3.618  41.287  1.00  0.00     0.011 C 
ENDBRANCH  17  18
ENDBRANCH  16  17
ENDBRANCH  14  16
ENDBRANCH   6  14
TORSDOF 8
ENDMDL
MODEL 6
REMARK VINA RESULT:    -5.237      2.110      6.038
REMARK INTER + INTRA:          -8.592
REMARK INTER:                  -7.306
REMARK INTRA:                  -1.286
REMARK UNBOUND:                -0.906
REMARK SMILES CC(C)COC(=O)c1ccccc1C(=O)OCC(C)C
REMARK SMILES IDX 8 1 9 2 10 3 11 4 12 5 13 6 6 7 7 8 5 9 4 10 2 11 1 12 3 13
REMARK SMILES IDX 14 14 15 15 16 16 17 17 18 18 19 19 20 20
REMARK H PARENT
REMARK Flexibility Score: inf
ROOT
ATOM      1  C   UNL     1       9.626  -3.344  41.879  1.00  0.00     0.074 A 
ATOM      2  C   UNL     1      10.820  -3.977  42.270  1.00  0.00     0.016 A 
ATOM      3  C   UNL     1      11.982  -3.842  41.510  1.00  0.00     0.001 A 
ATOM      4  C   UNL     1      11.971  -3.073  40.349  1.00  0.00     0.001 A 
ATOM      5  C   UNL     1      10.793  -2.453  39.931  1.00  0.00     0.016 A 
ATOM      6  C   UNL     1       9.604  -2.593  40.672  1.00  0.00     0.074 A 
ENDROOT
BRANCH   1   7
ATOM      7  C   UNL     1       8.460  -3.429  42.789  1.00  0.00     0.339 C 
ATOM      8  O   UNL     1       8.157  -2.442  43.516  1.00  0.00    -0.246 OA
BRANCH   7   9
ATOM      9  O   UNL     1       7.664  -4.579  42.803  1.00  0.00    -0.462 OA
BRANCH   9  10
ATOM     10  C   UNL     1       7.583  -5.473  41.697  1.00  0.00     0.236 C 
BRANCH  10  11
ATOM     11  C   UNL     1       8.034  -6.878  42.124  1.00  0.00     0.021 C 
ATOM     12  C   UNL     1       8.233  -6.955  43.643  1.00  0.00     0.011 C 
ATOM     13  C   UNL     1       9.323  -7.272  41.394  1.00  0.00     0.011 C 
ENDBRANCH  10  11
ENDBRANCH   9  10
ENDBRANCH   7   9
ENDBRANCH   1   7
BRANCH   6  14
ATOM     14  C   UNL     1       8.361  -2.010  40.114  1.00  0.00     0.339 C 
ATOM     15  O   UNL     1       8.152  -0.769  40.213  1.00  0.00    -0.246 OA
BRANCH  14  16
ATOM     16  O   UNL     1       7.449  -2.822  39.434  1.00  0.00    -0.462 OA
BRANCH  16  17
ATOM     17  C   UNL     1       7.714  -3.366  38.144  1.00  0.00     0.236 C 
BRANCH  17  18
ATOM     18  C   UNL     1       7.052  -2.500  37.063  1.00  0.00     0.021 C 
ATOM     19  C   UNL     1       6.819  -3.320  35.789  1.00  0.00     0.011 C 
ATOM     20  C   UNL     1       5.731  -1.905  37.566  1.00  0.00     0.011 C 
ENDBRANCH  17  18
ENDBRANCH  16  17
ENDBRANCH  14  16
ENDBRANCH   6  14
TORSDOF 8
ENDMDL
MODEL 7
REMARK VINA RESULT:    -5.125      2.437      4.806
REMARK INTER + INTRA:          -8.428
REMARK INTER:                  -7.502
REMARK INTRA:                  -0.926
REMARK UNBOUND:                -0.906
REMARK SMILES CC(C)COC(=O)c1ccccc1C(=O)OCC(C)C
REMARK SMILES IDX 8 1 9 2 10 3 11 4 12 5 13 6 6 7 7 8 5 9 4 10 2 11 1 12 3 13
REMARK SMILES IDX 14 14 15 15 16 16 17 17 18 18 19 19 20 20
REMARK H PARENT
REMARK Flexibility Score: inf
ROOT
ATOM      1  C   UNL     1       8.762  -3.878  40.799  1.00  0.00     0.074 A 
ATOM      2  C   UNL     1       8.197  -5.162  40.682  1.00  0.00     0.016 A 
ATOM      3  C   UNL     1       7.539  -5.753  41.760  1.00  0.00     0.001 A 
ATOM      4  C   UNL     1       7.432  -5.074  42.972  1.00  0.00     0.001 A 
ATOM      5  C   UNL     1       8.003  -3.809  43.116  1.00  0.00     0.016 A 
ATOM      6  C   UNL     1       8.690  -3.202  42.047  1.00  0.00     0.074 A 
ENDROOT
BRANCH   1   7
ATOM      7  C   UNL     1       9.344  -3.258  39.586  1.00  0.00     0.339 C 
ATOM      8  O   UNL     1      10.593  -3.291  39.402  1.00  0.00    -0.246 OA
BRANCH   7   9
ATOM      9  O   UNL     1       8.509  -2.686  38.622  1.00  0.00    -0.462 OA
BRANCH   9  10
ATOM     10  C   UNL     1       7.214  -2.178  38.927  1.00  0.00     0.236 C 
BRANCH  10  11
ATOM     11  C   UNL     1       6.274  -2.383  37.729  1.00  0.00     0.021 C 
ATOM     12  C   UNL     1       6.862  -3.389  36.733  1.00  0.00     0.011 C 
ATOM     13  C   UNL     1       5.991  -1.046  37.035  1.00  0.00     0.011 C 
ENDBRANCH  10  11
ENDBRANCH   9  10
ENDBRANCH   7   9
ENDBRANCH   1   7
BRANCH   6  14
ATOM     14  C   UNL     1       9.374  -1.912  42.300  1.00  0.00     0.339 C 
ATOM     15  O   UNL     1      10.634  -1.871  42.356  1.00  0.00    -0.246 OA
BRANCH  14  16
ATOM     16  O   UNL     1       8.629  -0.736  42.423  1.00  0.00    -0.462 OA
BRANCH  16  17
ATOM     17  C   UNL     1       8.990   0.317  43.313  1.00  0.00     0.236 C 
BRANCH  17  18
ATOM     18  C   UNL     1       8.510  -0.010  44.735  1.00  0.00     0.021 C 
ATOM     19  C   UNL     1       9.706  -0.283  45.654  1.00  0.00     0.011 C 
ATOM     20  C   UNL     1       7.648   1.125  45.301  1.00  0.00     0.011 C 
ENDBRANCH  17  18
ENDBRANCH  16  17
ENDBRANCH  14  16
ENDBRANCH   6  14
TORSDOF 8
ENDMDL
MODEL 8
REMARK VINA RESULT:    -5.103      2.887      4.841
REMARK INTER + INTRA:          -8.395
REMARK INTER:                  -7.743
REMARK INTRA:                  -0.652
REMARK UNBOUND:                -0.906
REMARK SMILES CC(C)COC(=O)c1ccccc1C(=O)OCC(C)C
REMARK SMILES IDX 8 1 9 2 10 3 11 4 12 5 13 6 6 7 7 8 5 9 4 10 2 11 1 12 3 13
REMARK SMILES IDX 14 14 15 15 16 16 17 17 18 18 19 19 20 20
REMARK H PARENT
REMARK Flexibility Score: inf
ROOT
ATOM      1  C   UNL     1       7.709  -3.090  35.821  1.00  0.00     0.074 A 
ATOM      2  C   UNL     1       6.801  -2.375  35.018  1.00  0.00     0.016 A 
ATOM      3  C   UNL     1       5.953  -1.419  35.577  1.00  0.00     0.001 A 
ATOM      4  C   UNL     1       5.998  -1.160  36.946  1.00  0.00     0.001 A 
ATOM      5  C   UNL     1       6.876  -1.872  37.763  1.00  0.00     0.016 A 
ATOM      6  C   UNL     1       7.726  -2.856  37.223  1.00  0.00     0.074 A 
ENDROOT
BRANCH   1   7
ATOM      7  C   UNL     1       8.662  -4.006  35.152  1.00  0.00     0.339 C 
ATOM      8  O   UNL     1       8.317  -5.193  34.895  1.00  0.00    -0.246 OA
BRANCH   7   9
ATOM      9  O   UNL     1       9.920  -3.541  34.756  1.00  0.00    -0.462 OA
BRANCH   9  10
ATOM     10  C   UNL     1      11.029  -4.408  34.540  1.00  0.00     0.236 C 
BRANCH  10  11
ATOM     11  C   UNL     1      11.567  -4.228  33.112  1.00  0.00     0.021 C 
ATOM     12  C   UNL     1      11.770  -2.744  32.783  1.00  0.00     0.011 C 
ATOM     13  C   UNL     1      10.619  -4.877  32.097  1.00  0.00     0.011 C 
ENDBRANCH  10  11
ENDBRANCH   9  10
ENDBRANCH   7   9
ENDBRANCH   1   7
BRANCH   6  14
ATOM     14  C   UNL     1       8.549  -3.658  38.159  1.00  0.00     0.339 C 
ATOM     15  O   UNL     1       9.807  -3.570  38.121  1.00  0.00    -0.246 OA
BRANCH  14  16
ATOM     16  O   UNL     1       7.932  -4.468  39.117  1.00  0.00    -0.462 OA
BRANCH  16  17
ATOM     17  C   UNL     1       8.004  -4.202  40.514  1.00  0.00     0.236 C 
BRANCH  17  18
ATOM     18  C   UNL     1       7.881  -5.512  41.305  1.00  0.00     0.021 C 
ATOM     19  C   UNL     1       9.196  -6.297  41.249  1.00  0.00     0.011 C 
ATOM     20  C   UNL     1       7.480  -5.242  42.761  1.00  0.00     0.011 C 
ENDBRANCH  17  18
ENDBRANCH  16  17
ENDBRANCH  14  16
ENDBRANCH   6  14
TORSDOF 8
ENDMDL
MODEL 9
REMARK VINA RESULT:    -5.051      2.223      3.002
REMARK INTER + INTRA:          -8.319
REMARK INTER:                  -7.250
REMARK INTRA:                  -1.069
REMARK UNBOUND:                -0.906
REMARK SMILES CC(C)COC(=O)c1ccccc1C(=O)OCC(C)C
REMARK SMILES IDX 8 1 9 2 10 3 11 4 12 5 13 6 6 7 7 8 5 9 4 10 2 11 1 12 3 13
REMARK SMILES IDX 14 14 15 15 16 16 17 17 18 18 19 19 20 20
REMARK H PARENT
REMARK Flexibility Score: inf
ROOT
ATOM      1  C   UNL     1       8.304  -1.929  40.648  1.00  0.00     0.074 A 
ATOM      2  C   UNL     1       8.279  -0.526  40.752  1.00  0.00     0.016 A 
ATOM      3  C   UNL     1       8.619   0.108  41.947  1.00  0.00     0.001 A 
ATOM      4  C   UNL     1       8.991  -0.647  43.057  1.00  0.00     0.001 A 
ATOM      5  C   UNL     1       9.003  -2.040  42.983  1.00  0.00     0.016 A 
ATOM      6  C   UNL     1       8.643  -2.701  41.793  1.00  0.00     0.074 A 
ENDROOT
BRANCH   1   7
ATOM      7  C   UNL     1       8.046  -2.537  39.322  1.00  0.00     0.339 C 
ATOM      8  O   UNL     1       9.007  -2.994  38.644  1.00  0.00    -0.246 OA
BRANCH   7   9
ATOM      9  O   UNL     1       6.736  -2.653  38.847  1.00  0.00    -0.462 OA
BRANCH   9  10
ATOM     10  C   UNL     1       6.429  -2.836  37.468  1.00  0.00     0.236 C 
BRANCH  10  11
ATOM     11  C   UNL     1       6.584  -1.505  36.716  1.00  0.00     0.021 C 
ATOM     12  C   UNL     1       5.516  -0.496  37.155  1.00  0.00     0.011 C 
ATOM     13  C   UNL     1       6.513  -1.735  35.202  1.00  0.00     0.011 C 
ENDBRANCH  10  11
ENDBRANCH   9  10
ENDBRANCH   7   9
ENDBRANCH   1   7
BRANCH   6  14
ATOM     14  C   UNL     1       8.561  -4.181  41.814  1.00  0.00     0.339 C 
ATOM     15  O   UNL     1       7.440  -4.749  41.704  1.00  0.00    -0.246 OA
BRANCH  14  16
ATOM     16  O   UNL     1       9.728  -4.946  41.901  1.00  0.00    -0.462 OA
BRANCH  16  17
ATOM     17  C   UNL     1      10.407  -5.450  40.755  1.00  0.00     0.236 C 
BRANCH  17  18
ATOM     18  C   UNL     1      11.503  -4.467  40.319  1.00  0.00     0.021 C 
ATOM     19  C   UNL     1      12.155  -3.816  41.543  1.00  0.00     0.011 C 
ATOM     20  C   UNL     1      12.560  -5.166  39.456  1.00  0.00     0.011 C 
ENDBRANCH  17  18
ENDBRANCH  16  17
ENDBRANCH  14  16
ENDBRANCH   6  14
TORSDOF 8
ENDMDL
