MODEL 1
REMARK VINA RESULT:    -2.983      0.000      0.000
REMARK INTER + INTRA:          -4.397
REMARK INTER:                  -4.029
REMARK INTRA:                  -0.368
REMARK UNBOUND:                -0.368
REMARK SMILES CCCCCCCC(=O)[O-]
REMARK SMILES IDX 5 1 6 2 7 3 8 4 9 5 10 6 4 7 3 8 2 9 1 10
REMARK H PARENT
REMARK Flexibility Score: inf
ROOT
ATOM      1  C   UNL     1      22.507  65.282  18.323  1.00  0.00     0.000 C 
ENDROOT
BRANCH   1   2
ATOM      2  C   UNL     1      21.285  65.386  19.255  1.00  0.00     0.006 C 
BRANCH   2   3
ATOM      3  C   UNL     1      19.944  65.072  18.566  1.00  0.00     0.053 C 
BRANCH   3   4
ATOM      4  C   UNL     1      18.974  66.211  18.655  1.00  0.00     0.041 C 
ATOM      5  O   UNL     1      18.031  66.179  19.489  1.00  0.00    -0.550 OA
ATOM      6  O   UNL     1      19.132  67.326  17.841  1.00  0.00    -0.550 OA
ENDBRANCH   3   4
ENDBRANCH   2   3
ENDBRANCH   1   2
BRANCH   1   7
ATOM      7  C   UNL     1      23.046  66.623  17.787  1.00  0.00     0.000 C 
BRANCH   7   8
ATOM      8  C   UNL     1      22.570  67.871  18.552  1.00  0.00    -0.000 C 
BRANCH   8   9
ATOM      9  C   UNL     1      22.236  69.049  17.625  1.00  0.00    -0.003 C 
ATOM     10  C   UNL     1      22.653  70.376  18.251  1.00  0.00     0.004 C 
ENDBRANCH   8   9
ENDBRANCH   7   8
ENDBRANCH   1   7
TORSDOF 6
ENDMDL
MODEL 2
REMARK VINA RESULT:    -2.848      2.267      4.206
REMARK INTER + INTRA:          -4.214
REMARK INTER:                  -3.867
REMARK INTRA:                  -0.347
REMARK UNBOUND:                -0.368
REMARK SMILES CCCCCCCC(=O)[O-]
REMARK SMILES IDX 5 1 6 2 7 3 8 4 9 5 10 6 4 7 3 8 2 9 1 10
REMARK H PARENT
REMARK Flexibility Score: inf
ROOT
ATOM      1  C   UNL     1      22.123  65.743  18.252  1.00  0.00     0.000 C 
ENDROOT
BRANCH   1   2
ATOM      2  C   UNL     1      22.879  67.083  18.337  1.00  0.00     0.006 C 
BRANCH   2   3
ATOM      3  C   UNL     1      22.017  68.257  18.836  1.00  0.00     0.053 C 
BRANCH   3   4
ATOM      4  C   UNL     1      22.215  69.500  18.022  1.00  0.00     0.041 C 
ATOM      5  O   UNL     1      22.737  70.522  18.540  1.00  0.00    -0.550 OA
ATOM      6  O   UNL     1      21.856  69.517  16.680  1.00  0.00    -0.550 OA
ENDBRANCH   3   4
ENDBRANCH   2   3
ENDBRANCH   1   2
BRANCH   1   7
ATOM      7  C   UNL     1      20.857  65.642  19.125  1.00  0.00     0.000 C 
BRANCH   7   8
ATOM      8  C   UNL     1      19.541  65.458  18.348  1.00  0.00    -0.000 C 
BRANCH   8   9
ATOM      9  C   UNL     1      18.312  65.946  19.130  1.00  0.00    -0.003 C 
ATOM     10  C   UNL     1      18.248  67.470  19.157  1.00  0.00     0.004 C 
ENDBRANCH   8   9
ENDBRANCH   7   8
ENDBRANCH   1   7
TORSDOF 6
ENDMDL
MODEL 3
REMARK VINA RESULT:    -2.807      2.052      2.921
REMARK INTER + INTRA:          -4.159
REMARK INTER:                  -3.737
REMARK INTRA:                  -0.423
REMARK UNBOUND:                -0.368
REMARK SMILES CCCCCCCC(=O)[O-]
REMARK SMILES IDX 5 1 6 2 7 3 8 4 9 5 10 6 4 7 3 8 2 9 1 10
REMARK H PARENT
REMARK Flexibility Score: inf
ROOT
ATOM      1  C   UNL     1      22.514  68.519  18.178  1.00  0.00     0.000 C 
ENDROOT
BRANCH   1   2
ATOM      2  C   UNL     1      21.655  67.821  19.250  1.00  0.00     0.006 C 
BRANCH   2   3
ATOM      3  C   UNL     1      20.371  67.173  18.700  1.00  0.00     0.053 C 
BRANCH   3   4
ATOM      4  C   UNL     1      20.317  65.699  18.960  1.00  0.00     0.041 C 
ATOM      5  O   UNL     1      19.299  65.032  18.632  1.00  0.00    -0.550 OA
ATOM      6  O   UNL     1      21.406  65.051  19.531  1.00  0.00    -0.550 OA
ENDBRANCH   3   4
ENDBRANCH   2   3
ENDBRANCH   1   2
BRANCH   1   7
ATOM      7  C   UNL     1      22.397  70.055  18.136  1.00  0.00     0.000 C 
BRANCH   7   8
ATOM      8  C   UNL     1      21.885  70.636  16.805  1.00  0.00    -0.000 C 
BRANCH   8   9
ATOM      9  C   UNL     1      20.441  71.151  16.895  1.00  0.00    -0.003 C 
ATOM     10  C   UNL     1      19.445  70.065  16.499  1.00  0.00     0.004 C 
ENDBRANCH   8   9
ENDBRANCH   7   8
ENDBRANCH   1   7
TORSDOF 6
ENDMDL
MODEL 4
REMARK VINA RESULT:    -2.762      2.335      3.881
REMARK INTER + INTRA:          -4.098
REMARK INTER:                  -3.474
REMARK INTRA:                  -0.624
REMARK UNBOUND:                -0.368
REMARK SMILES CCCCCCCC(=O)[O-]
REMARK SMILES IDX 5 1 6 2 7 3 8 4 9 5 10 6 4 7 3 8 2 9 1 10
REMARK H PARENT
REMARK Flexibility Score: inf
ROOT
ATOM      1  C   UNL     1      20.763  66.029  18.915  1.00  0.00     0.000 C 
ENDROOT
BRANCH   1   2
ATOM      2  C   UNL     1      20.782  67.564  19.044  1.00  0.00     0.006 C 
BRANCH   2   3
ATOM      3  C   UNL     1      22.194  68.177  19.015  1.00  0.00     0.053 C 
BRANCH   3   4
ATOM      4  C   UNL     1      22.307  69.312  18.043  1.00  0.00     0.041 C 
ATOM      5  O   UNL     1      21.934  69.165  16.848  1.00  0.00    -0.550 OA
ATOM      6  O   UNL     1      22.790  70.545  18.464  1.00  0.00    -0.550 OA
ENDBRANCH   3   4
ENDBRANCH   2   3
ENDBRANCH   1   2
BRANCH   1   7
ATOM      7  C   UNL     1      21.865  65.427  18.022  1.00  0.00     0.000 C 
BRANCH   7   8
ATOM      8  C   UNL     1      21.542  65.394  16.517  1.00  0.00    -0.000 C 
BRANCH   8   9
ATOM      9  C   UNL     1      22.655  66.005  15.654  1.00  0.00    -0.003 C 
ATOM     10  C   UNL     1      23.951  66.144  16.446  1.00  0.00     0.004 C 
ENDBRANCH   8   9
ENDBRANCH   7   8
ENDBRANCH   1   7
TORSDOF 6
ENDMDL
MODEL 5
REMARK VINA RESULT:    -2.716      2.457      3.741
REMARK INTER + INTRA:          -4.037
REMARK INTER:                  -3.814
REMARK INTRA:                  -0.223
REMARK UNBOUND:                -0.368
REMARK SMILES CCCCCCCC(=O)[O-]
REMARK SMILES IDX 5 1 6 2 7 3 8 4 9 5 10 6 4 7 3 8 2 9 1 10
REMARK H PARENT
REMARK Flexibility Score: inf
ROOT
ATOM      1  C   UNL     1      22.415  70.111  18.252  1.00  0.00     0.000 C 
ENDROOT
BRANCH   1   2
ATOM      2  C   UNL     1      22.588  68.580  18.240  1.00  0.00     0.006 C 
BRANCH   2   3
ATOM      3  C   UNL     1      21.588  67.829  19.138  1.00  0.00     0.053 C 
BRANCH   3   4
ATOM      4  C   UNL     1      21.634  66.346  18.931  1.00  0.00     0.041 C 
ATOM      5  O   UNL     1      20.615  65.640  19.154  1.00  0.00    -0.550 OA
ATOM      6  O   UNL     1      22.794  65.745  18.456  1.00  0.00    -0.550 OA
ENDBRANCH   3   4
ENDBRANCH   2   3
ENDBRANCH   1   2
BRANCH   1   7
ATOM      7  C   UNL     1      21.391  70.668  17.244  1.00  0.00     0.000 C 
BRANCH   7   8
ATOM      8  C   UNL     1      21.806  70.563  15.765  1.00  0.00    -0.000 C 
BRANCH   8   9
ATOM      9  C   UNL     1      22.020  71.934  15.107  1.00  0.00    -0.003 C 
ATOM     10  C   UNL     1      23.380  72.517  15.481  1.00  0.00     0.004 C 
ENDBRANCH   8   9
ENDBRANCH   7   8
ENDBRANCH   1   7
TORSDOF 6
ENDMDL
MODEL 6
REMARK VINA RESULT:    -2.710      2.423      4.567
REMARK INTER + INTRA:          -4.029
REMARK INTER:                  -3.579
REMARK INTRA:                  -0.449
REMARK UNBOUND:                -0.368
REMARK SMILES CCCCCCCC(=O)[O-]
REMARK SMILES IDX 5 1 6 2 7 3 8 4 9 5 10 6 4 7 3 8 2 9 1 10
REMARK H PARENT
REMARK Flexibility Score: inf
ROOT
ATOM      1  C   UNL     1      19.491  67.436  19.049  1.00  0.00     0.000 C 
ENDROOT
BRANCH   1   2
ATOM      2  C   UNL     1      20.225  68.283  17.992  1.00  0.00     0.006 C 
BRANCH   2   3
ATOM      3  C   UNL     1      21.633  68.738  18.422  1.00  0.00     0.053 C 
BRANCH   3   4
ATOM      4  C   UNL     1      21.947  70.131  17.969  1.00  0.00     0.041 C 
ATOM      5  O   UNL     1      23.103  70.606  18.127  1.00  0.00    -0.550 OA
ATOM      6  O   UNL     1      20.972  70.896  17.339  1.00  0.00    -0.550 OA
ENDBRANCH   3   4
ENDBRANCH   2   3
ENDBRANCH   1   2
BRANCH   1   7
ATOM      7  C   UNL     1      19.009  66.053  18.568  1.00  0.00     0.000 C 
BRANCH   7   8
ATOM      8  C   UNL     1      20.120  65.107  18.079  1.00  0.00    -0.000 C 
BRANCH   8   9
ATOM      9  C   UNL     1      21.281  64.981  19.077  1.00  0.00    -0.003 C 
ATOM     10  C   UNL     1      22.628  65.086  18.368  1.00  0.00     0.004 C 
ENDBRANCH   8   9
ENDBRANCH   7   8
ENDBRANCH   1   7
TORSDOF 6
ENDMDL
MODEL 7
REMARK VINA RESULT:    -2.700      1.752      2.716
REMARK INTER + INTRA:          -4.015
REMARK INTER:                  -3.500
REMARK INTRA:                  -0.515
REMARK UNBOUND:                -0.368
REMARK SMILES CCCCCCCC(=O)[O-]
REMARK SMILES IDX 5 1 6 2 7 3 8 4 9 5 10 6 4 7 3 8 2 9 1 10
REMARK H PARENT
REMARK Flexibility Score: inf
ROOT
ATOM      1  C   UNL     1      22.087  67.042  16.037  1.00  0.00     0.000 C 
ENDROOT
BRANCH   1   2
ATOM      2  C   UNL     1      23.076  67.027  17.218  1.00  0.00     0.006 C 
BRANCH   2   3
ATOM      3  C   UNL     1      22.722  66.010  18.319  1.00  0.00     0.053 C 
BRANCH   3   4
ATOM      4  C   UNL     1      21.449  66.355  19.029  1.00  0.00     0.041 C 
ATOM      5  O   UNL     1      21.300  67.492  19.550  1.00  0.00    -0.550 OA
ATOM      6  O   UNL     1      20.411  65.432  19.086  1.00  0.00    -0.550 OA
ENDBRANCH   3   4
ENDBRANCH   2   3
ENDBRANCH   1   2
BRANCH   1   7
ATOM      7  C   UNL     1      21.641  68.440  15.566  1.00  0.00     0.000 C 
BRANCH   7   8
ATOM      8  C   UNL     1      21.116  69.368  16.676  1.00  0.00    -0.000 C 
BRANCH   8   9
ATOM      9  C   UNL     1      22.010  70.595  16.902  1.00  0.00    -0.003 C 
ATOM     10  C   UNL     1      22.732  70.509  18.244  1.00  0.00     0.004 C 
ENDBRANCH   8   9
ENDBRANCH   7   8
ENDBRANCH   1   7
TORSDOF 6
ENDMDL
MODEL 8
REMARK VINA RESULT:    -2.685      2.276      3.083
REMARK INTER + INTRA:          -3.994
REMARK INTER:                  -3.389
REMARK INTRA:                  -0.606
REMARK UNBOUND:                -0.368
REMARK SMILES CCCCCCCC(=O)[O-]
REMARK SMILES IDX 5 1 6 2 7 3 8 4 9 5 10 6 4 7 3 8 2 9 1 10
REMARK H PARENT
REMARK Flexibility Score: inf
ROOT
ATOM      1  C   UNL     1      19.280  68.556  17.061  1.00  0.00     0.000 C 
ENDROOT
BRANCH   1   2
ATOM      2  C   UNL     1      19.341  67.331  17.994  1.00  0.00     0.006 C 
BRANCH   2   3
ATOM      3  C   UNL     1      20.362  67.467  19.139  1.00  0.00     0.053 C 
BRANCH   3   4
ATOM      4  C   UNL     1      21.447  66.436  19.064  1.00  0.00     0.041 C 
ATOM      5  O   UNL     1      21.247  65.270  19.496  1.00  0.00    -0.550 OA
ATOM      6  O   UNL     1      22.669  66.752  18.483  1.00  0.00    -0.550 OA
ENDBRANCH   3   4
ENDBRANCH   2   3
ENDBRANCH   1   2
BRANCH   1   7
ATOM      7  C   UNL     1      20.254  68.526  15.866  1.00  0.00     0.000 C 
BRANCH   7   8
ATOM      8  C   UNL     1      21.626  69.175  16.125  1.00  0.00    -0.000 C 
BRANCH   8   9
ATOM      9  C   UNL     1      21.548  70.379  17.074  1.00  0.00    -0.003 C 
ATOM     10  C   UNL     1      22.618  70.296  18.158  1.00  0.00     0.004 C 
ENDBRANCH   8   9
ENDBRANCH   7   8
ENDBRANCH   1   7
TORSDOF 6
ENDMDL
MODEL 9
REMARK VINA RESULT:    -2.679      2.486      3.677
REMARK INTER + INTRA:          -3.987
REMARK INTER:                  -3.470
REMARK INTRA:                  -0.517
REMARK UNBOUND:                -0.368
REMARK SMILES CCCCCCCC(=O)[O-]
REMARK SMILES IDX 5 1 6 2 7 3 8 4 9 5 10 6 4 7 3 8 2 9 1 10
REMARK H PARENT
REMARK Flexibility Score: inf
ROOT
ATOM      1  C   UNL     1      19.984  64.986  18.430  1.00  0.00     0.000 C 
ENDROOT
BRANCH   1   2
ATOM      2  C   UNL     1      21.278  65.128  19.254  1.00  0.00     0.006 C 
BRANCH   2   3
ATOM      3  C   UNL     1      22.565  65.091  18.410  1.00  0.00     0.053 C 
BRANCH   3   4
ATOM      4  C   UNL     1      23.026  66.459  18.008  1.00  0.00     0.041 C 
ATOM      5  O   UNL     1      22.785  67.453  18.744  1.00  0.00    -0.550 OA
ATOM      6  O   UNL     1      23.753  66.633  16.837  1.00  0.00    -0.550 OA
ENDBRANCH   3   4
ENDBRANCH   2   3
ENDBRANCH   1   2
BRANCH   1   7
ATOM      7  C   UNL     1      18.831  65.923  18.843  1.00  0.00     0.000 C 
BRANCH   7   8
ATOM      8  C   UNL     1      19.186  67.420  18.878  1.00  0.00    -0.000 C 
BRANCH   8   9
ATOM      9  C   UNL     1      18.822  68.151  17.577  1.00  0.00    -0.003 C 
ATOM     10  C   UNL     1      20.039  68.292  16.668  1.00  0.00     0.004 C 
ENDBRANCH   8   9
ENDBRANCH   7   8
ENDBRANCH   1   7
TORSDOF 6
ENDMDL
