MODEL 1
REMARK VINA RESULT:    -5.383      0.000      0.000
REMARK INTER + INTRA:          -6.863
REMARK INTER:                  -6.642
REMARK INTRA:                  -0.221
REMARK UNBOUND:                -0.221
REMARK SMILES [NH3+][C@@H](Cc1ccc(O)cc1)C(=O)[O-]
REMARK SMILES IDX 3 1 2 2 1 3 11 7 12 8 13 9 4 10 5 11 10 12 6 13 9 14 7 15
REMARK SMILES IDX 8 16
REMARK H PARENT 1 4 1 5 1 6 8 17
REMARK Flexibility Score: inf
ROOT
ATOM      1  C   UNL     1      23.614  36.746  24.346  1.00  0.00     0.107 C 
ENDROOT
BRANCH   1   2
ATOM      2  C   UNL     1      23.192  38.230  24.363  1.00  0.00     0.232 C 
BRANCH   2   3
ATOM      3  N   UNL     1      22.472  38.571  25.598  1.00  0.00    -0.350 N 
ATOM      4  H   UNL     1      21.533  38.978  25.380  1.00  0.00     0.345 HD
ATOM      5  H   UNL     1      23.026  39.265  26.152  1.00  0.00     0.345 HD
ATOM      6  H   UNL     1      22.349  37.717  26.188  1.00  0.00     0.345 HD
ENDBRANCH   2   3
BRANCH   2   7
ATOM      7  C   UNL     1      22.332  38.525  23.164  1.00  0.00     0.099 C 
ATOM      8  O   UNL     1      22.538  39.558  22.475  1.00  0.00    -0.544 OA
ATOM      9  O   UNL     1      21.317  37.649  22.798  1.00  0.00    -0.544 OA
ENDBRANCH   2   7
ENDBRANCH   1   2
BRANCH   1  10
ATOM     10  C   UNL     1      24.552  36.441  23.205  1.00  0.00    -0.041 A 
ATOM     11  C   UNL     1      25.829  37.025  23.158  1.00  0.00     0.008 A 
ATOM     12  C   UNL     1      24.143  35.597  22.161  1.00  0.00     0.008 A 
ATOM     13  C   UNL     1      26.687  36.758  22.086  1.00  0.00     0.046 A 
ATOM     14  C   UNL     1      25.003  35.332  21.090  1.00  0.00     0.046 A 
ATOM     15  C   UNL     1      26.275  35.910  21.049  1.00  0.00     0.115 A 
BRANCH  15  16
ATOM     16  O   UNL     1      27.121  35.636  19.977  1.00  0.00    -0.508 OA
ATOM     17  H   UNL     1      26.857  35.856  19.024  1.00  0.00     0.293 HD
ENDBRANCH  15  16
ENDBRANCH   1  10
TORSDOF 5
ENDMDL
MODEL 2
REMARK VINA RESULT:    -5.153      2.600      5.216
REMARK INTER + INTRA:          -6.578
REMARK INTER:                  -6.407
REMARK INTRA:                  -0.171
REMARK UNBOUND:                -0.221
REMARK SMILES [NH3+][C@@H](Cc1ccc(O)cc1)C(=O)[O-]
REMARK SMILES IDX 3 1 2 2 1 3 11 7 12 8 13 9 4 10 5 11 10 12 6 13 9 14 7 15
REMARK SMILES IDX 8 16
REMARK H PARENT 1 4 1 5 1 6 8 17
REMARK Flexibility Score: inf
ROOT
ATOM      1  C   UNL     1      25.974  37.424  21.579  1.00  0.00     0.107 C 
ENDROOT
BRANCH   1   2
ATOM      2  C   UNL     1      25.546  37.912  20.179  1.00  0.00     0.232 C 
BRANCH   2   3
ATOM      3  N   UNL     1      24.394  37.155  19.673  1.00  0.00    -0.350 N 
ATOM      4  H   UNL     1      24.709  36.341  19.094  1.00  0.00     0.345 HD
ATOM      5  H   UNL     1      23.789  37.776  19.088  1.00  0.00     0.345 HD
ATOM      6  H   UNL     1      23.816  36.806  20.471  1.00  0.00     0.345 HD
ENDBRANCH   2   3
BRANCH   2   7
ATOM      7  C   UNL     1      26.705  37.790  19.226  1.00  0.00     0.099 C 
ATOM      8  O   UNL     1      27.237  36.668  19.018  1.00  0.00    -0.544 OA
ATOM      9  O   UNL     1      27.181  38.909  18.554  1.00  0.00    -0.544 OA
ENDBRANCH   2   7
ENDBRANCH   1   2
BRANCH   1  10
ATOM     10  C   UNL     1      24.952  37.770  22.631  1.00  0.00    -0.041 A 
ATOM     11  C   UNL     1      24.423  39.070  22.712  1.00  0.00     0.008 A 
ATOM     12  C   UNL     1      24.544  36.803  23.564  1.00  0.00     0.008 A 
ATOM     13  C   UNL     1      23.492  39.391  23.705  1.00  0.00     0.046 A 
ATOM     14  C   UNL     1      23.613  37.128  24.557  1.00  0.00     0.046 A 
ATOM     15  C   UNL     1      23.085  38.420  24.630  1.00  0.00     0.115 A 
BRANCH  15  16
ATOM     16  O   UNL     1      22.158  38.730  25.623  1.00  0.00    -0.508 OA
ATOM     17  H   UNL     1      22.397  39.336  26.400  1.00  0.00     0.293 HD
ENDBRANCH  15  16
ENDBRANCH   1  10
TORSDOF 5
ENDMDL
MODEL 3
REMARK VINA RESULT:    -5.081      2.664      5.238
REMARK INTER + INTRA:          -6.489
REMARK INTER:                  -6.330
REMARK INTRA:                  -0.160
REMARK UNBOUND:                -0.221
REMARK SMILES [NH3+][C@@H](Cc1ccc(O)cc1)C(=O)[O-]
REMARK SMILES IDX 3 1 2 2 1 3 11 7 12 8 13 9 4 10 5 11 10 12 6 13 9 14 7 15
REMARK SMILES IDX 8 16
REMARK H PARENT 1 4 1 5 1 6 8 17
REMARK Flexibility Score: inf
ROOT
ATOM      1  C   UNL     1      26.306  37.125  21.289  1.00  0.00     0.107 C 
ENDROOT
BRANCH   1   2
ATOM      2  C   UNL     1      25.891  37.794  19.962  1.00  0.00     0.232 C 
BRANCH   2   3
ATOM      3  N   UNL     1      24.734  37.119  19.358  1.00  0.00    -0.350 N 
ATOM      4  H   UNL     1      23.845  37.612  19.607  1.00  0.00     0.345 HD
ATOM      5  H   UNL     1      24.684  36.130  19.697  1.00  0.00     0.345 HD
ATOM      6  H   UNL     1      24.835  37.095  18.318  1.00  0.00     0.345 HD
ENDBRANCH   2   3
BRANCH   2   7
ATOM      7  C   UNL     1      27.054  37.782  19.006  1.00  0.00     0.099 C 
ATOM      8  O   UNL     1      27.498  38.863  18.537  1.00  0.00    -0.544 OA
ATOM      9  O   UNL     1      27.657  36.582  18.651  1.00  0.00    -0.544 OA
ENDBRANCH   2   7
ENDBRANCH   1   2
BRANCH   1  10
ATOM     10  C   UNL     1      25.333  37.429  22.400  1.00  0.00    -0.041 A 
ATOM     11  C   UNL     1      24.943  36.422  23.300  1.00  0.00     0.008 A 
ATOM     12  C   UNL     1      24.781  38.713  22.523  1.00  0.00     0.008 A 
ATOM     13  C   UNL     1      24.022  36.703  24.314  1.00  0.00     0.046 A 
ATOM     14  C   UNL     1      23.860  38.991  23.539  1.00  0.00     0.046 A 
ATOM     15  C   UNL     1      23.478  37.989  24.436  1.00  0.00     0.115 A 
BRANCH  15  16
ATOM     16  O   UNL     1      22.560  38.280  25.443  1.00  0.00    -0.508 OA
ATOM     17  H   UNL     1      22.406  39.229  25.761  1.00  0.00     0.293 HD
ENDBRANCH  15  16
ENDBRANCH   1  10
TORSDOF 5
ENDMDL
MODEL 4
REMARK VINA RESULT:    -4.957      1.838      2.338
REMARK INTER + INTRA:          -6.337
REMARK INTER:                  -6.184
REMARK INTRA:                  -0.152
REMARK UNBOUND:                -0.221
REMARK SMILES [NH3+][C@@H](Cc1ccc(O)cc1)C(=O)[O-]
REMARK SMILES IDX 3 1 2 2 1 3 11 7 12 8 13 9 4 10 5 11 10 12 6 13 9 14 7 15
REMARK SMILES IDX 8 16
REMARK H PARENT 1 4 1 5 1 6 8 17
REMARK Flexibility Score: inf
ROOT
ATOM      1  C   UNL     1      24.063  39.142  23.186  1.00  0.00     0.107 C 
ENDROOT
BRANCH   1   2
ATOM      2  C   UNL     1      22.982  38.374  23.976  1.00  0.00     0.232 C 
BRANCH   2   3
ATOM      3  N   UNL     1      22.117  37.592  23.083  1.00  0.00    -0.350 N 
ATOM      4  H   UNL     1      21.408  38.208  22.619  1.00  0.00     0.345 HD
ATOM      5  H   UNL     1      21.620  36.851  23.629  1.00  0.00     0.345 HD
ATOM      6  H   UNL     1      22.692  37.117  22.351  1.00  0.00     0.345 HD
ENDBRANCH   2   3
BRANCH   2   7
ATOM      7  C   UNL     1      22.157  39.345  24.777  1.00  0.00     0.099 C 
ATOM      8  O   UNL     1      20.940  39.112  24.994  1.00  0.00    -0.544 OA
ATOM      9  O   UNL     1      22.739  40.495  25.298  1.00  0.00    -0.544 OA
ENDBRANCH   2   7
ENDBRANCH   1   2
BRANCH   1  10
ATOM     10  C   UNL     1      24.886  38.223  22.319  1.00  0.00    -0.041 A 
ATOM     11  C   UNL     1      24.846  38.339  20.919  1.00  0.00     0.008 A 
ATOM     12  C   UNL     1      25.673  37.218  22.904  1.00  0.00     0.008 A 
ATOM     13  C   UNL     1      25.594  37.468  20.119  1.00  0.00     0.046 A 
ATOM     14  C   UNL     1      26.419  36.349  22.101  1.00  0.00     0.046 A 
ATOM     15  C   UNL     1      26.382  36.471  20.709  1.00  0.00     0.115 A 
BRANCH  15  16
ATOM     16  O   UNL     1      27.130  35.599  19.921  1.00  0.00    -0.508 OA
ATOM     17  H   UNL     1      28.094  35.797  19.680  1.00  0.00     0.293 HD
ENDBRANCH  15  16
ENDBRANCH   1  10
TORSDOF 5
ENDMDL
MODEL 5
REMARK VINA RESULT:    -4.909      3.651      5.932
REMARK INTER + INTRA:          -6.278
REMARK INTER:                  -6.055
REMARK INTRA:                  -0.223
REMARK UNBOUND:                -0.221
REMARK SMILES [NH3+][C@@H](Cc1ccc(O)cc1)C(=O)[O-]
REMARK SMILES IDX 3 1 2 2 1 3 11 7 12 8 13 9 4 10 5 11 10 12 6 13 9 14 7 15
REMARK SMILES IDX 8 16
REMARK H PARENT 1 4 1 5 1 6 8 17
REMARK Flexibility Score: inf
ROOT
ATOM      1  C   UNL     1      26.101  37.610  18.863  1.00  0.00     0.107 C 
ENDROOT
BRANCH   1   2
ATOM      2  C   UNL     1      27.497  38.231  18.648  1.00  0.00     0.232 C 
BRANCH   2   3
ATOM      3  N   UNL     1      27.414  39.498  17.909  1.00  0.00    -0.350 N 
ATOM      4  H   UNL     1      28.020  40.228  18.353  1.00  0.00     0.345 HD
ATOM      5  H   UNL     1      26.425  39.837  17.895  1.00  0.00     0.345 HD
ATOM      6  H   UNL     1      27.716  39.356  16.918  1.00  0.00     0.345 HD
ENDBRANCH   2   3
BRANCH   2   7
ATOM      7  C   UNL     1      28.374  37.257  17.909  1.00  0.00     0.099 C 
ATOM      8  O   UNL     1      29.365  37.671  17.251  1.00  0.00    -0.544 OA
ATOM      9  O   UNL     1      28.109  35.894  17.963  1.00  0.00    -0.544 OA
ENDBRANCH   2   7
ENDBRANCH   1   2
BRANCH   1  10
ATOM     10  C   UNL     1      25.769  37.468  20.327  1.00  0.00    -0.041 A 
ATOM     11  C   UNL     1      26.407  36.493  21.112  1.00  0.00     0.008 A 
ATOM     12  C   UNL     1      24.790  38.288  20.911  1.00  0.00     0.008 A 
ATOM     13  C   UNL     1      26.078  36.350  22.463  1.00  0.00     0.046 A 
ATOM     14  C   UNL     1      24.463  38.143  22.264  1.00  0.00     0.046 A 
ATOM     15  C   UNL     1      25.105  37.176  23.042  1.00  0.00     0.115 A 
BRANCH  15  16
ATOM     16  O   UNL     1      24.769  37.042  24.388  1.00  0.00    -0.508 OA
ATOM     17  H   UNL     1      24.430  37.828  24.930  1.00  0.00     0.293 HD
ENDBRANCH  15  16
ENDBRANCH   1  10
TORSDOF 5
ENDMDL
MODEL 6
REMARK VINA RESULT:    -4.872      2.937      5.586
REMARK INTER + INTRA:          -6.233
REMARK INTER:                  -6.055
REMARK INTRA:                  -0.178
REMARK UNBOUND:                -0.221
REMARK SMILES [NH3+][C@@H](Cc1ccc(O)cc1)C(=O)[O-]
REMARK SMILES IDX 3 1 2 2 1 3 11 7 12 8 13 9 4 10 5 11 10 12 6 13 9 14 7 15
REMARK SMILES IDX 8 16
REMARK H PARENT 1 4 1 5 1 6 8 17
REMARK Flexibility Score: inf
ROOT
ATOM      1  C   UNL     1      26.747  35.846  19.975  1.00  0.00     0.107 C 
ENDROOT
BRANCH   1   2
ATOM      2  C   UNL     1      27.077  37.228  19.374  1.00  0.00     0.232 C 
BRANCH   2   3
ATOM      3  N   UNL     1      25.857  37.965  19.016  1.00  0.00    -0.350 N 
ATOM      4  H   UNL     1      25.027  37.578  19.523  1.00  0.00     0.345 HD
ATOM      5  H   UNL     1      25.691  37.897  17.985  1.00  0.00     0.345 HD
ATOM      6  H   UNL     1      25.966  38.977  19.255  1.00  0.00     0.345 HD
ENDBRANCH   2   3
BRANCH   2   7
ATOM      7  C   UNL     1      27.952  37.056  18.162  1.00  0.00     0.099 C 
ATOM      8  O   UNL     1      28.905  37.851  17.950  1.00  0.00    -0.544 OA
ATOM      9  O   UNL     1      27.727  36.006  17.279  1.00  0.00    -0.544 OA
ENDBRANCH   2   7
ENDBRANCH   1   2
BRANCH   1  10
ATOM     10  C   UNL     1      25.980  35.964  21.268  1.00  0.00    -0.041 A 
ATOM     11  C   UNL     1      24.667  35.472  21.365  1.00  0.00     0.008 A 
ATOM     12  C   UNL     1      26.561  36.598  22.377  1.00  0.00     0.008 A 
ATOM     13  C   UNL     1      23.953  35.604  22.560  1.00  0.00     0.046 A 
ATOM     14  C   UNL     1      25.843  36.730  23.571  1.00  0.00     0.046 A 
ATOM     15  C   UNL     1      24.539  36.234  23.666  1.00  0.00     0.115 A 
BRANCH  15  16
ATOM     16  O   UNL     1      23.836  36.371  24.861  1.00  0.00    -0.508 OA
ATOM     17  H   UNL     1      23.194  35.656  25.182  1.00  0.00     0.293 HD
ENDBRANCH  15  16
ENDBRANCH   1  10
TORSDOF 5
ENDMDL
MODEL 7
REMARK VINA RESULT:    -4.858     16.056     17.213
REMARK INTER + INTRA:          -6.215
REMARK INTER:                  -5.994
REMARK INTRA:                  -0.221
REMARK UNBOUND:                -0.221
REMARK SMILES [NH3+][C@@H](Cc1ccc(O)cc1)C(=O)[O-]
REMARK SMILES IDX 3 1 2 2 1 3 11 7 12 8 13 9 4 10 5 11 10 12 6 13 9 14 7 15
REMARK SMILES IDX 8 16
REMARK H PARENT 1 4 1 5 1 6 8 17
REMARK Flexibility Score: inf
ROOT
ATOM      1  C   UNL     1      19.271  53.111  25.005  1.00  0.00     0.107 C 
ENDROOT
BRANCH   1   2
ATOM      2  C   UNL     1      19.378  53.427  26.512  1.00  0.00     0.232 C 
BRANCH   2   3
ATOM      3  N   UNL     1      19.549  54.866  26.749  1.00  0.00    -0.350 N 
ATOM      4  H   UNL     1      19.878  55.350  25.881  1.00  0.00     0.345 HD
ATOM      5  H   UNL     1      20.249  55.020  27.512  1.00  0.00     0.345 HD
ATOM      6  H   UNL     1      18.644  55.289  27.058  1.00  0.00     0.345 HD
ENDBRANCH   2   3
BRANCH   2   7
ATOM      7  C   UNL     1      20.531  52.663  27.107  1.00  0.00     0.099 C 
ATOM      8  O   UNL     1      21.126  51.785  26.429  1.00  0.00    -0.544 OA
ATOM      9  O   UNL     1      20.958  52.936  28.401  1.00  0.00    -0.544 OA
ENDBRANCH   2   7
ENDBRANCH   1   2
BRANCH   1  10
ATOM     10  C   UNL     1      17.954  52.466  24.658  1.00  0.00    -0.041 A 
ATOM     11  C   UNL     1      17.738  51.102  24.919  1.00  0.00     0.008 A 
ATOM     12  C   UNL     1      16.943  53.215  24.037  1.00  0.00     0.008 A 
ATOM     13  C   UNL     1      16.522  50.502  24.574  1.00  0.00     0.046 A 
ATOM     14  C   UNL     1      15.728  52.613  23.692  1.00  0.00     0.046 A 
ATOM     15  C   UNL     1      15.514  51.258  23.959  1.00  0.00     0.115 A 
BRANCH  15  16
ATOM     16  O   UNL     1      14.299  50.670  23.611  1.00  0.00    -0.508 OA
ATOM     17  H   UNL     1      14.260  49.768  23.151  1.00  0.00     0.293 HD
ENDBRANCH  15  16
ENDBRANCH   1  10
TORSDOF 5
ENDMDL
MODEL 8
REMARK VINA RESULT:    -4.820      2.998      5.104
REMARK INTER + INTRA:          -6.168
REMARK INTER:                  -5.931
REMARK INTRA:                  -0.237
REMARK UNBOUND:                -0.221
REMARK SMILES [NH3+][C@@H](Cc1ccc(O)cc1)C(=O)[O-]
REMARK SMILES IDX 3 1 2 2 1 3 11 7 12 8 13 9 4 10 5 11 10 12 6 13 9 14 7 15
REMARK SMILES IDX 8 16
REMARK H PARENT 1 4 1 5 1 6 8 17
REMARK Flexibility Score: inf
ROOT
ATOM      1  C   UNL     1      24.994  38.616  20.845  1.00  0.00     0.107 C 
ENDROOT
BRANCH   1   2
ATOM      2  C   UNL     1      25.367  37.192  20.383  1.00  0.00     0.232 C 
BRANCH   2   3
ATOM      3  N   UNL     1      26.770  37.116  19.952  1.00  0.00    -0.350 N 
ATOM      4  H   UNL     1      27.260  36.319  20.421  1.00  0.00     0.345 HD
ATOM      5  H   UNL     1      27.262  38.008  20.189  1.00  0.00     0.345 HD
ATOM      6  H   UNL     1      26.820  36.990  18.915  1.00  0.00     0.345 HD
ENDBRANCH   2   3
BRANCH   2   7
ATOM      7  C   UNL     1      24.457  36.772  19.260  1.00  0.00     0.099 C 
ATOM      8  O   UNL     1      23.234  36.569  19.479  1.00  0.00    -0.544 OA
ATOM      9  O   UNL     1      24.956  36.623  17.972  1.00  0.00    -0.544 OA
ENDBRANCH   2   7
ENDBRANCH   1   2
BRANCH   1  10
ATOM     10  C   UNL     1      24.279  38.607  22.172  1.00  0.00    -0.041 A 
ATOM     11  C   UNL     1      24.444  37.532  23.063  1.00  0.00     0.008 A 
ATOM     12  C   UNL     1      23.413  39.657  22.515  1.00  0.00     0.008 A 
ATOM     13  C   UNL     1      23.760  37.518  24.283  1.00  0.00     0.046 A 
ATOM     14  C   UNL     1      22.730  39.639  23.736  1.00  0.00     0.046 A 
ATOM     15  C   UNL     1      22.901  38.572  24.622  1.00  0.00     0.115 A 
BRANCH  15  16
ATOM     16  O   UNL     1      22.215  38.567  25.835  1.00  0.00    -0.508 OA
ATOM     17  H   UNL     1      22.674  38.312  26.702  1.00  0.00     0.293 HD
ENDBRANCH  15  16
ENDBRANCH   1  10
TORSDOF 5
ENDMDL
