MODEL 1
REMARK VINA RESULT:    -3.386      0.000      0.000
REMARK INTER + INTRA:          -4.754
REMARK INTER:                  -4.573
REMARK INTRA:                  -0.181
REMARK UNBOUND:                -0.181
REMARK SMILES CCCCCCCC(=O)[O-]
REMARK SMILES IDX 5 1 6 2 7 3 8 4 9 5 10 6 4 7 3 8 2 9 1 10
REMARK H PARENT
REMARK Flexibility Score: inf
ROOT
ATOM      1  C   UNL     1      56.941  27.872  51.065  1.00  0.00     0.000 C 
ENDROOT
BRANCH   1   2
ATOM      2  C   UNL     1      58.102  28.869  50.937  1.00  0.00     0.006 C 
BRANCH   2   3
ATOM      3  C   UNL     1      58.900  28.667  49.643  1.00  0.00     0.053 C 
BRANCH   3   4
ATOM      4  C   UNL     1      59.949  27.607  49.795  1.00  0.00     0.041 C 
ATOM      5  O   UNL     1      59.626  26.391  49.775  1.00  0.00    -0.550 OA
ATOM      6  O   UNL     1      61.277  27.965  49.991  1.00  0.00    -0.550 OA
ENDBRANCH   3   4
ENDBRANCH   2   3
ENDBRANCH   1   2
BRANCH   1   7
ATOM      7  C   UNL     1      55.593  28.562  50.814  1.00  0.00     0.000 C 
BRANCH   7   8
ATOM      8  C   UNL     1      54.508  27.595  50.308  1.00  0.00    -0.000 C 
BRANCH   8   9
ATOM      9  C   UNL     1      54.993  26.158  50.045  1.00  0.00    -0.003 C 
ATOM     10  C   UNL     1      53.871  25.220  49.601  1.00  0.00     0.004 C 
ENDBRANCH   8   9
ENDBRANCH   7   8
ENDBRANCH   1   7
TORSDOF 6
ENDMDL
MODEL 2
REMARK VINA RESULT:    -3.320      1.421      1.857
REMARK INTER + INTRA:          -4.666
REMARK INTER:                  -4.335
REMARK INTRA:                  -0.330
REMARK UNBOUND:                -0.181
REMARK SMILES CCCCCCCC(=O)[O-]
REMARK SMILES IDX 5 1 6 2 7 3 8 4 9 5 10 6 4 7 3 8 2 9 1 10
REMARK H PARENT
REMARK Flexibility Score: inf
ROOT
ATOM      1  C   UNL     1      57.613  28.819  50.724  1.00  0.00     0.000 C 
ENDROOT
BRANCH   1   2
ATOM      2  C   UNL     1      58.859  29.042  49.853  1.00  0.00     0.006 C 
BRANCH   2   3
ATOM      3  C   UNL     1      59.634  27.742  49.605  1.00  0.00     0.053 C 
BRANCH   3   4
ATOM      4  C   UNL     1      60.950  27.734  50.322  1.00  0.00     0.041 C 
ATOM      5  O   UNL     1      60.985  27.735  51.580  1.00  0.00    -0.550 OA
ATOM      6  O   UNL     1      62.137  27.757  49.600  1.00  0.00    -0.550 OA
ENDBRANCH   3   4
ENDBRANCH   2   3
ENDBRANCH   1   2
BRANCH   1   7
ATOM      7  C   UNL     1      57.213  27.336  50.741  1.00  0.00     0.000 C 
BRANCH   7   8
ATOM      8  C   UNL     1      55.693  27.123  50.625  1.00  0.00    -0.000 C 
BRANCH   8   9
ATOM      9  C   UNL     1      54.856  28.414  50.633  1.00  0.00    -0.003 C 
ATOM     10  C   UNL     1      53.422  28.200  50.149  1.00  0.00     0.004 C 
ENDBRANCH   8   9
ENDBRANCH   7   8
ENDBRANCH   1   7
TORSDOF 6
ENDMDL
MODEL 3
REMARK VINA RESULT:    -3.259      2.275      4.524
REMARK INTER + INTRA:          -4.582
REMARK INTER:                  -4.202
REMARK INTRA:                  -0.381
REMARK UNBOUND:                -0.181
REMARK SMILES CCCCCCCC(=O)[O-]
REMARK SMILES IDX 5 1 6 2 7 3 8 4 9 5 10 6 4 7 3 8 2 9 1 10
REMARK H PARENT
REMARK Flexibility Score: inf
ROOT
ATOM      1  C   UNL     1      54.326  29.595  50.628  1.00  0.00     0.000 C 
ENDROOT
BRANCH   1   2
ATOM      2  C   UNL     1      53.898  28.171  50.241  1.00  0.00     0.006 C 
BRANCH   2   3
ATOM      3  C   UNL     1      54.580  27.105  51.107  1.00  0.00     0.053 C 
BRANCH   3   4
ATOM      4  C   UNL     1      55.170  26.006  50.276  1.00  0.00     0.041 C 
ATOM      5  O   UNL     1      54.498  25.484  49.348  1.00  0.00    -0.550 OA
ATOM      6  O   UNL     1      56.449  25.537  50.548  1.00  0.00    -0.550 OA
ENDBRANCH   3   4
ENDBRANCH   2   3
ENDBRANCH   1   2
BRANCH   1   7
ATOM      7  C   UNL     1      55.557  29.568  51.546  1.00  0.00     0.000 C 
BRANCH   7   8
ATOM      8  C   UNL     1      56.856  29.967  50.821  1.00  0.00    -0.000 C 
BRANCH   8   9
ATOM      9  C   UNL     1      57.886  28.834  50.669  1.00  0.00    -0.003 C 
ATOM     10  C   UNL     1      58.971  29.148  49.639  1.00  0.00     0.004 C 
ENDBRANCH   8   9
ENDBRANCH   7   8
ENDBRANCH   1   7
TORSDOF 6
ENDMDL
MODEL 4
REMARK VINA RESULT:    -3.247      3.127      4.867
REMARK INTER + INTRA:          -4.567
REMARK INTER:                  -4.138
REMARK INTRA:                  -0.429
REMARK UNBOUND:                -0.181
REMARK SMILES CCCCCCCC(=O)[O-]
REMARK SMILES IDX 5 1 6 2 7 3 8 4 9 5 10 6 4 7 3 8 2 9 1 10
REMARK H PARENT
REMARK Flexibility Score: inf
ROOT
ATOM      1  C   UNL     1      56.400  28.614  51.597  1.00  0.00     0.000 C 
ENDROOT
BRANCH   1   2
ATOM      2  C   UNL     1      55.412  27.864  50.691  1.00  0.00     0.006 C 
BRANCH   2   3
ATOM      3  C   UNL     1      55.826  26.405  50.463  1.00  0.00     0.053 C 
BRANCH   3   4
ATOM      4  C   UNL     1      54.637  25.500  50.345  1.00  0.00     0.041 C 
ATOM      5  O   UNL     1      54.064  25.352  49.234  1.00  0.00    -0.550 OA
ATOM      6  O   UNL     1      54.143  24.848  51.467  1.00  0.00    -0.550 OA
ENDBRANCH   3   4
ENDBRANCH   2   3
ENDBRANCH   1   2
BRANCH   1   7
ATOM      7  C   UNL     1      57.286  29.563  50.776  1.00  0.00     0.000 C 
BRANCH   7   8
ATOM      8  C   UNL     1      58.779  29.193  50.834  1.00  0.00    -0.000 C 
BRANCH   8   9
ATOM      9  C   UNL     1      59.294  28.391  49.626  1.00  0.00    -0.003 C 
ATOM     10  C   UNL     1      59.568  26.923  49.956  1.00  0.00     0.004 C 
ENDBRANCH   8   9
ENDBRANCH   7   8
ENDBRANCH   1   7
TORSDOF 6
ENDMDL
MODEL 5
REMARK VINA RESULT:    -3.170      1.237      1.604
REMARK INTER + INTRA:          -4.463
REMARK INTER:                  -4.137
REMARK INTRA:                  -0.327
REMARK UNBOUND:                -0.181
REMARK SMILES CCCCCCCC(=O)[O-]
REMARK SMILES IDX 5 1 6 2 7 3 8 4 9 5 10 6 4 7 3 8 2 9 1 10
REMARK H PARENT
REMARK Flexibility Score: inf
ROOT
ATOM      1  C   UNL     1      57.945  28.875  51.188  1.00  0.00     0.000 C 
ENDROOT
BRANCH   1   2
ATOM      2  C   UNL     1      58.906  29.045  50.002  1.00  0.00     0.006 C 
BRANCH   2   3
ATOM      3  C   UNL     1      59.689  27.760  49.701  1.00  0.00     0.053 C 
BRANCH   3   4
ATOM      4  C   UNL     1      61.049  27.776  50.332  1.00  0.00     0.041 C 
ATOM      5  O   UNL     1      62.080  27.781  49.610  1.00  0.00    -0.550 OA
ATOM      6  O   UNL     1      61.175  27.753  51.715  1.00  0.00    -0.550 OA
ENDBRANCH   3   4
ENDBRANCH   2   3
ENDBRANCH   1   2
BRANCH   1   7
ATOM      7  C   UNL     1      56.574  29.493  50.877  1.00  0.00     0.000 C 
BRANCH   7   8
ATOM      8  C   UNL     1      55.461  28.440  50.727  1.00  0.00    -0.000 C 
BRANCH   8   9
ATOM      9  C   UNL     1      55.926  26.980  50.881  1.00  0.00    -0.003 C 
ATOM     10  C   UNL     1      55.088  25.997  50.063  1.00  0.00     0.004 C 
ENDBRANCH   8   9
ENDBRANCH   7   8
ENDBRANCH   1   7
TORSDOF 6
ENDMDL
MODEL 6
REMARK VINA RESULT:    -3.155      1.914      2.702
REMARK INTER + INTRA:          -4.442
REMARK INTER:                  -4.007
REMARK INTRA:                  -0.435
REMARK UNBOUND:                -0.181
REMARK SMILES CCCCCCCC(=O)[O-]
REMARK SMILES IDX 5 1 6 2 7 3 8 4 9 5 10 6 4 7 3 8 2 9 1 10
REMARK H PARENT
REMARK Flexibility Score: inf
ROOT
ATOM      1  C   UNL     1      58.854  28.913  50.038  1.00  0.00     0.000 C 
ENDROOT
BRANCH   1   2
ATOM      2  C   UNL     1      59.166  27.695  50.920  1.00  0.00     0.006 C 
BRANCH   2   3
ATOM      3  C   UNL     1      59.312  26.407  50.100  1.00  0.00     0.053 C 
BRANCH   3   4
ATOM      4  C   UNL     1      58.820  25.208  50.854  1.00  0.00     0.041 C 
ATOM      5  O   UNL     1      57.649  25.188  51.314  1.00  0.00    -0.550 OA
ATOM      6  O   UNL     1      59.666  24.129  51.074  1.00  0.00    -0.550 OA
ENDBRANCH   3   4
ENDBRANCH   2   3
ENDBRANCH   1   2
BRANCH   1   7
ATOM      7  C   UNL     1      57.598  29.644  50.535  1.00  0.00     0.000 C 
BRANCH   7   8
ATOM      8  C   UNL     1      56.675  28.747  51.380  1.00  0.00    -0.000 C 
BRANCH   8   9
ATOM      9  C   UNL     1      55.234  28.624  50.854  1.00  0.00    -0.003 C 
ATOM     10  C   UNL     1      54.891  27.214  50.375  1.00  0.00     0.004 C 
ENDBRANCH   8   9
ENDBRANCH   7   8
ENDBRANCH   1   7
TORSDOF 6
ENDMDL
MODEL 7
REMARK VINA RESULT:    -3.154      1.317      1.674
REMARK INTER + INTRA:          -4.441
REMARK INTER:                  -4.003
REMARK INTRA:                  -0.437
REMARK UNBOUND:                -0.181
REMARK SMILES CCCCCCCC(=O)[O-]
REMARK SMILES IDX 5 1 6 2 7 3 8 4 9 5 10 6 4 7 3 8 2 9 1 10
REMARK H PARENT
REMARK Flexibility Score: inf
ROOT
ATOM      1  C   UNL     1      55.171  28.868  51.590  1.00  0.00     0.000 C 
ENDROOT
BRANCH   1   2
ATOM      2  C   UNL     1      56.526  29.122  50.912  1.00  0.00     0.006 C 
BRANCH   2   3
ATOM      3  C   UNL     1      57.363  27.843  50.792  1.00  0.00     0.053 C 
BRANCH   3   4
ATOM      4  C   UNL     1      58.704  28.111  50.178  1.00  0.00     0.041 C 
ATOM      5  O   UNL     1      59.581  27.208  50.157  1.00  0.00    -0.550 OA
ATOM      6  O   UNL     1      58.995  29.366  49.660  1.00  0.00    -0.550 OA
ENDBRANCH   3   4
ENDBRANCH   2   3
ENDBRANCH   1   2
BRANCH   1   7
ATOM      7  C   UNL     1      54.011  29.168  50.630  1.00  0.00     0.000 C 
BRANCH   7   8
ATOM      8  C   UNL     1      53.395  27.898  50.016  1.00  0.00    -0.000 C 
BRANCH   8   9
ATOM      9  C   UNL     1      53.830  26.581  50.682  1.00  0.00    -0.003 C 
ATOM     10  C   UNL     1      54.401  25.569  49.689  1.00  0.00     0.004 C 
ENDBRANCH   8   9
ENDBRANCH   7   8
ENDBRANCH   1   7
TORSDOF 6
ENDMDL
MODEL 8
REMARK VINA RESULT:    -3.133      2.595      4.471
REMARK INTER + INTRA:          -4.413
REMARK INTER:                  -3.912
REMARK INTRA:                  -0.501
REMARK UNBOUND:                -0.181
REMARK SMILES CCCCCCCC(=O)[O-]
REMARK SMILES IDX 5 1 6 2 7 3 8 4 9 5 10 6 4 7 3 8 2 9 1 10
REMARK H PARENT
REMARK Flexibility Score: inf
ROOT
ATOM      1  C   UNL     1      58.394  29.350  50.910  1.00  0.00     0.000 C 
ENDROOT
BRANCH   1   2
ATOM      2  C   UNL     1      56.861  29.449  50.888  1.00  0.00     0.006 C 
BRANCH   2   3
ATOM      3  C   UNL     1      56.192  28.211  51.499  1.00  0.00     0.053 C 
BRANCH   3   4
ATOM      4  C   UNL     1      55.232  27.568  50.544  1.00  0.00     0.041 C 
ATOM      5  O   UNL     1      54.198  28.184  50.176  1.00  0.00    -0.550 OA
ATOM      6  O   UNL     1      55.466  26.278  50.087  1.00  0.00    -0.550 OA
ENDBRANCH   3   4
ENDBRANCH   2   3
ENDBRANCH   1   2
BRANCH   1   7
ATOM      7  C   UNL     1      58.920  28.686  49.628  1.00  0.00     0.000 C 
BRANCH   7   8
ATOM      8  C   UNL     1      59.962  27.587  49.904  1.00  0.00    -0.000 C 
BRANCH   8   9
ATOM      9  C   UNL     1      59.613  26.643  51.069  1.00  0.00    -0.003 C 
ATOM     10  C   UNL     1      58.804  25.423  50.628  1.00  0.00     0.004 C 
ENDBRANCH   8   9
ENDBRANCH   7   8
ENDBRANCH   1   7
TORSDOF 6
ENDMDL
MODEL 9
REMARK VINA RESULT:    -3.079      1.699      2.401
REMARK INTER + INTRA:          -4.339
REMARK INTER:                  -4.034
REMARK INTRA:                  -0.305
REMARK UNBOUND:                -0.181
REMARK SMILES CCCCCCCC(=O)[O-]
REMARK SMILES IDX 5 1 6 2 7 3 8 4 9 5 10 6 4 7 3 8 2 9 1 10
REMARK H PARENT
REMARK Flexibility Score: inf
ROOT
ATOM      1  C   UNL     1      58.031  26.174  51.202  1.00  0.00     0.000 C 
ENDROOT
BRANCH   1   2
ATOM      2  C   UNL     1      59.024  26.110  50.032  1.00  0.00     0.006 C 
BRANCH   2   3
ATOM      3  C   UNL     1      60.092  27.207  50.116  1.00  0.00     0.053 C 
BRANCH   3   4
ATOM      4  C   UNL     1      59.484  28.563  50.308  1.00  0.00     0.041 C 
ATOM      5  O   UNL     1      58.858  29.114  49.366  1.00  0.00    -0.550 OA
ATOM      6  O   UNL     1      59.638  29.231  51.517  1.00  0.00    -0.550 OA
ENDBRANCH   3   4
ENDBRANCH   2   3
ENDBRANCH   1   2
BRANCH   1   7
ATOM      7  C   UNL     1      56.582  26.089  50.699  1.00  0.00     0.000 C 
BRANCH   7   8
ATOM      8  C   UNL     1      55.869  27.453  50.688  1.00  0.00    -0.000 C 
BRANCH   8   9
ATOM      9  C   UNL     1      54.387  27.405  50.273  1.00  0.00    -0.003 C 
ATOM     10  C   UNL     1      53.683  28.755  50.414  1.00  0.00     0.004 C 
ENDBRANCH   8   9
ENDBRANCH   7   8
ENDBRANCH   1   7
TORSDOF 6
ENDMDL
