MODEL 1
REMARK VINA RESULT:    -0.988      0.000      0.000
REMARK INTER + INTRA:          -1.776
REMARK INTER:                  -1.508
REMARK INTRA:                  -0.268
REMARK UNBOUND:                -0.268
REMARK SMILES CCCCCCCCCCC(=O)[O-]
REMARK SMILES IDX 7 1 8 2 9 3 10 4 11 5 12 6 13 7 6 8 5 9 4 10 3 11 2 12 1 13
REMARK H PARENT
REMARK Flexibility Score: inf
ROOT
ATOM      1  C   UNL     1     -14.333   6.921 -14.716  1.00  0.00     0.000 C 
ENDROOT
BRANCH   1   2
ATOM      2  C   UNL     1     -15.640   7.031 -13.916  1.00  0.00     0.000 C 
BRANCH   2   3
ATOM      3  C   UNL     1     -16.568   5.825 -14.128  1.00  0.00     0.006 C 
BRANCH   3   4
ATOM      4  C   UNL     1     -18.039   6.245 -14.046  1.00  0.00     0.053 C 
BRANCH   4   5
ATOM      5  C   UNL     1     -18.903   5.275 -14.787  1.00  0.00     0.041 C 
ATOM      6  O   UNL     1     -19.122   4.130 -14.311  1.00  0.00    -0.550 OA
ATOM      7  O   UNL     1     -19.427   5.616 -16.028  1.00  0.00    -0.550 OA
ENDBRANCH   4   5
ENDBRANCH   3   4
ENDBRANCH   2   3
ENDBRANCH   1   2
BRANCH   1   8
ATOM      8  C   UNL     1     -13.168   6.377 -13.875  1.00  0.00     0.000 C 
BRANCH   8   9
ATOM      9  C   UNL     1     -11.866   7.122 -14.193  1.00  0.00    -0.000 C 
BRANCH   9  10
ATOM     10  C   UNL     1     -10.975   6.296 -15.134  1.00  0.00    -0.000 C 
BRANCH  10  11
ATOM     11  C   UNL     1      -9.527   6.805 -15.177  1.00  0.00    -0.000 C 
BRANCH  11  12
ATOM     12  C   UNL     1      -9.041   7.085 -16.607  1.00  0.00    -0.003 C 
ATOM     13  C   UNL     1     -10.168   6.897 -17.618  1.00  0.00     0.004 C 
ENDBRANCH  11  12
ENDBRANCH  10  11
ENDBRANCH   9  10
ENDBRANCH   8   9
ENDBRANCH   1   8
TORSDOF 9
ENDMDL
MODEL 2
REMARK VINA RESULT:     0.290      4.634      6.673
REMARK INTER + INTRA:           0.175
REMARK INTER:                  -0.533
REMARK INTRA:                   0.708
REMARK UNBOUND:                -0.268
REMARK SMILES CCCCCCCCCCC(=O)[O-]
REMARK SMILES IDX 7 1 8 2 9 3 10 4 11 5 12 6 13 7 6 8 5 9 4 10 3 11 2 12 1 13
REMARK H PARENT
REMARK Flexibility Score: inf
ROOT
ATOM      1  C   UNL     1     -17.533   6.089 -16.428  1.00  0.00     0.000 C 
ENDROOT
BRANCH   1   2
ATOM      2  C   UNL     1     -17.058   6.863 -15.189  1.00  0.00     0.000 C 
BRANCH   2   3
ATOM      3  C   UNL     1     -17.543   6.232 -13.875  1.00  0.00     0.006 C 
BRANCH   3   4
ATOM      4  C   UNL     1     -17.445   4.704 -13.932  1.00  0.00     0.053 C 
BRANCH   4   5
ATOM      5  C   UNL     1     -18.807   4.095 -14.035  1.00  0.00     0.041 C 
ATOM      6  O   UNL     1     -19.834   4.808 -13.881  1.00  0.00    -0.550 OA
ATOM      7  O   UNL     1     -18.944   2.729 -14.250  1.00  0.00    -0.550 OA
ENDBRANCH   4   5
ENDBRANCH   3   4
ENDBRANCH   2   3
ENDBRANCH   1   2
BRANCH   1   8
ATOM      8  C   UNL     1     -17.403   6.906 -17.723  1.00  0.00     0.000 C 
BRANCH   8   9
ATOM      9  C   UNL     1     -18.695   6.842 -18.547  1.00  0.00    -0.000 C 
BRANCH   9  10
ATOM     10  C   UNL     1     -19.923   6.701 -17.634  1.00  0.00    -0.000 C 
BRANCH  10  11
ATOM     11  C   UNL     1     -20.025   5.311 -16.988  1.00  0.00    -0.000 C 
BRANCH  11  12
ATOM     12  C   UNL     1     -19.788   4.174 -17.993  1.00  0.00    -0.003 C 
ATOM     13  C   UNL     1     -20.125   2.818 -17.378  1.00  0.00     0.004 C 
ENDBRANCH  11  12
ENDBRANCH  10  11
ENDBRANCH   9  10
ENDBRANCH   8   9
ENDBRANCH   1   8
TORSDOF 9
ENDMDL
