MODEL 1
REMARK VINA RESULT:    -4.742      0.000      0.000
REMARK INTER + INTRA:          -6.434
REMARK INTER:                  -5.989
REMARK INTRA:                  -0.445
REMARK UNBOUND:                -0.445
REMARK SMILES CC(C)=CCCC(C)=CCO
REMARK SMILES IDX 7 1 9 2 8 3 6 4 5 5 4 6 1 7 2 8 3 9 10 10 11 11
REMARK H PARENT 11 12
REMARK Flexibility Score: inf
ROOT
ATOM      1  C   UNL     1       7.488  -2.437  20.434  1.00  0.00    -0.075 C 
ATOM      2  C   UNL     1       7.042  -3.337  19.529  1.00  0.00    -0.000 C 
ATOM      3  C   UNL     1       7.248  -2.713  21.895  1.00  0.00     0.039 C 
ENDROOT
BRANCH   1   4
ATOM      4  C   UNL     1       8.178  -1.142  20.046  1.00  0.00     0.034 C 
BRANCH   4   5
ATOM      5  C   UNL     1       8.960  -0.564  21.230  1.00  0.00     0.032 C 
BRANCH   5   6
ATOM      6  C   UNL     1       8.612   0.887  21.451  1.00  0.00    -0.028 C 
ATOM      7  C   UNL     1       7.274   0.430  23.520  1.00  0.00     0.039 C 
ATOM      8  C   UNL     1       7.844   1.347  22.464  1.00  0.00    -0.080 C 
ATOM      9  C   UNL     1       7.570   2.827  22.541  1.00  0.00     0.039 C 
ENDBRANCH   5   6
ENDBRANCH   4   5
ENDBRANCH   1   4
BRANCH   2  10
ATOM     10  C   UNL     1       7.200  -3.206  18.039  1.00  0.00     0.183 C 
BRANCH  10  11
ATOM     11  O   UNL     1       5.997  -2.776  17.467  1.00  0.00    -0.392 OA
ATOM     12  H   UNL     1       5.385  -3.556  17.492  1.00  0.00     0.210 HD
ENDBRANCH  10  11
ENDBRANCH   2  10
TORSDOF 5
ENDMDL
MODEL 2
REMARK VINA RESULT:    -4.576      3.442      4.522
REMARK INTER + INTRA:          -6.225
REMARK INTER:                  -5.986
REMARK INTRA:                  -0.239
REMARK UNBOUND:                -0.445
REMARK SMILES CC(C)=CCCC(C)=CCO
REMARK SMILES IDX 7 1 9 2 8 3 6 4 5 5 4 6 1 7 2 8 3 9 10 10 11 11
REMARK H PARENT 11 12
REMARK Flexibility Score: inf
ROOT
ATOM      1  C   UNL     1       7.300  -2.085  19.015  1.00  0.00    -0.075 C 
ATOM      2  C   UNL     1       7.061  -2.880  20.083  1.00  0.00    -0.000 C 
ATOM      3  C   UNL     1       6.895  -2.579  17.651  1.00  0.00     0.039 C 
ENDROOT
BRANCH   1   4
ATOM      4  C   UNL     1       7.996  -0.741  19.121  1.00  0.00     0.034 C 
BRANCH   4   5
ATOM      5  C   UNL     1       8.254  -0.149  17.732  1.00  0.00     0.032 C 
BRANCH   5   6
ATOM      6  C   UNL     1       7.299   0.981  17.439  1.00  0.00    -0.028 C 
ATOM      7  C   UNL     1       8.887   2.156  15.898  1.00  0.00     0.039 C 
ATOM      8  C   UNL     1       7.573   2.030  16.631  1.00  0.00    -0.080 C 
ATOM      9  C   UNL     1       6.518   3.092  16.452  1.00  0.00     0.039 C 
ENDBRANCH   5   6
ENDBRANCH   4   5
ENDBRANCH   1   4
BRANCH   2  10
ATOM     10  C   UNL     1       7.407  -2.534  21.505  1.00  0.00     0.183 C 
BRANCH  10  11
ATOM     11  O   UNL     1       6.243  -2.464  22.278  1.00  0.00    -0.392 OA
ATOM     12  H   UNL     1       5.498  -2.727  21.678  1.00  0.00     0.210 HD
ENDBRANCH  10  11
ENDBRANCH   2  10
TORSDOF 5
ENDMDL
MODEL 3
REMARK VINA RESULT:    -4.570      4.064      4.734
REMARK INTER + INTRA:          -6.217
REMARK INTER:                  -5.997
REMARK INTRA:                  -0.220
REMARK UNBOUND:                -0.445
REMARK SMILES CC(C)=CCCC(C)=CCO
REMARK SMILES IDX 7 1 9 2 8 3 6 4 5 5 4 6 1 7 2 8 3 9 10 10 11 11
REMARK H PARENT 11 12
REMARK Flexibility Score: inf
ROOT
ATOM      1  C   UNL     1       8.135  -0.685  18.961  1.00  0.00    -0.075 C 
ATOM      2  C   UNL     1       7.452  -1.851  18.915  1.00  0.00    -0.000 C 
ATOM      3  C   UNL     1       8.616  -0.191  20.301  1.00  0.00     0.039 C 
ENDROOT
BRANCH   1   4
ATOM      4  C   UNL     1       8.404   0.169  17.736  1.00  0.00     0.034 C 
BRANCH   4   5
ATOM      5  C   UNL     1       7.297   1.211  17.542  1.00  0.00     0.032 C 
BRANCH   5   6
ATOM      6  C   UNL     1       7.632   2.153  16.414  1.00  0.00    -0.028 C 
ATOM      7  C   UNL     1       5.367   3.224  16.403  1.00  0.00     0.039 C 
ATOM      8  C   UNL     1       6.774   3.051  15.881  1.00  0.00    -0.080 C 
ATOM      9  C   UNL     1       7.253   3.913  14.741  1.00  0.00     0.039 C 
ENDBRANCH   5   6
ENDBRANCH   4   5
ENDBRANCH   1   4
BRANCH   2  10
ATOM     10  C   UNL     1       6.904  -2.475  17.661  1.00  0.00     0.183 C 
BRANCH  10  11
ATOM     11  O   UNL     1       5.683  -3.102  17.932  1.00  0.00    -0.392 OA
ATOM     12  H   UNL     1       5.358  -2.716  18.785  1.00  0.00     0.210 HD
ENDBRANCH  10  11
ENDBRANCH   2  10
TORSDOF 5
ENDMDL
MODEL 4
REMARK VINA RESULT:    -4.506      1.389      2.523
REMARK INTER + INTRA:          -6.136
REMARK INTER:                  -5.759
REMARK INTRA:                  -0.377
REMARK UNBOUND:                -0.445
REMARK SMILES CC(C)=CCCC(C)=CCO
REMARK SMILES IDX 7 1 9 2 8 3 6 4 5 5 4 6 1 7 2 8 3 9 10 10 11 11
REMARK H PARENT 11 12
REMARK Flexibility Score: inf
ROOT
ATOM      1  C   UNL     1       7.959  -1.547  19.912  1.00  0.00    -0.075 C 
ATOM      2  C   UNL     1       7.703  -1.403  18.592  1.00  0.00    -0.000 C 
ATOM      3  C   UNL     1       8.879  -0.554  20.574  1.00  0.00     0.039 C 
ENDROOT
BRANCH   1   4
ATOM      4  C   UNL     1       7.399  -2.683  20.747  1.00  0.00     0.034 C 
BRANCH   4   5
ATOM      5  C   UNL     1       7.366  -2.305  22.232  1.00  0.00     0.032 C 
BRANCH   5   6
ATOM      6  C   UNL     1       6.047  -1.672  22.599  1.00  0.00    -0.028 C 
ATOM      7  C   UNL     1       7.109   0.290  23.740  1.00  0.00     0.039 C 
ATOM      8  C   UNL     1       5.914  -0.516  23.288  1.00  0.00    -0.080 C 
ATOM      9  C   UNL     1       4.525  -0.019  23.595  1.00  0.00     0.039 C 
ENDBRANCH   5   6
ENDBRANCH   4   5
ENDBRANCH   1   4
BRANCH   2  10
ATOM     10  C   UNL     1       6.812  -2.310  17.788  1.00  0.00     0.183 C 
BRANCH  10  11
ATOM     11  O   UNL     1       7.407  -3.568  17.652  1.00  0.00    -0.392 OA
ATOM     12  H   UNL     1       6.730  -4.228  17.952  1.00  0.00     0.210 HD
ENDBRANCH  10  11
ENDBRANCH   2  10
TORSDOF 5
ENDMDL
MODEL 5
REMARK VINA RESULT:    -4.503      1.333      2.147
REMARK INTER + INTRA:          -6.132
REMARK INTER:                  -5.811
REMARK INTRA:                  -0.321
REMARK UNBOUND:                -0.445
REMARK SMILES CC(C)=CCCC(C)=CCO
REMARK SMILES IDX 7 1 9 2 8 3 6 4 5 5 4 6 1 7 2 8 3 9 10 10 11 11
REMARK H PARENT 11 12
REMARK Flexibility Score: inf
ROOT
ATOM      1  C   UNL     1       7.988  -1.227  19.055  1.00  0.00    -0.075 C 
ATOM      2  C   UNL     1       7.138  -2.186  18.622  1.00  0.00    -0.000 C 
ATOM      3  C   UNL     1       8.111   0.038  18.246  1.00  0.00     0.039 C 
ENDROOT
BRANCH   1   4
ATOM      4  C   UNL     1       8.853  -1.382  20.292  1.00  0.00     0.034 C 
BRANCH   4   5
ATOM      5  C   UNL     1       8.805  -0.116  21.155  1.00  0.00     0.032 C 
BRANCH   5   6
ATOM      6  C   UNL     1       7.700  -0.202  22.177  1.00  0.00    -0.028 C 
ATOM      7  C   UNL     1       8.148   2.082  23.106  1.00  0.00     0.039 C 
ATOM      8  C   UNL     1       7.402   0.769  23.070  1.00  0.00    -0.080 C 
ATOM      9  C   UNL     1       6.277   0.528  24.043  1.00  0.00     0.039 C 
ENDBRANCH   5   6
ENDBRANCH   4   5
ENDBRANCH   1   4
BRANCH   2  10
ATOM     10  C   UNL     1       6.905  -3.502  19.313  1.00  0.00     0.183 C 
BRANCH  10  11
ATOM     11  O   UNL     1       5.562  -3.874  19.192  1.00  0.00    -0.392 OA
ATOM     12  H   UNL     1       5.546  -4.654  18.580  1.00  0.00     0.210 HD
ENDBRANCH  10  11
ENDBRANCH   2  10
TORSDOF 5
ENDMDL
MODEL 6
REMARK VINA RESULT:    -4.474      4.391      5.242
REMARK INTER + INTRA:          -6.097
REMARK INTER:                  -5.839
REMARK INTRA:                  -0.258
REMARK UNBOUND:                -0.445
REMARK SMILES CC(C)=CCCC(C)=CCO
REMARK SMILES IDX 7 1 9 2 8 3 6 4 5 5 4 6 1 7 2 8 3 9 10 10 11 11
REMARK H PARENT 11 12
REMARK Flexibility Score: inf
ROOT
ATOM      1  C   UNL     1       7.799  -1.135  18.378  1.00  0.00    -0.075 C 
ATOM      2  C   UNL     1       8.187  -1.447  19.635  1.00  0.00    -0.000 C 
ATOM      3  C   UNL     1       6.843  -2.063  17.674  1.00  0.00     0.039 C 
ENDROOT
BRANCH   1   4
ATOM      4  C   UNL     1       8.314   0.080  17.627  1.00  0.00     0.034 C 
BRANCH   4   5
ATOM      5  C   UNL     1       7.218   1.143  17.494  1.00  0.00     0.032 C 
BRANCH   5   6
ATOM      6  C   UNL     1       7.541   2.116  16.387  1.00  0.00    -0.028 C 
ATOM      7  C   UNL     1       5.293   3.219  16.465  1.00  0.00     0.039 C 
ATOM      8  C   UNL     1       6.684   3.042  15.904  1.00  0.00    -0.080 C 
ATOM      9  C   UNL     1       7.150   3.933  14.780  1.00  0.00     0.039 C 
ENDBRANCH   5   6
ENDBRANCH   4   5
ENDBRANCH   1   4
BRANCH   2  10
ATOM     10  C   UNL     1       9.136  -0.629  20.468  1.00  0.00     0.183 C 
BRANCH  10  11
ATOM     11  O   UNL     1      10.437  -1.129  20.342  1.00  0.00    -0.392 OA
ATOM     12  H   UNL     1      10.899  -0.914  21.192  1.00  0.00     0.210 HD
ENDBRANCH  10  11
ENDBRANCH   2  10
TORSDOF 5
ENDMDL
MODEL 7
REMARK VINA RESULT:    -4.432      4.095      5.855
REMARK INTER + INTRA:          -6.043
REMARK INTER:                  -5.732
REMARK INTRA:                  -0.310
REMARK UNBOUND:                -0.445
REMARK SMILES CC(C)=CCCC(C)=CCO
REMARK SMILES IDX 7 1 9 2 8 3 6 4 5 5 4 6 1 7 2 8 3 9 10 10 11 11
REMARK H PARENT 11 12
REMARK Flexibility Score: inf
ROOT
ATOM      1  C   UNL     1       7.177   2.330  16.732  1.00  0.00    -0.075 C 
ATOM      2  C   UNL     1       6.185   3.216  16.487  1.00  0.00    -0.000 C 
ATOM      3  C   UNL     1       8.349   2.288  15.787  1.00  0.00     0.039 C 
ENDROOT
BRANCH   1   4
ATOM      4  C   UNL     1       7.144   1.347  17.889  1.00  0.00     0.034 C 
BRANCH   4   5
ATOM      5  C   UNL     1       8.232   0.279  17.729  1.00  0.00     0.032 C 
BRANCH   5   6
ATOM      6  C   UNL     1       8.188  -0.711  18.865  1.00  0.00    -0.028 C 
ATOM      7  C   UNL     1       6.796  -2.365  17.598  1.00  0.00     0.039 C 
ATOM      8  C   UNL     1       7.535  -1.895  18.828  1.00  0.00    -0.080 C 
ATOM      9  C   UNL     1       7.569  -2.771  20.054  1.00  0.00     0.039 C 
ENDBRANCH   5   6
ENDBRANCH   4   5
ENDBRANCH   1   4
BRANCH   2  10
ATOM     10  C   UNL     1       4.951   3.378  17.331  1.00  0.00     0.183 C 
BRANCH  10  11
ATOM     11  O   UNL     1       3.859   2.770  16.703  1.00  0.00    -0.392 OA
ATOM     12  H   UNL     1       4.213   1.958  16.257  1.00  0.00     0.210 HD
ENDBRANCH  10  11
ENDBRANCH   2  10
TORSDOF 5
ENDMDL
MODEL 8
REMARK VINA RESULT:    -4.346      2.042      2.420
REMARK INTER + INTRA:          -5.935
REMARK INTER:                  -5.663
REMARK INTRA:                  -0.272
REMARK UNBOUND:                -0.445
REMARK SMILES CC(C)=CCCC(C)=CCO
REMARK SMILES IDX 7 1 9 2 8 3 6 4 5 5 4 6 1 7 2 8 3 9 10 10 11 11
REMARK H PARENT 11 12
REMARK Flexibility Score: inf
ROOT
ATOM      1  C   UNL     1       7.932  -1.233  18.967  1.00  0.00    -0.075 C 
ATOM      2  C   UNL     1       7.622  -0.680  17.772  1.00  0.00    -0.000 C 
ATOM      3  C   UNL     1       7.293  -2.548  19.333  1.00  0.00     0.039 C 
ENDROOT
BRANCH   1   4
ATOM      4  C   UNL     1       8.858  -0.573  19.972  1.00  0.00     0.034 C 
BRANCH   4   5
ATOM      5  C   UNL     1       8.288  -0.680  21.391  1.00  0.00     0.032 C 
BRANCH   5   6
ATOM      6  C   UNL     1       8.530   0.591  22.166  1.00  0.00    -0.028 C 
ATOM      7  C   UNL     1       6.543   0.264  23.657  1.00  0.00     0.039 C 
ATOM      8  C   UNL     1       7.748   1.036  23.175  1.00  0.00    -0.080 C 
ATOM      9  C   UNL     1       8.112   2.337  23.844  1.00  0.00     0.039 C 
ENDBRANCH   5   6
ENDBRANCH   4   5
ENDBRANCH   1   4
BRANCH   2  10
ATOM     10  C   UNL     1       8.171   0.624  17.263  1.00  0.00     0.183 C 
BRANCH  10  11
ATOM     11  O   UNL     1       9.322   0.394  16.501  1.00  0.00    -0.392 OA
ATOM     12  H   UNL     1      10.022   0.992  16.871  1.00  0.00     0.210 HD
ENDBRANCH  10  11
ENDBRANCH   2  10
TORSDOF 5
ENDMDL
MODEL 9
REMARK VINA RESULT:    -4.231     10.725     11.320
REMARK INTER + INTRA:          -5.789
REMARK INTER:                  -5.494
REMARK INTRA:                  -0.295
REMARK UNBOUND:                -0.445
REMARK SMILES CC(C)=CCCC(C)=CCO
REMARK SMILES IDX 7 1 9 2 8 3 6 4 5 5 4 6 1 7 2 8 3 9 10 10 11 11
REMARK H PARENT 11 12
REMARK Flexibility Score: inf
ROOT
ATOM      1  C   UNL     1      16.479   6.073  22.763  1.00  0.00    -0.075 C 
ATOM      2  C   UNL     1      17.316   5.528  21.851  1.00  0.00    -0.000 C 
ATOM      3  C   UNL     1      17.028   6.411  24.125  1.00  0.00     0.039 C 
ENDROOT
BRANCH   1   4
ATOM      4  C   UNL     1      15.006   6.320  22.495  1.00  0.00     0.034 C 
BRANCH   4   5
ATOM      5  C   UNL     1      14.658   7.801  22.680  1.00  0.00     0.032 C 
BRANCH   5   6
ATOM      6  C   UNL     1      13.929   8.340  21.474  1.00  0.00    -0.028 C 
ATOM      7  C   UNL     1      11.751   8.591  22.688  1.00  0.00     0.039 C 
ATOM      8  C   UNL     1      12.622   8.684  21.457  1.00  0.00    -0.080 C 
ATOM      9  C   UNL     1      12.031   9.191  20.167  1.00  0.00     0.039 C 
ENDBRANCH   5   6
ENDBRANCH   4   5
ENDBRANCH   1   4
BRANCH   2  10
ATOM     10  C   UNL     1      16.922   5.133  20.454  1.00  0.00     0.183 C 
BRANCH  10  11
ATOM     11  O   UNL     1      17.347   3.826  20.189  1.00  0.00    -0.392 OA
ATOM     12  H   UNL     1      16.793   3.235  20.760  1.00  0.00     0.210 HD
ENDBRANCH  10  11
ENDBRANCH   2  10
TORSDOF 5
ENDMDL
