MODEL 1
REMARK VINA RESULT:    -4.247      0.000      0.000
REMARK INTER + INTRA:          -5.775
REMARK INTER:                  -5.489
REMARK INTRA:                  -0.286
REMARK UNBOUND:                -0.286
REMARK SMILES CCCCCCC(=O)[O-]
REMARK SMILES IDX 5 1 6 2 7 3 8 4 9 5 4 6 3 7 2 8 1 9
REMARK H PARENT
REMARK Flexibility Score: inf
ROOT
ATOM      1  C   UNL     1      12.404 -23.406  21.424  1.00  0.00     0.006 C 
ENDROOT
BRANCH   1   2
ATOM      2  C   UNL     1      12.280 -22.340  22.517  1.00  0.00     0.053 C 
BRANCH   2   3
ATOM      3  C   UNL     1      13.488 -22.351  23.400  1.00  0.00     0.041 C 
ATOM      4  O   UNL     1      13.886 -23.428  23.915  1.00  0.00    -0.550 OA
ATOM      5  O   UNL     1      14.144 -21.162  23.694  1.00  0.00    -0.550 OA
ENDBRANCH   2   3
ENDBRANCH   1   2
BRANCH   1   6
ATOM      6  C   UNL     1      12.998 -22.815  20.142  1.00  0.00     0.000 C 
BRANCH   6   7
ATOM      7  C   UNL     1      14.427 -23.322  19.910  1.00  0.00    -0.000 C 
BRANCH   7   8
ATOM      8  C   UNL     1      14.564 -24.791  20.326  1.00  0.00    -0.003 C 
ATOM      9  C   UNL     1      15.250 -25.610  19.238  1.00  0.00     0.004 C 
ENDBRANCH   7   8
ENDBRANCH   6   7
ENDBRANCH   1   6
TORSDOF 5
ENDMDL
MODEL 2
REMARK VINA RESULT:    -4.191      3.099      3.767
REMARK INTER + INTRA:          -5.702
REMARK INTER:                  -5.553
REMARK INTRA:                  -0.149
REMARK UNBOUND:                -0.286
REMARK SMILES CCCCCCC(=O)[O-]
REMARK SMILES IDX 5 1 6 2 7 3 8 4 9 5 4 6 3 7 2 8 1 9
REMARK H PARENT
REMARK Flexibility Score: inf
ROOT
ATOM      1  C   UNL     1      10.439 -25.128  21.784  1.00  0.00     0.006 C 
ENDROOT
BRANCH   1   2
ATOM      2  C   UNL     1      10.473 -24.049  22.871  1.00  0.00     0.053 C 
BRANCH   2   3
ATOM      3  C   UNL     1       9.314 -24.206  23.803  1.00  0.00     0.041 C 
ATOM      4  O   UNL     1       8.168 -23.809  23.461  1.00  0.00    -0.550 OA
ATOM      5  O   UNL     1       9.506 -24.743  25.069  1.00  0.00    -0.550 OA
ENDBRANCH   2   3
ENDBRANCH   1   2
BRANCH   1   6
ATOM      6  C   UNL     1      11.500 -24.863  20.711  1.00  0.00     0.000 C 
BRANCH   6   7
ATOM      7  C   UNL     1      12.633 -23.987  21.259  1.00  0.00    -0.000 C 
BRANCH   7   8
ATOM      8  C   UNL     1      13.159 -23.031  20.183  1.00  0.00    -0.003 C 
ATOM      9  C   UNL     1      14.666 -23.184  19.999  1.00  0.00     0.004 C 
ENDBRANCH   7   8
ENDBRANCH   6   7
ENDBRANCH   1   6
TORSDOF 5
ENDMDL
MODEL 3
REMARK VINA RESULT:    -4.186      2.495      3.136
REMARK INTER + INTRA:          -5.696
REMARK INTER:                  -5.464
REMARK INTRA:                  -0.232
REMARK UNBOUND:                -0.286
REMARK SMILES CCCCCCC(=O)[O-]
REMARK SMILES IDX 5 1 6 2 7 3 8 4 9 5 4 6 3 7 2 8 1 9
REMARK H PARENT
REMARK Flexibility Score: inf
ROOT
ATOM      1  C   UNL     1      12.372 -23.885  21.549  1.00  0.00     0.006 C 
ENDROOT
BRANCH   1   2
ATOM      2  C   UNL     1      11.190 -24.803  21.227  1.00  0.00     0.053 C 
BRANCH   2   3
ATOM      3  C   UNL     1      10.152 -24.718  22.301  1.00  0.00     0.041 C 
ATOM      4  O   UNL     1      10.307 -23.929  23.270  1.00  0.00    -0.550 OA
ATOM      5  O   UNL     1       9.037 -25.546  22.258  1.00  0.00    -0.550 OA
ENDBRANCH   2   3
ENDBRANCH   1   2
BRANCH   1   6
ATOM      6  C   UNL     1      12.750 -23.027  20.336  1.00  0.00     0.000 C 
BRANCH   6   7
ATOM      7  C   UNL     1      14.223 -23.221  19.959  1.00  0.00    -0.000 C 
BRANCH   7   8
ATOM      8  C   UNL     1      14.788 -24.501  20.585  1.00  0.00    -0.003 C 
ATOM      9  C   UNL     1      14.975 -25.592  19.535  1.00  0.00     0.004 C 
ENDBRANCH   7   8
ENDBRANCH   6   7
ENDBRANCH   1   6
TORSDOF 5
ENDMDL
MODEL 4
REMARK VINA RESULT:    -4.088      1.870      3.892
REMARK INTER + INTRA:          -5.570
REMARK INTER:                  -5.169
REMARK INTRA:                  -0.400
REMARK UNBOUND:                -0.286
REMARK SMILES CCCCCCC(=O)[O-]
REMARK SMILES IDX 5 1 6 2 7 3 8 4 9 5 4 6 3 7 2 8 1 9
REMARK H PARENT
REMARK Flexibility Score: inf
ROOT
ATOM      1  C   UNL     1      12.774 -23.079  20.279  1.00  0.00     0.006 C 
ENDROOT
BRANCH   1   2
ATOM      2  C   UNL     1      14.305 -23.077  20.259  1.00  0.00     0.053 C 
BRANCH   2   3
ATOM      3  C   UNL     1      14.837 -24.424  20.634  1.00  0.00     0.041 C 
ATOM      4  O   UNL     1      14.679 -25.405  19.861  1.00  0.00    -0.550 OA
ATOM      5  O   UNL     1      15.463 -24.607  21.860  1.00  0.00    -0.550 OA
ENDBRANCH   2   3
ENDBRANCH   1   2
BRANCH   1   6
ATOM      6  C   UNL     1      12.241 -23.589  21.623  1.00  0.00     0.000 C 
BRANCH   6   7
ATOM      7  C   UNL     1      12.125 -22.447  22.639  1.00  0.00    -0.000 C 
BRANCH   7   8
ATOM      8  C   UNL     1      13.116 -22.634  23.793  1.00  0.00    -0.003 C 
ATOM      9  C   UNL     1      14.218 -21.579  23.750  1.00  0.00     0.004 C 
ENDBRANCH   7   8
ENDBRANCH   6   7
ENDBRANCH   1   6
TORSDOF 5
ENDMDL
MODEL 5
REMARK VINA RESULT:    -4.086      1.312      1.804
REMARK INTER + INTRA:          -5.567
REMARK INTER:                  -5.397
REMARK INTRA:                  -0.170
REMARK UNBOUND:                -0.286
REMARK SMILES CCCCCCC(=O)[O-]
REMARK SMILES IDX 5 1 6 2 7 3 8 4 9 5 4 6 3 7 2 8 1 9
REMARK H PARENT
REMARK Flexibility Score: inf
ROOT
ATOM      1  C   UNL     1      14.178 -22.385  22.492  1.00  0.00     0.006 C 
ENDROOT
BRANCH   1   2
ATOM      2  C   UNL     1      13.832 -21.612  23.768  1.00  0.00     0.053 C 
BRANCH   2   3
ATOM      3  C   UNL     1      12.751 -22.312  24.529  1.00  0.00     0.041 C 
ATOM      4  O   UNL     1      12.945 -23.470  24.984  1.00  0.00    -0.550 OA
ATOM      5  O   UNL     1      11.512 -21.705  24.694  1.00  0.00    -0.550 OA
ENDBRANCH   2   3
ENDBRANCH   1   2
BRANCH   1   6
ATOM      6  C   UNL     1      12.919 -22.685  21.671  1.00  0.00     0.000 C 
BRANCH   6   7
ATOM      7  C   UNL     1      13.262 -22.897  20.192  1.00  0.00    -0.000 C 
BRANCH   7   8
ATOM      8  C   UNL     1      14.722 -23.332  20.022  1.00  0.00    -0.003 C 
ATOM      9  C   UNL     1      14.831 -24.845  19.863  1.00  0.00     0.004 C 
ENDBRANCH   7   8
ENDBRANCH   6   7
ENDBRANCH   1   6
TORSDOF 5
ENDMDL
MODEL 6
REMARK VINA RESULT:    -4.078      1.886      3.544
REMARK INTER + INTRA:          -5.556
REMARK INTER:                  -5.178
REMARK INTRA:                  -0.379
REMARK UNBOUND:                -0.286
REMARK SMILES CCCCCCC(=O)[O-]
REMARK SMILES IDX 5 1 6 2 7 3 8 4 9 5 4 6 3 7 2 8 1 9
REMARK H PARENT
REMARK Flexibility Score: inf
ROOT
ATOM      1  C   UNL     1      14.590 -23.285  20.057  1.00  0.00     0.006 C 
ENDROOT
BRANCH   1   2
ATOM      2  C   UNL     1      14.775 -24.803  19.966  1.00  0.00     0.053 C 
BRANCH   2   3
ATOM      3  C   UNL     1      15.300 -25.345  21.257  1.00  0.00     0.041 C 
ATOM      4  O   UNL     1      15.583 -26.568  21.363  1.00  0.00    -0.550 OA
ATOM      5  O   UNL     1      15.430 -24.511  22.360  1.00  0.00    -0.550 OA
ENDBRANCH   2   3
ENDBRANCH   1   2
BRANCH   1   6
ATOM      6  C   UNL     1      13.104 -22.911  20.063  1.00  0.00     0.000 C 
BRANCH   6   7
ATOM      7  C   UNL     1      12.601 -22.671  21.492  1.00  0.00    -0.000 C 
BRANCH   7   8
ATOM      8  C   UNL     1      11.884 -23.910  22.039  1.00  0.00    -0.003 C 
ATOM      9  C   UNL     1      11.243 -24.717  20.915  1.00  0.00     0.004 C 
ENDBRANCH   7   8
ENDBRANCH   6   7
ENDBRANCH   1   6
TORSDOF 5
ENDMDL
MODEL 7
REMARK VINA RESULT:    -4.066      2.762      4.430
REMARK INTER + INTRA:          -5.540
REMARK INTER:                  -5.398
REMARK INTRA:                  -0.142
REMARK UNBOUND:                -0.286
REMARK SMILES CCCCCCC(=O)[O-]
REMARK SMILES IDX 5 1 6 2 7 3 8 4 9 5 4 6 3 7 2 8 1 9
REMARK H PARENT
REMARK Flexibility Score: inf
ROOT
ATOM      1  C   UNL     1      12.216 -24.364  20.680  1.00  0.00     0.006 C 
ENDROOT
BRANCH   1   2
ATOM      2  C   UNL     1      12.793 -23.011  20.252  1.00  0.00     0.053 C 
BRANCH   2   3
ATOM      3  C   UNL     1      14.266 -22.963  20.511  1.00  0.00     0.041 C 
ATOM      4  O   UNL     1      14.703 -22.510  21.602  1.00  0.00    -0.550 OA
ATOM      5  O   UNL     1      15.158 -23.373  19.529  1.00  0.00    -0.550 OA
ENDBRANCH   2   3
ENDBRANCH   1   2
BRANCH   1   6
ATOM      6  C   UNL     1      11.316 -24.215  21.912  1.00  0.00     0.000 C 
BRANCH   6   7
ATOM      7  C   UNL     1      10.153 -25.213  21.870  1.00  0.00    -0.000 C 
BRANCH   7   8
ATOM      8  C   UNL     1       8.951 -24.691  22.664  1.00  0.00    -0.003 C 
ATOM      9  C   UNL     1       9.391 -24.068  23.986  1.00  0.00     0.004 C 
ENDBRANCH   7   8
ENDBRANCH   6   7
ENDBRANCH   1   6
TORSDOF 5
ENDMDL
MODEL 8
REMARK VINA RESULT:    -3.906      1.763      2.819
REMARK INTER + INTRA:          -5.334
REMARK INTER:                  -5.117
REMARK INTRA:                  -0.217
REMARK UNBOUND:                -0.286
REMARK SMILES CCCCCCC(=O)[O-]
REMARK SMILES IDX 5 1 6 2 7 3 8 4 9 5 4 6 3 7 2 8 1 9
REMARK H PARENT
REMARK Flexibility Score: inf
ROOT
ATOM      1  C   UNL     1      14.099 -21.818  23.620  1.00  0.00     0.006 C 
ENDROOT
BRANCH   1   2
ATOM      2  C   UNL     1      13.883 -22.592  24.924  1.00  0.00     0.053 C 
BRANCH   2   3
ATOM      3  C   UNL     1      12.423 -22.795  25.178  1.00  0.00     0.041 C 
ATOM      4  O   UNL     1      11.589 -21.929  24.805  1.00  0.00    -0.550 OA
ATOM      5  O   UNL     1      11.988 -23.916  25.873  1.00  0.00    -0.550 OA
ENDBRANCH   2   3
ENDBRANCH   1   2
BRANCH   1   6
ATOM      6  C   UNL     1      14.218 -22.772  22.426  1.00  0.00     0.000 C 
BRANCH   6   7
ATOM      7  C   UNL     1      12.973 -22.701  21.535  1.00  0.00    -0.000 C 
BRANCH   7   8
ATOM      8  C   UNL     1      13.339 -22.895  20.060  1.00  0.00    -0.003 C 
ATOM      9  C   UNL     1      14.806 -23.285  19.903  1.00  0.00     0.004 C 
ENDBRANCH   7   8
ENDBRANCH   6   7
ENDBRANCH   1   6
TORSDOF 5
ENDMDL
MODEL 9
REMARK VINA RESULT:    -3.860      2.385      4.093
REMARK INTER + INTRA:          -5.274
REMARK INTER:                  -4.924
REMARK INTRA:                  -0.349
REMARK UNBOUND:                -0.286
REMARK SMILES CCCCCCC(=O)[O-]
REMARK SMILES IDX 5 1 6 2 7 3 8 4 9 5 4 6 3 7 2 8 1 9
REMARK H PARENT
REMARK Flexibility Score: inf
ROOT
ATOM      1  C   UNL     1      14.565 -22.993  20.621  1.00  0.00     0.006 C 
ENDROOT
BRANCH   1   2
ATOM      2  C   UNL     1      13.063 -23.017  20.319  1.00  0.00     0.053 C 
BRANCH   2   3
ATOM      3  C   UNL     1      12.452 -24.294  20.801  1.00  0.00     0.041 C 
ATOM      4  O   UNL     1      12.845 -25.398  20.339  1.00  0.00    -0.550 OA
ATOM      5  O   UNL     1      11.414 -24.264  21.722  1.00  0.00    -0.550 OA
ENDBRANCH   2   3
ENDBRANCH   1   2
BRANCH   1   6
ATOM      6  C   UNL     1      14.827 -23.122  22.126  1.00  0.00     0.000 C 
BRANCH   6   7
ATOM      7  C   UNL     1      14.140 -21.993  22.904  1.00  0.00    -0.000 C 
BRANCH   7   8
ATOM      8  C   UNL     1      13.455 -22.532  24.165  1.00  0.00    -0.003 C 
ATOM      9  C   UNL     1      12.070 -21.918  24.345  1.00  0.00     0.004 C 
ENDBRANCH   7   8
ENDBRANCH   6   7
ENDBRANCH   1   6
TORSDOF 5
ENDMDL
