MODEL 1
REMARK VINA RESULT:    -4.309      0.000      0.000
REMARK INTER + INTRA:          -7.716
REMARK INTER:                  -6.324
REMARK INTRA:                  -1.393
REMARK UNBOUND:                -1.393
REMARK SMILES CCCOC(=O)c1ccccc1C(=O)OCCC
REMARK SMILES IDX 7 1 8 2 9 3 10 4 11 5 12 6 5 7 6 8 4 9 3 10 2 11 1 12 13 13
REMARK SMILES IDX 14 14 15 15 16 16 17 17 18 18
REMARK H PARENT
REMARK Flexibility Score: inf
ROOT
ATOM      1  C   UNL     1      -0.741  -9.808 -41.261  1.00  0.00     0.074 A 
ATOM      2  C   UNL     1      -1.301  -9.601 -42.536  1.00  0.00     0.016 A 
ATOM      3  C   UNL     1      -2.409  -8.768 -42.702  1.00  0.00     0.001 A 
ATOM      4  C   UNL     1      -2.974  -8.130 -41.600  1.00  0.00     0.001 A 
ATOM      5  C   UNL     1      -2.449  -8.339 -40.324  1.00  0.00     0.016 A 
ATOM      6  C   UNL     1      -1.347  -9.192 -40.131  1.00  0.00     0.074 A 
ENDROOT
BRANCH   1   7
ATOM      7  C   UNL     1       0.500 -10.611 -41.173  1.00  0.00     0.339 C 
ATOM      8  O   UNL     1       0.454 -11.816 -40.798  1.00  0.00    -0.246 OA
BRANCH   7   9
ATOM      9  O   UNL     1       1.731 -10.010 -41.452  1.00  0.00    -0.462 OA
BRANCH   9  10
ATOM     10  C   UNL     1       2.721 -10.626 -42.269  1.00  0.00     0.233 C 
BRANCH  10  11
ATOM     11  C   UNL     1       2.193 -10.748 -43.697  1.00  0.00     0.038 C 
ATOM     12  C   UNL     1       2.173 -12.202 -44.158  1.00  0.00     0.007 C 
ENDBRANCH  10  11
ENDBRANCH   9  10
ENDBRANCH   7   9
ENDBRANCH   1   7
BRANCH   6  13
ATOM     13  C   UNL     1      -0.912  -9.456 -38.741  1.00  0.00     0.339 C 
ATOM     14  O   UNL     1      -0.251  -8.588 -38.107  1.00  0.00    -0.246 OA
BRANCH  13  15
ATOM     15  O   UNL     1      -1.185 -10.699 -38.158  1.00  0.00    -0.462 OA
BRANCH  15  16
ATOM     16  C   UNL     1      -2.475 -11.306 -38.169  1.00  0.00     0.233 C 
BRANCH  16  17
ATOM     17  C   UNL     1      -2.492 -12.513 -39.112  1.00  0.00     0.038 C 
ATOM     18  C   UNL     1      -3.385 -12.256 -40.322  1.00  0.00     0.007 C 
ENDBRANCH  16  17
ENDBRANCH  15  16
ENDBRANCH  13  15
ENDBRANCH   6  13
TORSDOF 8
ENDMDL
MODEL 2
REMARK VINA RESULT:    -4.231      0.193      4.635
REMARK INTER + INTRA:          -7.602
REMARK INTER:                  -6.310
REMARK INTRA:                  -1.292
REMARK UNBOUND:                -1.393
REMARK SMILES CCCOC(=O)c1ccccc1C(=O)OCCC
REMARK SMILES IDX 7 1 8 2 9 3 10 4 11 5 12 6 5 7 6 8 4 9 3 10 2 11 1 12 13 13
REMARK SMILES IDX 14 14 15 15 16 16 17 17 18 18
REMARK H PARENT
REMARK Flexibility Score: inf
ROOT
ATOM      1  C   UNL     1      -1.453  -9.264 -40.137  1.00  0.00     0.074 A 
ATOM      2  C   UNL     1      -2.559  -8.418 -40.340  1.00  0.00     0.016 A 
ATOM      3  C   UNL     1      -3.032  -8.158 -41.627  1.00  0.00     0.001 A 
ATOM      4  C   UNL     1      -2.410  -8.739 -42.730  1.00  0.00     0.001 A 
ATOM      5  C   UNL     1      -1.298  -9.562 -42.554  1.00  0.00     0.016 A 
ATOM      6  C   UNL     1      -0.790  -9.819 -41.267  1.00  0.00     0.074 A 
ENDROOT
BRANCH   1   7
ATOM      7  C   UNL     1      -1.075  -9.586 -38.742  1.00  0.00     0.339 C 
ATOM      8  O   UNL     1      -0.342  -8.799 -38.082  1.00  0.00    -0.246 OA
BRANCH   7   9
ATOM      9  O   UNL     1      -1.488 -10.798 -38.179  1.00  0.00    -0.462 OA
BRANCH   9  10
ATOM     10  C   UNL     1      -2.752 -11.388 -38.465  1.00  0.00     0.233 C 
BRANCH  10  11
ATOM     11  C   UNL     1      -2.551 -12.598 -39.374  1.00  0.00     0.038 C 
ATOM     12  C   UNL     1      -3.360 -12.465 -40.660  1.00  0.00     0.007 C 
ENDBRANCH  10  11
ENDBRANCH   9  10
ENDBRANCH   7   9
ENDBRANCH   1   7
BRANCH   6  13
ATOM     13  C   UNL     1       0.456 -10.610 -41.161  1.00  0.00     0.339 C 
ATOM     14  O   UNL     1       0.417 -11.806 -40.760  1.00  0.00    -0.246 OA
BRANCH  13  15
ATOM     15  O   UNL     1       1.684 -10.002 -41.447  1.00  0.00    -0.462 OA
BRANCH  15  16
ATOM     16  C   UNL     1       2.703 -10.619 -42.231  1.00  0.00     0.233 C 
BRANCH  16  17
ATOM     17  C   UNL     1       2.246 -10.763 -43.685  1.00  0.00     0.038 C 
ATOM     18  C   UNL     1       2.208 -12.228 -44.110  1.00  0.00     0.007 C 
ENDBRANCH  16  17
ENDBRANCH  15  16
ENDBRANCH  13  15
ENDBRANCH   6  13
TORSDOF 8
ENDMDL
MODEL 3
REMARK VINA RESULT:    -4.180      1.846      4.700
REMARK INTER + INTRA:          -7.527
REMARK INTER:                  -6.398
REMARK INTRA:                  -1.129
REMARK UNBOUND:                -1.393
REMARK SMILES CCCOC(=O)c1ccccc1C(=O)OCCC
REMARK SMILES IDX 7 1 8 2 9 3 10 4 11 5 12 6 5 7 6 8 4 9 3 10 2 11 1 12 13 13
REMARK SMILES IDX 14 14 15 15 16 16 17 17 18 18
REMARK H PARENT
REMARK Flexibility Score: inf
ROOT
ATOM      1  C   UNL     1      -2.597  -9.438 -40.729  1.00  0.00     0.074 A 
ATOM      2  C   UNL     1      -3.198  -8.168 -40.638  1.00  0.00     0.016 A 
ATOM      3  C   UNL     1      -3.762  -7.563 -41.762  1.00  0.00     0.001 A 
ATOM      4  C   UNL     1      -3.736  -8.215 -42.993  1.00  0.00     0.001 A 
ATOM      5  C   UNL     1      -3.125  -9.464 -43.111  1.00  0.00     0.016 A 
ATOM      6  C   UNL     1      -2.530 -10.082 -41.996  1.00  0.00     0.074 A 
ENDROOT
BRANCH   1   7
ATOM      7  C   UNL     1      -2.121 -10.069 -39.477  1.00  0.00     0.339 C 
ATOM      8  O   UNL     1      -2.790 -10.990 -38.933  1.00  0.00    -0.246 OA
BRANCH   7   9
ATOM      9  O   UNL     1      -0.953  -9.597 -38.869  1.00  0.00    -0.462 OA
BRANCH   9  10
ATOM     10  C   UNL     1      -0.764  -9.604 -37.458  1.00  0.00     0.233 C 
BRANCH  10  11
ATOM     11  C   UNL     1      -0.585  -8.170 -36.964  1.00  0.00     0.038 C 
ATOM     12  C   UNL     1      -0.634  -7.176 -38.121  1.00  0.00     0.007 C 
ENDBRANCH  10  11
ENDBRANCH   9  10
ENDBRANCH   7   9
ENDBRANCH   1   7
BRANCH   6  13
ATOM     13  C   UNL     1      -1.804 -11.352 -42.215  1.00  0.00     0.339 C 
ATOM     14  O   UNL     1      -2.374 -12.456 -41.992  1.00  0.00    -0.246 OA
BRANCH  13  15
ATOM     15  O   UNL     1      -0.462 -11.319 -42.611  1.00  0.00    -0.462 OA
BRANCH  15  16
ATOM     16  C   UNL     1       0.629 -11.354 -41.693  1.00  0.00     0.233 C 
BRANCH  16  17
ATOM     17  C   UNL     1       1.314  -9.987 -41.622  1.00  0.00     0.038 C 
ATOM     18  C   UNL     1       1.227  -9.254 -42.957  1.00  0.00     0.007 C 
ENDBRANCH  16  17
ENDBRANCH  15  16
ENDBRANCH  13  15
ENDBRANCH   6  13
TORSDOF 8
ENDMDL
MODEL 4
REMARK VINA RESULT:    -4.172      1.418      2.072
REMARK INTER + INTRA:          -7.516
REMARK INTER:                  -6.891
REMARK INTRA:                  -0.625
REMARK UNBOUND:                -1.393
REMARK SMILES CCCOC(=O)c1ccccc1C(=O)OCCC
REMARK SMILES IDX 7 1 8 2 9 3 10 4 11 5 12 6 5 7 6 8 4 9 3 10 2 11 1 12 13 13
REMARK SMILES IDX 14 14 15 15 16 16 17 17 18 18
REMARK H PARENT
REMARK Flexibility Score: inf
ROOT
ATOM      1  C   UNL     1      -0.989  -9.706 -41.159  1.00  0.00     0.074 A 
ATOM      2  C   UNL     1      -1.714  -9.845 -42.357  1.00  0.00     0.016 A 
ATOM      3  C   UNL     1      -2.862  -9.087 -42.589  1.00  0.00     0.001 A 
ATOM      4  C   UNL     1      -3.304  -8.179 -41.630  1.00  0.00     0.001 A 
ATOM      5  C   UNL     1      -2.614  -8.041 -40.424  1.00  0.00     0.016 A 
ATOM      6  C   UNL     1      -1.467  -8.812 -40.161  1.00  0.00     0.074 A 
ENDROOT
BRANCH   1   7
ATOM      7  C   UNL     1       0.281 -10.458 -41.027  1.00  0.00     0.339 C 
ATOM      8  O   UNL     1       0.278 -11.641 -40.587  1.00  0.00    -0.246 OA
BRANCH   7   9
ATOM      9  O   UNL     1       1.489  -9.827 -41.337  1.00  0.00    -0.462 OA
BRANCH   9  10
ATOM     10  C   UNL     1       2.485 -10.433 -42.155  1.00  0.00     0.233 C 
BRANCH  10  11
ATOM     11  C   UNL     1       1.917 -10.673 -43.552  1.00  0.00     0.038 C 
ATOM     12  C   UNL     1       2.139 -12.114 -44.000  1.00  0.00     0.007 C 
ENDBRANCH  10  11
ENDBRANCH   9  10
ENDBRANCH   7   9
ENDBRANCH   1   7
BRANCH   6  13
ATOM     13  C   UNL     1      -0.850  -8.697 -38.821  1.00  0.00     0.339 C 
ATOM     14  O   UNL     1      -0.420  -7.582 -38.414  1.00  0.00    -0.246 OA
BRANCH  13  15
ATOM     15  O   UNL     1      -0.689  -9.844 -38.035  1.00  0.00    -0.462 OA
BRANCH  15  16
ATOM     16  C   UNL     1      -1.299 -10.013 -36.758  1.00  0.00     0.233 C 
BRANCH  16  17
ATOM     17  C   UNL     1      -0.275  -9.789 -35.641  1.00  0.00     0.038 C 
ATOM     18  C   UNL     1      -0.279 -10.946 -34.647  1.00  0.00     0.007 C 
ENDBRANCH  16  17
ENDBRANCH  15  16
ENDBRANCH  13  15
ENDBRANCH   6  13
TORSDOF 8
ENDMDL
MODEL 5
REMARK VINA RESULT:    -4.126      1.488      5.163
REMARK INTER + INTRA:          -7.449
REMARK INTER:                  -6.766
REMARK INTRA:                  -0.683
REMARK UNBOUND:                -1.393
REMARK SMILES CCCOC(=O)c1ccccc1C(=O)OCCC
REMARK SMILES IDX 7 1 8 2 9 3 10 4 11 5 12 6 5 7 6 8 4 9 3 10 2 11 1 12 13 13
REMARK SMILES IDX 14 14 15 15 16 16 17 17 18 18
REMARK H PARENT
REMARK Flexibility Score: inf
ROOT
ATOM      1  C   UNL     1      -1.607  -9.372 -40.048  1.00  0.00     0.074 A 
ATOM      2  C   UNL     1      -2.607  -8.433 -40.360  1.00  0.00     0.016 A 
ATOM      3  C   UNL     1      -2.922  -8.140 -41.687  1.00  0.00     0.001 A 
ATOM      4  C   UNL     1      -2.245  -8.780 -42.723  1.00  0.00     0.001 A 
ATOM      5  C   UNL     1      -1.234  -9.698 -42.437  1.00  0.00     0.016 A 
ATOM      6  C   UNL     1      -0.885  -9.991 -41.106  1.00  0.00     0.074 A 
ENDROOT
BRANCH   1   7
ATOM      7  C   UNL     1      -1.402  -9.718 -38.622  1.00  0.00     0.339 C 
ATOM      8  O   UNL     1      -2.122 -10.594 -38.069  1.00  0.00    -0.246 OA
BRANCH   7   9
ATOM      9  O   UNL     1      -0.445  -9.024 -37.876  1.00  0.00    -0.462 OA
BRANCH   9  10
ATOM     10  C   UNL     1      -0.475  -8.961 -36.454  1.00  0.00     0.233 C 
BRANCH  10  11
ATOM     11  C   UNL     1      -0.400  -7.503 -36.009  1.00  0.00     0.038 C 
ATOM     12  C   UNL     1      -1.711  -7.048 -35.376  1.00  0.00     0.007 C 
ENDBRANCH  10  11
ENDBRANCH   9  10
ENDBRANCH   7   9
ENDBRANCH   1   7
BRANCH   6  13
ATOM     13  C   UNL     1       0.270 -10.888 -40.876  1.00  0.00     0.339 C 
ATOM     14  O   UNL     1       0.102 -12.009 -40.321  1.00  0.00    -0.246 OA
BRANCH  13  15
ATOM     15  O   UNL     1       1.556 -10.458 -41.221  1.00  0.00    -0.462 OA
BRANCH  15  16
ATOM     16  C   UNL     1       2.477 -11.252 -41.966  1.00  0.00     0.233 C 
BRANCH  16  17
ATOM     17  C   UNL     1       1.858 -11.680 -43.300  1.00  0.00     0.038 C 
ATOM     18  C   UNL     1       2.290 -10.753 -44.433  1.00  0.00     0.007 C 
ENDBRANCH  16  17
ENDBRANCH  15  16
ENDBRANCH  13  15
ENDBRANCH   6  13
TORSDOF 8
ENDMDL
MODEL 6
REMARK VINA RESULT:    -4.085      1.700      2.896
REMARK INTER + INTRA:          -7.388
REMARK INTER:                  -6.652
REMARK INTRA:                  -0.736
REMARK UNBOUND:                -1.393
REMARK SMILES CCCOC(=O)c1ccccc1C(=O)OCCC
REMARK SMILES IDX 7 1 8 2 9 3 10 4 11 5 12 6 5 7 6 8 4 9 3 10 2 11 1 12 13 13
REMARK SMILES IDX 14 14 15 15 16 16 17 17 18 18
REMARK H PARENT
REMARK Flexibility Score: inf
ROOT
ATOM      1  C   UNL     1      -2.070  -9.309 -42.083  1.00  0.00     0.074 A 
ATOM      2  C   UNL     1      -2.863  -8.939 -43.185  1.00  0.00     0.016 A 
ATOM      3  C   UNL     1      -3.901  -8.019 -43.040  1.00  0.00     0.001 A 
ATOM      4  C   UNL     1      -4.165  -7.453 -41.795  1.00  0.00     0.001 A 
ATOM      5  C   UNL     1      -3.406  -7.823 -40.683  1.00  0.00     0.016 A 
ATOM      6  C   UNL     1      -2.369  -8.766 -40.802  1.00  0.00     0.074 A 
ENDROOT
BRANCH   1   7
ATOM      7  C   UNL     1      -0.915 -10.203 -42.330  1.00  0.00     0.339 C 
ATOM      8  O   UNL     1      -1.053 -11.456 -42.266  1.00  0.00    -0.246 OA
BRANCH   7   9
ATOM      9  O   UNL     1       0.344  -9.648 -42.577  1.00  0.00    -0.462 OA
BRANCH   9  10
ATOM     10  C   UNL     1       1.460  -9.860 -41.718  1.00  0.00     0.233 C 
BRANCH  10  11
ATOM     11  C   UNL     1       2.476 -10.758 -42.420  1.00  0.00     0.038 C 
ATOM     12  C   UNL     1       2.238 -10.792 -43.926  1.00  0.00     0.007 C 
ENDBRANCH  10  11
ENDBRANCH   9  10
ENDBRANCH   7   9
ENDBRANCH   1   7
BRANCH   6  13
ATOM     13  C   UNL     1      -1.679  -9.195 -39.565  1.00  0.00     0.339 C 
ATOM     14  O   UNL     1      -2.085 -10.207 -38.930  1.00  0.00    -0.246 OA
BRANCH  13  15
ATOM     15  O   UNL     1      -0.613  -8.433 -39.072  1.00  0.00    -0.462 OA
BRANCH  15  16
ATOM     16  C   UNL     1      -0.777  -7.353 -38.156  1.00  0.00     0.233 C 
BRANCH  16  17
ATOM     17  C   UNL     1      -0.491  -7.815 -36.724  1.00  0.00     0.038 C 
ATOM     18  C   UNL     1      -1.163  -6.901 -35.704  1.00  0.00     0.007 C 
ENDBRANCH  16  17
ENDBRANCH  15  16
ENDBRANCH  13  15
ENDBRANCH   6  13
TORSDOF 8
ENDMDL
MODEL 7
REMARK VINA RESULT:    -4.039      1.829      3.543
REMARK INTER + INTRA:          -7.321
REMARK INTER:                  -6.367
REMARK INTRA:                  -0.954
REMARK UNBOUND:                -1.393
REMARK SMILES CCCOC(=O)c1ccccc1C(=O)OCCC
REMARK SMILES IDX 7 1 8 2 9 3 10 4 11 5 12 6 5 7 6 8 4 9 3 10 2 11 1 12 13 13
REMARK SMILES IDX 14 14 15 15 16 16 17 17 18 18
REMARK H PARENT
REMARK Flexibility Score: inf
ROOT
ATOM      1  C   UNL     1      -1.040  -8.931 -38.763  1.00  0.00     0.074 A 
ATOM      2  C   UNL     1      -0.596  -7.769 -38.107  1.00  0.00     0.016 A 
ATOM      3  C   UNL     1      -0.396  -7.761 -36.726  1.00  0.00     0.001 A 
ATOM      4  C   UNL     1      -0.636  -8.912 -35.979  1.00  0.00     0.001 A 
ATOM      5  C   UNL     1      -1.100 -10.070 -36.606  1.00  0.00     0.016 A 
ATOM      6  C   UNL     1      -1.329 -10.093 -37.994  1.00  0.00     0.074 A 
ENDROOT
BRANCH   1   7
ATOM      7  C   UNL     1      -1.122  -8.903 -40.242  1.00  0.00     0.339 C 
ATOM      8  O   UNL     1      -2.102  -8.352 -40.815  1.00  0.00    -0.246 OA
BRANCH   7   9
ATOM      9  O   UNL     1      -0.135  -9.542 -40.998  1.00  0.00    -0.462 OA
BRANCH   9  10
ATOM     10  C   UNL     1      -0.034  -9.395 -42.411  1.00  0.00     0.233 C 
BRANCH  10  11
ATOM     11  C   UNL     1       1.438  -9.419 -42.818  1.00  0.00     0.038 C 
ATOM     12  C   UNL     1       2.262 -10.278 -41.865  1.00  0.00     0.007 C 
ENDBRANCH  10  11
ENDBRANCH   9  10
ENDBRANCH   7   9
ENDBRANCH   1   7
BRANCH   6  13
ATOM     13  C   UNL     1      -1.925 -11.316 -38.576  1.00  0.00     0.339 C 
ATOM     14  O   UNL     1      -1.214 -12.343 -38.760  1.00  0.00    -0.246 OA
BRANCH  13  15
ATOM     15  O   UNL     1      -3.266 -11.305 -38.978  1.00  0.00    -0.462 OA
BRANCH  15  16
ATOM     16  C   UNL     1      -3.789 -12.161 -39.991  1.00  0.00     0.233 C 
BRANCH  16  17
ATOM     17  C   UNL     1      -3.683 -11.493 -41.365  1.00  0.00     0.038 C 
ATOM     18  C   UNL     1      -2.558 -12.106 -42.192  1.00  0.00     0.007 C 
ENDBRANCH  16  17
ENDBRANCH  15  16
ENDBRANCH  13  15
ENDBRANCH   6  13
TORSDOF 8
ENDMDL
MODEL 8
REMARK VINA RESULT:    -3.916      1.964      4.651
REMARK INTER + INTRA:          -7.139
REMARK INTER:                  -6.132
REMARK INTRA:                  -1.008
REMARK UNBOUND:                -1.393
REMARK SMILES CCCOC(=O)c1ccccc1C(=O)OCCC
REMARK SMILES IDX 7 1 8 2 9 3 10 4 11 5 12 6 5 7 6 8 4 9 3 10 2 11 1 12 13 13
REMARK SMILES IDX 14 14 15 15 16 16 17 17 18 18
REMARK H PARENT
REMARK Flexibility Score: inf
ROOT
ATOM      1  C   UNL     1      -1.575  -9.998 -38.474  1.00  0.00     0.074 A 
ATOM      2  C   UNL     1      -1.068 -10.018 -37.162  1.00  0.00     0.016 A 
ATOM      3  C   UNL     1      -0.491  -8.878 -36.602  1.00  0.00     0.001 A 
ATOM      4  C   UNL     1      -0.411  -7.700 -37.343  1.00  0.00     0.001 A 
ATOM      5  C   UNL     1      -0.886  -7.664 -38.654  1.00  0.00     0.016 A 
ATOM      6  C   UNL     1      -1.451  -8.809 -39.245  1.00  0.00     0.074 A 
ENDROOT
BRANCH   1   7
ATOM      7  C   UNL     1      -2.275 -11.208 -38.964  1.00  0.00     0.339 C 
ATOM      8  O   UNL     1      -3.467 -11.438 -38.619  1.00  0.00    -0.246 OA
BRANCH   7   9
ATOM      9  O   UNL     1      -1.587 -12.125 -39.765  1.00  0.00    -0.462 OA
BRANCH   9  10
ATOM     10  C   UNL     1      -2.239 -12.939 -40.734  1.00  0.00     0.233 C 
BRANCH  10  11
ATOM     11  C   UNL     1      -2.348 -12.171 -42.049  1.00  0.00     0.038 C 
ATOM     12  C   UNL     1      -3.796 -11.800 -42.355  1.00  0.00     0.007 C 
ENDBRANCH  10  11
ENDBRANCH   9  10
ENDBRANCH   7   9
ENDBRANCH   1   7
BRANCH   6  13
ATOM     13  C   UNL     1      -1.833  -8.732 -40.673  1.00  0.00     0.339 C 
ATOM     14  O   UNL     1      -3.035  -8.525 -40.999  1.00  0.00    -0.246 OA
BRANCH  13  15
ATOM     15  O   UNL     1      -0.864  -8.954 -41.658  1.00  0.00    -0.462 OA
BRANCH  15  16
ATOM     16  C   UNL     1       0.309  -9.736 -41.445  1.00  0.00     0.233 C 
BRANCH  16  17
ATOM     17  C   UNL     1       1.370  -9.410 -42.500  1.00  0.00     0.038 C 
ATOM     18  C   UNL     1       1.652 -10.616 -43.392  1.00  0.00     0.007 C 
ENDBRANCH  16  17
ENDBRANCH  15  16
ENDBRANCH  13  15
ENDBRANCH   6  13
TORSDOF 8
ENDMDL
MODEL 9
REMARK VINA RESULT:    -3.904      1.862      4.811
REMARK INTER + INTRA:          -7.123
REMARK INTER:                  -5.713
REMARK INTRA:                  -1.410
REMARK UNBOUND:                -1.393
REMARK SMILES CCCOC(=O)c1ccccc1C(=O)OCCC
REMARK SMILES IDX 7 1 8 2 9 3 10 4 11 5 12 6 5 7 6 8 4 9 3 10 2 11 1 12 13 13
REMARK SMILES IDX 14 14 15 15 16 16 17 17 18 18
REMARK H PARENT
REMARK Flexibility Score: inf
ROOT
ATOM      1  C   UNL     1      -0.885 -10.875 -39.621  1.00  0.00     0.074 A 
ATOM      2  C   UNL     1      -1.199 -10.848 -38.250  1.00  0.00     0.016 A 
ATOM      3  C   UNL     1      -1.329  -9.636 -37.571  1.00  0.00     0.001 A 
ATOM      4  C   UNL     1      -1.147  -8.433 -38.250  1.00  0.00     0.001 A 
ATOM      5  C   UNL     1      -0.812  -8.436 -39.604  1.00  0.00     0.016 A 
ATOM      6  C   UNL     1      -0.654  -9.647 -40.302  1.00  0.00     0.074 A 
ENDROOT
BRANCH   1   7
ATOM      7  C   UNL     1      -0.875 -12.190 -40.303  1.00  0.00     0.339 C 
ATOM      8  O   UNL     1       0.104 -12.974 -40.161  1.00  0.00    -0.246 OA
BRANCH   7   9
ATOM      9  O   UNL     1      -1.931 -12.533 -41.152  1.00  0.00    -0.462 OA
BRANCH   9  10
ATOM     10  C   UNL     1      -3.294 -12.489 -40.741  1.00  0.00     0.233 C 
BRANCH  10  11
ATOM     11  C   UNL     1      -4.019 -11.389 -41.513  1.00  0.00     0.038 C 
ATOM     12  C   UNL     1      -4.352 -10.206 -40.610  1.00  0.00     0.007 C 
ENDBRANCH  10  11
ENDBRANCH   9  10
ENDBRANCH   7   9
ENDBRANCH   1   7
BRANCH   6  13
ATOM     13  C   UNL     1      -0.191  -9.581 -41.706  1.00  0.00     0.339 C 
ATOM     14  O   UNL     1      -1.014  -9.713 -42.654  1.00  0.00    -0.246 OA
BRANCH  13  15
ATOM     15  O   UNL     1       1.175  -9.434 -41.974  1.00  0.00    -0.462 OA
BRANCH  15  16
ATOM     16  C   UNL     1       2.129 -10.478 -41.792  1.00  0.00     0.233 C 
BRANCH  16  17
ATOM     17  C   UNL     1       1.932 -11.573 -42.844  1.00  0.00     0.038 C 
ATOM     18  C   UNL     1       2.551 -11.174 -44.180  1.00  0.00     0.007 C 
ENDBRANCH  16  17
ENDBRANCH  15  16
ENDBRANCH  13  15
ENDBRANCH   6  13
TORSDOF 8
ENDMDL
