MODEL 1
REMARK VINA RESULT:    -7.849      0.000      0.000
REMARK INTER + INTRA:          -8.692
REMARK INTER:                  -8.537
REMARK INTRA:                  -0.155
REMARK UNBOUND:                -0.155
REMARK SMILES C[C@H]1[C@H](C)CC[C@@]2(C(=O)[O-])CC[C@@]3(C)C(=CC[C@H]4[C@]5(C)CC[C@@H](O)C(C)(C)[C@H]5CC[C@@]43C)[C@@H]12
REMARK SMILES IDX 7 1 6 2 11 3 33 4 5 5 12 6 15 7 2 8 3 9 13 10 16 11 1 12
REMARK SMILES IDX 4 13 14 14 31 15 17 16 18 17 30 18 32 19 19 20 29 21 28 22
REMARK SMILES IDX 21 23 20 24 25 25 22 26 23 27 26 28 27 29 8 30 9 31 10 32
REMARK SMILES IDX 24 33
REMARK H PARENT 24 34
REMARK Flexibility Score: inf
ROOT
ATOM      1  C   UNL     1     100.149  86.758  83.229  1.00  0.00     0.017 C 
ATOM      2  C   UNL     1     100.962  85.439  83.029  1.00  0.00     0.014 C 
ATOM      3  C   UNL     1      99.518  87.183  81.886  1.00  0.00     0.014 C 
ATOM      4  C   UNL     1      99.005  86.629  84.312  1.00  0.00     0.030 C 
ATOM      5  C   UNL     1     101.418  84.803  84.334  1.00  0.00     0.004 C 
ATOM      6  C   UNL     1      98.532  86.150  81.325  1.00  0.00     0.013 C 
ATOM      7  C   UNL     1      97.603  86.246  83.746  1.00  0.00    -0.063 C 
ATOM      8  C   UNL     1      99.501  85.830  85.591  1.00  0.00    -0.003 C 
ATOM      9  C   UNL     1     100.210  84.497  85.231  1.00  0.00    -0.011 C 
ATOM     10  C   UNL     1      97.364  85.732  82.300  1.00  0.00    -0.006 C 
ATOM     11  C   UNL     1      96.525  86.551  84.514  1.00  0.00    -0.027 C 
ATOM     12  C   UNL     1      98.442  85.654  86.695  1.00  0.00     0.008 C 
ATOM     13  C   UNL     1     100.701  83.711  86.462  1.00  0.00     0.008 C 
ATOM     14  C   UNL     1      97.394  84.176  82.417  1.00  0.00     0.017 C 
ATOM     15  C   UNL     1      95.943  86.288  81.741  1.00  0.00    -0.020 C 
ATOM     16  C   UNL     1      95.090  86.227  84.200  1.00  0.00     0.032 C 
ATOM     17  C   UNL     1      94.802  85.829  82.731  1.00  0.00     0.006 C 
ATOM     18  C   UNL     1      95.603  85.733  80.311  1.00  0.00     0.008 C 
ATOM     19  C   UNL     1      96.010  87.850  81.646  1.00  0.00     0.012 C 
ATOM     20  C   UNL     1      93.299  86.076  82.273  1.00  0.00    -0.025 C 
ATOM     21  C   UNL     1      94.159  85.985  79.845  1.00  0.00     0.005 C 
ATOM     22  C   UNL     1      93.133  85.411  80.853  1.00  0.00     0.003 C 
ATOM     23  C   UNL     1      92.356  85.323  83.268  1.00  0.00     0.010 C 
ATOM     24  C   UNL     1      92.929  87.599  82.288  1.00  0.00     0.012 C 
ATOM     25  C   UNL     1      91.650  85.280  80.314  1.00  0.00    -0.006 C 
ATOM     26  C   UNL     1      90.898  85.225  82.797  1.00  0.00     0.033 C 
ATOM     27  C   UNL     1      90.789  84.568  81.411  1.00  0.00     0.120 C 
ATOM     28  C   UNL     1      91.028  86.639  79.901  1.00  0.00     0.014 C 
ATOM     29  C   UNL     1      91.629  84.369  79.054  1.00  0.00     0.014 C 
ENDROOT
BRANCH   1  30
ATOM     30  C   UNL     1     101.153  87.850  83.610  1.00  0.00     0.048 C 
ATOM     31  O   UNL     1     100.891  88.715  84.487  1.00  0.00    -0.550 OA
ATOM     32  O   UNL     1     102.408  87.877  83.011  1.00  0.00    -0.550 OA
ENDBRANCH   1  30
BRANCH  27  33
ATOM     33  O   UNL     1      89.440  84.441  81.023  1.00  0.00    -0.393 OA
ATOM     34  H   UNL     1      88.870  84.651  81.808  1.00  0.00     0.210 HD
ENDBRANCH  27  33
TORSDOF 2
ENDMDL
MODEL 2
REMARK VINA RESULT:    -7.135      4.566      8.261
REMARK INTER + INTRA:          -7.916
REMARK INTER:                  -7.757
REMARK INTRA:                  -0.159
REMARK UNBOUND:                -0.155
REMARK SMILES C[C@H]1[C@H](C)CC[C@@]2(C(=O)[O-])CC[C@@]3(C)C(=CC[C@H]4[C@]5(C)CC[C@@H](O)C(C)(C)[C@H]5CC[C@@]43C)[C@@H]12
REMARK SMILES IDX 7 1 6 2 11 3 33 4 5 5 12 6 15 7 2 8 3 9 13 10 16 11 1 12
REMARK SMILES IDX 4 13 14 14 31 15 17 16 18 17 30 18 32 19 19 20 29 21 28 22
REMARK SMILES IDX 21 23 20 24 25 25 22 26 23 27 26 28 27 29 8 30 9 31 10 32
REMARK SMILES IDX 24 33
REMARK H PARENT 24 34
REMARK Flexibility Score: inf
ROOT
ATOM      1  C   UNL     1      89.963  88.630  87.385  1.00  0.00     0.017 C 
ATOM      2  C   UNL     1      90.473  87.893  88.665  1.00  0.00     0.014 C 
ATOM      3  C   UNL     1      91.163  89.235  86.626  1.00  0.00     0.014 C 
ATOM      4  C   UNL     1      89.160  87.690  86.401  1.00  0.00     0.030 C 
ATOM      5  C   UNL     1      89.404  87.056  89.349  1.00  0.00     0.004 C 
ATOM      6  C   UNL     1      92.170  88.183  86.145  1.00  0.00     0.013 C 
ATOM      7  C   UNL     1      90.014  87.033  85.274  1.00  0.00    -0.063 C 
ATOM      8  C   UNL     1      88.163  86.739  87.189  1.00  0.00    -0.003 C 
ATOM      9  C   UNL     1      88.841  86.008  88.378  1.00  0.00    -0.011 C 
ATOM     10  C   UNL     1      91.567  87.027  85.256  1.00  0.00    -0.006 C 
ATOM     11  C   UNL     1      89.349  86.601  84.171  1.00  0.00    -0.027 C 
ATOM     12  C   UNL     1      87.342  85.784  86.301  1.00  0.00     0.008 C 
ATOM     13  C   UNL     1      87.885  85.083  89.155  1.00  0.00     0.008 C 
ATOM     14  C   UNL     1      91.971  85.674  85.920  1.00  0.00     0.017 C 
ATOM     15  C   UNL     1      92.104  87.158  83.729  1.00  0.00    -0.020 C 
ATOM     16  C   UNL     1      89.954  85.889  82.991  1.00  0.00     0.032 C 
ATOM     17  C   UNL     1      91.497  85.972  82.882  1.00  0.00     0.006 C 
ATOM     18  C   UNL     1      93.671  87.073  83.636  1.00  0.00     0.008 C 
ATOM     19  C   UNL     1      91.664  88.545  83.151  1.00  0.00     0.012 C 
ATOM     20  C   UNL     1      92.055  85.771  81.405  1.00  0.00    -0.025 C 
ATOM     21  C   UNL     1      94.227  86.902  82.211  1.00  0.00     0.005 C 
ATOM     22  C   UNL     1      93.623  85.657  81.516  1.00  0.00     0.003 C 
ATOM     23  C   UNL     1      91.512  84.410  80.859  1.00  0.00     0.010 C 
ATOM     24  C   UNL     1      91.587  86.918  80.445  1.00  0.00     0.012 C 
ATOM     25  C   UNL     1      94.380  85.171  80.213  1.00  0.00    -0.006 C 
ATOM     26  C   UNL     1      92.191  83.939  79.565  1.00  0.00     0.033 C 
ATOM     27  C   UNL     1      93.717  83.840  79.725  1.00  0.00     0.120 C 
ATOM     28  C   UNL     1      94.401  86.238  79.087  1.00  0.00     0.014 C 
ATOM     29  C   UNL     1      95.861  84.845  80.558  1.00  0.00     0.014 C 
ENDROOT
BRANCH   1  30
ATOM     30  C   UNL     1      89.103  89.805  87.858  1.00  0.00     0.048 C 
ATOM     31  O   UNL     1      89.399  90.473  88.885  1.00  0.00    -0.550 OA
ATOM     32  O   UNL     1      87.984  90.186  87.125  1.00  0.00    -0.550 OA
ENDBRANCH   1  30
BRANCH  27  33
ATOM     33  O   UNL     1      94.312  83.355  78.543  1.00  0.00    -0.393 OA
ATOM     34  H   UNL     1      95.201  82.979  78.774  1.00  0.00     0.210 HD
ENDBRANCH  27  33
TORSDOF 2
ENDMDL
MODEL 3
REMARK VINA RESULT:    -7.018      1.793      4.011
REMARK INTER + INTRA:          -7.788
REMARK INTER:                  -7.630
REMARK INTRA:                  -0.158
REMARK UNBOUND:                -0.155
REMARK SMILES C[C@H]1[C@H](C)CC[C@@]2(C(=O)[O-])CC[C@@]3(C)C(=CC[C@H]4[C@]5(C)CC[C@@H](O)C(C)(C)[C@H]5CC[C@@]43C)[C@@H]12
REMARK SMILES IDX 7 1 6 2 11 3 33 4 5 5 12 6 15 7 2 8 3 9 13 10 16 11 1 12
REMARK SMILES IDX 4 13 14 14 31 15 17 16 18 17 30 18 32 19 19 20 29 21 28 22
REMARK SMILES IDX 21 23 20 24 25 25 22 26 23 27 26 28 27 29 8 30 9 31 10 32
REMARK SMILES IDX 24 33
REMARK H PARENT 24 34
REMARK Flexibility Score: inf
ROOT
ATOM      1  C   UNL     1      99.452  88.116  83.654  1.00  0.00     0.017 C 
ATOM      2  C   UNL     1      99.301  89.560  84.231  1.00  0.00     0.014 C 
ATOM      3  C   UNL     1      98.473  87.166  84.377  1.00  0.00     0.014 C 
ATOM      4  C   UNL     1      99.188  88.034  82.098  1.00  0.00     0.030 C 
ATOM      5  C   UNL     1     100.039  90.617  83.424  1.00  0.00     0.004 C 
ATOM      6  C   UNL     1      97.001  87.553  84.187  1.00  0.00     0.013 C 
ATOM      7  C   UNL     1      97.723  87.678  81.698  1.00  0.00    -0.063 C 
ATOM      8  C   UNL     1      99.864  89.245  81.327  1.00  0.00    -0.003 C 
ATOM      9  C   UNL     1      99.546  90.621  81.970  1.00  0.00    -0.011 C 
ATOM     10  C   UNL     1      96.527  87.692  82.688  1.00  0.00    -0.006 C 
ATOM     11  C   UNL     1      97.533  87.162  80.456  1.00  0.00    -0.027 C 
ATOM     12  C   UNL     1      99.649  89.243  79.802  1.00  0.00     0.008 C 
ATOM     13  C   UNL     1     100.199  91.807  81.234  1.00  0.00     0.008 C 
ATOM     14  C   UNL     1      95.892  89.109  82.532  1.00  0.00     0.017 C 
ATOM     15  C   UNL     1      95.487  86.499  82.319  1.00  0.00    -0.020 C 
ATOM     16  C   UNL     1      96.209  86.801  79.837  1.00  0.00     0.032 C 
ATOM     17  C   UNL     1      95.021  86.687  80.823  1.00  0.00     0.006 C 
ATOM     18  C   UNL     1      94.210  86.512  83.235  1.00  0.00     0.008 C 
ATOM     19  C   UNL     1      96.204  85.120  82.515  1.00  0.00     0.012 C 
ATOM     20  C   UNL     1      93.835  85.760  80.307  1.00  0.00    -0.025 C 
ATOM     21  C   UNL     1      93.064  85.602  82.762  1.00  0.00     0.005 C 
ATOM     22  C   UNL     1      92.635  85.942  81.313  1.00  0.00     0.003 C 
ATOM     23  C   UNL     1      93.375  86.289  78.909  1.00  0.00     0.010 C 
ATOM     24  C   UNL     1      94.289  84.268  80.153  1.00  0.00     0.012 C 
ATOM     25  C   UNL     1      91.245  85.338  80.855  1.00  0.00    -0.006 C 
ATOM     26  C   UNL     1      92.055  85.681  78.414  1.00  0.00     0.033 C 
ATOM     27  C   UNL     1      90.916  85.887  79.427  1.00  0.00     0.120 C 
ATOM     28  C   UNL     1      91.213  83.788  80.886  1.00  0.00     0.014 C 
ATOM     29  C   UNL     1      90.120  85.835  81.806  1.00  0.00     0.014 C 
ENDROOT
BRANCH   1  30
ATOM     30  C   UNL     1     100.866  87.641  84.003  1.00  0.00     0.048 C 
ATOM     31  O   UNL     1     101.418  87.949  85.093  1.00  0.00    -0.550 OA
ATOM     32  O   UNL     1     101.557  86.814  83.124  1.00  0.00    -0.550 OA
ENDBRANCH   1  30
BRANCH  27  33
ATOM     33  O   UNL     1      89.704  85.369  78.928  1.00  0.00    -0.393 OA
ATOM     34  H   UNL     1      89.547  85.758  78.028  1.00  0.00     0.210 HD
ENDBRANCH  27  33
TORSDOF 2
ENDMDL
MODEL 4
REMARK VINA RESULT:    -6.962      3.084      5.813
REMARK INTER + INTRA:          -7.727
REMARK INTER:                  -7.719
REMARK INTRA:                  -0.008
REMARK UNBOUND:                -0.155
REMARK SMILES C[C@H]1[C@H](C)CC[C@@]2(C(=O)[O-])CC[C@@]3(C)C(=CC[C@H]4[C@]5(C)CC[C@@H](O)C(C)(C)[C@H]5CC[C@@]43C)[C@@H]12
REMARK SMILES IDX 7 1 6 2 11 3 33 4 5 5 12 6 15 7 2 8 3 9 13 10 16 11 1 12
REMARK SMILES IDX 4 13 14 14 31 15 17 16 18 17 30 18 32 19 19 20 29 21 28 22
REMARK SMILES IDX 21 23 20 24 25 25 22 26 23 27 26 28 27 29 8 30 9 31 10 32
REMARK SMILES IDX 24 33
REMARK H PARENT 24 34
REMARK Flexibility Score: inf
ROOT
ATOM      1  C   UNL     1      95.029  86.390  84.301  1.00  0.00     0.017 C 
ATOM      2  C   UNL     1      95.336  87.855  84.746  1.00  0.00     0.014 C 
ATOM      3  C   UNL     1      93.709  85.919  84.948  1.00  0.00     0.014 C 
ATOM      4  C   UNL     1      94.915  86.224  82.733  1.00  0.00     0.030 C 
ATOM      5  C   UNL     1      96.478  88.498  83.974  1.00  0.00     0.004 C 
ATOM      6  C   UNL     1      92.495  86.759  84.531  1.00  0.00     0.013 C 
ATOM      7  C   UNL     1      93.468  86.344  82.162  1.00  0.00    -0.063 C 
ATOM      8  C   UNL     1      96.050  87.035  81.977  1.00  0.00    -0.003 C 
ATOM      9  C   UNL     1      96.172  88.503  82.470  1.00  0.00    -0.011 C 
ATOM     10  C   UNL     1      92.258  86.878  82.975  1.00  0.00    -0.006 C 
ATOM     11  C   UNL     1      93.239  85.784  80.946  1.00  0.00    -0.027 C 
ATOM     12  C   UNL     1      96.007  86.932  80.441  1.00  0.00     0.008 C 
ATOM     13  C   UNL     1      97.273  89.302  81.748  1.00  0.00     0.008 C 
ATOM     14  C   UNL     1      92.182  88.398  82.633  1.00  0.00     0.017 C 
ATOM     15  C   UNL     1      90.909  86.075  82.554  1.00  0.00    -0.020 C 
ATOM     16  C   UNL     1      91.945  85.827  80.179  1.00  0.00     0.032 C 
ATOM     17  C   UNL     1      90.697  86.238  80.998  1.00  0.00     0.006 C 
ATOM     18  C   UNL     1      89.631  86.628  83.282  1.00  0.00     0.008 C 
ATOM     19  C   UNL     1      91.071  84.568  82.945  1.00  0.00     0.012 C 
ATOM     20  C   UNL     1      89.321  85.716  80.393  1.00  0.00    -0.025 C 
ATOM     21  C   UNL     1      88.293  86.113  82.723  1.00  0.00     0.005 C 
ATOM     22  C   UNL     1      88.164  86.410  81.209  1.00  0.00     0.003 C 
ATOM     23  C   UNL     1      89.223  86.206  78.910  1.00  0.00     0.010 C 
ATOM     24  C   UNL     1      89.234  84.151  80.409  1.00  0.00     0.012 C 
ATOM     25  C   UNL     1      86.706  86.267  80.609  1.00  0.00    -0.006 C 
ATOM     26  C   UNL     1      87.833  86.031  78.284  1.00  0.00     0.033 C 
ATOM     27  C   UNL     1      86.741  86.727  79.113  1.00  0.00     0.120 C 
ATOM     28  C   UNL     1      86.128  84.834  80.746  1.00  0.00     0.014 C 
ATOM     29  C   UNL     1      85.735  87.222  81.358  1.00  0.00     0.014 C 
ENDROOT
BRANCH   1  30
ATOM     30  C   UNL     1      96.141  85.506  84.873  1.00  0.00     0.048 C 
ATOM     31  O   UNL     1      97.039  85.012  84.141  1.00  0.00    -0.550 OA
ATOM     32  O   UNL     1      96.199  85.265  86.242  1.00  0.00    -0.550 OA
ENDBRANCH   1  30
BRANCH  27  33
ATOM     33  O   UNL     1      85.483  86.598  78.491  1.00  0.00    -0.393 OA
ATOM     34  H   UNL     1      85.035  87.484  78.508  1.00  0.00     0.210 HD
ENDBRANCH  27  33
TORSDOF 2
ENDMDL
MODEL 5
REMARK VINA RESULT:    -6.845      1.707      8.193
REMARK INTER + INTRA:          -7.600
REMARK INTER:                  -7.609
REMARK INTRA:                   0.009
REMARK UNBOUND:                -0.155
REMARK SMILES C[C@H]1[C@H](C)CC[C@@]2(C(=O)[O-])CC[C@@]3(C)C(=CC[C@H]4[C@]5(C)CC[C@@H](O)C(C)(C)[C@H]5CC[C@@]43C)[C@@H]12
REMARK SMILES IDX 7 1 6 2 11 3 33 4 5 5 12 6 15 7 2 8 3 9 13 10 16 11 1 12
REMARK SMILES IDX 4 13 14 14 31 15 17 16 18 17 30 18 32 19 19 20 29 21 28 22
REMARK SMILES IDX 21 23 20 24 25 25 22 26 23 27 26 28 27 29 8 30 9 31 10 32
REMARK SMILES IDX 24 33
REMARK H PARENT 24 34
REMARK Flexibility Score: inf
ROOT
ATOM      1  C   UNL     1      92.835  86.122  82.530  1.00  0.00     0.017 C 
ATOM      2  C   UNL     1      92.281  87.550  82.223  1.00  0.00     0.014 C 
ATOM      3  C   UNL     1      93.964  85.781  81.533  1.00  0.00     0.014 C 
ATOM      4  C   UNL     1      93.391  85.970  84.001  1.00  0.00     0.030 C 
ATOM      5  C   UNL     1      91.340  88.079  83.294  1.00  0.00     0.004 C 
ATOM      6  C   UNL     1      95.161  86.735  81.624  1.00  0.00     0.013 C 
ATOM      7  C   UNL     1      94.921  86.230  84.157  1.00  0.00    -0.063 C 
ATOM      8  C   UNL     1      92.436  86.668  85.060  1.00  0.00    -0.003 C 
ATOM      9  C   UNL     1      92.047  88.115  84.657  1.00  0.00    -0.011 C 
ATOM     10  C   UNL     1      95.805  86.878  83.057  1.00  0.00    -0.006 C 
ATOM     11  C   UNL     1      95.527  85.697  85.249  1.00  0.00    -0.027 C 
ATOM     12  C   UNL     1      92.910  86.570  86.522  1.00  0.00     0.008 C 
ATOM     13  C   UNL     1      91.117  88.806  85.673  1.00  0.00     0.008 C 
ATOM     14  C   UNL     1      95.829  88.399  83.405  1.00  0.00     0.017 C 
ATOM     15  C   UNL     1      97.287  86.211  83.073  1.00  0.00    -0.020 C 
ATOM     16  C   UNL     1      96.972  85.866  85.633  1.00  0.00     0.032 C 
ATOM     17  C   UNL     1      97.903  86.395  84.515  1.00  0.00     0.006 C 
ATOM     18  C   UNL     1      98.257  86.884  82.036  1.00  0.00     0.008 C 
ATOM     19  C   UNL     1      97.166  84.694  82.703  1.00  0.00     0.012 C 
ATOM     20  C   UNL     1      99.435  86.010  84.706  1.00  0.00    -0.025 C 
ATOM     21  C   UNL     1      99.739  86.502  82.194  1.00  0.00     0.005 C 
ATOM     22  C   UNL     1     100.252  86.812  83.623  1.00  0.00     0.003 C 
ATOM     23  C   UNL     1      99.890  86.509  86.117  1.00  0.00     0.010 C 
ATOM     24  C   UNL     1      99.660  84.461  84.626  1.00  0.00     0.012 C 
ATOM     25  C   UNL     1     101.826  86.812  83.796  1.00  0.00    -0.006 C 
ATOM     26  C   UNL     1     101.409  86.470  86.334  1.00  0.00     0.033 C 
ATOM     27  C   UNL     1     102.160  87.269  85.255  1.00  0.00     0.120 C 
ATOM     28  C   UNL     1     102.475  85.442  83.469  1.00  0.00     0.014 C 
ATOM     29  C   UNL     1     102.459  87.856  82.834  1.00  0.00     0.014 C 
ENDROOT
BRANCH   1  30
ATOM     30  C   UNL     1      91.696  85.133  82.261  1.00  0.00     0.048 C 
ATOM     31  O   UNL     1      91.042  84.605  83.199  1.00  0.00    -0.550 OA
ATOM     32  O   UNL     1      91.335  84.831  80.953  1.00  0.00    -0.550 OA
ENDBRANCH   1  30
BRANCH  27  33
ATOM     33  O   UNL     1     103.547  87.263  85.506  1.00  0.00    -0.393 OA
ATOM     34  H   UNL     1     103.848  86.320  85.566  1.00  0.00     0.210 HD
ENDBRANCH  27  33
TORSDOF 2
ENDMDL
MODEL 6
REMARK VINA RESULT:    -6.839      3.075     10.279
REMARK INTER + INTRA:          -7.594
REMARK INTER:                  -7.434
REMARK INTRA:                  -0.159
REMARK UNBOUND:                -0.155
REMARK SMILES C[C@H]1[C@H](C)CC[C@@]2(C(=O)[O-])CC[C@@]3(C)C(=CC[C@H]4[C@]5(C)CC[C@@H](O)C(C)(C)[C@H]5CC[C@@]43C)[C@@H]12
REMARK SMILES IDX 7 1 6 2 11 3 33 4 5 5 12 6 15 7 2 8 3 9 13 10 16 11 1 12
REMARK SMILES IDX 4 13 14 14 31 15 17 16 18 17 30 18 32 19 19 20 29 21 28 22
REMARK SMILES IDX 21 23 20 24 25 25 22 26 23 27 26 28 27 29 8 30 9 31 10 32
REMARK SMILES IDX 24 33
REMARK H PARENT 24 34
REMARK Flexibility Score: inf
ROOT
ATOM      1  C   UNL     1      87.239  84.808  79.473  1.00  0.00     0.017 C 
ATOM      2  C   UNL     1      87.128  85.235  77.974  1.00  0.00     0.014 C 
ATOM      3  C   UNL     1      88.396  83.798  79.636  1.00  0.00     0.014 C 
ATOM      4  C   UNL     1      87.481  86.023  80.453  1.00  0.00     0.030 C 
ATOM      5  C   UNL     1      86.185  86.407  77.746  1.00  0.00     0.004 C 
ATOM      6  C   UNL     1      89.764  84.375  79.250  1.00  0.00     0.013 C 
ATOM      7  C   UNL     1      88.978  86.321  80.775  1.00  0.00    -0.063 C 
ATOM      8  C   UNL     1      86.571  87.267  80.075  1.00  0.00    -0.003 C 
ATOM      9  C   UNL     1      86.637  87.625  78.566  1.00  0.00    -0.011 C 
ATOM     10  C   UNL     1      90.171  85.705  79.995  1.00  0.00    -0.006 C 
ATOM     11  C   UNL     1      89.235  87.019  81.912  1.00  0.00    -0.027 C 
ATOM     12  C   UNL     1      86.750  88.500  80.981  1.00  0.00     0.008 C 
ATOM     13  C   UNL     1      85.756  88.829  78.182  1.00  0.00     0.008 C 
ATOM     14  C   UNL     1      90.522  86.760  78.900  1.00  0.00     0.017 C 
ATOM     15  C   UNL     1      91.409  85.421  81.008  1.00  0.00    -0.020 C 
ATOM     16  C   UNL     1      90.589  87.469  82.391  1.00  0.00     0.032 C 
ATOM     17  C   UNL     1      91.799  86.779  81.713  1.00  0.00     0.006 C 
ATOM     18  C   UNL     1      92.680  84.875  80.262  1.00  0.00     0.008 C 
ATOM     19  C   UNL     1      90.971  84.347  82.059  1.00  0.00     0.012 C 
ATOM     20  C   UNL     1      93.127  86.788  82.589  1.00  0.00    -0.025 C 
ATOM     21  C   UNL     1      93.967  84.857  81.104  1.00  0.00     0.005 C 
ATOM     22  C   UNL     1      94.292  86.262  81.668  1.00  0.00     0.003 C 
ATOM     23  C   UNL     1      93.449  88.271  82.970  1.00  0.00     0.010 C 
ATOM     24  C   UNL     1      92.961  85.958  83.908  1.00  0.00     0.012 C 
ATOM     25  C   UNL     1      95.762  86.447  82.228  1.00  0.00    -0.006 C 
ATOM     26  C   UNL     1      94.849  88.474  83.567  1.00  0.00     0.033 C 
ATOM     27  C   UNL     1      95.950  87.948  82.630  1.00  0.00     0.120 C 
ATOM     28  C   UNL     1      96.087  85.500  83.413  1.00  0.00     0.014 C 
ATOM     29  C   UNL     1      96.793  86.142  81.106  1.00  0.00     0.014 C 
ENDROOT
BRANCH   1  30
ATOM     30  C   UNL     1      85.949  84.060  79.822  1.00  0.00     0.048 C 
ATOM     31  O   UNL     1      85.381  83.296  78.996  1.00  0.00    -0.550 OA
ATOM     32  O   UNL     1      85.398  84.183  81.093  1.00  0.00    -0.550 OA
ENDBRANCH   1  30
BRANCH  27  33
ATOM     33  O   UNL     1      97.227  88.194  83.174  1.00  0.00    -0.393 OA
ATOM     34  H   UNL     1      97.781  87.380  83.046  1.00  0.00     0.210 HD
ENDBRANCH  27  33
TORSDOF 2
ENDMDL
MODEL 7
REMARK VINA RESULT:    -6.705      2.044      2.891
REMARK INTER + INTRA:          -7.448
REMARK INTER:                  -7.339
REMARK INTRA:                  -0.109
REMARK UNBOUND:                -0.155
REMARK SMILES C[C@H]1[C@H](C)CC[C@@]2(C(=O)[O-])CC[C@@]3(C)C(=CC[C@H]4[C@]5(C)CC[C@@H](O)C(C)(C)[C@H]5CC[C@@]43C)[C@@H]12
REMARK SMILES IDX 7 1 6 2 11 3 33 4 5 5 12 6 15 7 2 8 3 9 13 10 16 11 1 12
REMARK SMILES IDX 4 13 14 14 31 15 17 16 18 17 30 18 32 19 19 20 29 21 28 22
REMARK SMILES IDX 21 23 20 24 25 25 22 26 23 27 26 28 27 29 8 30 9 31 10 32
REMARK SMILES IDX 24 33
REMARK H PARENT 24 34
REMARK Flexibility Score: inf
ROOT
ATOM      1  C   UNL     1      98.545  87.750  86.569  1.00  0.00     0.017 C 
ATOM      2  C   UNL     1      99.452  86.524  86.907  1.00  0.00     0.014 C 
ATOM      3  C   UNL     1      98.519  87.966  85.040  1.00  0.00     0.014 C 
ATOM      4  C   UNL     1      97.060  87.592  87.086  1.00  0.00     0.030 C 
ATOM      5  C   UNL     1      99.349  86.076  88.357  1.00  0.00     0.004 C 
ATOM      6  C   UNL     1      97.938  86.775  84.269  1.00  0.00     0.013 C 
ATOM      7  C   UNL     1      96.062  86.993  86.048  1.00  0.00    -0.063 C 
ATOM      8  C   UNL     1      97.015  86.985  88.551  1.00  0.00    -0.003 C 
ATOM      9  C   UNL     1      97.898  85.716  88.705  1.00  0.00    -0.011 C 
ATOM     10  C   UNL     1      96.496  86.316  84.719  1.00  0.00    -0.006 C 
ATOM     11  C   UNL     1      94.742  87.241  86.250  1.00  0.00    -0.027 C 
ATOM     12  C   UNL     1      95.601  86.791  89.130  1.00  0.00     0.008 C 
ATOM     13  C   UNL     1      97.867  85.117  90.124  1.00  0.00     0.008 C 
ATOM     14  C   UNL     1      96.577  84.794  85.050  1.00  0.00     0.017 C 
ATOM     15  C   UNL     1      95.416  86.645  83.550  1.00  0.00    -0.020 C 
ATOM     16  C   UNL     1      93.603  86.720  85.416  1.00  0.00     0.032 C 
ATOM     17  C   UNL     1      93.995  86.151  84.031  1.00  0.00     0.006 C 
ATOM     18  C   UNL     1      95.756  85.917  82.199  1.00  0.00     0.008 C 
ATOM     19  C   UNL     1      95.413  88.186  83.278  1.00  0.00     0.012 C 
ATOM     20  C   UNL     1      92.818  86.173  82.961  1.00  0.00    -0.025 C 
ATOM     21  C   UNL     1      94.635  85.950  81.146  1.00  0.00     0.005 C 
ATOM     22  C   UNL     1      93.318  85.359  81.707  1.00  0.00     0.003 C 
ATOM     23  C   UNL     1      91.593  85.413  83.569  1.00  0.00     0.010 C 
ATOM     24  C   UNL     1      92.376  87.635  82.611  1.00  0.00     0.012 C 
ATOM     25  C   UNL     1      92.218  85.002  80.625  1.00  0.00    -0.006 C 
ATOM     26  C   UNL     1      90.485  85.099  82.554  1.00  0.00     0.033 C 
ATOM     27  C   UNL     1      91.021  84.302  81.352  1.00  0.00     0.120 C 
ATOM     28  C   UNL     1      91.742  86.231  79.809  1.00  0.00     0.014 C 
ATOM     29  C   UNL     1      92.796  83.977  79.609  1.00  0.00     0.014 C 
ENDROOT
BRANCH   1  30
ATOM     30  C   UNL     1      99.217  88.985  87.177  1.00  0.00     0.048 C 
ATOM     31  O   UNL     1      98.556  90.009  87.497  1.00  0.00    -0.550 OA
ATOM     32  O   UNL     1     100.584  88.978  87.427  1.00  0.00    -0.550 OA
ENDBRANCH   1  30
BRANCH  27  33
ATOM     33  O   UNL     1      89.977  83.980  80.462  1.00  0.00    -0.393 OA
ATOM     34  H   UNL     1      90.354  83.934  79.545  1.00  0.00     0.210 HD
ENDBRANCH  27  33
TORSDOF 2
ENDMDL
MODEL 8
REMARK VINA RESULT:    -6.402      3.706      6.030
REMARK INTER + INTRA:          -7.118
REMARK INTER:                  -6.999
REMARK INTRA:                  -0.119
REMARK UNBOUND:                -0.155
REMARK SMILES C[C@H]1[C@H](C)CC[C@@]2(C(=O)[O-])CC[C@@]3(C)C(=CC[C@H]4[C@]5(C)CC[C@@H](O)C(C)(C)[C@H]5CC[C@@]43C)[C@@H]12
REMARK SMILES IDX 7 1 6 2 11 3 33 4 5 5 12 6 15 7 2 8 3 9 13 10 16 11 1 12
REMARK SMILES IDX 4 13 14 14 31 15 17 16 18 17 30 18 32 19 19 20 29 21 28 22
REMARK SMILES IDX 21 23 20 24 25 25 22 26 23 27 26 28 27 29 8 30 9 31 10 32
REMARK SMILES IDX 24 33
REMARK H PARENT 24 34
REMARK Flexibility Score: inf
ROOT
ATOM      1  C   UNL     1      93.913  87.634  87.233  1.00  0.00     0.017 C 
ATOM      2  C   UNL     1      93.818  89.162  87.541  1.00  0.00     0.014 C 
ATOM      3  C   UNL     1      92.502  87.010  87.279  1.00  0.00     0.014 C 
ATOM      4  C   UNL     1      94.564  87.319  85.828  1.00  0.00     0.030 C 
ATOM      5  C   UNL     1      95.113  89.916  87.280  1.00  0.00     0.004 C 
ATOM      6  C   UNL     1      91.543  87.600  86.237  1.00  0.00     0.013 C 
ATOM      7  C   UNL     1      93.549  87.150  84.655  1.00  0.00    -0.063 C 
ATOM      8  C   UNL     1      95.828  88.238  85.552  1.00  0.00    -0.003 C 
ATOM      9  C   UNL     1      95.548  89.742  85.818  1.00  0.00    -0.011 C 
ATOM     10  C   UNL     1      92.050  87.545  84.744  1.00  0.00    -0.006 C 
ATOM     11  C   UNL     1      93.976  86.459  83.567  1.00  0.00    -0.027 C 
ATOM     12  C   UNL     1      96.520  87.999  84.197  1.00  0.00     0.008 C 
ATOM     13  C   UNL     1      96.767  90.648  85.558  1.00  0.00     0.008 C 
ATOM     14  C   UNL     1      91.983  88.998  84.178  1.00  0.00     0.017 C 
ATOM     15  C   UNL     1      91.149  86.499  83.887  1.00  0.00    -0.020 C 
ATOM     16  C   UNL     1      93.196  86.223  82.302  1.00  0.00     0.032 C 
ATOM     17  C   UNL     1      91.674  86.492  82.398  1.00  0.00     0.006 C 
ATOM     18  C   UNL     1      89.628  86.894  83.868  1.00  0.00     0.008 C 
ATOM     19  C   UNL     1      91.268  85.077  84.532  1.00  0.00     0.012 C 
ATOM     20  C   UNL     1      90.805  85.702  81.324  1.00  0.00    -0.025 C 
ATOM     21  C   UNL     1      88.771  86.121  82.851  1.00  0.00     0.005 C 
ATOM     22  C   UNL     1      89.335  86.263  81.415  1.00  0.00     0.003 C 
ATOM     23  C   UNL     1      91.361  86.041  79.902  1.00  0.00     0.010 C 
ATOM     24  C   UNL     1      90.888  84.151  81.537  1.00  0.00     0.012 C 
ATOM     25  C   UNL     1      88.351  85.831  80.252  1.00  0.00    -0.006 C 
ATOM     26  C   UNL     1      90.453  85.587  78.750  1.00  0.00     0.033 C 
ATOM     27  C   UNL     1      89.033  86.163  78.882  1.00  0.00     0.120 C 
ATOM     28  C   UNL     1      87.932  84.340  80.329  1.00  0.00     0.014 C 
ATOM     29  C   UNL     1      87.047  86.675  80.329  1.00  0.00     0.014 C 
ENDROOT
BRANCH   1  30
ATOM     30  C   UNL     1      94.714  86.996  88.372  1.00  0.00     0.048 C 
ATOM     31  O   UNL     1      95.708  86.255  88.149  1.00  0.00    -0.550 OA
ATOM     32  O   UNL     1      94.375  87.265  89.694  1.00  0.00    -0.550 OA
ENDBRANCH   1  30
BRANCH  27  33
ATOM     33  O   UNL     1      88.235  85.776  77.787  1.00  0.00    -0.393 OA
ATOM     34  H   UNL     1      87.455  85.270  78.135  1.00  0.00     0.210 HD
ENDBRANCH  27  33
TORSDOF 2
ENDMDL
MODEL 9
REMARK VINA RESULT:    -6.385      2.393      8.637
REMARK INTER + INTRA:          -7.100
REMARK INTER:                  -6.959
REMARK INTRA:                  -0.141
REMARK UNBOUND:                -0.155
REMARK SMILES C[C@H]1[C@H](C)CC[C@@]2(C(=O)[O-])CC[C@@]3(C)C(=CC[C@H]4[C@]5(C)CC[C@@H](O)C(C)(C)[C@H]5CC[C@@]43C)[C@@H]12
REMARK SMILES IDX 7 1 6 2 11 3 33 4 5 5 12 6 15 7 2 8 3 9 13 10 16 11 1 12
REMARK SMILES IDX 4 13 14 14 31 15 17 16 18 17 30 18 32 19 19 20 29 21 28 22
REMARK SMILES IDX 21 23 20 24 25 25 22 26 23 27 26 28 27 29 8 30 9 31 10 32
REMARK SMILES IDX 24 33
REMARK H PARENT 24 34
REMARK Flexibility Score: inf
ROOT
ATOM      1  C   UNL     1      91.491  87.811  83.676  1.00  0.00     0.017 C 
ATOM      2  C   UNL     1      90.428  86.783  84.181  1.00  0.00     0.014 C 
ATOM      3  C   UNL     1      92.119  88.539  84.884  1.00  0.00     0.014 C 
ATOM      4  C   UNL     1      92.645  87.148  82.824  1.00  0.00     0.030 C 
ATOM      5  C   UNL     1      89.930  85.842  83.095  1.00  0.00     0.004 C 
ATOM      6  C   UNL     1      92.854  87.596  85.846  1.00  0.00     0.013 C 
ATOM      7  C   UNL     1      93.914  86.744  83.636  1.00  0.00    -0.063 C 
ATOM      8  C   UNL     1      92.075  86.071  81.808  1.00  0.00    -0.003 C 
ATOM      9  C   UNL     1      91.102  85.065  82.480  1.00  0.00    -0.011 C 
ATOM     10  C   UNL     1      93.970  86.695  85.187  1.00  0.00    -0.006 C 
ATOM     11  C   UNL     1      95.071  86.599  82.939  1.00  0.00    -0.027 C 
ATOM     12  C   UNL     1      93.138  85.372  80.940  1.00  0.00     0.008 C 
ATOM     13  C   UNL     1      90.536  84.015  81.505  1.00  0.00     0.008 C 
ATOM     14  C   UNL     1      93.646  85.214  85.555  1.00  0.00     0.017 C 
ATOM     15  C   UNL     1      95.439  87.159  85.704  1.00  0.00    -0.020 C 
ATOM     16  C   UNL     1      96.397  86.161  83.499  1.00  0.00     0.032 C 
ATOM     17  C   UNL     1      96.522  86.221  85.041  1.00  0.00     0.006 C 
ATOM     18  C   UNL     1      95.587  87.051  87.265  1.00  0.00     0.008 C 
ATOM     19  C   UNL     1      95.671  88.655  85.303  1.00  0.00     0.012 C 
ATOM     20  C   UNL     1      98.018  86.350  85.568  1.00  0.00    -0.025 C 
ATOM     21  C   UNL     1      97.025  87.198  87.791  1.00  0.00     0.005 C 
ATOM     22  C   UNL     1      97.974  86.166  87.133  1.00  0.00     0.003 C 
ATOM     23  C   UNL     1      98.849  85.169  84.969  1.00  0.00     0.010 C 
ATOM     24  C   UNL     1      98.676  87.701  85.125  1.00  0.00     0.012 C 
ATOM     25  C   UNL     1      99.372  85.972  87.851  1.00  0.00    -0.006 C 
ATOM     26  C   UNL     1     100.233  84.989  85.609  1.00  0.00     0.033 C 
ATOM     27  C   UNL     1     100.137  84.810  87.134  1.00  0.00     0.120 C 
ATOM     28  C   UNL     1     100.222  87.269  87.890  1.00  0.00     0.014 C 
ATOM     29  C   UNL     1      99.148  85.530  89.325  1.00  0.00     0.014 C 
ENDROOT
BRANCH   1  30
ATOM     30  C   UNL     1      90.739  88.870  82.865  1.00  0.00     0.048 C 
ATOM     31  O   UNL     1      91.274  89.459  81.888  1.00  0.00    -0.550 OA
ATOM     32  O   UNL     1      89.418  89.173  83.176  1.00  0.00    -0.550 OA
ENDBRANCH   1  30
BRANCH  27  33
ATOM     33  O   UNL     1     101.413  84.594  87.692  1.00  0.00    -0.393 OA
ATOM     34  H   UNL     1     102.091  84.971  87.073  1.00  0.00     0.210 HD
ENDBRANCH  27  33
TORSDOF 2
ENDMDL
