MODEL 1
REMARK VINA RESULT:    -2.472      0.000      0.000
REMARK INTER + INTRA:          -3.723
REMARK INTER:                  -3.195
REMARK INTRA:                  -0.528
REMARK UNBOUND:                -0.528
REMARK SMILES CCCCCCC(C)=O
REMARK SMILES IDX 4 1 3 2 2 3 1 4 5 5 6 6 7 7 9 8 8 9
REMARK H PARENT
REMARK Flexibility Score: inf
ROOT
ATOM      1  C   UNL     1     142.103 134.339 144.809  1.00  0.00     0.000 C 
ENDROOT
BRANCH   1   2
ATOM      2  C   UNL     1     142.792 133.735 146.047  1.00  0.00    -0.000 C 
BRANCH   2   3
ATOM      3  C   UNL     1     143.829 132.664 145.677  1.00  0.00    -0.003 C 
ATOM      4  C   UNL     1     143.668 132.155 144.245  1.00  0.00     0.004 C 
ENDBRANCH   2   3
ENDBRANCH   1   2
BRANCH   1   5
ATOM      5  C   UNL     1     142.415 135.834 144.632  1.00  0.00     0.008 C 
BRANCH   5   6
ATOM      6  C   UNL     1     143.429 136.096 143.511  1.00  0.00     0.075 C 
BRANCH   6   7
ATOM      7  C   UNL     1     144.835 136.042 144.042  1.00  0.00     0.129 C 
ATOM      8  O   UNL     1     145.567 135.115 143.730  1.00  0.00    -0.300 OA
ATOM      9  C   UNL     1     145.352 137.131 144.934  1.00  0.00     0.087 C 
ENDBRANCH   6   7
ENDBRANCH   5   6
ENDBRANCH   1   5
TORSDOF 5
ENDMDL
MODEL 2
REMARK VINA RESULT:    -2.449      9.195     10.646
REMARK INTER + INTRA:          -3.693
REMARK INTER:                  -3.232
REMARK INTRA:                  -0.461
REMARK UNBOUND:                -0.528
REMARK SMILES CCCCCCC(C)=O
REMARK SMILES IDX 4 1 3 2 2 3 1 4 5 5 6 6 7 7 9 8 8 9
REMARK H PARENT
REMARK Flexibility Score: inf
ROOT
ATOM      1  C   UNL     1     147.384 142.406 144.972  1.00  0.00     0.000 C 
ENDROOT
BRANCH   1   2
ATOM      2  C   UNL     1     146.935 142.851 143.568  1.00  0.00    -0.000 C 
BRANCH   2   3
ATOM      3  C   UNL     1     145.484 143.357 143.547  1.00  0.00    -0.003 C 
ATOM      4  C   UNL     1     145.386 144.876 143.689  1.00  0.00     0.004 C 
ENDBRANCH   2   3
ENDBRANCH   1   2
BRANCH   1   5
ATOM      5  C   UNL     1     148.521 143.277 145.530  1.00  0.00     0.008 C 
BRANCH   5   6
ATOM      6  C   UNL     1     149.484 143.762 144.438  1.00  0.00     0.075 C 
BRANCH   6   7
ATOM      7  C   UNL     1     149.829 145.212 144.639  1.00  0.00     0.129 C 
ATOM      8  O   UNL     1     150.972 145.528 144.936  1.00  0.00    -0.300 OA
ATOM      9  C   UNL     1     148.787 146.274 144.458  1.00  0.00     0.087 C 
ENDBRANCH   6   7
ENDBRANCH   5   6
ENDBRANCH   1   5
TORSDOF 5
ENDMDL
MODEL 3
REMARK VINA RESULT:    -2.426      9.059     10.487
REMARK INTER + INTRA:          -3.664
REMARK INTER:                  -3.087
REMARK INTRA:                  -0.577
REMARK UNBOUND:                -0.528
REMARK SMILES CCCCCCC(C)=O
REMARK SMILES IDX 4 1 3 2 2 3 1 4 5 5 6 6 7 7 9 8 8 9
REMARK H PARENT
REMARK Flexibility Score: inf
ROOT
ATOM      1  C   UNL     1     135.847 139.162 144.661  1.00  0.00     0.000 C 
ENDROOT
BRANCH   1   2
ATOM      2  C   UNL     1     136.057 138.347 143.372  1.00  0.00    -0.000 C 
BRANCH   2   3
ATOM      3  C   UNL     1     136.126 136.835 143.636  1.00  0.00    -0.003 C 
ATOM      4  C   UNL     1     136.502 136.505 145.081  1.00  0.00     0.004 C 
ENDBRANCH   2   3
ENDBRANCH   1   2
BRANCH   1   5
ATOM      5  C   UNL     1     134.407 139.682 144.802  1.00  0.00     0.008 C 
BRANCH   5   6
ATOM      6  C   UNL     1     133.541 138.787 145.700  1.00  0.00     0.075 C 
BRANCH   6   7
ATOM      7  C   UNL     1     132.636 137.918 144.871  1.00  0.00     0.129 C 
ATOM      8  O   UNL     1     131.996 138.410 143.954  1.00  0.00    -0.300 OA
ATOM      9  C   UNL     1     132.531 136.449 145.148  1.00  0.00     0.087 C 
ENDBRANCH   6   7
ENDBRANCH   5   6
ENDBRANCH   1   5
TORSDOF 5
ENDMDL
MODEL 4
REMARK VINA RESULT:    -2.387      8.937     10.799
REMARK INTER + INTRA:          -3.612
REMARK INTER:                  -3.099
REMARK INTRA:                  -0.513
REMARK UNBOUND:                -0.528
REMARK SMILES CCCCCCC(C)=O
REMARK SMILES IDX 4 1 3 2 2 3 1 4 5 5 6 6 7 7 9 8 8 9
REMARK H PARENT
REMARK Flexibility Score: inf
ROOT
ATOM      1  C   UNL     1     148.811 143.645 145.605  1.00  0.00     0.000 C 
ENDROOT
BRANCH   1   2
ATOM      2  C   UNL     1     149.619 144.504 144.614  1.00  0.00    -0.000 C 
BRANCH   2   3
ATOM      3  C   UNL     1     149.288 146.000 144.727  1.00  0.00    -0.003 C 
ATOM      4  C   UNL     1     148.729 146.580 143.428  1.00  0.00     0.004 C 
ENDBRANCH   2   3
ENDBRANCH   1   2
BRANCH   1   5
ATOM      5  C   UNL     1     148.050 142.504 144.912  1.00  0.00     0.008 C 
BRANCH   5   6
ATOM      6  C   UNL     1     147.340 142.962 143.630  1.00  0.00     0.075 C 
BRANCH   6   7
ATOM      7  C   UNL     1     145.923 143.372 143.925  1.00  0.00     0.129 C 
ATOM      8  O   UNL     1     145.141 142.558 144.393  1.00  0.00    -0.300 OA
ATOM      9  C   UNL     1     145.470 144.777 143.668  1.00  0.00     0.087 C 
ENDBRANCH   6   7
ENDBRANCH   5   6
ENDBRANCH   1   5
TORSDOF 5
ENDMDL
MODEL 5
REMARK VINA RESULT:    -2.384      1.850      2.430
REMARK INTER + INTRA:          -3.609
REMARK INTER:                  -3.094
REMARK INTRA:                  -0.515
REMARK UNBOUND:                -0.528
REMARK SMILES CCCCCCC(C)=O
REMARK SMILES IDX 4 1 3 2 2 3 1 4 5 5 6 6 7 7 9 8 8 9
REMARK H PARENT
REMARK Flexibility Score: inf
ROOT
ATOM      1  C   UNL     1     143.626 132.881 145.612  1.00  0.00     0.000 C 
ENDROOT
BRANCH   1   2
ATOM      2  C   UNL     1     144.469 132.105 144.583  1.00  0.00    -0.000 C 
BRANCH   2   3
ATOM      3  C   UNL     1     145.970 132.408 144.705  1.00  0.00    -0.003 C 
ATOM      4  C   UNL     1     146.588 132.870 143.385  1.00  0.00     0.004 C 
ENDBRANCH   2   3
ENDBRANCH   1   2
BRANCH   1   5
ATOM      5  C   UNL     1     142.482 133.673 144.959  1.00  0.00     0.008 C 
BRANCH   5   6
ATOM      6  C   UNL     1     142.897 134.325 143.633  1.00  0.00     0.075 C 
BRANCH   6   7
ATOM      7  C   UNL     1     143.345 135.743 143.855  1.00  0.00     0.129 C 
ATOM      8  O   UNL     1     142.536 136.587 144.211  1.00  0.00    -0.300 OA
ATOM      9  C   UNL     1     144.782 136.125 143.663  1.00  0.00     0.087 C 
ENDBRANCH   6   7
ENDBRANCH   5   6
ENDBRANCH   1   5
TORSDOF 5
ENDMDL
MODEL 6
REMARK VINA RESULT:    -2.380      1.595      3.583
REMARK INTER + INTRA:          -3.604
REMARK INTER:                  -2.995
REMARK INTRA:                  -0.609
REMARK UNBOUND:                -0.528
REMARK SMILES CCCCCCC(C)=O
REMARK SMILES IDX 4 1 3 2 2 3 1 4 5 5 6 6 7 7 9 8 8 9
REMARK H PARENT
REMARK Flexibility Score: inf
ROOT
ATOM      1  C   UNL     1     143.261 136.120 143.473  1.00  0.00     0.000 C 
ENDROOT
BRANCH   1   2
ATOM      2  C   UNL     1     144.793 136.169 143.615  1.00  0.00    -0.000 C 
BRANCH   2   3
ATOM      3  C   UNL     1     145.247 136.177 145.083  1.00  0.00    -0.003 C 
ATOM      4  C   UNL     1     146.216 135.039 145.407  1.00  0.00     0.004 C 
ENDBRANCH   2   3
ENDBRANCH   1   2
BRANCH   1   5
ATOM      5  C   UNL     1     142.560 135.718 144.781  1.00  0.00     0.008 C 
BRANCH   5   6
ATOM      6  C   UNL     1     141.925 134.322 144.705  1.00  0.00     0.075 C 
BRANCH   6   7
ATOM      7  C   UNL     1     142.915 133.266 145.112  1.00  0.00     0.129 C 
ATOM      8  O   UNL     1     143.254 133.171 146.282  1.00  0.00    -0.300 OA
ATOM      9  C   UNL     1     143.471 132.313 144.097  1.00  0.00     0.087 C 
ENDBRANCH   6   7
ENDBRANCH   5   6
ENDBRANCH   1   5
TORSDOF 5
ENDMDL
MODEL 7
REMARK VINA RESULT:    -2.379      9.072     10.291
REMARK INTER + INTRA:          -3.603
REMARK INTER:                  -3.148
REMARK INTRA:                  -0.455
REMARK UNBOUND:                -0.528
REMARK SMILES CCCCCCC(C)=O
REMARK SMILES IDX 4 1 3 2 2 3 1 4 5 5 6 6 7 7 9 8 8 9
REMARK H PARENT
REMARK Flexibility Score: inf
ROOT
ATOM      1  C   UNL     1     132.987 138.399 145.403  1.00  0.00     0.000 C 
ENDROOT
BRANCH   1   2
ATOM      2  C   UNL     1     132.024 137.775 144.376  1.00  0.00    -0.000 C 
BRANCH   2   3
ATOM      3  C   UNL     1     131.642 136.330 144.731  1.00  0.00    -0.003 C 
ATOM      4  C   UNL     1     132.724 135.321 144.344  1.00  0.00     0.004 C 
ENDBRANCH   2   3
ENDBRANCH   1   2
BRANCH   1   5
ATOM      5  C   UNL     1     134.018 139.335 144.751  1.00  0.00     0.008 C 
BRANCH   5   6
ATOM      6  C   UNL     1     134.636 138.738 143.479  1.00  0.00     0.075 C 
BRANCH   6   7
ATOM      7  C   UNL     1     135.970 138.111 143.779  1.00  0.00     0.129 C 
ATOM      8  O   UNL     1     136.892 138.808 144.177  1.00  0.00    -0.300 OA
ATOM      9  C   UNL     1     136.171 136.635 143.614  1.00  0.00     0.087 C 
ENDBRANCH   6   7
ENDBRANCH   5   6
ENDBRANCH   1   5
TORSDOF 5
ENDMDL
MODEL 8
REMARK VINA RESULT:    -2.365      9.405     10.918
REMARK INTER + INTRA:          -3.584
REMARK INTER:                  -3.154
REMARK INTRA:                  -0.430
REMARK UNBOUND:                -0.528
REMARK SMILES CCCCCCC(C)=O
REMARK SMILES IDX 4 1 3 2 2 3 1 4 5 5 6 6 7 7 9 8 8 9
REMARK H PARENT
REMARK Flexibility Score: inf
ROOT
ATOM      1  C   UNL     1     133.161 138.722 145.183  1.00  0.00     0.000 C 
ENDROOT
BRANCH   1   2
ATOM      2  C   UNL     1     134.296 139.617 144.654  1.00  0.00    -0.000 C 
BRANCH   2   3
ATOM      3  C   UNL     1     135.665 138.923 144.704  1.00  0.00    -0.003 C 
ATOM      4  C   UNL     1     136.054 138.286 143.370  1.00  0.00     0.004 C 
ENDBRANCH   2   3
ENDBRANCH   1   2
BRANCH   1   5
ATOM      5  C   UNL     1     132.419 137.984 144.057  1.00  0.00     0.008 C 
BRANCH   5   6
ATOM      6  C   UNL     1     132.017 136.556 144.452  1.00  0.00     0.075 C 
BRANCH   6   7
ATOM      7  C   UNL     1     133.059 135.568 144.005  1.00  0.00     0.129 C 
ATOM      8  O   UNL     1     132.922 134.980 142.942  1.00  0.00    -0.300 OA
ATOM      9  C   UNL     1     134.276 135.315 144.843  1.00  0.00     0.087 C 
ENDBRANCH   6   7
ENDBRANCH   5   6
ENDBRANCH   1   5
TORSDOF 5
ENDMDL
MODEL 9
REMARK VINA RESULT:    -2.358      1.788      3.559
REMARK INTER + INTRA:          -3.576
REMARK INTER:                  -2.978
REMARK INTRA:                  -0.597
REMARK UNBOUND:                -0.528
REMARK SMILES CCCCCCC(C)=O
REMARK SMILES IDX 4 1 3 2 2 3 1 4 5 5 6 6 7 7 9 8 8 9
REMARK H PARENT
REMARK Flexibility Score: inf
ROOT
ATOM      1  C   UNL     1     142.807 133.462 144.759  1.00  0.00     0.000 C 
ENDROOT
BRANCH   1   2
ATOM      2  C   UNL     1     142.849 134.801 144.001  1.00  0.00    -0.000 C 
BRANCH   2   3
ATOM      3  C   UNL     1     143.803 135.815 144.652  1.00  0.00    -0.003 C 
ATOM      4  C   UNL     1     144.947 136.229 143.726  1.00  0.00     0.004 C 
ENDBRANCH   2   3
ENDBRANCH   1   2
BRANCH   1   5
ATOM      5  C   UNL     1     143.514 132.330 143.995  1.00  0.00     0.008 C 
BRANCH   5   6
ATOM      6  C   UNL     1     144.724 131.771 144.756  1.00  0.00     0.075 C 
BRANCH   6   7
ATOM      7  C   UNL     1     145.899 132.704 144.647  1.00  0.00     0.129 C 
ATOM      8  O   UNL     1     146.305 133.287 145.640  1.00  0.00    -0.300 OA
ATOM      9  C   UNL     1     146.588 132.906 143.331  1.00  0.00     0.087 C 
ENDBRANCH   6   7
ENDBRANCH   5   6
ENDBRANCH   1   5
TORSDOF 5
ENDMDL
