MODEL 1
REMARK VINA RESULT:    -5.917      0.000      0.000
REMARK INTER + INTRA:          -7.495
REMARK INTER:                  -7.301
REMARK INTRA:                  -0.194
REMARK UNBOUND:                -0.194
REMARK SMILES Oc1cc(O)c2cc(O)c(-c3cc(O)c(O)c(O)c3)[o+]c2c1.[Cl-]
REMARK SMILES IDX 10 1 20 2 21 3 22 4 2 5 3 6 4 7 6 8 7 9 8 10 11 11 12 12
REMARK SMILES IDX 13 13 19 14 15 15 17 16 14 17 16 19 18 21 9 23 1 25 5 27
REMARK H PARENT 14 18 16 20 18 22 9 24 1 26 5 28
REMARK Flexibility Score: inf
ROOT
ATOM      1  C   UNL     1      -9.354   7.739  15.958  1.00  0.00     0.402 A 
ATOM      2  O   UNL     1      -8.385   8.273  16.699  1.00  0.00    -0.202 OA
ATOM      3  C   UNL     1      -8.587   8.774  17.913  1.00  0.00     0.368 A 
ATOM      4  C   UNL     1      -7.505   9.312  18.615  1.00  0.00     0.162 A 
ATOM      5  C   UNL     1      -7.687   9.842  19.893  1.00  0.00     0.128 A 
ATOM      6  C   UNL     1      -8.960   9.836  20.476  1.00  0.00     0.093 A 
ATOM      7  C   UNL     1     -10.060   9.303  19.792  1.00  0.00     0.136 A 
ATOM      8  C   UNL     1      -9.879   8.765  18.492  1.00  0.00     0.125 A 
ATOM      9  C   UNL     1     -10.926   8.222  17.728  1.00  0.00     0.078 A 
ATOM     10  C   UNL     1     -10.671   7.714  16.451  1.00  0.00     0.223 A 
ENDROOT
BRANCH   1  11
ATOM     11  C   UNL     1      -9.000   7.204  14.624  1.00  0.00     0.091 A 
ATOM     12  C   UNL     1      -8.141   6.100  14.528  1.00  0.00     0.068 A 
ATOM     13  C   UNL     1      -7.805   5.562  13.282  1.00  0.00     0.162 A 
ATOM     14  C   UNL     1      -9.551   7.746  13.450  1.00  0.00     0.068 A 
ATOM     15  C   UNL     1      -8.341   6.119  12.109  1.00  0.00     0.200 A 
ATOM     16  C   UNL     1      -9.221   7.213  12.196  1.00  0.00     0.162 A 
BRANCH  13  17
ATOM     17  O   UNL     1      -6.937   4.472  13.229  1.00  0.00    -0.504 OA
ATOM     18  H   UNL     1      -6.729   3.988  12.364  1.00  0.00     0.293 HD
ENDBRANCH  13  17
BRANCH  15  19
ATOM     19  O   UNL     1      -7.999   5.579  10.868  1.00  0.00    -0.502 OA
ATOM     20  H   UNL     1      -7.418   4.755  10.780  1.00  0.00     0.293 HD
ENDBRANCH  15  19
BRANCH  16  21
ATOM     21  O   UNL     1      -9.768   7.762  11.038  1.00  0.00    -0.504 OA
ATOM     22  H   UNL     1      -9.600   7.355  10.126  1.00  0.00     0.293 HD
ENDBRANCH  16  21
ENDBRANCH   1  11
BRANCH  10  23
ATOM     23  O   UNL     1     -11.719   7.222  15.673  1.00  0.00    -0.500 OA
ATOM     24  H   UNL     1     -11.557   6.577  14.908  1.00  0.00     0.294 HD
ENDBRANCH  10  23
BRANCH   5  25
ATOM     25  O   UNL     1      -6.596  10.374  20.577  1.00  0.00    -0.507 OA
ATOM     26  H   UNL     1      -6.707  11.123  21.249  1.00  0.00     0.293 HD
ENDBRANCH   5  25
BRANCH   7  27
ATOM     27  O   UNL     1     -11.296   9.331  20.443  1.00  0.00    -0.507 OA
ATOM     28  H   UNL     1     -12.178   9.113  20.002  1.00  0.00     0.293 HD
ENDBRANCH   7  27
TORSDOF 7
ENDMDL
MODEL 2
REMARK VINA RESULT:    -5.850      0.278      1.802
REMARK INTER + INTRA:          -7.412
REMARK INTER:                  -7.105
REMARK INTRA:                  -0.306
REMARK UNBOUND:                -0.194
REMARK SMILES Oc1cc(O)c2cc(O)c(-c3cc(O)c(O)c(O)c3)[o+]c2c1.[Cl-]
REMARK SMILES IDX 10 1 20 2 21 3 22 4 2 5 3 6 4 7 6 8 7 9 8 10 11 11 12 12
REMARK SMILES IDX 13 13 19 14 15 15 17 16 14 17 16 19 18 21 9 23 1 25 5 27
REMARK H PARENT 14 18 16 20 18 22 9 24 1 26 5 28
REMARK Flexibility Score: inf
ROOT
ATOM      1  C   UNL     1      -9.308   7.807  16.065  1.00  0.00     0.402 A 
ATOM      2  O   UNL     1      -8.372   8.368  16.829  1.00  0.00    -0.202 OA
ATOM      3  C   UNL     1      -8.622   8.881  18.029  1.00  0.00     0.368 A 
ATOM      4  C   UNL     1      -7.573   9.446  18.759  1.00  0.00     0.162 A 
ATOM      5  C   UNL     1      -7.804   9.989  20.023  1.00  0.00     0.128 A 
ATOM      6  C   UNL     1      -9.095   9.968  20.564  1.00  0.00     0.093 A 
ATOM      7  C   UNL     1     -10.163   9.407  19.853  1.00  0.00     0.136 A 
ATOM      8  C   UNL     1      -9.931   8.856  18.567  1.00  0.00     0.125 A 
ATOM      9  C   UNL     1     -10.944   8.285  17.778  1.00  0.00     0.078 A 
ATOM     10  C   UNL     1     -10.639   7.765  16.516  1.00  0.00     0.223 A 
ENDROOT
BRANCH   1  11
ATOM     11  C   UNL     1      -8.902   7.262  14.750  1.00  0.00     0.091 A 
ATOM     12  C   UNL     1      -9.217   7.969  13.582  1.00  0.00     0.068 A 
ATOM     13  C   UNL     1      -8.830   7.488  12.327  1.00  0.00     0.162 A 
ATOM     14  C   UNL     1      -8.157   6.074  14.649  1.00  0.00     0.068 A 
ATOM     15  C   UNL     1      -8.103   6.290  12.229  1.00  0.00     0.200 A 
ATOM     16  C   UNL     1      -7.763   5.584  13.397  1.00  0.00     0.162 A 
BRANCH  13  17
ATOM     17  O   UNL     1      -9.176   8.216  11.189  1.00  0.00    -0.504 OA
ATOM     18  H   UNL     1      -9.742   7.821  10.447  1.00  0.00     0.293 HD
ENDBRANCH  13  17
BRANCH  15  19
ATOM     19  O   UNL     1      -7.723   5.814  10.974  1.00  0.00    -0.502 OA
ATOM     20  H   UNL     1      -7.719   4.827  10.749  1.00  0.00     0.293 HD
ENDBRANCH  15  19
BRANCH  16  21
ATOM     21  O   UNL     1      -7.029   4.402  13.308  1.00  0.00    -0.504 OA
ATOM     22  H   UNL     1      -6.211   4.327  12.716  1.00  0.00     0.293 HD
ENDBRANCH  16  21
ENDBRANCH   1  11
BRANCH  10  23
ATOM     23  O   UNL     1     -11.653   7.244  15.711  1.00  0.00    -0.500 OA
ATOM     24  H   UNL     1     -11.451   6.768  14.841  1.00  0.00     0.294 HD
ENDBRANCH  10  23
BRANCH   5  25
ATOM     25  O   UNL     1      -6.745  10.549  20.734  1.00  0.00    -0.507 OA
ATOM     26  H   UNL     1      -6.690  10.481  21.743  1.00  0.00     0.293 HD
ENDBRANCH   5  25
BRANCH   7  27
ATOM     27  O   UNL     1     -11.420   9.422  20.465  1.00  0.00    -0.507 OA
ATOM     28  H   UNL     1     -11.890   8.602  20.822  1.00  0.00     0.293 HD
ENDBRANCH   7  27
TORSDOF 7
ENDMDL
MODEL 3
REMARK VINA RESULT:    -5.786      4.219      8.181
REMARK INTER + INTRA:          -7.332
REMARK INTER:                  -7.700
REMARK INTRA:                   0.367
REMARK UNBOUND:                -0.194
REMARK SMILES Oc1cc(O)c2cc(O)c(-c3cc(O)c(O)c(O)c3)[o+]c2c1.[Cl-]
REMARK SMILES IDX 10 1 20 2 21 3 22 4 2 5 3 6 4 7 6 8 7 9 8 10 11 11 12 12
REMARK SMILES IDX 13 13 19 14 15 15 17 16 14 17 16 19 18 21 9 23 1 25 5 27
REMARK H PARENT 14 18 16 20 18 22 9 24 1 26 5 28
REMARK Flexibility Score: inf
ROOT
ATOM      1  C   UNL     1      -5.296  10.213  16.968  1.00  0.00     0.402 A 
ATOM      2  O   UNL     1      -5.743  10.149  15.715  1.00  0.00    -0.202 OA
ATOM      3  C   UNL     1      -4.961  10.308  14.653  1.00  0.00     0.368 A 
ATOM      4  C   UNL     1      -5.522  10.220  13.376  1.00  0.00     0.162 A 
ATOM      5  C   UNL     1      -4.725  10.380  12.243  1.00  0.00     0.128 A 
ATOM      6  C   UNL     1      -3.354  10.630  12.384  1.00  0.00     0.093 A 
ATOM      7  C   UNL     1      -2.768  10.723  13.653  1.00  0.00     0.136 A 
ATOM      8  C   UNL     1      -3.577  10.563  14.808  1.00  0.00     0.125 A 
ATOM      9  C   UNL     1      -3.078  10.653  16.117  1.00  0.00     0.078 A 
ATOM     10  C   UNL     1      -3.938  10.488  17.208  1.00  0.00     0.223 A 
ENDROOT
BRANCH   1  11
ATOM     11  C   UNL     1      -6.266  10.008  18.068  1.00  0.00     0.091 A 
ATOM     12  C   UNL     1      -7.521   9.449  17.787  1.00  0.00     0.068 A 
ATOM     13  C   UNL     1      -8.449   9.226  18.809  1.00  0.00     0.162 A 
ATOM     14  C   UNL     1      -5.935  10.311  19.400  1.00  0.00     0.068 A 
ATOM     15  C   UNL     1      -8.123   9.550  20.137  1.00  0.00     0.200 A 
ATOM     16  C   UNL     1      -6.859  10.091  20.431  1.00  0.00     0.162 A 
BRANCH  13  17
ATOM     17  O   UNL     1      -9.691   8.680  18.485  1.00  0.00    -0.504 OA
ATOM     18  H   UNL     1     -10.548   8.989  18.928  1.00  0.00     0.293 HD
ENDBRANCH  13  17
BRANCH  15  19
ATOM     19  O   UNL     1      -9.056   9.327  21.151  1.00  0.00    -0.502 OA
ATOM     20  H   UNL     1      -9.225  10.002  21.885  1.00  0.00     0.293 HD
ENDBRANCH  15  19
BRANCH  16  21
ATOM     21  O   UNL     1      -6.523  10.401  21.748  1.00  0.00    -0.504 OA
ATOM     22  H   UNL     1      -6.284  11.344  22.027  1.00  0.00     0.293 HD
ENDBRANCH  16  21
ENDBRANCH   1  11
BRANCH  10  23
ATOM     23  O   UNL     1      -3.453  10.628  18.508  1.00  0.00    -0.500 OA
ATOM     24  H   UNL     1      -4.068  10.604  19.312  1.00  0.00     0.294 HD
ENDBRANCH  10  23
BRANCH   5  25
ATOM     25  O   UNL     1      -5.303  10.289  10.979  1.00  0.00    -0.507 OA
ATOM     26  H   UNL     1      -4.976   9.617  10.294  1.00  0.00     0.293 HD
ENDBRANCH   5  25
BRANCH   7  27
ATOM     27  O   UNL     1      -1.394  10.971  13.709  1.00  0.00    -0.507 OA
ATOM     28  H   UNL     1      -0.693  10.401  13.259  1.00  0.00     0.293 HD
ENDBRANCH   7  27
TORSDOF 7
ENDMDL
MODEL 4
REMARK VINA RESULT:    -5.652      2.373      7.823
REMARK INTER + INTRA:          -7.168
REMARK INTER:                  -7.059
REMARK INTRA:                  -0.108
REMARK UNBOUND:                -0.194
REMARK SMILES Oc1cc(O)c2cc(O)c(-c3cc(O)c(O)c(O)c3)[o+]c2c1.[Cl-]
REMARK SMILES IDX 10 1 20 2 21 3 22 4 2 5 3 6 4 7 6 8 7 9 8 10 11 11 12 12
REMARK SMILES IDX 13 13 19 14 15 15 17 16 14 17 16 19 18 21 9 23 1 25 5 27
REMARK H PARENT 14 18 16 20 18 22 9 24 1 26 5 28
REMARK Flexibility Score: inf
ROOT
ATOM      1  C   UNL     1      -9.517   7.252  13.553  1.00  0.00     0.402 A 
ATOM      2  O   UNL     1     -10.465   6.888  12.693  1.00  0.00    -0.202 OA
ATOM      3  C   UNL     1     -10.210   6.480  11.455  1.00  0.00     0.368 A 
ATOM      4  C   UNL     1     -11.274   6.114  10.626  1.00  0.00     0.162 A 
ATOM      5  C   UNL     1     -11.035   5.678   9.322  1.00  0.00     0.128 A 
ATOM      6  C   UNL     1      -9.723   5.607   8.840  1.00  0.00     0.093 A 
ATOM      7  C   UNL     1      -8.640   5.968   9.651  1.00  0.00     0.136 A 
ATOM      8  C   UNL     1      -8.879   6.413  10.977  1.00  0.00     0.125 A 
ATOM      9  C   UNL     1      -7.856   6.807  11.855  1.00  0.00     0.078 A 
ATOM     10  C   UNL     1      -8.170   7.240  13.147  1.00  0.00     0.223 A 
ENDROOT
BRANCH   1  11
ATOM     11  C   UNL     1      -9.928   7.679  14.909  1.00  0.00     0.091 A 
ATOM     12  C   UNL     1      -9.352   7.066  16.031  1.00  0.00     0.068 A 
ATOM     13  C   UNL     1      -9.707   7.462  17.324  1.00  0.00     0.162 A 
ATOM     14  C   UNL     1     -10.847   8.726  15.099  1.00  0.00     0.068 A 
ATOM     15  C   UNL     1     -10.642   8.495  17.510  1.00  0.00     0.200 A 
ATOM     16  C   UNL     1     -11.209   9.131  16.391  1.00  0.00     0.162 A 
BRANCH  13  17
ATOM     17  O   UNL     1      -9.121   6.818  18.413  1.00  0.00    -0.504 OA
ATOM     18  H   UNL     1      -9.638   6.607  19.258  1.00  0.00     0.293 HD
ENDBRANCH  13  17
BRANCH  15  19
ATOM     19  O   UNL     1     -10.994   8.884  18.803  1.00  0.00    -0.502 OA
ATOM     20  H   UNL     1     -11.341   8.225  19.489  1.00  0.00     0.293 HD
ENDBRANCH  15  19
BRANCH  16  21
ATOM     21  O   UNL     1     -12.125  10.167  16.567  1.00  0.00    -0.504 OA
ATOM     22  H   UNL     1     -12.883  10.322  15.915  1.00  0.00     0.293 HD
ENDBRANCH  16  21
ENDBRANCH   1  11
BRANCH  10  23
ATOM     23  O   UNL     1      -7.159   7.679  14.002  1.00  0.00    -0.500 OA
ATOM     24  H   UNL     1      -6.298   7.159  14.121  1.00  0.00     0.294 HD
ENDBRANCH  10  23
BRANCH   5  25
ATOM     25  O   UNL     1     -12.110   5.319   8.511  1.00  0.00    -0.507 OA
ATOM     26  H   UNL     1     -12.418   4.356   8.438  1.00  0.00     0.293 HD
ENDBRANCH   5  25
BRANCH   7  27
ATOM     27  O   UNL     1      -7.360   5.865   9.097  1.00  0.00    -0.507 OA
ATOM     28  H   UNL     1      -6.536   6.305   9.480  1.00  0.00     0.293 HD
ENDBRANCH   7  27
TORSDOF 7
ENDMDL
MODEL 5
REMARK VINA RESULT:    -5.618      1.597      2.662
REMARK INTER + INTRA:          -7.126
REMARK INTER:                  -6.819
REMARK INTRA:                  -0.307
REMARK UNBOUND:                -0.194
REMARK SMILES Oc1cc(O)c2cc(O)c(-c3cc(O)c(O)c(O)c3)[o+]c2c1.[Cl-]
REMARK SMILES IDX 10 1 20 2 21 3 22 4 2 5 3 6 4 7 6 8 7 9 8 10 11 11 12 12
REMARK SMILES IDX 13 13 19 14 15 15 17 16 14 17 16 19 18 21 9 23 1 25 5 27
REMARK H PARENT 14 18 16 20 18 22 9 24 1 26 5 28
REMARK Flexibility Score: inf
ROOT
ATOM      1  C   UNL     1      -9.559   7.593  14.633  1.00  0.00     0.402 A 
ATOM      2  O   UNL     1      -8.629   8.482  14.977  1.00  0.00    -0.202 OA
ATOM      3  C   UNL     1      -8.383   8.831  16.235  1.00  0.00     0.368 A 
ATOM      4  C   UNL     1      -7.383   9.772  16.496  1.00  0.00     0.162 A 
ATOM      5  C   UNL     1      -7.100  10.155  17.807  1.00  0.00     0.128 A 
ATOM      6  C   UNL     1      -7.821   9.594  18.868  1.00  0.00     0.093 A 
ATOM      7  C   UNL     1      -8.827   8.650  18.632  1.00  0.00     0.136 A 
ATOM      8  C   UNL     1      -9.119   8.259  17.300  1.00  0.00     0.125 A 
ATOM      9  C   UNL     1     -10.119   7.330  16.969  1.00  0.00     0.078 A 
ATOM     10  C   UNL     1     -10.352   6.998  15.631  1.00  0.00     0.223 A 
ENDROOT
BRANCH   1  11
ATOM     11  C   UNL     1      -9.732   7.281  13.197  1.00  0.00     0.091 A 
ATOM     12  C   UNL     1     -10.832   7.805  12.503  1.00  0.00     0.068 A 
ATOM     13  C   UNL     1     -11.010   7.543  11.141  1.00  0.00     0.162 A 
ATOM     14  C   UNL     1      -8.785   6.514  12.496  1.00  0.00     0.068 A 
ATOM     15  C   UNL     1     -10.072   6.758  10.449  1.00  0.00     0.200 A 
ATOM     16  C   UNL     1      -8.954   6.246  11.131  1.00  0.00     0.162 A 
BRANCH  13  17
ATOM     17  O   UNL     1     -12.125   8.072  10.492  1.00  0.00    -0.504 OA
ATOM     18  H   UNL     1     -13.022   7.602  10.492  1.00  0.00     0.293 HD
ENDBRANCH  13  17
BRANCH  15  19
ATOM     19  O   UNL     1     -10.258   6.497   9.091  1.00  0.00    -0.502 OA
ATOM     20  H   UNL     1     -10.549   7.215   8.439  1.00  0.00     0.293 HD
ENDBRANCH  15  19
BRANCH  16  21
ATOM     21  O   UNL     1      -8.012   5.479  10.448  1.00  0.00    -0.504 OA
ATOM     22  H   UNL     1      -7.094   5.841  10.222  1.00  0.00     0.293 HD
ENDBRANCH  16  21
ENDBRANCH   1  11
BRANCH  10  23
ATOM     23  O   UNL     1     -11.378   6.113  15.298  1.00  0.00    -0.500 OA
ATOM     24  H   UNL     1     -11.397   5.163  15.649  1.00  0.00     0.294 HD
ENDBRANCH  10  23
BRANCH   5  25
ATOM     25  O   UNL     1      -6.100  11.095  18.047  1.00  0.00    -0.507 OA
ATOM     26  H   UNL     1      -5.699  11.218  18.969  1.00  0.00     0.293 HD
ENDBRANCH   5  25
BRANCH   7  27
ATOM     27  O   UNL     1      -9.499   8.134  19.745  1.00  0.00    -0.507 OA
ATOM     28  H   UNL     1      -9.934   8.699  20.460  1.00  0.00     0.293 HD
ENDBRANCH   7  27
TORSDOF 7
ENDMDL
MODEL 6
REMARK VINA RESULT:    -5.598      2.138      7.006
REMARK INTER + INTRA:          -7.100
REMARK INTER:                  -6.732
REMARK INTRA:                  -0.368
REMARK UNBOUND:                -0.194
REMARK SMILES Oc1cc(O)c2cc(O)c(-c3cc(O)c(O)c(O)c3)[o+]c2c1.[Cl-]
REMARK SMILES IDX 10 1 20 2 21 3 22 4 2 5 3 6 4 7 6 8 7 9 8 10 11 11 12 12
REMARK SMILES IDX 13 13 19 14 15 15 17 16 14 17 16 19 18 21 9 23 1 25 5 27
REMARK H PARENT 14 18 16 20 18 22 9 24 1 26 5 28
REMARK Flexibility Score: inf
ROOT
ATOM      1  C   UNL     1      -9.187   8.560  17.026  1.00  0.00     0.402 A 
ATOM      2  O   UNL     1      -9.373   9.425  16.031  1.00  0.00    -0.202 OA
ATOM      3  C   UNL     1      -9.845   9.074  14.840  1.00  0.00     0.368 A 
ATOM      4  C   UNL     1     -10.010  10.056  13.858  1.00  0.00     0.162 A 
ATOM      5  C   UNL     1     -10.506   9.718  12.599  1.00  0.00     0.128 A 
ATOM      6  C   UNL     1     -10.843   8.389  12.316  1.00  0.00     0.093 A 
ATOM      7  C   UNL     1     -10.687   7.388  13.282  1.00  0.00     0.136 A 
ATOM      8  C   UNL     1     -10.180   7.727  14.564  1.00  0.00     0.125 A 
ATOM      9  C   UNL     1      -9.979   6.787  15.588  1.00  0.00     0.078 A 
ATOM     10  C   UNL     1      -9.471   7.197  16.825  1.00  0.00     0.223 A 
ENDROOT
BRANCH   1  11
ATOM     11  C   UNL     1      -8.664   9.075  18.312  1.00  0.00     0.091 A 
ATOM     12  C   UNL     1      -7.300   9.380  18.430  1.00  0.00     0.068 A 
ATOM     13  C   UNL     1      -6.781   9.886  19.627  1.00  0.00     0.162 A 
ATOM     14  C   UNL     1      -9.515   9.318  19.403  1.00  0.00     0.068 A 
ATOM     15  C   UNL     1      -7.633  10.108  20.722  1.00  0.00     0.200 A 
ATOM     16  C   UNL     1      -9.006   9.826  20.606  1.00  0.00     0.162 A 
BRANCH  13  17
ATOM     17  O   UNL     1      -5.418  10.164  19.707  1.00  0.00    -0.504 OA
ATOM     18  H   UNL     1      -4.723   9.433  19.803  1.00  0.00     0.293 HD
ENDBRANCH  13  17
BRANCH  15  19
ATOM     19  O   UNL     1      -7.108  10.611  21.914  1.00  0.00    -0.502 OA
ATOM     20  H   UNL     1      -7.645  11.208  22.530  1.00  0.00     0.293 HD
ENDBRANCH  15  19
BRANCH  16  21
ATOM     21  O   UNL     1      -9.859  10.057  21.684  1.00  0.00    -0.504 OA
ATOM     22  H   UNL     1     -10.861   9.938  21.603  1.00  0.00     0.293 HD
ENDBRANCH  16  21
ENDBRANCH   1  11
BRANCH  10  23
ATOM     23  O   UNL     1      -9.223   6.257  17.825  1.00  0.00    -0.500 OA
ATOM     24  H   UNL     1      -9.426   6.449  18.798  1.00  0.00     0.294 HD
ENDBRANCH  10  23
BRANCH   5  25
ATOM     25  O   UNL     1     -10.662  10.711  11.635  1.00  0.00    -0.507 OA
ATOM     26  H   UNL     1     -11.547  10.856  11.162  1.00  0.00     0.293 HD
ENDBRANCH   5  25
BRANCH   7  27
ATOM     27  O   UNL     1     -11.049   6.086  12.923  1.00  0.00    -0.507 OA
ATOM     28  H   UNL     1     -11.919   5.840  12.474  1.00  0.00     0.293 HD
ENDBRANCH   7  27
TORSDOF 7
ENDMDL
MODEL 7
REMARK VINA RESULT:    -5.557      2.071      7.081
REMARK INTER + INTRA:          -7.051
REMARK INTER:                  -6.734
REMARK INTRA:                  -0.317
REMARK UNBOUND:                -0.194
REMARK SMILES Oc1cc(O)c2cc(O)c(-c3cc(O)c(O)c(O)c3)[o+]c2c1.[Cl-]
REMARK SMILES IDX 10 1 20 2 21 3 22 4 2 5 3 6 4 7 6 8 7 9 8 10 11 11 12 12
REMARK SMILES IDX 13 13 19 14 15 15 17 16 14 17 16 19 18 21 9 23 1 25 5 27
REMARK H PARENT 14 18 16 20 18 22 9 24 1 26 5 28
REMARK Flexibility Score: inf
ROOT
ATOM      1  C   UNL     1      -9.133   8.599  16.880  1.00  0.00     0.402 A 
ATOM      2  O   UNL     1      -9.282   9.470  15.884  1.00  0.00    -0.202 OA
ATOM      3  C   UNL     1      -9.732   9.131  14.681  1.00  0.00     0.368 A 
ATOM      4  C   UNL     1      -9.858  10.118  13.699  1.00  0.00     0.162 A 
ATOM      5  C   UNL     1     -10.331   9.792  12.428  1.00  0.00     0.128 A 
ATOM      6  C   UNL     1     -10.683   8.469  12.133  1.00  0.00     0.093 A 
ATOM      7  C   UNL     1     -10.567   7.463  13.099  1.00  0.00     0.136 A 
ATOM      8  C   UNL     1     -10.084   7.790  14.393  1.00  0.00     0.125 A 
ATOM      9  C   UNL     1      -9.922   6.844  15.418  1.00  0.00     0.078 A 
ATOM     10  C   UNL     1      -9.435   7.242  16.668  1.00  0.00     0.223 A 
ENDROOT
BRANCH   1  11
ATOM     11  C   UNL     1      -8.631   9.102  18.179  1.00  0.00     0.091 A 
ATOM     12  C   UNL     1      -9.511   9.210  19.265  1.00  0.00     0.068 A 
ATOM     13  C   UNL     1      -9.060   9.664  20.509  1.00  0.00     0.162 A 
ATOM     14  C   UNL     1      -7.274   9.422  18.364  1.00  0.00     0.068 A 
ATOM     15  C   UNL     1      -7.708  10.003  20.684  1.00  0.00     0.200 A 
ATOM     16  C   UNL     1      -6.813   9.876  19.607  1.00  0.00     0.162 A 
BRANCH  13  17
ATOM     17  O   UNL     1      -9.971   9.770  21.559  1.00  0.00    -0.504 OA
ATOM     18  H   UNL     1      -9.676   9.910  22.517  1.00  0.00     0.293 HD
ENDBRANCH  13  17
BRANCH  15  19
ATOM     19  O   UNL     1      -7.266  10.457  21.927  1.00  0.00    -0.502 OA
ATOM     20  H   UNL     1      -7.625  10.084  22.797  1.00  0.00     0.293 HD
ENDBRANCH  15  19
BRANCH  16  21
ATOM     21  O   UNL     1      -5.467  10.196  19.778  1.00  0.00    -0.504 OA
ATOM     22  H   UNL     1      -5.122  10.599  20.640  1.00  0.00     0.293 HD
ENDBRANCH  16  21
ENDBRANCH   1  11
BRANCH  10  23
ATOM     23  O   UNL     1      -9.227   6.295  17.670  1.00  0.00    -0.500 OA
ATOM     24  H   UNL     1      -9.707   6.347  18.561  1.00  0.00     0.294 HD
ENDBRANCH  10  23
BRANCH   5  25
ATOM     25  O   UNL     1     -10.448  10.790  11.463  1.00  0.00    -0.507 OA
ATOM     26  H   UNL     1     -11.289  11.349  11.379  1.00  0.00     0.293 HD
ENDBRANCH   5  25
BRANCH   7  27
ATOM     27  O   UNL     1     -10.942   6.168  12.728  1.00  0.00    -0.507 OA
ATOM     28  H   UNL     1     -11.877   5.799  12.815  1.00  0.00     0.293 HD
ENDBRANCH   7  27
TORSDOF 7
ENDMDL
MODEL 8
REMARK VINA RESULT:    -5.433      1.818      3.367
REMARK INTER + INTRA:          -6.897
REMARK INTER:                  -6.648
REMARK INTRA:                  -0.249
REMARK UNBOUND:                -0.194
REMARK SMILES Oc1cc(O)c2cc(O)c(-c3cc(O)c(O)c(O)c3)[o+]c2c1.[Cl-]
REMARK SMILES IDX 10 1 20 2 21 3 22 4 2 5 3 6 4 7 6 8 7 9 8 10 11 11 12 12
REMARK SMILES IDX 13 13 19 14 15 15 17 16 14 17 16 19 18 21 9 23 1 25 5 27
REMARK H PARENT 14 18 16 20 18 22 9 24 1 26 5 28
REMARK Flexibility Score: inf
ROOT
ATOM      1  C   UNL     1      -8.103   9.396  17.065  1.00  0.00     0.402 A 
ATOM      2  O   UNL     1      -9.187   9.423  17.837  1.00  0.00    -0.202 OA
ATOM      3  C   UNL     1      -9.155   9.734  19.129  1.00  0.00     0.368 A 
ATOM      4  C   UNL     1     -10.348   9.738  19.857  1.00  0.00     0.162 A 
ATOM      5  C   UNL     1     -10.345  10.064  21.213  1.00  0.00     0.128 A 
ATOM      6  C   UNL     1      -9.141  10.389  21.850  1.00  0.00     0.093 A 
ATOM      7  C   UNL     1      -7.933  10.392  21.142  1.00  0.00     0.136 A 
ATOM      8  C   UNL     1      -7.931  10.059  19.762  1.00  0.00     0.125 A 
ATOM      9  C   UNL     1      -6.767  10.024  18.978  1.00  0.00     0.078 A 
ATOM     10  C   UNL     1      -6.844   9.681  17.624  1.00  0.00     0.223 A 
ENDROOT
BRANCH   1  11
ATOM     11  C   UNL     1      -8.270   9.044  15.637  1.00  0.00     0.091 A 
ATOM     12  C   UNL     1      -8.787   7.787  15.291  1.00  0.00     0.068 A 
ATOM     13  C   UNL     1      -8.974   7.434  13.951  1.00  0.00     0.162 A 
ATOM     14  C   UNL     1      -7.974   9.964  14.617  1.00  0.00     0.068 A 
ATOM     15  C   UNL     1      -8.657   8.349  12.933  1.00  0.00     0.200 A 
ATOM     16  C   UNL     1      -8.159   9.621  13.271  1.00  0.00     0.162 A 
BRANCH  13  17
ATOM     17  O   UNL     1      -9.477   6.169  13.650  1.00  0.00    -0.504 OA
ATOM     18  H   UNL     1      -8.877   5.400  13.378  1.00  0.00     0.293 HD
ENDBRANCH  13  17
BRANCH  15  19
ATOM     19  O   UNL     1      -8.843   7.989  11.598  1.00  0.00    -0.502 OA
ATOM     20  H   UNL     1      -9.277   7.115  11.330  1.00  0.00     0.293 HD
ENDBRANCH  15  19
BRANCH  16  21
ATOM     21  O   UNL     1      -7.856  10.540  12.267  1.00  0.00    -0.504 OA
ATOM     22  H   UNL     1      -7.153  11.256  12.398  1.00  0.00     0.293 HD
ENDBRANCH  16  21
ENDBRANCH   1  11
BRANCH  10  23
ATOM     23  O   UNL     1      -5.682   9.597  16.857  1.00  0.00    -0.500 OA
ATOM     24  H   UNL     1      -5.613  10.033  15.945  1.00  0.00     0.294 HD
ENDBRANCH  10  23
BRANCH   5  25
ATOM     25  O   UNL     1     -11.544  10.062  21.922  1.00  0.00    -0.507 OA
ATOM     26  H   UNL     1     -11.915  10.908  22.338  1.00  0.00     0.293 HD
ENDBRANCH   5  25
BRANCH   7  27
ATOM     27  O   UNL     1      -6.775  10.731  21.848  1.00  0.00    -0.507 OA
ATOM     28  H   UNL     1      -6.690  11.537  22.450  1.00  0.00     0.293 HD
ENDBRANCH   7  27
TORSDOF 7
ENDMDL
