MODEL 1
REMARK VINA RESULT:     4.110      0.000      0.000
REMARK INTER + INTRA:           9.230
REMARK INTER:                  10.358
REMARK INTRA:                  -1.128
REMARK UNBOUND:                -1.128
REMARK SMILES CCCCCCCCCCCCCCCCCCCCCCCCCCCC(=O)[O-]
REMARK SMILES IDX 15 1 16 2 17 3 18 4 19 5 20 6 21 7 22 8 23 9 24 10 25 11
REMARK SMILES IDX 26 12 27 13 28 14 29 15 30 16 14 17 13 18 12 19 11 20 10 21
REMARK SMILES IDX 9 22 8 23 7 24 6 25 5 26 4 27 3 28 2 29 1 30
REMARK H PARENT
REMARK Flexibility Score: inf
ROOT
ATOM      1  C   UNL     1     -30.414 -18.956 -33.251  1.00  0.00     0.000 C 
ENDROOT
BRANCH   1   2
ATOM      2  C   UNL     1     -30.600 -18.911 -31.728  1.00  0.00     0.000 C 
BRANCH   2   3
ATOM      3  C   UNL     1     -32.013 -19.333 -31.287  1.00  0.00     0.000 C 
BRANCH   3   4
ATOM      4  C   UNL     1     -32.260 -19.288 -29.764  1.00  0.00     0.000 C 
BRANCH   4   5
ATOM      5  C   UNL     1     -31.266 -20.104 -28.912  1.00  0.00     0.000 C 
BRANCH   5   6
ATOM      6  C   UNL     1     -30.544 -21.238 -29.662  1.00  0.00     0.000 C 
BRANCH   6   7
ATOM      7  C   UNL     1     -30.447 -22.531 -28.840  1.00  0.00     0.000 C 
BRANCH   7   8
ATOM      8  C   UNL     1     -29.587 -22.321 -27.587  1.00  0.00     0.000 C 
BRANCH   8   9
ATOM      9  C   UNL     1     -28.508 -21.253 -27.828  1.00  0.00     0.000 C 
BRANCH   9  10
ATOM     10  C   UNL     1     -27.634 -20.994 -26.590  1.00  0.00     0.000 C 
BRANCH  10  11
ATOM     11  C   UNL     1     -28.314 -21.283 -25.239  1.00  0.00     0.000 C 
BRANCH  11  12
ATOM     12  C   UNL     1     -27.469 -20.835 -24.035  1.00  0.00     0.006 C 
BRANCH  12  13
ATOM     13  C   UNL     1     -28.271 -20.850 -22.727  1.00  0.00     0.053 C 
BRANCH  13  14
ATOM     14  C   UNL     1     -27.555 -21.590 -21.639  1.00  0.00     0.041 C 
ATOM     15  O   UNL     1     -27.468 -22.846 -21.678  1.00  0.00    -0.550 OA
ATOM     16  O   UNL     1     -26.946 -20.890 -20.605  1.00  0.00    -0.550 OA
ENDBRANCH  13  14
ENDBRANCH  12  13
ENDBRANCH  11  12
ENDBRANCH  10  11
ENDBRANCH   9  10
ENDBRANCH   8   9
ENDBRANCH   7   8
ENDBRANCH   6   7
ENDBRANCH   5   6
ENDBRANCH   4   5
ENDBRANCH   3   4
ENDBRANCH   2   3
ENDBRANCH   1   2
BRANCH   1  17
ATOM     17  C   UNL     1     -29.577 -20.175 -33.665  1.00  0.00     0.000 C 
BRANCH  17  18
ATOM     18  C   UNL     1     -30.369 -21.171 -34.539  1.00  0.00     0.000 C 
BRANCH  18  19
ATOM     19  C   UNL     1     -31.657 -21.696 -33.878  1.00  0.00     0.000 C 
BRANCH  19  20
ATOM     20  C   UNL     1     -32.205 -23.015 -34.457  1.00  0.00     0.000 C 
BRANCH  20  21
ATOM     21  C   UNL     1     -32.984 -22.873 -35.778  1.00  0.00     0.000 C 
BRANCH  21  22
ATOM     22  C   UNL     1     -33.671 -21.507 -35.922  1.00  0.00    -0.000 C 
BRANCH  22  23
ATOM     23  C   UNL     1     -33.336 -20.860 -37.271  1.00  0.00    -0.000 C 
BRANCH  23  24
ATOM     24  C   UNL     1     -32.092 -21.509 -37.897  1.00  0.00    -0.000 C 
BRANCH  24  25
ATOM     25  C   UNL     1     -32.443 -22.660 -38.852  1.00  0.00    -0.000 C 
BRANCH  25  26
ATOM     26  C   UNL     1     -31.306 -23.689 -38.981  1.00  0.00    -0.000 C 
BRANCH  26  27
ATOM     27  C   UNL     1     -31.609 -25.002 -38.241  1.00  0.00    -0.000 C 
BRANCH  27  28
ATOM     28  C   UNL     1     -32.726 -25.815 -38.918  1.00  0.00    -0.000 C 
BRANCH  28  29
ATOM     29  C   UNL     1     -33.060 -27.106 -38.154  1.00  0.00    -0.003 C 
ATOM     30  C   UNL     1     -33.673 -28.183 -39.048  1.00  0.00     0.004 C 
ENDBRANCH  28  29
ENDBRANCH  27  28
ENDBRANCH  26  27
ENDBRANCH  25  26
ENDBRANCH  24  25
ENDBRANCH  23  24
ENDBRANCH  22  23
ENDBRANCH  21  22
ENDBRANCH  20  21
ENDBRANCH  19  20
ENDBRANCH  18  19
ENDBRANCH  17  18
ENDBRANCH   1  17
TORSDOF 26
ENDMDL
MODEL 2
REMARK VINA RESULT:     4.475      1.213      1.929
REMARK INTER + INTRA:          10.149
REMARK INTER:                  12.620
REMARK INTRA:                  -2.471
REMARK UNBOUND:                -1.128
REMARK SMILES CCCCCCCCCCCCCCCCCCCCCCCCCCCC(=O)[O-]
REMARK SMILES IDX 15 1 16 2 17 3 18 4 19 5 20 6 21 7 22 8 23 9 24 10 25 11
REMARK SMILES IDX 26 12 27 13 28 14 29 15 30 16 14 17 13 18 12 19 11 20 10 21
REMARK SMILES IDX 9 22 8 23 7 24 6 25 5 26 4 27 3 28 2 29 1 30
REMARK H PARENT
REMARK Flexibility Score: inf
ROOT
ATOM      1  C   UNL     1     -29.482 -20.710 -33.279  1.00  0.00     0.000 C 
ENDROOT
BRANCH   1   2
ATOM      2  C   UNL     1     -29.367 -19.289 -32.708  1.00  0.00     0.000 C 
BRANCH   2   3
ATOM      3  C   UNL     1     -28.843 -19.268 -31.261  1.00  0.00     0.000 C 
BRANCH   3   4
ATOM      4  C   UNL     1     -29.932 -19.142 -30.175  1.00  0.00     0.000 C 
BRANCH   4   5
ATOM      5  C   UNL     1     -31.262 -19.856 -30.491  1.00  0.00     0.000 C 
BRANCH   5   6
ATOM      6  C   UNL     1     -31.255 -21.377 -30.254  1.00  0.00     0.000 C 
BRANCH   6   7
ATOM      7  C   UNL     1     -31.004 -21.752 -28.786  1.00  0.00     0.000 C 
BRANCH   7   8
ATOM      8  C   UNL     1     -29.559 -22.222 -28.580  1.00  0.00     0.000 C 
BRANCH   8   9
ATOM      9  C   UNL     1     -29.106 -22.002 -27.128  1.00  0.00     0.000 C 
BRANCH   9  10
ATOM     10  C   UNL     1     -27.777 -21.233 -27.024  1.00  0.00     0.000 C 
BRANCH  10  11
ATOM     11  C   UNL     1     -27.668 -20.282 -25.819  1.00  0.00     0.000 C 
BRANCH  11  12
ATOM     12  C   UNL     1     -28.252 -20.882 -24.528  1.00  0.00     0.006 C 
BRANCH  12  13
ATOM     13  C   UNL     1     -27.547 -20.351 -23.273  1.00  0.00     0.053 C 
BRANCH  13  14
ATOM     14  C   UNL     1     -27.529 -21.366 -22.171  1.00  0.00     0.041 C 
ATOM     15  O   UNL     1     -26.719 -21.248 -21.214  1.00  0.00    -0.550 OA
ATOM     16  O   UNL     1     -28.435 -22.419 -22.180  1.00  0.00    -0.550 OA
ENDBRANCH  13  14
ENDBRANCH  12  13
ENDBRANCH  11  12
ENDBRANCH  10  11
ENDBRANCH   9  10
ENDBRANCH   8   9
ENDBRANCH   7   8
ENDBRANCH   6   7
ENDBRANCH   5   6
ENDBRANCH   4   5
ENDBRANCH   3   4
ENDBRANCH   2   3
ENDBRANCH   1   2
BRANCH   1  17
ATOM     17  C   UNL     1     -30.432 -20.740 -34.486  1.00  0.00     0.000 C 
BRANCH  17  18
ATOM     18  C   UNL     1     -31.913 -20.583 -34.080  1.00  0.00     0.000 C 
BRANCH  18  19
ATOM     19  C   UNL     1     -32.861 -21.575 -34.781  1.00  0.00     0.000 C 
BRANCH  19  20
ATOM     20  C   UNL     1     -34.043 -20.935 -35.535  1.00  0.00     0.000 C 
BRANCH  20  21
ATOM     21  C   UNL     1     -34.008 -19.398 -35.619  1.00  0.00     0.000 C 
BRANCH  21  22
ATOM     22  C   UNL     1     -34.119 -18.875 -37.058  1.00  0.00    -0.000 C 
BRANCH  22  23
ATOM     23  C   UNL     1     -33.048 -19.502 -37.958  1.00  0.00    -0.000 C 
BRANCH  23  24
ATOM     24  C   UNL     1     -33.691 -20.302 -39.101  1.00  0.00    -0.000 C 
BRANCH  24  25
ATOM     25  C   UNL     1     -33.738 -21.810 -38.814  1.00  0.00    -0.000 C 
BRANCH  25  26
ATOM     26  C   UNL     1     -32.380 -22.499 -39.045  1.00  0.00    -0.000 C 
BRANCH  26  27
ATOM     27  C   UNL     1     -31.703 -22.927 -37.733  1.00  0.00    -0.000 C 
BRANCH  27  28
ATOM     28  C   UNL     1     -31.980 -24.399 -37.381  1.00  0.00    -0.000 C 
BRANCH  28  29
ATOM     29  C   UNL     1     -31.989 -25.308 -38.620  1.00  0.00    -0.003 C 
ATOM     30  C   UNL     1     -32.920 -26.510 -38.468  1.00  0.00     0.004 C 
ENDBRANCH  28  29
ENDBRANCH  27  28
ENDBRANCH  26  27
ENDBRANCH  25  26
ENDBRANCH  24  25
ENDBRANCH  23  24
ENDBRANCH  22  23
ENDBRANCH  21  22
ENDBRANCH  20  21
ENDBRANCH  19  20
ENDBRANCH  18  19
ENDBRANCH  17  18
ENDBRANCH   1  17
TORSDOF 26
ENDMDL
MODEL 3
REMARK VINA RESULT:     5.927      1.917      3.408
REMARK INTER + INTRA:          13.808
REMARK INTER:                  15.245
REMARK INTRA:                  -1.438
REMARK UNBOUND:                -1.128
REMARK SMILES CCCCCCCCCCCCCCCCCCCCCCCCCCCC(=O)[O-]
REMARK SMILES IDX 15 1 16 2 17 3 18 4 19 5 20 6 21 7 22 8 23 9 24 10 25 11
REMARK SMILES IDX 26 12 27 13 28 14 29 15 30 16 14 17 13 18 12 19 11 20 10 21
REMARK SMILES IDX 9 22 8 23 7 24 6 25 5 26 4 27 3 28 2 29 1 30
REMARK H PARENT
REMARK Flexibility Score: inf
ROOT
ATOM      1  C   UNL     1     -30.551 -22.400 -29.236  1.00  0.00     0.000 C 
ENDROOT
BRANCH   1   2
ATOM      2  C   UNL     1     -31.051 -21.224 -28.384  1.00  0.00     0.000 C 
BRANCH   2   3
ATOM      3  C   UNL     1     -32.531 -20.891 -28.638  1.00  0.00     0.000 C 
BRANCH   3   4
ATOM      4  C   UNL     1     -32.865 -19.384 -28.660  1.00  0.00     0.000 C 
BRANCH   4   5
ATOM      5  C   UNL     1     -33.594 -18.892 -29.927  1.00  0.00     0.000 C 
BRANCH   5   6
ATOM      6  C   UNL     1     -32.792 -19.027 -31.234  1.00  0.00     0.000 C 
BRANCH   6   7
ATOM      7  C   UNL     1     -31.276 -18.907 -31.019  1.00  0.00     0.000 C 
BRANCH   7   8
ATOM      8  C   UNL     1     -30.512 -19.816 -31.991  1.00  0.00     0.000 C 
BRANCH   8   9
ATOM      9  C   UNL     1     -28.993 -19.675 -31.804  1.00  0.00     0.000 C 
BRANCH   9  10
ATOM     10  C   UNL     1     -28.615 -18.875 -30.545  1.00  0.00     0.000 C 
BRANCH  10  11
ATOM     11  C   UNL     1     -27.623 -19.578 -29.601  1.00  0.00     0.000 C 
BRANCH  11  12
ATOM     12  C   UNL     1     -28.258 -19.983 -28.260  1.00  0.00     0.006 C 
BRANCH  12  13
ATOM     13  C   UNL     1     -27.287 -20.775 -27.374  1.00  0.00     0.053 C 
BRANCH  13  14
ATOM     14  C   UNL     1     -27.853 -21.030 -26.011  1.00  0.00     0.041 C 
ATOM     15  O   UNL     1     -28.745 -21.904 -25.849  1.00  0.00    -0.550 OA
ATOM     16  O   UNL     1     -27.366 -20.332 -24.913  1.00  0.00    -0.550 OA
ENDBRANCH  13  14
ENDBRANCH  12  13
ENDBRANCH  11  12
ENDBRANCH  10  11
ENDBRANCH   9  10
ENDBRANCH   8   9
ENDBRANCH   7   8
ENDBRANCH   6   7
ENDBRANCH   5   6
ENDBRANCH   4   5
ENDBRANCH   3   4
ENDBRANCH   2   3
ENDBRANCH   1   2
BRANCH   1  17
ATOM     17  C   UNL     1     -31.510 -22.677 -30.403  1.00  0.00     0.000 C 
BRANCH  17  18
ATOM     18  C   UNL     1     -30.776 -23.154 -31.675  1.00  0.00     0.000 C 
BRANCH  18  19
ATOM     19  C   UNL     1     -30.966 -22.226 -32.890  1.00  0.00     0.000 C 
BRANCH  19  20
ATOM     20  C   UNL     1     -32.367 -22.257 -33.530  1.00  0.00     0.000 C 
BRANCH  20  21
ATOM     21  C   UNL     1     -32.395 -22.005 -35.049  1.00  0.00     0.000 C 
BRANCH  21  22
ATOM     22  C   UNL     1     -31.008 -22.118 -35.699  1.00  0.00    -0.000 C 
BRANCH  22  23
ATOM     23  C   UNL     1     -31.112 -22.107 -37.228  1.00  0.00    -0.000 C 
BRANCH  23  24
ATOM     24  C   UNL     1     -32.399 -21.404 -37.686  1.00  0.00    -0.000 C 
BRANCH  24  25
ATOM     25  C   UNL     1     -32.877 -21.885 -39.065  1.00  0.00    -0.000 C 
BRANCH  25  26
ATOM     26  C   UNL     1     -33.526 -23.279 -39.011  1.00  0.00    -0.000 C 
BRANCH  26  27
ATOM     27  C   UNL     1     -32.490 -24.412 -38.924  1.00  0.00    -0.000 C 
BRANCH  27  28
ATOM     28  C   UNL     1     -32.698 -25.306 -37.690  1.00  0.00    -0.000 C 
BRANCH  28  29
ATOM     29  C   UNL     1     -33.169 -26.721 -38.062  1.00  0.00    -0.003 C 
ATOM     30  C   UNL     1     -32.020 -27.639 -38.478  1.00  0.00     0.004 C 
ENDBRANCH  28  29
ENDBRANCH  27  28
ENDBRANCH  26  27
ENDBRANCH  25  26
ENDBRANCH  24  25
ENDBRANCH  23  24
ENDBRANCH  22  23
ENDBRANCH  21  22
ENDBRANCH  20  21
ENDBRANCH  19  20
ENDBRANCH  18  19
ENDBRANCH  17  18
ENDBRANCH   1  17
TORSDOF 26
ENDMDL
MODEL 4
REMARK VINA RESULT:     6.011      1.532      2.918
REMARK INTER + INTRA:          14.019
REMARK INTER:                  14.771
REMARK INTRA:                  -0.752
REMARK UNBOUND:                -1.128
REMARK SMILES CCCCCCCCCCCCCCCCCCCCCCCCCCCC(=O)[O-]
REMARK SMILES IDX 15 1 16 2 17 3 18 4 19 5 20 6 21 7 22 8 23 9 24 10 25 11
REMARK SMILES IDX 26 12 27 13 28 14 29 15 30 16 14 17 13 18 12 19 11 20 10 21
REMARK SMILES IDX 9 22 8 23 7 24 6 25 5 26 4 27 3 28 2 29 1 30
REMARK H PARENT
REMARK Flexibility Score: inf
ROOT
ATOM      1  C   UNL     1     -30.817 -21.126 -30.349  1.00  0.00     0.000 C 
ENDROOT
BRANCH   1   2
ATOM      2  C   UNL     1     -30.934 -21.651 -31.788  1.00  0.00     0.000 C 
BRANCH   2   3
ATOM      3  C   UNL     1     -29.572 -21.757 -32.496  1.00  0.00     0.000 C 
BRANCH   3   4
ATOM      4  C   UNL     1     -29.235 -20.582 -33.438  1.00  0.00     0.000 C 
BRANCH   4   5
ATOM      5  C   UNL     1     -28.513 -19.392 -32.772  1.00  0.00     0.000 C 
BRANCH   5   6
ATOM      6  C   UNL     1     -28.990 -19.056 -31.347  1.00  0.00     0.000 C 
BRANCH   6   7
ATOM      7  C   UNL     1     -27.831 -18.890 -30.352  1.00  0.00     0.000 C 
BRANCH   7   8
ATOM      8  C   UNL     1     -28.323 -19.045 -28.908  1.00  0.00     0.000 C 
BRANCH   8   9
ATOM      9  C   UNL     1     -27.309 -19.826 -28.058  1.00  0.00     0.000 C 
BRANCH   9  10
ATOM     10  C   UNL     1     -27.881 -21.140 -27.497  1.00  0.00     0.000 C 
BRANCH  10  11
ATOM     11  C   UNL     1     -28.175 -21.129 -25.986  1.00  0.00     0.000 C 
BRANCH  11  12
ATOM     12  C   UNL     1     -27.311 -20.116 -25.215  1.00  0.00     0.006 C 
BRANCH  12  13
ATOM     13  C   UNL     1     -26.554 -20.768 -24.050  1.00  0.00     0.053 C 
BRANCH  13  14
ATOM     14  C   UNL     1     -27.435 -20.971 -22.856  1.00  0.00     0.041 C 
ATOM     15  O   UNL     1     -28.686 -20.869 -22.965  1.00  0.00    -0.550 OA
ATOM     16  O   UNL     1     -26.878 -21.317 -21.630  1.00  0.00    -0.550 OA
ENDBRANCH  13  14
ENDBRANCH  12  13
ENDBRANCH  11  12
ENDBRANCH  10  11
ENDBRANCH   9  10
ENDBRANCH   8   9
ENDBRANCH   7   8
ENDBRANCH   6   7
ENDBRANCH   5   6
ENDBRANCH   4   5
ENDBRANCH   3   4
ENDBRANCH   2   3
ENDBRANCH   1   2
BRANCH   1  17
ATOM     17  C   UNL     1     -31.862 -20.034 -30.077  1.00  0.00     0.000 C 
BRANCH  17  18
ATOM     18  C   UNL     1     -31.790 -18.876 -31.096  1.00  0.00     0.000 C 
BRANCH  18  19
ATOM     19  C   UNL     1     -32.936 -18.877 -32.125  1.00  0.00     0.000 C 
BRANCH  19  20
ATOM     20  C   UNL     1     -32.553 -19.359 -33.537  1.00  0.00     0.000 C 
BRANCH  20  21
ATOM     21  C   UNL     1     -33.742 -19.616 -34.483  1.00  0.00     0.000 C 
BRANCH  21  22
ATOM     22  C   UNL     1     -33.771 -21.051 -35.028  1.00  0.00    -0.000 C 
BRANCH  22  23
ATOM     23  C   UNL     1     -32.463 -21.787 -34.717  1.00  0.00    -0.000 C 
BRANCH  23  24
ATOM     24  C   UNL     1     -31.686 -22.094 -36.006  1.00  0.00    -0.000 C 
BRANCH  24  25
ATOM     25  C   UNL     1     -32.539 -21.901 -37.270  1.00  0.00    -0.000 C 
BRANCH  25  26
ATOM     26  C   UNL     1     -32.935 -23.237 -37.925  1.00  0.00    -0.000 C 
BRANCH  26  27
ATOM     27  C   UNL     1     -31.789 -24.261 -37.922  1.00  0.00    -0.000 C 
BRANCH  27  28
ATOM     28  C   UNL     1     -31.859 -25.227 -39.117  1.00  0.00    -0.000 C 
BRANCH  28  29
ATOM     29  C   UNL     1     -32.360 -26.623 -38.716  1.00  0.00    -0.003 C 
ATOM     30  C   UNL     1     -33.194 -26.610 -37.435  1.00  0.00     0.004 C 
ENDBRANCH  28  29
ENDBRANCH  27  28
ENDBRANCH  26  27
ENDBRANCH  25  26
ENDBRANCH  24  25
ENDBRANCH  23  24
ENDBRANCH  22  23
ENDBRANCH  21  22
ENDBRANCH  20  21
ENDBRANCH  19  20
ENDBRANCH  18  19
ENDBRANCH  17  18
ENDBRANCH   1  17
TORSDOF 26
ENDMDL
MODEL 5
REMARK VINA RESULT:     6.513      1.515      2.139
REMARK INTER + INTRA:          15.285
REMARK INTER:                  15.580
REMARK INTRA:                  -0.295
REMARK UNBOUND:                -1.128
REMARK SMILES CCCCCCCCCCCCCCCCCCCCCCCCCCCC(=O)[O-]
REMARK SMILES IDX 15 1 16 2 17 3 18 4 19 5 20 6 21 7 22 8 23 9 24 10 25 11
REMARK SMILES IDX 26 12 27 13 28 14 29 15 30 16 14 17 13 18 12 19 11 20 10 21
REMARK SMILES IDX 9 22 8 23 7 24 6 25 5 26 4 27 3 28 2 29 1 30
REMARK H PARENT
REMARK Flexibility Score: inf
ROOT
ATOM      1  C   UNL     1     -31.113 -21.361 -32.479  1.00  0.00     0.000 C 
ENDROOT
BRANCH   1   2
ATOM      2  C   UNL     1     -32.173 -20.269 -32.684  1.00  0.00     0.000 C 
BRANCH   2   3
ATOM      3  C   UNL     1     -32.272 -19.303 -31.490  1.00  0.00     0.000 C 
BRANCH   3   4
ATOM      4  C   UNL     1     -31.457 -19.718 -30.247  1.00  0.00     0.000 C 
BRANCH   4   5
ATOM      5  C   UNL     1     -30.194 -18.875 -29.977  1.00  0.00     0.000 C 
BRANCH   5   6
ATOM      6  C   UNL     1     -28.900 -19.423 -30.605  1.00  0.00     0.000 C 
BRANCH   6   7
ATOM      7  C   UNL     1     -27.677 -19.264 -29.688  1.00  0.00     0.000 C 
BRANCH   7   8
ATOM      8  C   UNL     1     -27.931 -19.911 -28.321  1.00  0.00     0.000 C 
BRANCH   8   9
ATOM      9  C   UNL     1     -28.607 -21.282 -28.473  1.00  0.00     0.000 C 
BRANCH   9  10
ATOM     10  C   UNL     1     -29.452 -21.674 -27.248  1.00  0.00     0.000 C 
BRANCH  10  11
ATOM     11  C   UNL     1     -28.736 -22.572 -26.223  1.00  0.00     0.000 C 
BRANCH  11  12
ATOM     12  C   UNL     1     -28.394 -21.834 -24.917  1.00  0.00     0.006 C 
BRANCH  12  13
ATOM     13  C   UNL     1     -27.573 -20.562 -25.169  1.00  0.00     0.053 C 
BRANCH  13  14
ATOM     14  C   UNL     1     -26.487 -20.387 -24.152  1.00  0.00     0.041 C 
ATOM     15  O   UNL     1     -25.325 -20.062 -24.514  1.00  0.00    -0.550 OA
ATOM     16  O   UNL     1     -26.768 -20.541 -22.800  1.00  0.00    -0.550 OA
ENDBRANCH  13  14
ENDBRANCH  12  13
ENDBRANCH  11  12
ENDBRANCH  10  11
ENDBRANCH   9  10
ENDBRANCH   8   9
ENDBRANCH   7   8
ENDBRANCH   6   7
ENDBRANCH   5   6
ENDBRANCH   4   5
ENDBRANCH   3   4
ENDBRANCH   2   3
ENDBRANCH   1   2
BRANCH   1  17
ATOM     17  C   UNL     1     -30.203 -21.477 -33.711  1.00  0.00     0.000 C 
BRANCH  17  18
ATOM     18  C   UNL     1     -30.960 -21.237 -35.035  1.00  0.00     0.000 C 
BRANCH  18  19
ATOM     19  C   UNL     1     -32.034 -22.298 -35.341  1.00  0.00     0.000 C 
BRANCH  19  20
ATOM     20  C   UNL     1     -33.471 -21.759 -35.481  1.00  0.00     0.000 C 
BRANCH  20  21
ATOM     21  C   UNL     1     -33.575 -20.266 -35.845  1.00  0.00     0.000 C 
BRANCH  21  22
ATOM     22  C   UNL     1     -34.118 -20.034 -37.262  1.00  0.00    -0.000 C 
BRANCH  22  23
ATOM     23  C   UNL     1     -33.181 -20.631 -38.318  1.00  0.00    -0.000 C 
BRANCH  23  24
ATOM     24  C   UNL     1     -33.873 -21.768 -39.085  1.00  0.00    -0.000 C 
BRANCH  24  25
ATOM     25  C   UNL     1     -33.032 -23.054 -39.121  1.00  0.00    -0.000 C 
BRANCH  25  26
ATOM     26  C   UNL     1     -31.753 -22.948 -38.271  1.00  0.00    -0.000 C 
BRANCH  26  27
ATOM     27  C   UNL     1     -31.569 -24.146 -37.326  1.00  0.00    -0.000 C 
BRANCH  27  28
ATOM     28  C   UNL     1     -31.607 -25.492 -38.069  1.00  0.00    -0.000 C 
BRANCH  28  29
ATOM     29  C   UNL     1     -33.031 -26.056 -38.192  1.00  0.00    -0.003 C 
ATOM     30  C   UNL     1     -33.064 -27.463 -38.788  1.00  0.00     0.004 C 
ENDBRANCH  28  29
ENDBRANCH  27  28
ENDBRANCH  26  27
ENDBRANCH  25  26
ENDBRANCH  24  25
ENDBRANCH  23  24
ENDBRANCH  22  23
ENDBRANCH  21  22
ENDBRANCH  20  21
ENDBRANCH  19  20
ENDBRANCH  18  19
ENDBRANCH  17  18
ENDBRANCH   1  17
TORSDOF 26
ENDMDL
MODEL 6
REMARK VINA RESULT:     6.560      2.747      4.140
REMARK INTER + INTRA:          15.401
REMARK INTER:                  11.058
REMARK INTRA:                   4.344
REMARK UNBOUND:                -1.128
REMARK SMILES CCCCCCCCCCCCCCCCCCCCCCCCCCCC(=O)[O-]
REMARK SMILES IDX 15 1 16 2 17 3 18 4 19 5 20 6 21 7 22 8 23 9 24 10 25 11
REMARK SMILES IDX 26 12 27 13 28 14 29 15 30 16 14 17 13 18 12 19 11 20 10 21
REMARK SMILES IDX 9 22 8 23 7 24 6 25 5 26 4 27 3 28 2 29 1 30
REMARK H PARENT
REMARK Flexibility Score: inf
ROOT
ATOM      1  C   UNL     1     -31.190 -23.052 -30.963  1.00  0.00     0.000 C 
ENDROOT
BRANCH   1   2
ATOM      2  C   UNL     1     -30.262 -22.120 -30.170  1.00  0.00     0.000 C 
BRANCH   2   3
ATOM      3  C   UNL     1     -30.941 -21.522 -28.925  1.00  0.00     0.000 C 
BRANCH   3   4
ATOM      4  C   UNL     1     -32.408 -21.088 -29.129  1.00  0.00     0.000 C 
BRANCH   4   5
ATOM      5  C   UNL     1     -32.667 -19.572 -29.016  1.00  0.00     0.000 C 
BRANCH   5   6
ATOM      6  C   UNL     1     -33.039 -18.875 -30.338  1.00  0.00     0.000 C 
BRANCH   6   7
ATOM      7  C   UNL     1     -32.499 -19.611 -31.574  1.00  0.00     0.000 C 
BRANCH   7   8
ATOM      8  C   UNL     1     -31.113 -19.082 -31.963  1.00  0.00     0.000 C 
BRANCH   8   9
ATOM      9  C   UNL     1     -30.334 -20.122 -32.784  1.00  0.00     0.000 C 
BRANCH   9  10
ATOM     10  C   UNL     1     -28.835 -20.160 -32.436  1.00  0.00     0.000 C 
BRANCH  10  11
ATOM     11  C   UNL     1     -28.283 -18.876 -31.792  1.00  0.00     0.000 C 
BRANCH  11  12
ATOM     12  C   UNL     1     -27.529 -19.142 -30.478  1.00  0.00     0.006 C 
BRANCH  12  13
ATOM     13  C   UNL     1     -28.465 -19.619 -29.359  1.00  0.00     0.053 C 
BRANCH  13  14
ATOM     14  C   UNL     1     -27.726 -20.365 -28.291  1.00  0.00     0.041 C 
ATOM     15  O   UNL     1     -26.519 -20.097 -28.050  1.00  0.00    -0.550 OA
ATOM     16  O   UNL     1     -28.382 -21.328 -27.534  1.00  0.00    -0.550 OA
ENDBRANCH  13  14
ENDBRANCH  12  13
ENDBRANCH  11  12
ENDBRANCH  10  11
ENDBRANCH   9  10
ENDBRANCH   8   9
ENDBRANCH   7   8
ENDBRANCH   6   7
ENDBRANCH   5   6
ENDBRANCH   4   5
ENDBRANCH   3   4
ENDBRANCH   2   3
ENDBRANCH   1   2
BRANCH   1  17
ATOM     17  C   UNL     1     -31.970 -22.270 -32.030  1.00  0.00     0.000 C 
BRANCH  17  18
ATOM     18  C   UNL     1     -32.064 -23.028 -33.372  1.00  0.00     0.000 C 
BRANCH  18  19
ATOM     19  C   UNL     1     -32.200 -22.109 -34.600  1.00  0.00     0.000 C 
BRANCH  19  20
ATOM     20  C   UNL     1     -30.952 -22.022 -35.499  1.00  0.00     0.000 C 
BRANCH  20  21
ATOM     21  C   UNL     1     -31.199 -22.323 -36.989  1.00  0.00     0.000 C 
BRANCH  21  22
ATOM     22  C   UNL     1     -31.675 -21.092 -37.775  1.00  0.00    -0.000 C 
BRANCH  22  23
ATOM     23  C   UNL     1     -33.179 -20.864 -37.587  1.00  0.00    -0.000 C 
BRANCH  23  24
ATOM     24  C   UNL     1     -33.970 -21.407 -38.788  1.00  0.00    -0.000 C 
BRANCH  24  25
ATOM     25  C   UNL     1     -33.609 -22.862 -39.125  1.00  0.00    -0.000 C 
BRANCH  25  26
ATOM     26  C   UNL     1     -32.101 -23.143 -38.988  1.00  0.00    -0.000 C 
BRANCH  26  27
ATOM     27  C   UNL     1     -31.765 -24.639 -39.099  1.00  0.00    -0.000 C 
BRANCH  27  28
ATOM     28  C   UNL     1     -32.998 -25.535 -38.890  1.00  0.00    -0.000 C 
BRANCH  28  29
ATOM     29  C   UNL     1     -32.638 -27.029 -38.852  1.00  0.00    -0.003 C 
ATOM     30  C   UNL     1     -33.559 -27.839 -37.939  1.00  0.00     0.004 C 
ENDBRANCH  28  29
ENDBRANCH  27  28
ENDBRANCH  26  27
ENDBRANCH  25  26
ENDBRANCH  24  25
ENDBRANCH  23  24
ENDBRANCH  22  23
ENDBRANCH  21  22
ENDBRANCH  20  21
ENDBRANCH  19  20
ENDBRANCH  18  19
ENDBRANCH  17  18
ENDBRANCH   1  17
TORSDOF 26
ENDMDL
MODEL 7
REMARK VINA RESULT:     6.637      3.263      4.518
REMARK INTER + INTRA:          15.597
REMARK INTER:                  15.655
REMARK INTRA:                  -0.058
REMARK UNBOUND:                -1.128
REMARK SMILES CCCCCCCCCCCCCCCCCCCCCCCCCCCC(=O)[O-]
REMARK SMILES IDX 15 1 16 2 17 3 18 4 19 5 20 6 21 7 22 8 23 9 24 10 25 11
REMARK SMILES IDX 26 12 27 13 28 14 29 15 30 16 14 17 13 18 12 19 11 20 10 21
REMARK SMILES IDX 9 22 8 23 7 24 6 25 5 26 4 27 3 28 2 29 1 30
REMARK H PARENT
REMARK Flexibility Score: inf
ROOT
ATOM      1  C   UNL     1     -30.897 -21.076 -30.430  1.00  0.00     0.000 C 
ENDROOT
BRANCH   1   2
ATOM      2  C   UNL     1     -31.090 -21.427 -31.913  1.00  0.00     0.000 C 
BRANCH   2   3
ATOM      3  C   UNL     1     -29.762 -21.510 -32.685  1.00  0.00     0.000 C 
BRANCH   3   4
ATOM      4  C   UNL     1     -29.378 -20.233 -33.461  1.00  0.00     0.000 C 
BRANCH   4   5
ATOM      5  C   UNL     1     -28.539 -19.210 -32.670  1.00  0.00     0.000 C 
BRANCH   5   6
ATOM      6  C   UNL     1     -28.976 -19.001 -31.208  1.00  0.00     0.000 C 
BRANCH   6   7
ATOM      7  C   UNL     1     -27.816 -19.146 -30.211  1.00  0.00     0.000 C 
BRANCH   7   8
ATOM      8  C   UNL     1     -28.339 -19.234 -28.772  1.00  0.00     0.000 C 
BRANCH   8   9
ATOM      9  C   UNL     1     -27.519 -20.236 -27.945  1.00  0.00     0.000 C 
BRANCH   9  10
ATOM     10  C   UNL     1     -28.382 -21.347 -27.320  1.00  0.00     0.000 C 
BRANCH  10  11
ATOM     11  C   UNL     1     -28.832 -22.449 -28.297  1.00  0.00     0.000 C 
BRANCH  11  12
ATOM     12  C   UNL     1     -30.274 -22.920 -28.045  1.00  0.00     0.006 C 
BRANCH  12  13
ATOM     13  C   UNL     1     -30.442 -24.427 -28.286  1.00  0.00     0.053 C 
BRANCH  13  14
ATOM     14  C   UNL     1     -30.909 -24.721 -29.679  1.00  0.00     0.041 C 
ATOM     15  O   UNL     1     -30.416 -25.685 -30.323  1.00  0.00    -0.550 OA
ATOM     16  O   UNL     1     -31.921 -23.958 -30.249  1.00  0.00    -0.550 OA
ENDBRANCH  13  14
ENDBRANCH  12  13
ENDBRANCH  11  12
ENDBRANCH  10  11
ENDBRANCH   9  10
ENDBRANCH   8   9
ENDBRANCH   7   8
ENDBRANCH   6   7
ENDBRANCH   5   6
ENDBRANCH   4   5
ENDBRANCH   3   4
ENDBRANCH   2   3
ENDBRANCH   1   2
BRANCH   1  17
ATOM     17  C   UNL     1     -31.878 -19.977 -29.995  1.00  0.00     0.000 C 
BRANCH  17  18
ATOM     18  C   UNL     1     -32.048 -18.875 -31.062  1.00  0.00     0.000 C 
BRANCH  18  19
ATOM     19  C   UNL     1     -33.145 -19.176 -32.102  1.00  0.00     0.000 C 
BRANCH  19  20
ATOM     20  C   UNL     1     -32.639 -19.469 -33.527  1.00  0.00     0.000 C 
BRANCH  20  21
ATOM     21  C   UNL     1     -33.743 -19.671 -34.582  1.00  0.00     0.000 C 
BRANCH  21  22
ATOM     22  C   UNL     1     -33.693 -21.058 -35.239  1.00  0.00    -0.000 C 
BRANCH  22  23
ATOM     23  C   UNL     1     -32.451 -21.837 -34.792  1.00  0.00    -0.000 C 
BRANCH  23  24
ATOM     24  C   UNL     1     -31.557 -22.180 -35.994  1.00  0.00    -0.000 C 
BRANCH  24  25
ATOM     25  C   UNL     1     -32.256 -21.934 -37.340  1.00  0.00    -0.000 C 
BRANCH  25  26
ATOM     26  C   UNL     1     -32.871 -23.217 -37.929  1.00  0.00    -0.000 C 
BRANCH  26  27
ATOM     27  C   UNL     1     -32.005 -24.460 -37.673  1.00  0.00    -0.000 C 
BRANCH  27  28
ATOM     28  C   UNL     1     -32.208 -25.549 -38.741  1.00  0.00    -0.000 C 
BRANCH  28  29
ATOM     29  C   UNL     1     -32.814 -26.837 -38.159  1.00  0.00    -0.003 C 
ATOM     30  C   UNL     1     -32.733 -28.019 -39.125  1.00  0.00     0.004 C 
ENDBRANCH  28  29
ENDBRANCH  27  28
ENDBRANCH  26  27
ENDBRANCH  25  26
ENDBRANCH  24  25
ENDBRANCH  23  24
ENDBRANCH  22  23
ENDBRANCH  21  22
ENDBRANCH  20  21
ENDBRANCH  19  20
ENDBRANCH  18  19
ENDBRANCH  17  18
ENDBRANCH   1  17
TORSDOF 26
ENDMDL
MODEL 8
REMARK VINA RESULT:     6.894      4.745     12.257
REMARK INTER + INTRA:          16.243
REMARK INTER:                  15.109
REMARK INTRA:                   1.134
REMARK UNBOUND:                -1.128
REMARK SMILES CCCCCCCCCCCCCCCCCCCCCCCCCCCC(=O)[O-]
REMARK SMILES IDX 15 1 16 2 17 3 18 4 19 5 20 6 21 7 22 8 23 9 24 10 25 11
REMARK SMILES IDX 26 12 27 13 28 14 29 15 30 16 14 17 13 18 12 19 11 20 10 21
REMARK SMILES IDX 9 22 8 23 7 24 6 25 5 26 4 27 3 28 2 29 1 30
REMARK H PARENT
REMARK Flexibility Score: inf
ROOT
ATOM      1  C   UNL     1     -32.586 -18.896 -32.048  1.00  0.00     0.000 C 
ENDROOT
BRANCH   1   2
ATOM      2  C   UNL     1     -31.718 -19.148 -33.289  1.00  0.00     0.000 C 
BRANCH   2   3
ATOM      3  C   UNL     1     -30.374 -19.818 -32.951  1.00  0.00     0.000 C 
BRANCH   3   4
ATOM      4  C   UNL     1     -30.107 -21.149 -33.685  1.00  0.00     0.000 C 
BRANCH   4   5
ATOM      5  C   UNL     1     -30.792 -21.291 -35.059  1.00  0.00     0.000 C 
BRANCH   5   6
ATOM      6  C   UNL     1     -32.321 -21.462 -35.010  1.00  0.00     0.000 C 
BRANCH   6   7
ATOM      7  C   UNL     1     -32.813 -22.679 -35.807  1.00  0.00     0.000 C 
BRANCH   7   8
ATOM      8  C   UNL     1     -33.725 -22.246 -36.961  1.00  0.00     0.000 C 
BRANCH   8   9
ATOM      9  C   UNL     1     -32.904 -21.832 -38.192  1.00  0.00     0.000 C 
BRANCH   9  10
ATOM     10  C   UNL     1     -31.627 -22.671 -38.371  1.00  0.00     0.000 C 
BRANCH  10  11
ATOM     11  C   UNL     1     -31.755 -24.149 -37.959  1.00  0.00     0.000 C 
BRANCH  11  12
ATOM     12  C   UNL     1     -32.179 -25.060 -39.124  1.00  0.00     0.006 C 
BRANCH  12  13
ATOM     13  C   UNL     1     -33.338 -25.990 -38.740  1.00  0.00     0.053 C 
BRANCH  13  14
ATOM     14  C   UNL     1     -32.855 -27.228 -38.049  1.00  0.00     0.041 C 
ATOM     15  O   UNL     1     -33.374 -27.588 -36.959  1.00  0.00    -0.550 OA
ATOM     16  O   UNL     1     -31.863 -28.008 -38.631  1.00  0.00    -0.550 OA
ENDBRANCH  13  14
ENDBRANCH  12  13
ENDBRANCH  11  12
ENDBRANCH  10  11
ENDBRANCH   9  10
ENDBRANCH   8   9
ENDBRANCH   7   8
ENDBRANCH   6   7
ENDBRANCH   5   6
ENDBRANCH   4   5
ENDBRANCH   3   4
ENDBRANCH   2   3
ENDBRANCH   1   2
BRANCH   1  17
ATOM     17  C   UNL     1     -31.735 -18.924 -30.770  1.00  0.00     0.000 C 
BRANCH  17  18
ATOM     18  C   UNL     1     -32.387 -19.749 -29.640  1.00  0.00     0.000 C 
BRANCH  18  19
ATOM     19  C   UNL     1     -31.444 -20.785 -28.999  1.00  0.00     0.000 C 
BRANCH  19  20
ATOM     20  C   UNL     1     -30.077 -20.949 -29.691  1.00  0.00     0.000 C 
BRANCH  20  21
ATOM     21  C   UNL     1     -29.344 -19.632 -30.006  1.00  0.00     0.000 C 
BRANCH  21  22
ATOM     22  C   UNL     1     -28.156 -19.371 -29.069  1.00  0.00    -0.000 C 
BRANCH  22  23
ATOM     23  C   UNL     1     -27.656 -20.674 -28.436  1.00  0.00    -0.000 C 
BRANCH  23  24
ATOM     24  C   UNL     1     -28.518 -21.061 -27.224  1.00  0.00    -0.000 C 
BRANCH  24  25
ATOM     25  C   UNL     1     -27.680 -21.326 -25.964  1.00  0.00    -0.000 C 
BRANCH  25  26
ATOM     26  C   UNL     1     -27.265 -20.029 -25.246  1.00  0.00    -0.000 C 
BRANCH  26  27
ATOM     27  C   UNL     1     -26.596 -20.292 -23.887  1.00  0.00    -0.000 C 
BRANCH  27  28
ATOM     28  C   UNL     1     -27.612 -20.664 -22.794  1.00  0.00    -0.000 C 
BRANCH  28  29
ATOM     29  C   UNL     1     -27.123 -21.821 -21.907  1.00  0.00    -0.003 C 
ATOM     30  C   UNL     1     -28.164 -22.261 -20.878  1.00  0.00     0.004 C 
ENDBRANCH  28  29
ENDBRANCH  27  28
ENDBRANCH  26  27
ENDBRANCH  25  26
ENDBRANCH  24  25
ENDBRANCH  23  24
ENDBRANCH  22  23
ENDBRANCH  21  22
ENDBRANCH  20  21
ENDBRANCH  19  20
ENDBRANCH  18  19
ENDBRANCH  17  18
ENDBRANCH   1  17
TORSDOF 26
ENDMDL
