MODEL 1
REMARK VINA RESULT:    -4.782      0.000      0.000
REMARK INTER + INTRA:          -5.451
REMARK INTER:                  -5.201
REMARK INTRA:                  -0.250
REMARK UNBOUND:                -0.250
REMARK SMILES O=C([O-])c1ccccc1O
REMARK SMILES IDX 4 1 9 2 5 3 8 4 6 5 7 6 2 7 1 8 3 9 10 10
REMARK H PARENT 10 11
REMARK Flexibility Score: inf
ROOT
ATOM      1  C   UNL     1     -32.921  14.366  53.370  1.00  0.00     0.039 A 
ATOM      2  C   UNL     1     -31.973  14.784  52.402  1.00  0.00     0.124 A 
ATOM      3  C   UNL     1     -34.209  14.935  53.352  1.00  0.00     0.014 A 
ATOM      4  C   UNL     1     -32.312  15.792  51.491  1.00  0.00     0.047 A 
ATOM      5  C   UNL     1     -34.537  15.925  52.423  1.00  0.00     0.001 A 
ATOM      6  C   UNL     1     -33.588  16.360  51.500  1.00  0.00     0.004 A 
ENDROOT
BRANCH   1   7
ATOM      7  C   UNL     1     -32.597  13.382  54.427  1.00  0.00     0.075 C 
ATOM      8  O   UNL     1     -31.493  13.444  55.030  1.00  0.00    -0.545 OA
ATOM      9  O   UNL     1     -33.468  12.340  54.719  1.00  0.00    -0.545 OA
ENDBRANCH   1   7
BRANCH   2  10
ATOM     10  O   UNL     1     -30.709  14.203  52.289  1.00  0.00    -0.507 OA
ATOM     11  H   UNL     1     -30.533  13.350  51.776  1.00  0.00     0.293 HD
ENDBRANCH   2  10
TORSDOF 2
ENDMDL
MODEL 2
REMARK VINA RESULT:    -4.728      2.062      3.271
REMARK INTER + INTRA:          -5.393
REMARK INTER:                  -5.190
REMARK INTRA:                  -0.203
REMARK UNBOUND:                -0.250
REMARK SMILES O=C([O-])c1ccccc1O
REMARK SMILES IDX 4 1 9 2 5 3 8 4 6 5 7 6 2 7 1 8 3 9 10 10
REMARK H PARENT 10 11
REMARK Flexibility Score: inf
ROOT
ATOM      1  C   UNL     1     -32.114  15.280  52.425  1.00  0.00     0.039 A 
ATOM      2  C   UNL     1     -33.200  15.986  51.846  1.00  0.00     0.124 A 
ATOM      3  C   UNL     1     -32.375  14.354  53.453  1.00  0.00     0.014 A 
ATOM      4  C   UNL     1     -34.494  15.796  52.345  1.00  0.00     0.047 A 
ATOM      5  C   UNL     1     -33.675  14.161  53.925  1.00  0.00     0.001 A 
ATOM      6  C   UNL     1     -34.731  14.888  53.379  1.00  0.00     0.004 A 
ENDROOT
BRANCH   1   7
ATOM      7  C   UNL     1     -30.710  15.509  52.016  1.00  0.00     0.075 C 
ATOM      8  O   UNL     1     -30.456  16.107  50.937  1.00  0.00    -0.545 OA
ATOM      9  O   UNL     1     -29.659  15.013  52.776  1.00  0.00    -0.545 OA
ENDBRANCH   1   7
BRANCH   2  10
ATOM     10  O   UNL     1     -33.042  16.848  50.759  1.00  0.00    -0.507 OA
ATOM     11  H   UNL     1     -32.814  16.532  49.827  1.00  0.00     0.293 HD
ENDBRANCH   2  10
TORSDOF 2
ENDMDL
MODEL 3
REMARK VINA RESULT:    -4.722      3.605      4.606
REMARK INTER + INTRA:          -5.387
REMARK INTER:                  -5.135
REMARK INTRA:                  -0.252
REMARK UNBOUND:                -0.250
REMARK SMILES O=C([O-])c1ccccc1O
REMARK SMILES IDX 4 1 9 2 5 3 8 4 6 5 7 6 2 7 1 8 3 9 10 10
REMARK H PARENT 10 11
REMARK Flexibility Score: inf
ROOT
ATOM      1  C   UNL     1     -35.194  15.965  51.160  1.00  0.00     0.039 A 
ATOM      2  C   UNL     1     -33.857  16.383  50.940  1.00  0.00     0.124 A 
ATOM      3  C   UNL     1     -35.496  15.233  52.325  1.00  0.00     0.014 A 
ATOM      4  C   UNL     1     -32.856  16.010  51.848  1.00  0.00     0.047 A 
ATOM      5  C   UNL     1     -34.490  14.888  53.229  1.00  0.00     0.001 A 
ATOM      6  C   UNL     1     -33.171  15.266  52.987  1.00  0.00     0.004 A 
ENDROOT
BRANCH   1   7
ATOM      7  C   UNL     1     -36.280  16.236  50.192  1.00  0.00     0.075 C 
ATOM      8  O   UNL     1     -37.459  16.411  50.598  1.00  0.00    -0.545 OA
ATOM      9  O   UNL     1     -36.030  16.233  48.826  1.00  0.00    -0.545 OA
ENDBRANCH   1   7
BRANCH   2  10
ATOM     10  O   UNL     1     -33.489  17.193  49.864  1.00  0.00    -0.507 OA
ATOM     11  H   UNL     1     -33.832  17.057  48.923  1.00  0.00     0.293 HD
ENDBRANCH   2  10
TORSDOF 2
ENDMDL
MODEL 4
REMARK VINA RESULT:    -4.705      3.535      4.507
REMARK INTER + INTRA:          -5.368
REMARK INTER:                  -5.135
REMARK INTRA:                  -0.232
REMARK UNBOUND:                -0.250
REMARK SMILES O=C([O-])c1ccccc1O
REMARK SMILES IDX 4 1 9 2 5 3 8 4 6 5 7 6 2 7 1 8 3 9 10 10
REMARK H PARENT 10 11
REMARK Flexibility Score: inf
ROOT
ATOM      1  C   UNL     1     -35.242  15.903  51.317  1.00  0.00     0.039 A 
ATOM      2  C   UNL     1     -33.866  16.241  51.269  1.00  0.00     0.124 A 
ATOM      3  C   UNL     1     -35.722  15.153  52.408  1.00  0.00     0.014 A 
ATOM      4  C   UNL     1     -33.003  15.775  52.269  1.00  0.00     0.047 A 
ATOM      5  C   UNL     1     -34.851  14.714  53.407  1.00  0.00     0.001 A 
ATOM      6  C   UNL     1     -33.492  15.015  53.333  1.00  0.00     0.004 A 
ENDROOT
BRANCH   1   7
ATOM      7  C   UNL     1     -36.189  16.275  50.242  1.00  0.00     0.075 C 
ATOM      8  O   UNL     1     -35.768  16.484  49.074  1.00  0.00    -0.545 OA
ATOM      9  O   UNL     1     -37.537  16.465  50.517  1.00  0.00    -0.545 OA
ENDBRANCH   1   7
BRANCH   2  10
ATOM     10  O   UNL     1     -33.327  17.062  50.276  1.00  0.00    -0.507 OA
ATOM     11  H   UNL     1     -33.410  18.069  50.281  1.00  0.00     0.293 HD
ENDBRANCH   2  10
TORSDOF 2
ENDMDL
MODEL 5
REMARK VINA RESULT:    -4.662     11.652     13.581
REMARK INTER + INTRA:          -5.321
REMARK INTER:                  -5.095
REMARK INTRA:                  -0.226
REMARK UNBOUND:                -0.250
REMARK SMILES O=C([O-])c1ccccc1O
REMARK SMILES IDX 4 1 9 2 5 3 8 4 6 5 7 6 2 7 1 8 3 9 10 10
REMARK H PARENT 10 11
REMARK Flexibility Score: inf
ROOT
ATOM      1  C   UNL     1     -25.009  12.188  62.875  1.00  0.00     0.039 A 
ATOM      2  C   UNL     1     -24.186  12.854  63.819  1.00  0.00     0.124 A 
ATOM      3  C   UNL     1     -25.149  10.790  62.960  1.00  0.00     0.014 A 
ATOM      4  C   UNL     1     -23.485  12.108  64.775  1.00  0.00     0.047 A 
ATOM      5  C   UNL     1     -24.458  10.063  63.932  1.00  0.00     0.001 A 
ATOM      6  C   UNL     1     -23.620  10.719  64.832  1.00  0.00     0.004 A 
ENDROOT
BRANCH   1   7
ATOM      7  C   UNL     1     -25.695  12.904  61.776  1.00  0.00     0.075 C 
ATOM      8  O   UNL     1     -25.995  12.294  60.716  1.00  0.00    -0.545 OA
ATOM      9  O   UNL     1     -25.956  14.265  61.868  1.00  0.00    -0.545 OA
ENDBRANCH   1   7
BRANCH   2  10
ATOM     10  O   UNL     1     -24.069  14.245  63.866  1.00  0.00    -0.507 OA
ATOM     11  H   UNL     1     -24.785  14.851  64.243  1.00  0.00     0.293 HD
ENDBRANCH   2  10
TORSDOF 2
ENDMDL
MODEL 6
REMARK VINA RESULT:    -4.627      2.606      3.790
REMARK INTER + INTRA:          -5.283
REMARK INTER:                  -5.072
REMARK INTRA:                  -0.211
REMARK UNBOUND:                -0.250
REMARK SMILES O=C([O-])c1ccccc1O
REMARK SMILES IDX 4 1 9 2 5 3 8 4 6 5 7 6 2 7 1 8 3 9 10 10
REMARK H PARENT 10 11
REMARK Flexibility Score: inf
ROOT
ATOM      1  C   UNL     1     -33.599  15.623  52.028  1.00  0.00     0.039 A 
ATOM      2  C   UNL     1     -32.189  15.508  51.928  1.00  0.00     0.124 A 
ATOM      3  C   UNL     1     -34.268  14.927  53.054  1.00  0.00     0.014 A 
ATOM      4  C   UNL     1     -31.499  14.663  52.806  1.00  0.00     0.047 A 
ATOM      5  C   UNL     1     -33.561  14.105  53.935  1.00  0.00     0.001 A 
ATOM      6  C   UNL     1     -32.181  13.965  53.805  1.00  0.00     0.004 A 
ENDROOT
BRANCH   1   7
ATOM      7  C   UNL     1     -34.402  16.415  51.070  1.00  0.00     0.075 C 
ATOM      8  O   UNL     1     -35.644  16.539  51.237  1.00  0.00    -0.545 OA
ATOM      9  O   UNL     1     -33.814  16.974  49.942  1.00  0.00    -0.545 OA
ENDBRANCH   1   7
BRANCH   2  10
ATOM     10  O   UNL     1     -31.440  16.238  51.004  1.00  0.00    -0.507 OA
ATOM     11  H   UNL     1     -30.458  16.072  50.829  1.00  0.00     0.293 HD
ENDBRANCH   2  10
TORSDOF 2
ENDMDL
MODEL 7
REMARK VINA RESULT:    -4.572      5.840      6.973
REMARK INTER + INTRA:          -5.223
REMARK INTER:                  -4.970
REMARK INTRA:                  -0.253
REMARK UNBOUND:                -0.250
REMARK SMILES O=C([O-])c1ccccc1O
REMARK SMILES IDX 4 1 9 2 5 3 8 4 6 5 7 6 2 7 1 8 3 9 10 10
REMARK H PARENT 10 11
REMARK Flexibility Score: inf
ROOT
ATOM      1  C   UNL     1     -26.901  15.544  53.411  1.00  0.00     0.039 A 
ATOM      2  C   UNL     1     -27.130  16.914  53.694  1.00  0.00     0.124 A 
ATOM      3  C   UNL     1     -26.262  14.746  54.380  1.00  0.00     0.014 A 
ATOM      4  C   UNL     1     -26.666  17.460  54.898  1.00  0.00     0.047 A 
ATOM      5  C   UNL     1     -25.825  15.302  55.584  1.00  0.00     0.001 A 
ATOM      6  C   UNL     1     -26.017  16.659  55.838  1.00  0.00     0.004 A 
ENDROOT
BRANCH   1   7
ATOM      7  C   UNL     1     -27.272  14.927  52.118  1.00  0.00     0.075 C 
ATOM      8  O   UNL     1     -27.624  13.718  52.073  1.00  0.00    -0.545 OA
ATOM      9  O   UNL     1     -27.172  15.645  50.934  1.00  0.00    -0.545 OA
ENDBRANCH   1   7
BRANCH   2  10
ATOM     10  O   UNL     1     -27.841  17.751  52.832  1.00  0.00    -0.507 OA
ATOM     11  H   UNL     1     -27.918  18.750  52.964  1.00  0.00     0.293 HD
ENDBRANCH   2  10
TORSDOF 2
ENDMDL
MODEL 8
REMARK VINA RESULT:    -4.523      3.462      4.803
REMARK INTER + INTRA:          -5.170
REMARK INTER:                  -4.940
REMARK INTRA:                  -0.229
REMARK UNBOUND:                -0.250
REMARK SMILES O=C([O-])c1ccccc1O
REMARK SMILES IDX 4 1 9 2 5 3 8 4 6 5 7 6 2 7 1 8 3 9 10 10
REMARK H PARENT 10 11
REMARK Flexibility Score: inf
ROOT
ATOM      1  C   UNL     1     -34.863  15.928  51.196  1.00  0.00     0.039 A 
ATOM      2  C   UNL     1     -35.269  15.151  52.310  1.00  0.00     0.124 A 
ATOM      3  C   UNL     1     -33.497  16.236  51.042  1.00  0.00     0.014 A 
ATOM      4  C   UNL     1     -34.321  14.759  53.264  1.00  0.00     0.047 A 
ATOM      5  C   UNL     1     -32.562  15.819  51.991  1.00  0.00     0.001 A 
ATOM      6  C   UNL     1     -32.974  15.091  53.106  1.00  0.00     0.004 A 
ENDROOT
BRANCH   1   7
ATOM      7  C   UNL     1     -35.825  16.462  50.207  1.00  0.00     0.075 C 
ATOM      8  O   UNL     1     -35.416  16.900  49.099  1.00  0.00    -0.545 OA
ATOM      9  O   UNL     1     -37.178  16.552  50.509  1.00  0.00    -0.545 OA
ENDBRANCH   1   7
BRANCH   2  10
ATOM     10  O   UNL     1     -36.585  14.720  52.486  1.00  0.00    -0.507 OA
ATOM     11  H   UNL     1     -36.829  13.852  52.944  1.00  0.00     0.293 HD
ENDBRANCH   2  10
TORSDOF 2
ENDMDL
MODEL 9
REMARK VINA RESULT:    -4.501     11.136     12.204
REMARK INTER + INTRA:          -5.146
REMARK INTER:                  -4.897
REMARK INTRA:                  -0.249
REMARK UNBOUND:                -0.250
REMARK SMILES O=C([O-])c1ccccc1O
REMARK SMILES IDX 4 1 9 2 5 3 8 4 6 5 7 6 2 7 1 8 3 9 10 10
REMARK H PARENT 10 11
REMARK Flexibility Score: inf
ROOT
ATOM      1  C   UNL     1     -29.600   4.492  59.005  1.00  0.00     0.039 A 
ATOM      2  C   UNL     1     -28.744   5.135  59.935  1.00  0.00     0.124 A 
ATOM      3  C   UNL     1     -29.675   4.992  57.691  1.00  0.00     0.014 A 
ATOM      4  C   UNL     1     -28.040   6.284  59.550  1.00  0.00     0.047 A 
ATOM      5  C   UNL     1     -28.950   6.126  57.317  1.00  0.00     0.001 A 
ATOM      6  C   UNL     1     -28.143   6.777  58.248  1.00  0.00     0.004 A 
ENDROOT
BRANCH   1   7
ATOM      7  C   UNL     1     -30.449   3.338  59.374  1.00  0.00     0.075 C 
ATOM      8  O   UNL     1     -29.962   2.380  60.031  1.00  0.00    -0.545 OA
ATOM      9  O   UNL     1     -31.768   3.262  58.947  1.00  0.00    -0.545 OA
ENDBRANCH   1   7
BRANCH   2  10
ATOM     10  O   UNL     1     -28.537   4.649  61.228  1.00  0.00    -0.507 OA
ATOM     11  H   UNL     1     -29.078   4.946  62.027  1.00  0.00     0.293 HD
ENDBRANCH   2  10
TORSDOF 2
ENDMDL
