MODEL 1
REMARK VINA RESULT:    -4.874      0.000      0.000
REMARK INTER + INTRA:          -6.065
REMARK INTER:                  -5.729
REMARK INTRA:                  -0.336
REMARK UNBOUND:                -0.336
REMARK SMILES C=C[C@]1(C)CC[C@@H](C(=C)C)C[C@H]1C(=C)C
REMARK SMILES IDX 7 1 6 2 5 3 3 4 12 5 11 6 4 7 8 8 10 9 9 10 13 11 14 12
REMARK SMILES IDX 15 13 2 14 1 15
REMARK H PARENT
REMARK Flexibility Score: inf
ROOT
ATOM      1  C   UNL     1      12.833 -29.860 -30.748  1.00  0.00     0.015 C 
ATOM      2  C   UNL     1      12.772 -28.694 -29.744  1.00  0.00     0.009 C 
ATOM      3  C   UNL     1      14.096 -28.557 -28.974  1.00  0.00     0.012 C 
ATOM      4  C   UNL     1      15.330 -28.382 -29.909  1.00  0.00    -0.008 C 
ATOM      5  C   UNL     1      15.351 -29.547 -30.966  1.00  0.00     0.024 C 
ATOM      6  C   UNL     1      14.009 -29.688 -31.727  1.00  0.00     0.017 C 
ATOM      7  C   UNL     1      15.261 -26.985 -30.580  1.00  0.00     0.016 C 
ENDROOT
BRANCH   1   8
ATOM      8  C   UNL     1      11.512 -30.023 -31.489  1.00  0.00    -0.077 C 
ATOM      9  C   UNL     1      11.427 -30.925 -32.694  1.00  0.00     0.039 C 
ATOM     10  C   UNL     1      10.404 -29.374 -31.092  1.00  0.00     0.008 C 
ENDBRANCH   1   8
BRANCH   5  11
ATOM     11  C   UNL     1      16.551 -29.503 -31.916  1.00  0.00    -0.077 C 
ATOM     12  C   UNL     1      16.554 -28.753 -33.032  1.00  0.00     0.008 C 
ATOM     13  C   UNL     1      17.769 -30.342 -31.623  1.00  0.00     0.039 C 
ENDBRANCH   5  11
BRANCH   4  14
ATOM     14  C   UNL     1      16.601 -28.415 -29.059  1.00  0.00    -0.028 C 
ATOM     15  C   UNL     1      17.566 -27.488 -29.128  1.00  0.00     0.004 C 
ENDBRANCH   4  14
TORSDOF 3
ENDMDL
MODEL 2
REMARK VINA RESULT:    -4.821      1.818      2.634
REMARK INTER + INTRA:          -6.003
REMARK INTER:                  -5.619
REMARK INTRA:                  -0.384
REMARK UNBOUND:                -0.336
REMARK SMILES C=C[C@]1(C)CC[C@@H](C(=C)C)C[C@H]1C(=C)C
REMARK SMILES IDX 7 1 6 2 5 3 3 4 12 5 11 6 4 7 8 8 10 9 9 10 13 11 14 12
REMARK SMILES IDX 15 13 2 14 1 15
REMARK H PARENT
REMARK Flexibility Score: inf
ROOT
ATOM      1  C   UNL     1      12.219 -28.016 -31.305  1.00  0.00     0.015 C 
ATOM      2  C   UNL     1      12.147 -28.748 -29.952  1.00  0.00     0.009 C 
ATOM      3  C   UNL     1      13.423 -29.567 -29.697  1.00  0.00     0.012 C 
ATOM      4  C   UNL     1      14.721 -28.708 -29.762  1.00  0.00    -0.008 C 
ATOM      5  C   UNL     1      14.758 -27.921 -31.123  1.00  0.00     0.024 C 
ATOM      6  C   UNL     1      13.463 -27.111 -31.380  1.00  0.00     0.017 C 
ATOM      7  C   UNL     1      14.760 -27.758 -28.536  1.00  0.00     0.016 C 
ENDROOT
BRANCH   1   8
ATOM      8  C   UNL     1      10.943 -27.231 -31.580  1.00  0.00    -0.077 C 
ATOM      9  C   UNL     1       9.612 -27.763 -31.115  1.00  0.00     0.039 C 
ATOM     10  C   UNL     1      10.973 -26.058 -32.236  1.00  0.00     0.008 C 
ENDBRANCH   1   8
BRANCH   5  11
ATOM     11  C   UNL     1      16.017 -27.073 -31.318  1.00  0.00    -0.077 C 
ATOM     12  C   UNL     1      16.173 -25.875 -30.727  1.00  0.00     0.008 C 
ATOM     13  C   UNL     1      17.120 -27.566 -32.220  1.00  0.00     0.039 C 
ENDBRANCH   5  11
BRANCH   4  14
ATOM     14  C   UNL     1      15.932 -29.637 -29.655  1.00  0.00    -0.028 C 
ATOM     15  C   UNL     1      16.096 -30.735 -30.406  1.00  0.00     0.004 C 
ENDBRANCH   4  14
TORSDOF 3
ENDMDL
MODEL 3
REMARK VINA RESULT:    -4.660      1.916      4.206
REMARK INTER + INTRA:          -5.813
REMARK INTER:                  -5.466
REMARK INTRA:                  -0.347
REMARK UNBOUND:                -0.336
REMARK SMILES C=C[C@]1(C)CC[C@@H](C(=C)C)C[C@H]1C(=C)C
REMARK SMILES IDX 7 1 6 2 5 3 3 4 12 5 11 6 4 7 8 8 10 9 9 10 13 11 14 12
REMARK SMILES IDX 15 13 2 14 1 15
REMARK H PARENT
REMARK Flexibility Score: inf
ROOT
ATOM      1  C   UNL     1      16.063 -31.330 -31.573  1.00  0.00     0.015 C 
ATOM      2  C   UNL     1      17.362 -30.663 -31.083  1.00  0.00     0.009 C 
ATOM      3  C   UNL     1      17.324 -29.143 -31.309  1.00  0.00     0.012 C 
ATOM      4  C   UNL     1      16.096 -28.458 -30.638  1.00  0.00    -0.008 C 
ATOM      5  C   UNL     1      14.778 -29.182 -31.101  1.00  0.00     0.024 C 
ATOM      6  C   UNL     1      14.830 -30.715 -30.884  1.00  0.00     0.017 C 
ATOM      7  C   UNL     1      16.274 -28.499 -29.097  1.00  0.00     0.016 C 
ENDROOT
BRANCH   1   8
ATOM      8  C   UNL     1      16.109 -32.841 -31.384  1.00  0.00    -0.077 C 
ATOM      9  C   UNL     1      16.952 -33.441 -30.287  1.00  0.00     0.039 C 
ATOM     10  C   UNL     1      15.409 -33.666 -32.181  1.00  0.00     0.008 C 
ENDBRANCH   1   8
BRANCH   5  11
ATOM     11  C   UNL     1      13.497 -28.563 -30.536  1.00  0.00    -0.077 C 
ATOM     12  C   UNL     1      13.081 -28.799 -29.280  1.00  0.00     0.008 C 
ATOM     13  C   UNL     1      12.644 -27.678 -31.411  1.00  0.00     0.039 C 
ENDBRANCH   5  11
BRANCH   4  14
ATOM     14  C   UNL     1      16.065 -26.986 -31.053  1.00  0.00    -0.028 C 
ATOM     15  C   UNL     1      16.232 -25.969 -30.197  1.00  0.00     0.004 C 
ENDBRANCH   4  14
TORSDOF 3
ENDMDL
MODEL 4
REMARK VINA RESULT:    -4.650      1.413      2.685
REMARK INTER + INTRA:          -5.802
REMARK INTER:                  -5.422
REMARK INTRA:                  -0.380
REMARK UNBOUND:                -0.336
REMARK SMILES C=C[C@]1(C)CC[C@@H](C(=C)C)C[C@H]1C(=C)C
REMARK SMILES IDX 7 1 6 2 5 3 3 4 12 5 11 6 4 7 8 8 10 9 9 10 13 11 14 12
REMARK SMILES IDX 15 13 2 14 1 15
REMARK H PARENT
REMARK Flexibility Score: inf
ROOT
ATOM      1  C   UNL     1      13.104 -28.825 -31.437  1.00  0.00     0.015 C 
ATOM      2  C   UNL     1      13.496 -30.022 -30.550  1.00  0.00     0.009 C 
ATOM      3  C   UNL     1      14.986 -30.367 -30.713  1.00  0.00     0.012 C 
ATOM      4  C   UNL     1      15.926 -29.160 -30.415  1.00  0.00    -0.008 C 
ATOM      5  C   UNL     1      15.482 -27.926 -31.284  1.00  0.00     0.024 C 
ATOM      6  C   UNL     1      13.977 -27.595 -31.126  1.00  0.00     0.017 C 
ATOM      7  C   UNL     1      15.884 -28.851 -28.896  1.00  0.00     0.016 C 
ENDROOT
BRANCH   1   8
ATOM      8  C   UNL     1      11.621 -28.501 -31.306  1.00  0.00    -0.077 C 
ATOM      9  C   UNL     1      11.150 -27.071 -31.378  1.00  0.00     0.039 C 
ATOM     10  C   UNL     1      10.708 -29.470 -31.125  1.00  0.00     0.008 C 
ENDBRANCH   1   8
BRANCH   5  11
ATOM     11  C   UNL     1      16.366 -26.690 -31.106  1.00  0.00    -0.077 C 
ATOM     12  C   UNL     1      16.255 -25.876 -30.041  1.00  0.00     0.008 C 
ATOM     13  C   UNL     1      17.385 -26.339 -32.162  1.00  0.00     0.039 C 
ENDBRANCH   5  11
BRANCH   4  14
ATOM     14  C   UNL     1      17.363 -29.559 -30.758  1.00  0.00    -0.028 C 
ATOM     15  C   UNL     1      17.719 -30.132 -31.916  1.00  0.00     0.004 C 
ENDBRANCH   4  14
TORSDOF 3
ENDMDL
MODEL 5
REMARK VINA RESULT:    -4.644      1.704      2.637
REMARK INTER + INTRA:          -5.795
REMARK INTER:                  -5.436
REMARK INTRA:                  -0.359
REMARK UNBOUND:                -0.336
REMARK SMILES C=C[C@]1(C)CC[C@@H](C(=C)C)C[C@H]1C(=C)C
REMARK SMILES IDX 7 1 6 2 5 3 3 4 12 5 11 6 4 7 8 8 10 9 9 10 13 11 14 12
REMARK SMILES IDX 15 13 2 14 1 15
REMARK H PARENT
REMARK Flexibility Score: inf
ROOT
ATOM      1  C   UNL     1      11.060 -28.705 -31.046  1.00  0.00     0.015 C 
ATOM      2  C   UNL     1      11.881 -28.026 -29.933  1.00  0.00     0.009 C 
ATOM      3  C   UNL     1      13.045 -28.922 -29.479  1.00  0.00     0.012 C 
ATOM      4  C   UNL     1      13.987 -29.335 -30.650  1.00  0.00    -0.008 C 
ATOM      5  C   UNL     1      13.133 -29.976 -31.805  1.00  0.00     0.024 C 
ATOM      6  C   UNL     1      11.953 -29.074 -32.246  1.00  0.00     0.017 C 
ATOM      7  C   UNL     1      14.775 -28.087 -31.128  1.00  0.00     0.016 C 
ENDROOT
BRANCH   1   8
ATOM      8  C   UNL     1       9.884 -27.838 -31.475  1.00  0.00    -0.077 C 
ATOM      9  C   UNL     1      10.109 -26.643 -32.366  1.00  0.00     0.039 C 
ATOM     10  C   UNL     1       8.631 -28.113 -31.074  1.00  0.00     0.008 C 
ENDBRANCH   1   8
BRANCH   5  11
ATOM     11  C   UNL     1      13.963 -30.462 -32.996  1.00  0.00    -0.077 C 
ATOM     12  C   UNL     1      14.364 -29.634 -33.976  1.00  0.00     0.008 C 
ATOM     13  C   UNL     1      14.329 -31.921 -33.107  1.00  0.00     0.039 C 
ENDBRANCH   5  11
BRANCH   4  14
ATOM     14  C   UNL     1      15.010 -30.345 -30.126  1.00  0.00    -0.028 C 
ATOM     15  C   UNL     1      16.336 -30.158 -30.185  1.00  0.00     0.004 C 
ENDBRANCH   4  14
TORSDOF 3
ENDMDL
MODEL 6
REMARK VINA RESULT:    -4.596      6.160      7.770
REMARK INTER + INTRA:          -5.739
REMARK INTER:                  -5.629
REMARK INTRA:                  -0.109
REMARK UNBOUND:                -0.336
REMARK SMILES C=C[C@]1(C)CC[C@@H](C(=C)C)C[C@H]1C(=C)C
REMARK SMILES IDX 7 1 6 2 5 3 3 4 12 5 11 6 4 7 8 8 10 9 9 10 13 11 14 12
REMARK SMILES IDX 15 13 2 14 1 15
REMARK H PARENT
REMARK Flexibility Score: inf
ROOT
ATOM      1  C   UNL     1      12.997 -37.114 -32.734  1.00  0.00     0.015 C 
ATOM      2  C   UNL     1      13.288 -36.518 -34.124  1.00  0.00     0.009 C 
ATOM      3  C   UNL     1      13.837 -35.086 -34.009  1.00  0.00     0.012 C 
ATOM      4  C   UNL     1      15.113 -34.993 -33.120  1.00  0.00    -0.008 C 
ATOM      5  C   UNL     1      14.824 -35.655 -31.722  1.00  0.00     0.024 C 
ATOM      6  C   UNL     1      14.257 -37.090 -31.847  1.00  0.00     0.017 C 
ATOM      7  C   UNL     1      16.294 -35.678 -33.857  1.00  0.00     0.016 C 
ENDROOT
BRANCH   1   8
ATOM      8  C   UNL     1      12.420 -38.519 -32.842  1.00  0.00    -0.077 C 
ATOM      9  C   UNL     1      11.741 -38.963 -34.113  1.00  0.00     0.039 C 
ATOM     10  C   UNL     1      12.500 -39.388 -31.820  1.00  0.00     0.008 C 
ENDBRANCH   1   8
BRANCH   5  11
ATOM     11  C   UNL     1      15.999 -35.581 -30.744  1.00  0.00    -0.077 C 
ATOM     12  C   UNL     1      16.593 -36.683 -30.254  1.00  0.00     0.008 C 
ATOM     13  C   UNL     1      16.504 -34.238 -30.280  1.00  0.00     0.039 C 
ENDBRANCH   5  11
BRANCH   4  14
ATOM     14  C   UNL     1      15.483 -33.519 -32.941  1.00  0.00    -0.028 C 
ATOM     15  C   UNL     1      14.589 -32.520 -32.967  1.00  0.00     0.004 C 
ENDBRANCH   4  14
TORSDOF 3
ENDMDL
MODEL 7
REMARK VINA RESULT:    -4.562      4.370      6.075
REMARK INTER + INTRA:          -5.699
REMARK INTER:                  -5.301
REMARK INTRA:                  -0.397
REMARK UNBOUND:                -0.336
REMARK SMILES C=C[C@]1(C)CC[C@@H](C(=C)C)C[C@H]1C(=C)C
REMARK SMILES IDX 7 1 6 2 5 3 3 4 12 5 11 6 4 7 8 8 10 9 9 10 13 11 14 12
REMARK SMILES IDX 15 13 2 14 1 15
REMARK H PARENT
REMARK Flexibility Score: inf
ROOT
ATOM      1  C   UNL     1      15.449 -31.919 -31.497  1.00  0.00     0.015 C 
ATOM      2  C   UNL     1      16.904 -31.999 -30.999  1.00  0.00     0.009 C 
ATOM      3  C   UNL     1      17.178 -33.343 -30.304  1.00  0.00     0.012 C 
ATOM      4  C   UNL     1      16.863 -34.572 -31.208  1.00  0.00    -0.008 C 
ATOM      5  C   UNL     1      15.394 -34.452 -31.758  1.00  0.00     0.024 C 
ATOM      6  C   UNL     1      15.122 -33.090 -32.443  1.00  0.00     0.017 C 
ATOM      7  C   UNL     1      17.911 -34.639 -32.351  1.00  0.00     0.016 C 
ENDROOT
BRANCH   1   8
ATOM      8  C   UNL     1      15.162 -30.576 -32.156  1.00  0.00    -0.077 C 
ATOM      9  C   UNL     1      16.225 -29.892 -32.977  1.00  0.00     0.039 C 
ATOM     10  C   UNL     1      13.967 -29.974 -32.022  1.00  0.00     0.008 C 
ENDBRANCH   1   8
BRANCH   5  11
ATOM     11  C   UNL     1      14.957 -35.633 -32.628  1.00  0.00    -0.077 C 
ATOM     12  C   UNL     1      15.236 -35.697 -33.942  1.00  0.00     0.008 C 
ATOM     13  C   UNL     1      14.163 -36.760 -32.016  1.00  0.00     0.039 C 
ENDBRANCH   5  11
BRANCH   4  14
ATOM     14  C   UNL     1      17.015 -35.847 -30.377  1.00  0.00    -0.028 C 
ATOM     15  C   UNL     1      16.457 -36.020 -29.171  1.00  0.00     0.004 C 
ENDBRANCH   4  14
TORSDOF 3
ENDMDL
MODEL 8
REMARK VINA RESULT:    -4.515      2.077      5.012
REMARK INTER + INTRA:          -5.643
REMARK INTER:                  -5.334
REMARK INTRA:                  -0.309
REMARK UNBOUND:                -0.336
REMARK SMILES C=C[C@]1(C)CC[C@@H](C(=C)C)C[C@H]1C(=C)C
REMARK SMILES IDX 7 1 6 2 5 3 3 4 12 5 11 6 4 7 8 8 10 9 9 10 13 11 14 12
REMARK SMILES IDX 15 13 2 14 1 15
REMARK H PARENT
REMARK Flexibility Score: inf
ROOT
ATOM      1  C   UNL     1      15.952 -32.436 -31.162  1.00  0.00     0.015 C 
ATOM      2  C   UNL     1      15.496 -32.145 -32.605  1.00  0.00     0.009 C 
ATOM      3  C   UNL     1      14.195 -31.325 -32.620  1.00  0.00     0.012 C 
ATOM      4  C   UNL     1      14.308 -29.990 -31.825  1.00  0.00    -0.008 C 
ATOM      5  C   UNL     1      14.828 -30.292 -30.371  1.00  0.00     0.024 C 
ATOM      6  C   UNL     1      16.130 -31.130 -30.364  1.00  0.00     0.017 C 
ATOM      7  C   UNL     1      15.247 -29.023 -32.592  1.00  0.00     0.016 C 
ENDROOT
BRANCH   1   8
ATOM      8  C   UNL     1      17.221 -33.278 -31.141  1.00  0.00    -0.077 C 
ATOM      9  C   UNL     1      17.486 -34.217 -29.992  1.00  0.00     0.039 C 
ATOM     10  C   UNL     1      18.125 -33.204 -32.133  1.00  0.00     0.008 C 
ENDBRANCH   1   8
BRANCH   5  11
ATOM     11  C   UNL     1      14.936 -29.052 -29.480  1.00  0.00    -0.077 C 
ATOM     12  C   UNL     1      13.862 -28.494 -28.894  1.00  0.00     0.008 C 
ATOM     13  C   UNL     1      16.280 -28.402 -29.260  1.00  0.00     0.039 C 
ENDBRANCH   5  11
BRANCH   4  14
ATOM     14  C   UNL     1      12.928 -29.333 -31.768  1.00  0.00    -0.028 C 
ATOM     15  C   UNL     1      11.778 -30.020 -31.734  1.00  0.00     0.004 C 
ENDBRANCH   4  14
TORSDOF 3
ENDMDL
MODEL 9
REMARK VINA RESULT:    -4.428      1.384      3.377
REMARK INTER + INTRA:          -5.540
REMARK INTER:                  -5.191
REMARK INTRA:                  -0.349
REMARK UNBOUND:                -0.336
REMARK SMILES C=C[C@]1(C)CC[C@@H](C(=C)C)C[C@H]1C(=C)C
REMARK SMILES IDX 7 1 6 2 5 3 3 4 12 5 11 6 4 7 8 8 10 9 9 10 13 11 14 12
REMARK SMILES IDX 15 13 2 14 1 15
REMARK H PARENT
REMARK Flexibility Score: inf
ROOT
ATOM      1  C   UNL     1      11.437 -27.991 -31.700  1.00  0.00     0.015 C 
ATOM      2  C   UNL     1      11.703 -29.296 -32.475  1.00  0.00     0.009 C 
ATOM      3  C   UNL     1      13.132 -29.321 -33.043  1.00  0.00     0.012 C 
ATOM      4  C   UNL     1      14.225 -29.126 -31.950  1.00  0.00    -0.008 C 
ATOM      5  C   UNL     1      13.913 -27.821 -31.127  1.00  0.00     0.024 C 
ATOM      6  C   UNL     1      12.467 -27.797 -30.572  1.00  0.00     0.017 C 
ATOM      7  C   UNL     1      14.269 -30.388 -31.049  1.00  0.00     0.016 C 
ENDROOT
BRANCH   1   8
ATOM      8  C   UNL     1      10.011 -27.945 -31.165  1.00  0.00    -0.077 C 
ATOM      9  C   UNL     1       9.181 -29.202 -31.113  1.00  0.00     0.039 C 
ATOM     10  C   UNL     1       9.466 -26.795 -30.732  1.00  0.00     0.008 C 
ENDBRANCH   1   8
BRANCH   5  11
ATOM     11  C   UNL     1      14.951 -27.503 -30.048  1.00  0.00    -0.077 C 
ATOM     12  C   UNL     1      14.955 -28.120 -28.854  1.00  0.00     0.008 C 
ATOM     13  C   UNL     1      15.996 -26.445 -30.303  1.00  0.00     0.039 C 
ENDBRANCH   5  11
BRANCH   4  14
ATOM     14  C   UNL     1      15.589 -29.008 -32.632  1.00  0.00    -0.028 C 
ATOM     15  C   UNL     1      16.613 -29.839 -32.396  1.00  0.00     0.004 C 
ENDBRANCH   4  14
TORSDOF 3
ENDMDL
