MODEL 1
REMARK VINA RESULT:    -1.859      0.000      0.000
REMARK INTER + INTRA:          -2.125
REMARK INTER:                  -1.968
REMARK INTRA:                  -0.157
REMARK UNBOUND:                -0.157
REMARK SMILES C=C(C)[C@@H]1CC=C(C)CC1
REMARK SMILES IDX 8 1 7 2 6 3 5 4 4 5 10 6 9 7 2 8 1 9 3 10
REMARK H PARENT
REMARK Flexibility Score: inf
ROOT
ATOM      1  C   UNL     1       7.869 -10.144   2.016  1.00  0.00     0.039 C 
ATOM      2  C   UNL     1       9.164 -10.467   2.709  1.00  0.00    -0.077 C 
ATOM      3  C   UNL     1       9.167 -10.818   4.005  1.00  0.00    -0.027 C 
ATOM      4  C   UNL     1      10.477 -11.086   4.693  1.00  0.00     0.035 C 
ATOM      5  C   UNL     1      11.500  -9.976   4.351  1.00  0.00     0.018 C 
ATOM      6  C   UNL     1      11.507  -9.581   2.837  1.00  0.00     0.013 C 
ATOM      7  C   UNL     1      10.487 -10.361   1.986  1.00  0.00     0.031 C 
ENDROOT
BRANCH   5   8
ATOM      8  C   UNL     1      12.890 -10.349   4.847  1.00  0.00    -0.077 C 
ATOM      9  C   UNL     1      13.827  -9.407   5.046  1.00  0.00     0.008 C 
ATOM     10  C   UNL     1      13.239 -11.789   5.125  1.00  0.00     0.039 C 
ENDBRANCH   5   8
TORSDOF 1
ENDMDL
MODEL 2
REMARK VINA RESULT:    -1.845      1.029      1.900
REMARK INTER + INTRA:          -2.109
REMARK INTER:                  -1.945
REMARK INTRA:                  -0.164
REMARK UNBOUND:                -0.157
REMARK SMILES C=C(C)[C@@H]1CC=C(C)CC1
REMARK SMILES IDX 8 1 7 2 6 3 5 4 4 5 10 6 9 7 2 8 1 9 3 10
REMARK H PARENT
REMARK Flexibility Score: inf
ROOT
ATOM      1  C   UNL     1       8.378 -10.436   2.764  1.00  0.00     0.039 C 
ATOM      2  C   UNL     1       9.727 -10.078   3.323  1.00  0.00    -0.077 C 
ATOM      3  C   UNL     1      10.691  -9.612   2.514  1.00  0.00    -0.027 C 
ATOM      4  C   UNL     1      12.050  -9.308   3.083  1.00  0.00     0.035 C 
ATOM      5  C   UNL     1      12.517 -10.465   3.999  1.00  0.00     0.018 C 
ATOM      6  C   UNL     1      11.397 -10.994   4.955  1.00  0.00     0.013 C 
ATOM      7  C   UNL     1      10.046 -10.275   4.788  1.00  0.00     0.031 C 
ENDROOT
BRANCH   5   8
ATOM      8  C   UNL     1      13.777 -10.075   4.760  1.00  0.00    -0.077 C 
ATOM      9  C   UNL     1      13.997  -8.800   5.122  1.00  0.00     0.008 C 
ATOM     10  C   UNL     1      14.803 -11.118   5.122  1.00  0.00     0.039 C 
ENDBRANCH   5   8
TORSDOF 1
ENDMDL
MODEL 3
REMARK VINA RESULT:    -1.609      1.247      2.300
REMARK INTER + INTRA:          -1.860
REMARK INTER:                  -1.704
REMARK INTRA:                  -0.155
REMARK UNBOUND:                -0.157
REMARK SMILES C=C(C)[C@@H]1CC=C(C)CC1
REMARK SMILES IDX 8 1 7 2 6 3 5 4 4 5 10 6 9 7 2 8 1 9 3 10
REMARK H PARENT
REMARK Flexibility Score: inf
ROOT
ATOM      1  C   UNL     1       9.014 -10.348   4.268  1.00  0.00     0.039 C 
ATOM      2  C   UNL     1      10.499 -10.579   4.246  1.00  0.00    -0.077 C 
ATOM      3  C   UNL     1      11.065 -11.424   5.123  1.00  0.00    -0.027 C 
ATOM      4  C   UNL     1      12.558 -11.601   5.119  1.00  0.00     0.035 C 
ATOM      5  C   UNL     1      13.261 -10.224   5.047  1.00  0.00     0.018 C 
ATOM      6  C   UNL     1      12.612  -9.247   4.011  1.00  0.00     0.013 C 
ATOM      7  C   UNL     1      11.394  -9.838   3.278  1.00  0.00     0.031 C 
ENDROOT
BRANCH   5   8
ATOM      8  C   UNL     1      14.756 -10.393   4.810  1.00  0.00    -0.077 C 
ATOM      9  C   UNL     1      15.364 -11.566   5.052  1.00  0.00     0.008 C 
ATOM     10  C   UNL     1      15.582  -9.240   4.300  1.00  0.00     0.039 C 
ENDBRANCH   5   8
TORSDOF 1
ENDMDL
MODEL 4
REMARK VINA RESULT:    -1.377      1.187      1.828
REMARK INTER + INTRA:          -1.614
REMARK INTER:                  -1.458
REMARK INTRA:                  -0.156
REMARK UNBOUND:                -0.157
REMARK SMILES C=C(C)[C@@H]1CC=C(C)CC1
REMARK SMILES IDX 8 1 7 2 6 3 5 4 4 5 10 6 9 7 2 8 1 9 3 10
REMARK H PARENT
REMARK Flexibility Score: inf
ROOT
ATOM      1  C   UNL     1       7.834  -9.744  -0.119  1.00  0.00     0.039 C 
ATOM      2  C   UNL     1       8.624 -10.190   1.080  1.00  0.00    -0.077 C 
ATOM      3  C   UNL     1       8.014 -10.369   2.262  1.00  0.00    -0.027 C 
ATOM      4  C   UNL     1       8.830 -10.764   3.462  1.00  0.00     0.035 C 
ATOM      5  C   UNL     1      10.107  -9.895   3.552  1.00  0.00     0.018 C 
ATOM      6  C   UNL     1      10.827  -9.703   2.176  1.00  0.00     0.013 C 
ATOM      7  C   UNL     1      10.119 -10.401   1.000  1.00  0.00     0.031 C 
ENDROOT
BRANCH   5   8
ATOM      8  C   UNL     1      11.052 -10.432   4.618  1.00  0.00    -0.077 C 
ATOM      9  C   UNL     1      12.029  -9.661   5.125  1.00  0.00     0.008 C 
ATOM     10  C   UNL     1      10.907 -11.844   5.124  1.00  0.00     0.039 C 
ENDBRANCH   5   8
TORSDOF 1
ENDMDL
MODEL 5
REMARK VINA RESULT:    -1.136      2.741      3.972
REMARK INTER + INTRA:          -1.360
REMARK INTER:                  -1.196
REMARK INTRA:                  -0.164
REMARK UNBOUND:                -0.157
REMARK SMILES C=C(C)[C@@H]1CC=C(C)CC1
REMARK SMILES IDX 8 1 7 2 6 3 5 4 4 5 10 6 9 7 2 8 1 9 3 10
REMARK H PARENT
REMARK Flexibility Score: inf
ROOT
ATOM      1  C   UNL     1      11.608 -12.906   5.097  1.00  0.00     0.039 C 
ATOM      2  C   UNL     1      12.541 -11.727   5.119  1.00  0.00    -0.077 C 
ATOM      3  C   UNL     1      12.050 -10.477   5.096  1.00  0.00    -0.027 C 
ATOM      4  C   UNL     1      13.001  -9.313   5.066  1.00  0.00     0.035 C 
ATOM      5  C   UNL     1      14.117  -9.558   4.022  1.00  0.00     0.018 C 
ATOM      6  C   UNL     1      14.700 -11.009   4.063  1.00  0.00     0.013 C 
ATOM      7  C   UNL     1      14.041 -11.914   5.121  1.00  0.00     0.031 C 
ENDROOT
BRANCH   5   8
ATOM      8  C   UNL     1      15.209  -8.503   4.140  1.00  0.00    -0.077 C 
ATOM      9  C   UNL     1      16.123  -8.565   5.123  1.00  0.00     0.008 C 
ATOM     10  C   UNL     1      15.281  -7.367   3.154  1.00  0.00     0.039 C 
ENDBRANCH   5   8
TORSDOF 1
ENDMDL
MODEL 6
REMARK VINA RESULT:    -1.104      1.080      4.329
REMARK INTER + INTRA:          -1.325
REMARK INTER:                  -1.167
REMARK INTRA:                  -0.158
REMARK UNBOUND:                -0.157
REMARK SMILES C=C(C)[C@@H]1CC=C(C)CC1
REMARK SMILES IDX 8 1 7 2 6 3 5 4 4 5 10 6 9 7 2 8 1 9 3 10
REMARK H PARENT
REMARK Flexibility Score: inf
ROOT
ATOM      1  C   UNL     1      15.220 -11.129   5.060  1.00  0.00     0.039 C 
ATOM      2  C   UNL     1      13.746 -10.862   4.931  1.00  0.00    -0.077 C 
ATOM      3  C   UNL     1      12.861 -11.854   5.125  1.00  0.00    -0.027 C 
ATOM      4  C   UNL     1      11.394 -11.580   4.940  1.00  0.00     0.035 C 
ATOM      5  C   UNL     1      11.157 -10.787   3.632  1.00  0.00     0.018 C 
ATOM      6  C   UNL     1      12.178  -9.620   3.418  1.00  0.00     0.013 C 
ATOM      7  C   UNL     1      13.227  -9.498   4.538  1.00  0.00     0.031 C 
ENDROOT
BRANCH   5   8
ATOM      8  C   UNL     1       9.716 -10.304   3.547  1.00  0.00    -0.077 C 
ATOM      9  C   UNL     1       9.144 -10.046   2.359  1.00  0.00     0.008 C 
ATOM     10  C   UNL     1       8.903 -10.105   4.800  1.00  0.00     0.039 C 
ENDBRANCH   5   8
TORSDOF 1
ENDMDL
