MODEL 1
REMARK VINA RESULT:    -5.095      0.000      0.000
REMARK INTER + INTRA:          -9.621
REMARK INTER:                  -8.967
REMARK INTRA:                  -0.654
REMARK UNBOUND:                -0.654
REMARK SMILES CCCCCCCCCCCCCCC(=O)[O-]
REMARK SMILES IDX 9 1 10 2 11 3 12 4 13 5 14 6 15 7 16 8 17 9 8 10 7 11 6 12
REMARK SMILES IDX 5 13 4 14 3 15 2 16 1 17
REMARK H PARENT
REMARK Flexibility Score: inf
ROOT
ATOM      1  C   UNL     1      12.411  -8.343   4.062  1.00  0.00     0.000 C 
ENDROOT
BRANCH   1   2
ATOM      2  C   UNL     1      11.753  -8.627   2.702  1.00  0.00     0.000 C 
BRANCH   2   3
ATOM      3  C   UNL     1      12.732  -8.493   1.524  1.00  0.00     0.000 C 
BRANCH   3   4
ATOM      4  C   UNL     1      12.809  -9.754   0.637  1.00  0.00     0.000 C 
BRANCH   4   5
ATOM      5  C   UNL     1      13.432  -9.462  -0.736  1.00  0.00     0.006 C 
BRANCH   5   6
ATOM      6  C   UNL     1      14.222  -8.149  -0.713  1.00  0.00     0.053 C 
BRANCH   6   7
ATOM      7  C   UNL     1      14.502  -7.681  -2.106  1.00  0.00     0.041 C 
ATOM      8  O   UNL     1      15.542  -8.061  -2.705  1.00  0.00    -0.550 OA
ATOM      9  O   UNL     1      13.639  -6.786  -2.725  1.00  0.00    -0.550 OA
ENDBRANCH   6   7
ENDBRANCH   5   6
ENDBRANCH   4   5
ENDBRANCH   3   4
ENDBRANCH   2   3
ENDBRANCH   1   2
BRANCH   1  10
ATOM     10  C   UNL     1      13.271  -9.514   4.557  1.00  0.00     0.000 C 
BRANCH  10  11
ATOM     11  C   UNL     1      12.512 -10.433   5.531  1.00  0.00    -0.000 C 
BRANCH  11  12
ATOM     12  C   UNL     1      11.733 -11.544   4.809  1.00  0.00    -0.000 C 
BRANCH  12  13
ATOM     13  C   UNL     1      10.254 -11.591   5.221  1.00  0.00    -0.000 C 
BRANCH  13  14
ATOM     14  C   UNL     1       9.762 -13.040   5.336  1.00  0.00    -0.000 C 
BRANCH  14  15
ATOM     15  C   UNL     1       8.712 -13.177   6.450  1.00  0.00    -0.000 C 
BRANCH  15  16
ATOM     16  C   UNL     1       8.764 -14.547   7.143  1.00  0.00    -0.003 C 
ATOM     17  C   UNL     1       7.655 -15.488   6.676  1.00  0.00     0.004 C 
ENDBRANCH  15  16
ENDBRANCH  14  15
ENDBRANCH  13  14
ENDBRANCH  12  13
ENDBRANCH  11  12
ENDBRANCH  10  11
ENDBRANCH   1  10
TORSDOF 13
ENDMDL
MODEL 2
REMARK VINA RESULT:    -5.020      8.744     11.513
REMARK INTER + INTRA:          -9.489
REMARK INTER:                  -8.644
REMARK INTRA:                  -0.844
REMARK UNBOUND:                -0.654
REMARK SMILES CCCCCCCCCCCCCCC(=O)[O-]
REMARK SMILES IDX 9 1 10 2 11 3 12 4 13 5 14 6 15 7 16 8 17 9 8 10 7 11 6 12
REMARK SMILES IDX 5 13 4 14 3 15 2 16 1 17
REMARK H PARENT
REMARK Flexibility Score: inf
ROOT
ATOM      1  C   UNL     1       3.761 -17.797   1.120  1.00  0.00     0.000 C 
ENDROOT
BRANCH   1   2
ATOM      2  C   UNL     1       3.875 -18.174  -0.366  1.00  0.00     0.000 C 
BRANCH   2   3
ATOM      3  C   UNL     1       3.088 -17.225  -1.286  1.00  0.00     0.000 C 
BRANCH   3   4
ATOM      4  C   UNL     1       2.366 -17.945  -2.445  1.00  0.00     0.000 C 
BRANCH   4   5
ATOM      5  C   UNL     1       3.271 -18.969  -3.146  1.00  0.00     0.006 C 
BRANCH   5   6
ATOM      6  C   UNL     1       3.456 -18.616  -4.626  1.00  0.00     0.053 C 
BRANCH   6   7
ATOM      7  C   UNL     1       4.454 -17.513  -4.780  1.00  0.00     0.041 C 
ATOM      8  O   UNL     1       5.494 -17.497  -4.071  1.00  0.00    -0.550 OA
ATOM      9  O   UNL     1       4.213 -16.477  -5.673  1.00  0.00    -0.550 OA
ENDBRANCH   6   7
ENDBRANCH   5   6
ENDBRANCH   4   5
ENDBRANCH   3   4
ENDBRANCH   2   3
ENDBRANCH   1   2
BRANCH   1  10
ATOM     10  C   UNL     1       3.817 -19.021   2.046  1.00  0.00     0.000 C 
BRANCH  10  11
ATOM     11  C   UNL     1       4.164 -18.647   3.498  1.00  0.00    -0.000 C 
BRANCH  11  12
ATOM     12  C   UNL     1       3.728 -17.218   3.860  1.00  0.00    -0.000 C 
BRANCH  12  13
ATOM     13  C   UNL     1       4.901 -16.342   4.323  1.00  0.00    -0.000 C 
BRANCH  13  14
ATOM     14  C   UNL     1       6.245 -16.995   3.974  1.00  0.00    -0.000 C 
BRANCH  14  15
ATOM     15  C   UNL     1       7.414 -16.206   4.584  1.00  0.00    -0.000 C 
BRANCH  15  16
ATOM     16  C   UNL     1       6.975 -15.306   5.749  1.00  0.00    -0.003 C 
ATOM     17  C   UNL     1       8.030 -15.207   6.849  1.00  0.00     0.004 C 
ENDBRANCH  15  16
ENDBRANCH  14  15
ENDBRANCH  13  14
ENDBRANCH  12  13
ENDBRANCH  11  12
ENDBRANCH  10  11
ENDBRANCH   1  10
TORSDOF 13
ENDMDL
MODEL 3
REMARK VINA RESULT:    -5.007      6.378     10.286
REMARK INTER + INTRA:          -9.467
REMARK INTER:                  -8.337
REMARK INTRA:                  -1.130
REMARK UNBOUND:                -0.654
REMARK SMILES CCCCCCCCCCCCCCC(=O)[O-]
REMARK SMILES IDX 9 1 10 2 11 3 12 4 13 5 14 6 15 7 16 8 17 9 8 10 7 11 6 12
REMARK SMILES IDX 5 13 4 14 3 15 2 16 1 17
REMARK H PARENT
REMARK Flexibility Score: inf
ROOT
ATOM      1  C   UNL     1       6.478 -15.372   4.698  1.00  0.00     0.000 C 
ENDROOT
BRANCH   1   2
ATOM      2  C   UNL     1       5.644 -16.535   4.137  1.00  0.00     0.000 C 
BRANCH   2   3
ATOM      3  C   UNL     1       6.497 -17.762   3.773  1.00  0.00     0.000 C 
BRANCH   3   4
ATOM      4  C   UNL     1       5.664 -19.022   3.457  1.00  0.00     0.000 C 
BRANCH   4   5
ATOM      5  C   UNL     1       4.154 -18.736   3.457  1.00  0.00     0.006 C 
BRANCH   5   6
ATOM      6  C   UNL     1       3.522 -19.127   2.117  1.00  0.00     0.053 C 
BRANCH   6   7
ATOM      7  C   UNL     1       3.971 -18.196   1.035  1.00  0.00     0.041 C 
ATOM      8  O   UNL     1       3.771 -16.958   1.142  1.00  0.00    -0.550 OA
ATOM      9  O   UNL     1       4.567 -18.702  -0.113  1.00  0.00    -0.550 OA
ENDBRANCH   6   7
ENDBRANCH   5   6
ENDBRANCH   4   5
ENDBRANCH   3   4
ENDBRANCH   2   3
ENDBRANCH   1   2
BRANCH   1  10
ATOM     10  C   UNL     1       7.773 -15.847   5.374  1.00  0.00     0.000 C 
BRANCH  10  11
ATOM     11  C   UNL     1       7.817 -15.498   6.873  1.00  0.00    -0.000 C 
BRANCH  11  12
ATOM     12  C   UNL     1       8.695 -14.272   7.169  1.00  0.00    -0.000 C 
BRANCH  12  13
ATOM     13  C   UNL     1       7.948 -12.947   6.960  1.00  0.00    -0.000 C 
BRANCH  13  14
ATOM     14  C   UNL     1       8.850 -11.909   6.279  1.00  0.00    -0.000 C 
BRANCH  14  15
ATOM     15  C   UNL     1       9.251 -12.370   4.870  1.00  0.00    -0.000 C 
BRANCH  15  16
ATOM     16  C   UNL     1      10.773 -12.489   4.700  1.00  0.00    -0.003 C 
ATOM     17  C   UNL     1      11.513 -11.209   5.085  1.00  0.00     0.004 C 
ENDBRANCH  15  16
ENDBRANCH  14  15
ENDBRANCH  13  14
ENDBRANCH  12  13
ENDBRANCH  11  12
ENDBRANCH  10  11
ENDBRANCH   1  10
TORSDOF 13
ENDMDL
MODEL 4
REMARK VINA RESULT:    -4.975      9.298     11.785
REMARK INTER + INTRA:          -9.410
REMARK INTER:                  -8.138
REMARK INTRA:                  -1.271
REMARK UNBOUND:                -0.654
REMARK SMILES CCCCCCCCCCCCCCC(=O)[O-]
REMARK SMILES IDX 9 1 10 2 11 3 12 4 13 5 14 6 15 7 16 8 17 9 8 10 7 11 6 12
REMARK SMILES IDX 5 13 4 14 3 15 2 16 1 17
REMARK H PARENT
REMARK Flexibility Score: inf
ROOT
ATOM      1  C   UNL     1       4.355 -18.255  -1.245  1.00  0.00     0.000 C 
ENDROOT
BRANCH   1   2
ATOM      2  C   UNL     1       2.909 -17.751  -1.385  1.00  0.00     0.000 C 
BRANCH   2   3
ATOM      3  C   UNL     1       2.318 -18.009  -2.782  1.00  0.00     0.000 C 
BRANCH   3   4
ATOM      4  C   UNL     1       3.094 -19.068  -3.594  1.00  0.00     0.000 C 
BRANCH   4   5
ATOM      5  C   UNL     1       3.590 -18.519  -4.941  1.00  0.00     0.006 C 
BRANCH   5   6
ATOM      6  C   UNL     1       4.001 -17.049  -4.817  1.00  0.00     0.053 C 
BRANCH   6   7
ATOM      7  C   UNL     1       5.487 -16.911  -4.912  1.00  0.00     0.041 C 
ATOM      8  O   UNL     1       6.203 -17.043  -3.885  1.00  0.00    -0.550 OA
ATOM      9  O   UNL     1       6.078 -16.587  -6.127  1.00  0.00    -0.550 OA
ENDBRANCH   6   7
ENDBRANCH   5   6
ENDBRANCH   4   5
ENDBRANCH   3   4
ENDBRANCH   2   3
ENDBRANCH   1   2
BRANCH   1  10
ATOM     10  C   UNL     1       4.871 -18.171   0.199  1.00  0.00     0.000 C 
BRANCH  10  11
ATOM     11  C   UNL     1       3.733 -18.020   1.224  1.00  0.00    -0.000 C 
BRANCH  11  12
ATOM     12  C   UNL     1       3.686 -19.181   2.230  1.00  0.00    -0.000 C 
BRANCH  12  13
ATOM     13  C   UNL     1       4.033 -18.736   3.659  1.00  0.00    -0.000 C 
BRANCH  13  14
ATOM     14  C   UNL     1       3.490 -17.330   3.944  1.00  0.00    -0.000 C 
BRANCH  14  15
ATOM     15  C   UNL     1       4.631 -16.357   4.277  1.00  0.00    -0.000 C 
BRANCH  15  16
ATOM     16  C   UNL     1       6.018 -16.967   4.027  1.00  0.00    -0.003 C 
ATOM     17  C   UNL     1       6.772 -16.278   2.891  1.00  0.00     0.004 C 
ENDBRANCH  15  16
ENDBRANCH  14  15
ENDBRANCH  13  14
ENDBRANCH  12  13
ENDBRANCH  11  12
ENDBRANCH  10  11
ENDBRANCH   1  10
TORSDOF 13
ENDMDL
MODEL 5
REMARK VINA RESULT:    -4.971     11.453     14.802
REMARK INTER + INTRA:          -9.402
REMARK INTER:                  -8.672
REMARK INTRA:                  -0.730
REMARK UNBOUND:                -0.654
REMARK SMILES CCCCCCCCCCCCCCC(=O)[O-]
REMARK SMILES IDX 9 1 10 2 11 3 12 4 13 5 14 6 15 7 16 8 17 9 8 10 7 11 6 12
REMARK SMILES IDX 5 13 4 14 3 15 2 16 1 17
REMARK H PARENT
REMARK Flexibility Score: inf
ROOT
ATOM      1  C   UNL     1       3.456 -18.816  -3.703  1.00  0.00     0.000 C 
ENDROOT
BRANCH   1   2
ATOM      2  C   UNL     1       2.155 -18.267  -3.094  1.00  0.00     0.000 C 
BRANCH   2   3
ATOM      3  C   UNL     1       2.364 -17.637  -1.707  1.00  0.00     0.000 C 
BRANCH   3   4
ATOM      4  C   UNL     1       3.757 -17.919  -1.103  1.00  0.00     0.000 C 
BRANCH   4   5
ATOM      5  C   UNL     1       3.841 -17.515   0.376  1.00  0.00     0.006 C 
BRANCH   5   6
ATOM      6  C   UNL     1       4.307 -18.691   1.240  1.00  0.00     0.053 C 
BRANCH   6   7
ATOM      7  C   UNL     1       3.866 -18.507   2.658  1.00  0.00     0.041 C 
ATOM      8  O   UNL     1       3.419 -17.395   3.042  1.00  0.00    -0.550 OA
ATOM      9  O   UNL     1       3.993 -19.550   3.566  1.00  0.00    -0.550 OA
ENDBRANCH   6   7
ENDBRANCH   5   6
ENDBRANCH   4   5
ENDBRANCH   3   4
ENDBRANCH   2   3
ENDBRANCH   1   2
BRANCH   1  10
ATOM     10  C   UNL     1       3.877 -18.063  -4.973  1.00  0.00     0.000 C 
BRANCH  10  11
ATOM     11  C   UNL     1       4.639 -16.762  -4.660  1.00  0.00    -0.000 C 
BRANCH  11  12
ATOM     12  C   UNL     1       5.465 -16.259  -5.856  1.00  0.00    -0.000 C 
BRANCH  12  13
ATOM     13  C   UNL     1       5.032 -14.862  -6.326  1.00  0.00    -0.000 C 
BRANCH  13  14
ATOM     14  C   UNL     1       5.103 -14.750  -7.854  1.00  0.00    -0.000 C 
BRANCH  14  15
ATOM     15  C   UNL     1       6.403 -15.367  -8.391  1.00  0.00    -0.000 C 
BRANCH  15  16
ATOM     16  C   UNL     1       7.343 -14.320  -9.008  1.00  0.00    -0.003 C 
ATOM     17  C   UNL     1       7.891 -13.337  -7.976  1.00  0.00     0.004 C 
ENDBRANCH  15  16
ENDBRANCH  14  15
ENDBRANCH  13  14
ENDBRANCH  12  13
ENDBRANCH  11  12
ENDBRANCH  10  11
ENDBRANCH   1  10
TORSDOF 13
ENDMDL
MODEL 6
REMARK VINA RESULT:    -4.937      2.319      4.401
REMARK INTER + INTRA:          -9.343
REMARK INTER:                  -8.424
REMARK INTRA:                  -0.919
REMARK UNBOUND:                -0.654
REMARK SMILES CCCCCCCCCCCCCCC(=O)[O-]
REMARK SMILES IDX 9 1 10 2 11 3 12 4 13 5 14 6 15 7 16 8 17 9 8 10 7 11 6 12
REMARK SMILES IDX 5 13 4 14 3 15 2 16 1 17
REMARK H PARENT
REMARK Flexibility Score: inf
ROOT
ATOM      1  C   UNL     1      13.988  -8.959  -0.271  1.00  0.00     0.000 C 
ENDROOT
BRANCH   1   2
ATOM      2  C   UNL     1      14.701  -7.768  -0.932  1.00  0.00     0.000 C 
BRANCH   2   3
ATOM      3  C   UNL     1      14.455  -7.691  -2.448  1.00  0.00     0.000 C 
BRANCH   3   4
ATOM      4  C   UNL     1      13.170  -6.924  -2.826  1.00  0.00     0.000 C 
BRANCH   4   5
ATOM      5  C   UNL     1      12.291  -7.712  -3.810  1.00  0.00     0.006 C 
BRANCH   5   6
ATOM      6  C   UNL     1      12.652  -9.201  -3.797  1.00  0.00     0.053 C 
BRANCH   6   7
ATOM      7  C   UNL     1      12.192  -9.862  -5.057  1.00  0.00     0.041 C 
ATOM      8  O   UNL     1      12.054  -9.188  -6.112  1.00  0.00    -0.550 OA
ATOM      9  O   UNL     1      11.868 -11.213  -5.056  1.00  0.00    -0.550 OA
ENDBRANCH   6   7
ENDBRANCH   5   6
ENDBRANCH   4   5
ENDBRANCH   3   4
ENDBRANCH   2   3
ENDBRANCH   1   2
BRANCH   1  10
ATOM     10  C   UNL     1      12.690  -8.548   0.441  1.00  0.00     0.000 C 
BRANCH  10  11
ATOM     11  C   UNL     1      12.584  -9.138   1.859  1.00  0.00    -0.000 C 
BRANCH  11  12
ATOM     12  C   UNL     1      12.032  -8.129   2.878  1.00  0.00    -0.000 C 
BRANCH  12  13
ATOM     13  C   UNL     1      12.473  -8.442   4.316  1.00  0.00    -0.000 C 
BRANCH  13  14
ATOM     14  C   UNL     1      13.042  -9.863   4.419  1.00  0.00    -0.000 C 
BRANCH  14  15
ATOM     15  C   UNL     1      12.181 -10.734   5.347  1.00  0.00    -0.000 C 
BRANCH  15  16
ATOM     16  C   UNL     1      10.797 -11.037   4.755  1.00  0.00    -0.003 C 
ATOM     17  C   UNL     1      10.335 -12.467   5.035  1.00  0.00     0.004 C 
ENDBRANCH  15  16
ENDBRANCH  14  15
ENDBRANCH  13  14
ENDBRANCH  12  13
ENDBRANCH  11  12
ENDBRANCH  10  11
ENDBRANCH   1  10
TORSDOF 13
ENDMDL
MODEL 7
REMARK VINA RESULT:    -4.918      3.501      6.355
REMARK INTER + INTRA:          -9.309
REMARK INTER:                  -8.407
REMARK INTRA:                  -0.902
REMARK UNBOUND:                -0.654
REMARK SMILES CCCCCCCCCCCCCCC(=O)[O-]
REMARK SMILES IDX 9 1 10 2 11 3 12 4 13 5 14 6 15 7 16 8 17 9 8 10 7 11 6 12
REMARK SMILES IDX 5 13 4 14 3 15 2 16 1 17
REMARK H PARENT
REMARK Flexibility Score: inf
ROOT
ATOM      1  C   UNL     1       8.004 -13.104   6.852  1.00  0.00     0.000 C 
ENDROOT
BRANCH   1   2
ATOM      2  C   UNL     1       9.002 -12.095   6.262  1.00  0.00     0.000 C 
BRANCH   2   3
ATOM      3  C   UNL     1       9.261 -12.317   4.762  1.00  0.00     0.000 C 
BRANCH   3   4
ATOM      4  C   UNL     1      10.755 -12.480   4.411  1.00  0.00     0.000 C 
BRANCH   4   5
ATOM      5  C   UNL     1      11.630 -11.409   5.080  1.00  0.00     0.006 C 
BRANCH   5   6
ATOM      6  C   UNL     1      11.417 -10.040   4.427  1.00  0.00     0.053 C 
BRANCH   6   7
ATOM      7  C   UNL     1      12.722  -9.468   3.972  1.00  0.00     0.041 C 
ATOM      8  O   UNL     1      13.782  -9.731   4.598  1.00  0.00    -0.550 OA
ATOM      9  O   UNL     1      12.761  -8.605   2.884  1.00  0.00    -0.550 OA
ENDBRANCH   6   7
ENDBRANCH   5   6
ENDBRANCH   4   5
ENDBRANCH   3   4
ENDBRANCH   2   3
ENDBRANCH   1   2
BRANCH   1  10
ATOM     10  C   UNL     1       8.622 -14.495   7.058  1.00  0.00     0.000 C 
BRANCH  10  11
ATOM     11  C   UNL     1       7.692 -15.629   6.591  1.00  0.00    -0.000 C 
BRANCH  11  12
ATOM     12  C   UNL     1       6.861 -15.241   5.358  1.00  0.00    -0.000 C 
BRANCH  12  13
ATOM     13  C   UNL     1       7.124 -16.161   4.156  1.00  0.00    -0.000 C 
BRANCH  13  14
ATOM     14  C   UNL     1       5.995 -17.187   3.993  1.00  0.00    -0.000 C 
BRANCH  14  15
ATOM     15  C   UNL     1       4.622 -16.535   4.217  1.00  0.00    -0.000 C 
BRANCH  15  16
ATOM     16  C   UNL     1       3.471 -17.368   3.633  1.00  0.00    -0.003 C 
ATOM     17  C   UNL     1       3.893 -18.794   3.282  1.00  0.00     0.004 C 
ENDBRANCH  15  16
ENDBRANCH  14  15
ENDBRANCH  13  14
ENDBRANCH  12  13
ENDBRANCH  11  12
ENDBRANCH  10  11
ENDBRANCH   1  10
TORSDOF 13
ENDMDL
MODEL 8
REMARK VINA RESULT:    -4.905     10.577     12.034
REMARK INTER + INTRA:          -9.286
REMARK INTER:                  -8.401
REMARK INTRA:                  -0.885
REMARK UNBOUND:                -0.654
REMARK SMILES CCCCCCCCCCCCCCC(=O)[O-]
REMARK SMILES IDX 9 1 10 2 11 3 12 4 13 5 14 6 15 7 16 8 17 9 8 10 7 11 6 12
REMARK SMILES IDX 5 13 4 14 3 15 2 16 1 17
REMARK H PARENT
REMARK Flexibility Score: inf
ROOT
ATOM      1  C   UNL     1       3.142 -18.771  -3.599  1.00  0.00     0.000 C 
ENDROOT
BRANCH   1   2
ATOM      2  C   UNL     1       4.141 -18.274  -4.657  1.00  0.00     0.000 C 
BRANCH   2   3
ATOM      3  C   UNL     1       4.233 -16.740  -4.718  1.00  0.00     0.000 C 
BRANCH   3   4
ATOM      4  C   UNL     1       5.141 -16.220  -5.853  1.00  0.00     0.000 C 
BRANCH   4   5
ATOM      5  C   UNL     1       4.807 -14.774  -6.249  1.00  0.00     0.006 C 
BRANCH   5   6
ATOM      6  C   UNL     1       4.776 -14.614  -7.772  1.00  0.00     0.053 C 
BRANCH   6   7
ATOM      7  C   UNL     1       6.167 -14.566  -8.321  1.00  0.00     0.041 C 
ATOM      8  O   UNL     1       6.592 -15.498  -9.052  1.00  0.00    -0.550 OA
ATOM      9  O   UNL     1       7.010 -13.514  -7.986  1.00  0.00    -0.550 OA
ENDBRANCH   6   7
ENDBRANCH   5   6
ENDBRANCH   4   5
ENDBRANCH   3   4
ENDBRANCH   2   3
ENDBRANCH   1   2
BRANCH   1  10
ATOM     10  C   UNL     1       2.202 -17.660  -3.108  1.00  0.00     0.000 C 
BRANCH  10  11
ATOM     11  C   UNL     1       2.195 -17.531  -1.574  1.00  0.00    -0.000 C 
BRANCH  11  12
ATOM     12  C   UNL     1       3.488 -18.055  -0.930  1.00  0.00    -0.000 C 
BRANCH  12  13
ATOM     13  C   UNL     1       4.298 -16.945  -0.244  1.00  0.00    -0.000 C 
BRANCH  13  14
ATOM     14  C   UNL     1       4.413 -17.202   1.265  1.00  0.00    -0.000 C 
BRANCH  14  15
ATOM     15  C   UNL     1       4.305 -18.702   1.577  1.00  0.00    -0.000 C 
BRANCH  15  16
ATOM     16  C   UNL     1       3.836 -18.974   3.014  1.00  0.00    -0.003 C 
ATOM     17  C   UNL     1       3.529 -17.693   3.788  1.00  0.00     0.004 C 
ENDBRANCH  15  16
ENDBRANCH  14  15
ENDBRANCH  13  14
ENDBRANCH  12  13
ENDBRANCH  11  12
ENDBRANCH  10  11
ENDBRANCH   1  10
TORSDOF 13
ENDMDL
MODEL 9
REMARK VINA RESULT:    -4.881      8.310     11.952
REMARK INTER + INTRA:          -9.245
REMARK INTER:                  -8.329
REMARK INTRA:                  -0.915
REMARK UNBOUND:                -0.654
REMARK SMILES CCCCCCCCCCCCCCC(=O)[O-]
REMARK SMILES IDX 9 1 10 2 11 3 12 4 13 5 14 6 15 7 16 8 17 9 8 10 7 11 6 12
REMARK SMILES IDX 5 13 4 14 3 15 2 16 1 17
REMARK H PARENT
REMARK Flexibility Score: inf
ROOT
ATOM      1  C   UNL     1       4.227 -18.411   3.384  1.00  0.00     0.000 C 
ENDROOT
BRANCH   1   2
ATOM      2  C   UNL     1       5.713 -18.766   3.549  1.00  0.00     0.000 C 
BRANCH   2   3
ATOM      3  C   UNL     1       6.611 -17.525   3.697  1.00  0.00     0.000 C 
BRANCH   3   4
ATOM      4  C   UNL     1       5.890 -16.313   4.323  1.00  0.00     0.000 C 
BRANCH   4   5
ATOM      5  C   UNL     1       6.875 -15.272   4.875  1.00  0.00     0.006 C 
BRANCH   5   6
ATOM      6  C   UNL     1       7.381 -15.676   6.264  1.00  0.00     0.053 C 
BRANCH   6   7
ATOM      7  C   UNL     1       8.540 -14.821   6.668  1.00  0.00     0.041 C 
ATOM      8  O   UNL     1       9.717 -15.196   6.430  1.00  0.00    -0.550 OA
ATOM      9  O   UNL     1       8.321 -13.632   7.353  1.00  0.00    -0.550 OA
ENDBRANCH   6   7
ENDBRANCH   5   6
ENDBRANCH   4   5
ENDBRANCH   3   4
ENDBRANCH   2   3
ENDBRANCH   1   2
BRANCH   1  10
ATOM     10  C   UNL     1       3.613 -19.018   2.113  1.00  0.00     0.000 C 
BRANCH  10  11
ATOM     11  C   UNL     1       4.343 -18.567   0.835  1.00  0.00    -0.000 C 
BRANCH  11  12
ATOM     12  C   UNL     1       4.255 -17.049   0.608  1.00  0.00    -0.000 C 
BRANCH  12  13
ATOM     13  C   UNL     1       3.601 -16.690  -0.735  1.00  0.00    -0.000 C 
BRANCH  13  14
ATOM     14  C   UNL     1       3.028 -17.939  -1.418  1.00  0.00    -0.000 C 
BRANCH  14  15
ATOM     15  C   UNL     1       2.447 -17.593  -2.798  1.00  0.00    -0.000 C 
BRANCH  15  16
ATOM     16  C   UNL     1       3.051 -18.447  -3.923  1.00  0.00    -0.003 C 
ATOM     17  C   UNL     1       3.464 -19.839  -3.450  1.00  0.00     0.004 C 
ENDBRANCH  15  16
ENDBRANCH  14  15
ENDBRANCH  13  14
ENDBRANCH  12  13
ENDBRANCH  11  12
ENDBRANCH  10  11
ENDBRANCH   1  10
TORSDOF 13
ENDMDL
