MODEL 1
REMARK VINA RESULT:    -3.754      0.000      0.000
REMARK INTER + INTRA:         -12.699
REMARK INTER:                  -8.582
REMARK INTRA:                  -4.117
REMARK UNBOUND:                -4.117
REMARK SMILES CCCCCCCCCCCCCCCCCCCCCCCC(=O)[O-]
REMARK SMILES IDX 13 1 14 2 15 3 16 4 17 5 18 6 19 7 20 8 21 9 22 10 23 11
REMARK SMILES IDX 24 12 25 13 26 14 12 15 11 16 10 17 9 18 8 19 7 20 6 21 5 22
REMARK SMILES IDX 4 23 3 24 2 25 1 26
REMARK H PARENT
REMARK Flexibility Score: inf
ROOT
ATOM      1  C   UNL     1     161.486 165.158 186.698  1.00  0.00     0.000 C 
ENDROOT
BRANCH   1   2
ATOM      2  C   UNL     1     160.301 164.808 187.614  1.00  0.00     0.000 C 
BRANCH   2   3
ATOM      3  C   UNL     1     160.697 163.895 188.790  1.00  0.00     0.000 C 
BRANCH   3   4
ATOM      4  C   UNL     1     159.986 162.531 188.834  1.00  0.00     0.000 C 
BRANCH   4   5
ATOM      5  C   UNL     1     160.893 161.366 188.398  1.00  0.00     0.000 C 
BRANCH   5   6
ATOM      6  C   UNL     1     162.385 161.732 188.444  1.00  0.00     0.000 C 
BRANCH   6   7
ATOM      7  C   UNL     1     163.305 160.506 188.322  1.00  0.00     0.000 C 
BRANCH   7   8
ATOM      8  C   UNL     1     164.793 160.882 188.506  1.00  0.00     0.000 C 
BRANCH   8   9
ATOM      9  C   UNL     1     165.444 160.218 189.733  1.00  0.00     0.000 C 
BRANCH   9  10
ATOM     10  C   UNL     1     166.592 161.035 190.362  1.00  0.00     0.006 C 
BRANCH  10  11
ATOM     11  C   UNL     1     167.000 162.268 189.538  1.00  0.00     0.053 C 
BRANCH  11  12
ATOM     12  C   UNL     1     166.791 163.552 190.279  1.00  0.00     0.041 C 
ATOM     13  O   UNL     1     167.770 164.295 190.549  1.00  0.00    -0.550 OA
ATOM     14  O   UNL     1     165.513 163.926 190.674  1.00  0.00    -0.550 OA
ENDBRANCH  11  12
ENDBRANCH  10  11
ENDBRANCH   9  10
ENDBRANCH   8   9
ENDBRANCH   7   8
ENDBRANCH   6   7
ENDBRANCH   5   6
ENDBRANCH   4   5
ENDBRANCH   3   4
ENDBRANCH   2   3
ENDBRANCH   1   2
BRANCH   1  15
ATOM     15  C   UNL     1     161.304 164.646 185.257  1.00  0.00     0.000 C 
BRANCH  15  16
ATOM     16  C   UNL     1     159.950 163.968 184.974  1.00  0.00     0.000 C 
BRANCH  16  17
ATOM     17  C   UNL     1     160.093 162.663 184.170  1.00  0.00     0.000 C 
BRANCH  17  18
ATOM     18  C   UNL     1     160.245 161.427 185.071  1.00  0.00    -0.000 C 
BRANCH  18  19
ATOM     19  C   UNL     1     161.592 160.710 184.867  1.00  0.00    -0.000 C 
BRANCH  19  20
ATOM     20  C   UNL     1     162.442 161.375 183.762  1.00  0.00    -0.000 C 
BRANCH  20  21
ATOM     21  C   UNL     1     163.845 160.763 183.609  1.00  0.00    -0.000 C 
BRANCH  21  22
ATOM     22  C   UNL     1     164.643 160.760 184.923  1.00  0.00    -0.000 C 
BRANCH  22  23
ATOM     23  C   UNL     1     166.016 161.448 184.796  1.00  0.00    -0.000 C 
BRANCH  23  24
ATOM     24  C   UNL     1     166.053 162.923 185.243  1.00  0.00    -0.000 C 
BRANCH  24  25
ATOM     25  C   UNL     1     164.750 163.382 185.909  1.00  0.00    -0.003 C 
ATOM     26  C   UNL     1     165.030 164.323 187.078  1.00  0.00     0.004 C 
ENDBRANCH  24  25
ENDBRANCH  23  24
ENDBRANCH  22  23
ENDBRANCH  21  22
ENDBRANCH  20  21
ENDBRANCH  19  20
ENDBRANCH  18  19
ENDBRANCH  17  18
ENDBRANCH  16  17
ENDBRANCH  15  16
ENDBRANCH   1  15
TORSDOF 22
ENDMDL
MODEL 2
REMARK VINA RESULT:    -3.586      3.378      5.865
REMARK INTER + INTRA:         -12.315
REMARK INTER:                  -8.183
REMARK INTRA:                  -4.132
REMARK UNBOUND:                -4.117
REMARK SMILES CCCCCCCCCCCCCCCCCCCCCCCC(=O)[O-]
REMARK SMILES IDX 13 1 14 2 15 3 16 4 17 5 18 6 19 7 20 8 21 9 22 10 23 11
REMARK SMILES IDX 24 12 25 13 26 14 12 15 11 16 10 17 9 18 8 19 7 20 6 21 5 22
REMARK SMILES IDX 4 23 3 24 2 25 1 26
REMARK H PARENT
REMARK Flexibility Score: inf
ROOT
ATOM      1  C   UNL     1     162.279 164.845 185.143  1.00  0.00     0.000 C 
ENDROOT
BRANCH   1   2
ATOM      2  C   UNL     1     160.901 165.272 185.674  1.00  0.00     0.000 C 
BRANCH   2   3
ATOM      3  C   UNL     1     159.882 164.117 185.706  1.00  0.00     0.000 C 
BRANCH   3   4
ATOM      4  C   UNL     1     160.265 162.877 184.878  1.00  0.00     0.000 C 
BRANCH   4   5
ATOM      5  C   UNL     1     160.356 161.594 185.724  1.00  0.00     0.000 C 
BRANCH   5   6
ATOM      6  C   UNL     1     161.431 160.624 185.209  1.00  0.00     0.000 C 
BRANCH   6   7
ATOM      7  C   UNL     1     162.332 161.248 184.130  1.00  0.00     0.000 C 
BRANCH   7   8
ATOM      8  C   UNL     1     163.832 161.081 184.465  1.00  0.00     0.000 C 
BRANCH   8   9
ATOM      9  C   UNL     1     164.575 160.147 183.492  1.00  0.00     0.000 C 
BRANCH   9  10
ATOM     10  C   UNL     1     163.823 159.880 182.170  1.00  0.00     0.006 C 
BRANCH  10  11
ATOM     11  C   UNL     1     164.207 160.842 181.033  1.00  0.00     0.053 C 
BRANCH  11  12
ATOM     12  C   UNL     1     163.025 161.569 180.470  1.00  0.00     0.041 C 
ATOM     13  O   UNL     1     162.821 162.774 180.770  1.00  0.00    -0.550 OA
ATOM     14  O   UNL     1     162.149 160.913 179.616  1.00  0.00    -0.550 OA
ENDBRANCH  11  12
ENDBRANCH  10  11
ENDBRANCH   9  10
ENDBRANCH   8   9
ENDBRANCH   7   8
ENDBRANCH   6   7
ENDBRANCH   5   6
ENDBRANCH   4   5
ENDBRANCH   3   4
ENDBRANCH   2   3
ENDBRANCH   1   2
BRANCH   1  15
ATOM     15  C   UNL     1     163.300 164.581 186.265  1.00  0.00     0.000 C 
BRANCH  15  16
ATOM     16  C   UNL     1     162.790 164.866 187.690  1.00  0.00     0.000 C 
BRANCH  16  17
ATOM     17  C   UNL     1     162.684 163.595 188.552  1.00  0.00     0.000 C 
BRANCH  17  18
ATOM     18  C   UNL     1     163.376 162.384 187.906  1.00  0.00    -0.000 C 
BRANCH  18  19
ATOM     19  C   UNL     1     162.968 161.053 188.563  1.00  0.00    -0.000 C 
BRANCH  19  20
ATOM     20  C   UNL     1     164.104 160.009 188.514  1.00  0.00    -0.000 C 
BRANCH  20  21
ATOM     21  C   UNL     1     165.361 160.496 187.774  1.00  0.00    -0.000 C 
BRANCH  21  22
ATOM     22  C   UNL     1     166.629 160.436 188.642  1.00  0.00    -0.000 C 
BRANCH  22  23
ATOM     23  C   UNL     1     166.373 160.826 190.110  1.00  0.00    -0.000 C 
BRANCH  23  24
ATOM     24  C   UNL     1     166.651 162.303 190.454  1.00  0.00    -0.000 C 
BRANCH  24  25
ATOM     25  C   UNL     1     167.224 163.096 189.273  1.00  0.00    -0.003 C 
ATOM     26  C   UNL     1     166.386 164.340 188.986  1.00  0.00     0.004 C 
ENDBRANCH  24  25
ENDBRANCH  23  24
ENDBRANCH  22  23
ENDBRANCH  21  22
ENDBRANCH  20  21
ENDBRANCH  19  20
ENDBRANCH  18  19
ENDBRANCH  17  18
ENDBRANCH  16  17
ENDBRANCH  15  16
ENDBRANCH   1  15
TORSDOF 22
ENDMDL
MODEL 3
REMARK VINA RESULT:    -3.498      2.888      6.028
REMARK INTER + INTRA:         -12.114
REMARK INTER:                  -7.680
REMARK INTRA:                  -4.434
REMARK UNBOUND:                -4.117
REMARK SMILES CCCCCCCCCCCCCCCCCCCCCCCC(=O)[O-]
REMARK SMILES IDX 13 1 14 2 15 3 16 4 17 5 18 6 19 7 20 8 21 9 22 10 23 11
REMARK SMILES IDX 24 12 25 13 26 14 12 15 11 16 10 17 9 18 8 19 7 20 6 21 5 22
REMARK SMILES IDX 4 23 3 24 2 25 1 26
REMARK H PARENT
REMARK Flexibility Score: inf
ROOT
ATOM      1  C   UNL     1     162.007 161.256 188.166  1.00  0.00     0.000 C 
ENDROOT
BRANCH   1   2
ATOM      2  C   UNL     1     160.598 161.770 188.506  1.00  0.00     0.000 C 
BRANCH   2   3
ATOM      3  C   UNL     1     160.598 163.214 189.043  1.00  0.00     0.000 C 
BRANCH   3   4
ATOM      4  C   UNL     1     159.908 164.253 188.141  1.00  0.00     0.000 C 
BRANCH   4   5
ATOM      5  C   UNL     1     160.902 165.193 187.437  1.00  0.00     0.000 C 
BRANCH   5   6
ATOM      6  C   UNL     1     161.073 164.860 185.946  1.00  0.00     0.000 C 
BRANCH   6   7
ATOM      7  C   UNL     1     160.039 163.841 185.439  1.00  0.00     0.000 C 
BRANCH   7   8
ATOM      8  C   UNL     1     160.712 162.581 184.849  1.00  0.00     0.000 C 
BRANCH   8   9
ATOM      9  C   UNL     1     160.412 162.371 183.354  1.00  0.00     0.000 C 
BRANCH   9  10
ATOM     10  C   UNL     1     161.598 162.689 182.418  1.00  0.00     0.006 C 
BRANCH  10  11
ATOM     11  C   UNL     1     162.976 162.473 183.067  1.00  0.00     0.053 C 
BRANCH  11  12
ATOM     12  C   UNL     1     163.737 161.346 182.442  1.00  0.00     0.041 C 
ATOM     13  O   UNL     1     163.404 160.153 182.670  1.00  0.00    -0.550 OA
ATOM     14  O   UNL     1     164.814 161.613 181.608  1.00  0.00    -0.550 OA
ENDBRANCH  11  12
ENDBRANCH  10  11
ENDBRANCH   9  10
ENDBRANCH   8   9
ENDBRANCH   7   8
ENDBRANCH   6   7
ENDBRANCH   5   6
ENDBRANCH   4   5
ENDBRANCH   3   4
ENDBRANCH   2   3
ENDBRANCH   1   2
BRANCH   1  15
ATOM     15  C   UNL     1     163.066 162.373 188.144  1.00  0.00     0.000 C 
BRANCH  15  16
ATOM     16  C   UNL     1     163.909 162.448 186.857  1.00  0.00     0.000 C 
BRANCH  16  17
ATOM     17  C   UNL     1     164.665 163.781 186.714  1.00  0.00     0.000 C 
BRANCH  17  18
ATOM     18  C   UNL     1     164.828 164.515 188.055  1.00  0.00    -0.000 C 
BRANCH  18  19
ATOM     19  C   UNL     1     166.168 164.197 188.742  1.00  0.00    -0.000 C 
BRANCH  19  20
ATOM     20  C   UNL     1     165.973 163.454 190.081  1.00  0.00    -0.000 C 
BRANCH  20  21
ATOM     21  C   UNL     1     166.547 162.027 190.087  1.00  0.00    -0.000 C 
BRANCH  21  22
ATOM     22  C   UNL     1     167.355 161.703 188.820  1.00  0.00    -0.000 C 
BRANCH  22  23
ATOM     23  C   UNL     1     166.759 160.539 188.006  1.00  0.00    -0.000 C 
BRANCH  23  24
ATOM     24  C   UNL     1     167.382 160.326 186.612  1.00  0.00    -0.000 C 
BRANCH  24  25
ATOM     25  C   UNL     1     167.565 161.634 185.831  1.00  0.00    -0.003 C 
ATOM     26  C   UNL     1     166.757 161.621 184.536  1.00  0.00     0.004 C 
ENDBRANCH  24  25
ENDBRANCH  23  24
ENDBRANCH  22  23
ENDBRANCH  21  22
ENDBRANCH  20  21
ENDBRANCH  19  20
ENDBRANCH  18  19
ENDBRANCH  17  18
ENDBRANCH  16  17
ENDBRANCH  15  16
ENDBRANCH   1  15
TORSDOF 22
ENDMDL
MODEL 4
REMARK VINA RESULT:    -3.489      3.134      6.971
REMARK INTER + INTRA:         -12.093
REMARK INTER:                  -8.459
REMARK INTRA:                  -3.634
REMARK UNBOUND:                -4.117
REMARK SMILES CCCCCCCCCCCCCCCCCCCCCCCC(=O)[O-]
REMARK SMILES IDX 13 1 14 2 15 3 16 4 17 5 18 6 19 7 20 8 21 9 22 10 23 11
REMARK SMILES IDX 24 12 25 13 26 14 12 15 11 16 10 17 9 18 8 19 7 20 6 21 5 22
REMARK SMILES IDX 4 23 3 24 2 25 1 26
REMARK H PARENT
REMARK Flexibility Score: inf
ROOT
ATOM      1  C   UNL     1     167.606 163.338 188.575  1.00  0.00     0.000 C 
ENDROOT
BRANCH   1   2
ATOM      2  C   UNL     1     168.651 162.305 188.122  1.00  0.00     0.000 C 
BRANCH   2   3
ATOM      3  C   UNL     1     168.513 161.920 186.637  1.00  0.00     0.000 C 
BRANCH   3   4
ATOM      4  C   UNL     1     167.767 160.601 186.364  1.00  0.00     0.000 C 
BRANCH   4   5
ATOM      5  C   UNL     1     166.567 160.775 185.417  1.00  0.00     0.000 C 
BRANCH   5   6
ATOM      6  C   UNL     1     165.973 162.192 185.472  1.00  0.00     0.000 C 
BRANCH   6   7
ATOM      7  C   UNL     1     164.517 162.249 184.980  1.00  0.00     0.000 C 
BRANCH   7   8
ATOM      8  C   UNL     1     163.864 160.849 184.948  1.00  0.00     0.000 C 
BRANCH   8   9
ATOM      9  C   UNL     1     163.237 160.498 183.587  1.00  0.00     0.000 C 
BRANCH   9  10
ATOM     10  C   UNL     1     164.081 160.928 182.369  1.00  0.00     0.006 C 
BRANCH  10  11
ATOM     11  C   UNL     1     165.231 159.961 182.038  1.00  0.00     0.053 C 
BRANCH  11  12
ATOM     12  C   UNL     1     166.430 160.662 181.479  1.00  0.00     0.041 C 
ATOM     13  O   UNL     1     166.926 161.648 182.084  1.00  0.00    -0.550 OA
ATOM     14  O   UNL     1     166.998 160.225 180.290  1.00  0.00    -0.550 OA
ENDBRANCH  11  12
ENDBRANCH  10  11
ENDBRANCH   9  10
ENDBRANCH   8   9
ENDBRANCH   7   8
ENDBRANCH   6   7
ENDBRANCH   5   6
ENDBRANCH   4   5
ENDBRANCH   3   4
ENDBRANCH   2   3
ENDBRANCH   1   2
BRANCH   1  15
ATOM     15  C   UNL     1     166.334 162.691 189.154  1.00  0.00     0.000 C 
BRANCH  15  16
ATOM     16  C   UNL     1     166.582 161.593 190.206  1.00  0.00     0.000 C 
BRANCH  16  17
ATOM     17  C   UNL     1     165.817 160.292 189.904  1.00  0.00     0.000 C 
BRANCH  17  18
ATOM     18  C   UNL     1     164.998 160.376 188.606  1.00  0.00    -0.000 C 
BRANCH  18  19
ATOM     19  C   UNL     1     163.480 160.353 188.863  1.00  0.00    -0.000 C 
BRANCH  19  20
ATOM     20  C   UNL     1     162.769 161.577 188.248  1.00  0.00    -0.000 C 
BRANCH  20  21
ATOM     21  C   UNL     1     161.234 161.499 188.313  1.00  0.00    -0.000 C 
BRANCH  21  22
ATOM     22  C   UNL     1     160.604 162.700 189.038  1.00  0.00    -0.000 C 
BRANCH  22  23
ATOM     23  C   UNL     1     159.890 163.674 188.081  1.00  0.00    -0.000 C 
BRANCH  23  24
ATOM     24  C   UNL     1     160.661 164.971 187.769  1.00  0.00    -0.000 C 
BRANCH  24  25
ATOM     25  C   UNL     1     161.951 164.725 186.975  1.00  0.00    -0.003 C 
ATOM     26  C   UNL     1     163.157 165.348 187.675  1.00  0.00     0.004 C 
ENDBRANCH  24  25
ENDBRANCH  23  24
ENDBRANCH  22  23
ENDBRANCH  21  22
ENDBRANCH  20  21
ENDBRANCH  19  20
ENDBRANCH  18  19
ENDBRANCH  17  18
ENDBRANCH  16  17
ENDBRANCH  15  16
ENDBRANCH   1  15
TORSDOF 22
ENDMDL
MODEL 5
REMARK VINA RESULT:    -3.483      3.077      5.932
REMARK INTER + INTRA:         -12.080
REMARK INTER:                  -7.832
REMARK INTRA:                  -4.248
REMARK UNBOUND:                -4.117
REMARK SMILES CCCCCCCCCCCCCCCCCCCCCCCC(=O)[O-]
REMARK SMILES IDX 13 1 14 2 15 3 16 4 17 5 18 6 19 7 20 8 21 9 22 10 23 11
REMARK SMILES IDX 24 12 25 13 26 14 12 15 11 16 10 17 9 18 8 19 7 20 6 21 5 22
REMARK SMILES IDX 4 23 3 24 2 25 1 26
REMARK H PARENT
REMARK Flexibility Score: inf
ROOT
ATOM      1  C   UNL     1     163.582 162.747 188.138  1.00  0.00     0.000 C 
ENDROOT
BRANCH   1   2
ATOM      2  C   UNL     1     162.756 163.958 188.602  1.00  0.00     0.000 C 
BRANCH   2   3
ATOM      3  C   UNL     1     161.808 164.494 187.512  1.00  0.00     0.000 C 
BRANCH   3   4
ATOM      4  C   UNL     1     160.312 164.213 187.743  1.00  0.00     0.000 C 
BRANCH   4   5
ATOM      5  C   UNL     1     160.057 163.211 188.882  1.00  0.00     0.000 C 
BRANCH   5   6
ATOM      6  C   UNL     1     159.916 161.766 188.375  1.00  0.00     0.000 C 
BRANCH   6   7
ATOM      7  C   UNL     1     159.880 161.672 186.841  1.00  0.00     0.000 C 
BRANCH   7   8
ATOM      8  C   UNL     1     161.144 160.985 186.276  1.00  0.00     0.000 C 
BRANCH   8   9
ATOM      9  C   UNL     1     161.360 161.243 184.773  1.00  0.00     0.000 C 
BRANCH   9  10
ATOM     10  C   UNL     1     161.010 162.676 184.319  1.00  0.00     0.006 C 
BRANCH  10  11
ATOM     11  C   UNL     1     162.202 163.448 183.728  1.00  0.00     0.053 C 
BRANCH  11  12
ATOM     12  C   UNL     1     162.776 162.781 182.516  1.00  0.00     0.041 C 
ATOM     13  O   UNL     1     162.159 162.822 181.420  1.00  0.00    -0.550 OA
ATOM     14  O   UNL     1     163.991 162.115 182.600  1.00  0.00    -0.550 OA
ENDBRANCH  11  12
ENDBRANCH  10  11
ENDBRANCH   9  10
ENDBRANCH   8   9
ENDBRANCH   7   8
ENDBRANCH   6   7
ENDBRANCH   5   6
ENDBRANCH   4   5
ENDBRANCH   3   4
ENDBRANCH   2   3
ENDBRANCH   1   2
BRANCH   1  15
ATOM     15  C   UNL     1     164.340 163.005 186.823  1.00  0.00     0.000 C 
BRANCH  15  16
ATOM     16  C   UNL     1     164.824 161.739 186.091  1.00  0.00     0.000 C 
BRANCH  16  17
ATOM     17  C   UNL     1     165.240 160.613 187.054  1.00  0.00     0.000 C 
BRANCH  17  18
ATOM     18  C   UNL     1     166.763 160.417 187.113  1.00  0.00    -0.000 C 
BRANCH  18  19
ATOM     19  C   UNL     1     167.285 160.278 188.554  1.00  0.00    -0.000 C 
BRANCH  19  20
ATOM     20  C   UNL     1     166.255 160.768 189.594  1.00  0.00    -0.000 C 
BRANCH  20  21
ATOM     21  C   UNL     1     166.799 161.848 190.544  1.00  0.00    -0.000 C 
BRANCH  21  22
ATOM     22  C   UNL     1     166.268 163.254 190.217  1.00  0.00    -0.000 C 
BRANCH  22  23
ATOM     23  C   UNL     1     167.328 164.162 189.565  1.00  0.00    -0.000 C 
BRANCH  23  24
ATOM     24  C   UNL     1     167.604 163.882 188.075  1.00  0.00    -0.000 C 
BRANCH  24  25
ATOM     25  C   UNL     1     169.095 163.688 187.767  1.00  0.00    -0.003 C 
ATOM     26  C   UNL     1     169.619 164.798 186.860  1.00  0.00     0.004 C 
ENDBRANCH  24  25
ENDBRANCH  23  24
ENDBRANCH  22  23
ENDBRANCH  21  22
ENDBRANCH  20  21
ENDBRANCH  19  20
ENDBRANCH  18  19
ENDBRANCH  17  18
ENDBRANCH  16  17
ENDBRANCH  15  16
ENDBRANCH   1  15
TORSDOF 22
ENDMDL
MODEL 6
REMARK VINA RESULT:    -3.438      1.592      5.839
REMARK INTER + INTRA:         -11.977
REMARK INTER:                  -7.540
REMARK INTRA:                  -4.437
REMARK UNBOUND:                -4.117
REMARK SMILES CCCCCCCCCCCCCCCCCCCCCCCC(=O)[O-]
REMARK SMILES IDX 13 1 14 2 15 3 16 4 17 5 18 6 19 7 20 8 21 9 22 10 23 11
REMARK SMILES IDX 24 12 25 13 26 14 12 15 11 16 10 17 9 18 8 19 7 20 6 21 5 22
REMARK SMILES IDX 4 23 3 24 2 25 1 26
REMARK H PARENT
REMARK Flexibility Score: inf
ROOT
ATOM      1  C   UNL     1     167.037 161.558 187.354  1.00  0.00     0.000 C 
ENDROOT
BRANCH   1   2
ATOM      2  C   UNL     1     166.841 160.710 186.086  1.00  0.00     0.000 C 
BRANCH   2   3
ATOM      3  C   UNL     1     166.755 161.557 184.802  1.00  0.00     0.000 C 
BRANCH   3   4
ATOM      4  C   UNL     1     165.760 161.050 183.742  1.00  0.00     0.000 C 
BRANCH   4   5
ATOM      5  C   UNL     1     164.611 160.222 184.344  1.00  0.00     0.000 C 
BRANCH   5   6
ATOM      6  C   UNL     1     163.255 160.533 183.690  1.00  0.00     0.000 C 
BRANCH   6   7
ATOM      7  C   UNL     1     162.303 161.298 184.624  1.00  0.00     0.000 C 
BRANCH   7   8
ATOM      8  C   UNL     1     162.147 162.777 184.202  1.00  0.00     0.000 C 
BRANCH   8   9
ATOM      9  C   UNL     1     163.379 163.639 184.532  1.00  0.00     0.000 C 
BRANCH   9  10
ATOM     10  C   UNL     1     163.829 163.565 186.006  1.00  0.00     0.006 C 
BRANCH  10  11
ATOM     11  C   UNL     1     164.927 164.579 186.372  1.00  0.00     0.053 C 
BRANCH  11  12
ATOM     12  C   UNL     1     164.734 165.170 187.734  1.00  0.00     0.041 C 
ATOM     13  O   UNL     1     165.455 166.128 188.116  1.00  0.00    -0.550 OA
ATOM     14  O   UNL     1     163.758 164.662 188.580  1.00  0.00    -0.550 OA
ENDBRANCH  11  12
ENDBRANCH  10  11
ENDBRANCH   9  10
ENDBRANCH   8   9
ENDBRANCH   7   8
ENDBRANCH   6   7
ENDBRANCH   5   6
ENDBRANCH   4   5
ENDBRANCH   3   4
ENDBRANCH   2   3
ENDBRANCH   1   2
BRANCH   1  15
ATOM     15  C   UNL     1     166.806 160.761 188.651  1.00  0.00     0.000 C 
BRANCH  15  16
ATOM     16  C   UNL     1     165.420 160.954 189.296  1.00  0.00     0.000 C 
BRANCH  16  17
ATOM     17  C   UNL     1     164.375 159.950 188.778  1.00  0.00     0.000 C 
BRANCH  17  18
ATOM     18  C   UNL     1     163.324 160.606 187.868  1.00  0.00    -0.000 C 
BRANCH  18  19
ATOM     19  C   UNL     1     162.335 161.489 188.651  1.00  0.00    -0.000 C 
BRANCH  19  20
ATOM     20  C   UNL     1     160.896 161.372 188.106  1.00  0.00    -0.000 C 
BRANCH  20  21
ATOM     21  C   UNL     1     159.901 162.338 188.772  1.00  0.00    -0.000 C 
BRANCH  21  22
ATOM     22  C   UNL     1     160.339 163.809 188.675  1.00  0.00    -0.000 C 
BRANCH  22  23
ATOM     23  C   UNL     1     160.413 164.322 187.225  1.00  0.00    -0.000 C 
BRANCH  23  24
ATOM     24  C   UNL     1     160.735 165.822 187.075  1.00  0.00    -0.000 C 
BRANCH  24  25
ATOM     25  C   UNL     1     161.024 166.231 185.625  1.00  0.00    -0.003 C 
ATOM     26  C   UNL     1     162.268 167.113 185.539  1.00  0.00     0.004 C 
ENDBRANCH  24  25
ENDBRANCH  23  24
ENDBRANCH  22  23
ENDBRANCH  21  22
ENDBRANCH  20  21
ENDBRANCH  19  20
ENDBRANCH  18  19
ENDBRANCH  17  18
ENDBRANCH  16  17
ENDBRANCH  15  16
ENDBRANCH   1  15
TORSDOF 22
ENDMDL
MODEL 7
REMARK VINA RESULT:    -3.404      2.510      5.135
REMARK INTER + INTRA:         -11.900
REMARK INTER:                  -8.070
REMARK INTRA:                  -3.830
REMARK UNBOUND:                -4.117
REMARK SMILES CCCCCCCCCCCCCCCCCCCCCCCC(=O)[O-]
REMARK SMILES IDX 13 1 14 2 15 3 16 4 17 5 18 6 19 7 20 8 21 9 22 10 23 11
REMARK SMILES IDX 24 12 25 13 26 14 12 15 11 16 10 17 9 18 8 19 7 20 6 21 5 22
REMARK SMILES IDX 4 23 3 24 2 25 1 26
REMARK H PARENT
REMARK Flexibility Score: inf
ROOT
ATOM      1  C   UNL     1     164.539 162.188 185.650  1.00  0.00     0.000 C 
ENDROOT
BRANCH   1   2
ATOM      2  C   UNL     1     164.306 163.706 185.723  1.00  0.00     0.000 C 
BRANCH   2   3
ATOM      3  C   UNL     1     164.898 164.346 186.993  1.00  0.00     0.000 C 
BRANCH   3   4
ATOM      4  C   UNL     1     164.007 164.270 188.246  1.00  0.00     0.000 C 
BRANCH   4   5
ATOM      5  C   UNL     1     164.740 163.692 189.470  1.00  0.00     0.000 C 
BRANCH   5   6
ATOM      6  C   UNL     1     166.061 163.003 189.094  1.00  0.00     0.000 C 
BRANCH   6   7
ATOM      7  C   UNL     1     166.561 162.035 190.180  1.00  0.00     0.000 C 
BRANCH   7   8
ATOM      8  C   UNL     1     166.563 160.569 189.688  1.00  0.00     0.000 C 
BRANCH   8   9
ATOM      9  C   UNL     1     166.909 160.426 188.195  1.00  0.00     0.000 C 
BRANCH   9  10
ATOM     10  C   UNL     1     168.422 160.433 187.891  1.00  0.00     0.006 C 
BRANCH  10  11
ATOM     11  C   UNL     1     168.753 160.387 186.389  1.00  0.00     0.053 C 
BRANCH  11  12
ATOM     12  C   UNL     1     168.240 161.582 185.649  1.00  0.00     0.041 C 
ATOM     13  O   UNL     1     168.225 162.712 186.203  1.00  0.00    -0.550 OA
ATOM     14  O   UNL     1     167.777 161.447 184.347  1.00  0.00    -0.550 OA
ENDBRANCH  11  12
ENDBRANCH  10  11
ENDBRANCH   9  10
ENDBRANCH   8   9
ENDBRANCH   7   8
ENDBRANCH   6   7
ENDBRANCH   5   6
ENDBRANCH   4   5
ENDBRANCH   3   4
ENDBRANCH   2   3
ENDBRANCH   1   2
BRANCH   1  15
ATOM     15  C   UNL     1     163.335 161.370 186.155  1.00  0.00     0.000 C 
BRANCH  15  16
ATOM     16  C   UNL     1     163.570 160.615 187.477  1.00  0.00     0.000 C 
BRANCH  16  17
ATOM     17  C   UNL     1     162.547 160.985 188.566  1.00  0.00     0.000 C 
BRANCH  17  18
ATOM     18  C   UNL     1     161.293 161.665 187.993  1.00  0.00    -0.000 C 
BRANCH  18  19
ATOM     19  C   UNL     1     160.714 162.730 188.942  1.00  0.00    -0.000 C 
BRANCH  19  20
ATOM     20  C   UNL     1     159.875 163.785 188.189  1.00  0.00    -0.000 C 
BRANCH  20  21
ATOM     21  C   UNL     1     160.274 163.954 186.713  1.00  0.00    -0.000 C 
BRANCH  21  22
ATOM     22  C   UNL     1     160.893 165.329 186.414  1.00  0.00    -0.000 C 
BRANCH  22  23
ATOM     23  C   UNL     1     160.768 166.315 187.590  1.00  0.00    -0.000 C 
BRANCH  23  24
ATOM     24  C   UNL     1     161.443 167.684 187.374  1.00  0.00    -0.000 C 
BRANCH  24  25
ATOM     25  C   UNL     1     160.487 168.865 187.584  1.00  0.00    -0.003 C 
ATOM     26  C   UNL     1     160.161 169.054 189.063  1.00  0.00     0.004 C 
ENDBRANCH  24  25
ENDBRANCH  23  24
ENDBRANCH  22  23
ENDBRANCH  21  22
ENDBRANCH  20  21
ENDBRANCH  19  20
ENDBRANCH  18  19
ENDBRANCH  17  18
ENDBRANCH  16  17
ENDBRANCH  15  16
ENDBRANCH   1  15
TORSDOF 22
ENDMDL
MODEL 8
REMARK VINA RESULT:    -3.399      2.042      5.423
REMARK INTER + INTRA:         -11.887
REMARK INTER:                  -7.525
REMARK INTRA:                  -4.362
REMARK UNBOUND:                -4.117
REMARK SMILES CCCCCCCCCCCCCCCCCCCCCCCC(=O)[O-]
REMARK SMILES IDX 13 1 14 2 15 3 16 4 17 5 18 6 19 7 20 8 21 9 22 10 23 11
REMARK SMILES IDX 24 12 25 13 26 14 12 15 11 16 10 17 9 18 8 19 7 20 6 21 5 22
REMARK SMILES IDX 4 23 3 24 2 25 1 26
REMARK H PARENT
REMARK Flexibility Score: inf
ROOT
ATOM      1  C   UNL     1     167.319 163.392 189.433  1.00  0.00     0.000 C 
ENDROOT
BRANCH   1   2
ATOM      2  C   UNL     1     166.403 162.341 190.079  1.00  0.00     0.000 C 
BRANCH   2   3
ATOM      3  C   UNL     1     166.523 160.952 189.424  1.00  0.00     0.000 C 
BRANCH   3   4
ATOM      4  C   UNL     1     165.263 160.071 189.506  1.00  0.00     0.000 C 
BRANCH   4   5
ATOM      5  C   UNL     1     164.315 160.266 188.309  1.00  0.00     0.000 C 
BRANCH   5   6
ATOM      6  C   UNL     1     163.049 161.053 188.682  1.00  0.00     0.000 C 
BRANCH   6   7
ATOM      7  C   UNL     1     162.013 161.091 187.547  1.00  0.00     0.000 C 
BRANCH   7   8
ATOM      8  C   UNL     1     160.668 161.694 188.014  1.00  0.00     0.000 C 
BRANCH   8   9
ATOM      9  C   UNL     1     160.830 162.983 188.839  1.00  0.00     0.000 C 
BRANCH   9  10
ATOM     10  C   UNL     1     160.291 164.253 188.147  1.00  0.00     0.006 C 
BRANCH  10  11
ATOM     11  C   UNL     1     161.164 164.741 186.979  1.00  0.00     0.053 C 
BRANCH  11  12
ATOM     12  C   UNL     1     161.207 166.234 186.877  1.00  0.00     0.041 C 
ATOM     13  O   UNL     1     160.384 166.843 186.144  1.00  0.00    -0.550 OA
ATOM     14  O   UNL     1     162.156 166.952 187.591  1.00  0.00    -0.550 OA
ENDBRANCH  11  12
ENDBRANCH  10  11
ENDBRANCH   9  10
ENDBRANCH   8   9
ENDBRANCH   7   8
ENDBRANCH   6   7
ENDBRANCH   5   6
ENDBRANCH   4   5
ENDBRANCH   3   4
ENDBRANCH   2   3
ENDBRANCH   1   2
BRANCH   1  15
ATOM     15  C   UNL     1     166.554 164.390 188.544  1.00  0.00     0.000 C 
BRANCH  15  16
ATOM     16  C   UNL     1     165.051 164.097 188.379  1.00  0.00     0.000 C 
BRANCH  16  17
ATOM     17  C   UNL     1     164.667 163.741 186.932  1.00  0.00     0.000 C 
BRANCH  17  18
ATOM     18  C   UNL     1     165.892 163.560 186.022  1.00  0.00    -0.000 C 
BRANCH  18  19
ATOM     19  C   UNL     1     166.108 162.094 185.607  1.00  0.00    -0.000 C 
BRANCH  19  20
ATOM     20  C   UNL     1     166.277 161.942 184.079  1.00  0.00    -0.000 C 
BRANCH  20  21
ATOM     21  C   UNL     1     165.159 161.123 183.411  1.00  0.00    -0.000 C 
BRANCH  21  22
ATOM     22  C   UNL     1     164.100 160.629 184.411  1.00  0.00    -0.000 C 
BRANCH  22  23
ATOM     23  C   UNL     1     162.673 161.084 184.052  1.00  0.00    -0.000 C 
BRANCH  23  24
ATOM     24  C   UNL     1     162.433 162.605 184.117  1.00  0.00    -0.000 C 
BRANCH  24  25
ATOM     25  C   UNL     1     161.029 163.012 183.652  1.00  0.00    -0.003 C 
ATOM     26  C   UNL     1     159.957 162.156 184.323  1.00  0.00     0.004 C 
ENDBRANCH  24  25
ENDBRANCH  23  24
ENDBRANCH  22  23
ENDBRANCH  21  22
ENDBRANCH  20  21
ENDBRANCH  19  20
ENDBRANCH  18  19
ENDBRANCH  17  18
ENDBRANCH  16  17
ENDBRANCH  15  16
ENDBRANCH   1  15
TORSDOF 22
ENDMDL
