MODEL 1
REMARK VINA RESULT:    -5.215      0.000      0.000
REMARK INTER + INTRA:          -5.617
REMARK INTER:                  -5.519
REMARK INTRA:                  -0.098
REMARK UNBOUND:                -0.098
REMARK SMILES C=C(C)[C@H]1CC=C(C)C(=O)C1
REMARK SMILES IDX 8 1 7 2 6 3 5 4 4 5 11 6 9 7 10 8 2 9 1 10 3 11
REMARK H PARENT
REMARK Flexibility Score: inf
ROOT
ATOM      1  C   UNL     1      -5.276  25.408 -15.594  1.00  0.00     0.048 C 
ATOM      2  C   UNL     1      -4.759  26.320 -16.673  1.00  0.00    -0.012 C 
ATOM      3  C   UNL     1      -3.595  26.041 -17.284  1.00  0.00    -0.019 C 
ATOM      4  C   UNL     1      -3.024  26.929 -18.357  1.00  0.00     0.036 C 
ATOM      5  C   UNL     1      -4.143  27.594 -19.180  1.00  0.00     0.025 C 
ATOM      6  C   UNL     1      -5.111  28.350 -18.252  1.00  0.00     0.089 C 
ATOM      7  C   UNL     1      -5.594  27.452 -17.146  1.00  0.00     0.158 C 
ATOM      8  O   UNL     1      -6.704  27.694 -16.599  1.00  0.00    -0.295 OA
ENDROOT
BRANCH   5   9
ATOM      9  C   UNL     1      -3.575  28.510 -20.256  1.00  0.00    -0.077 C 
ATOM     10  C   UNL     1      -2.405  29.138 -20.057  1.00  0.00     0.008 C 
ATOM     11  C   UNL     1      -4.300  28.734 -21.560  1.00  0.00     0.039 C 
ENDBRANCH   5   9
TORSDOF 1
ENDMDL
MODEL 2
REMARK VINA RESULT:    -5.164      6.372      9.470
REMARK INTER + INTRA:          -5.564
REMARK INTER:                  -5.466
REMARK INTRA:                  -0.097
REMARK UNBOUND:                -0.098
REMARK SMILES C=C(C)[C@H]1CC=C(C)C(=O)C1
REMARK SMILES IDX 8 1 7 2 6 3 5 4 4 5 11 6 9 7 10 8 2 9 1 10 3 11
REMARK H PARENT
REMARK Flexibility Score: inf
ROOT
ATOM      1  C   UNL     1      -5.596  32.074 -28.970  1.00  0.00     0.048 C 
ATOM      2  C   UNL     1      -5.487  31.566 -27.559  1.00  0.00    -0.012 C 
ATOM      3  C   UNL     1      -6.597  31.410 -26.817  1.00  0.00    -0.019 C 
ATOM      4  C   UNL     1      -6.542  30.922 -25.393  1.00  0.00     0.036 C 
ATOM      5  C   UNL     1      -5.379  29.934 -25.189  1.00  0.00     0.025 C 
ATOM      6  C   UNL     1      -4.052  30.573 -25.638  1.00  0.00     0.089 C 
ATOM      7  C   UNL     1      -4.173  31.121 -27.034  1.00  0.00     0.158 C 
ATOM      8  O   UNL     1      -3.136  31.233 -27.742  1.00  0.00    -0.295 OA
ENDROOT
BRANCH   5   9
ATOM      9  C   UNL     1      -5.304  29.450 -23.748  1.00  0.00    -0.077 C 
ATOM     10  C   UNL     1      -6.411  29.423 -22.988  1.00  0.00     0.008 C 
ATOM     11  C   UNL     1      -4.002  28.990 -23.139  1.00  0.00     0.039 C 
ENDBRANCH   5   9
TORSDOF 1
ENDMDL
MODEL 3
REMARK VINA RESULT:    -4.727      1.643      4.747
REMARK INTER + INTRA:          -5.102
REMARK INTER:                  -5.005
REMARK INTRA:                  -0.096
REMARK UNBOUND:                -0.098
REMARK SMILES C=C(C)[C@H]1CC=C(C)C(=O)C1
REMARK SMILES IDX 8 1 7 2 6 3 5 4 4 5 11 6 9 7 10 8 2 9 1 10 3 11
REMARK H PARENT
REMARK Flexibility Score: inf
ROOT
ATOM      1  C   UNL     1      -4.106  27.683 -19.636  1.00  0.00     0.048 C 
ATOM      2  C   UNL     1      -4.033  26.951 -18.325  1.00  0.00    -0.012 C 
ATOM      3  C   UNL     1      -2.846  26.518 -17.866  1.00  0.00    -0.019 C 
ATOM      4  C   UNL     1      -2.719  25.764 -16.568  1.00  0.00     0.036 C 
ATOM      5  C   UNL     1      -3.773  26.235 -15.548  1.00  0.00     0.025 C 
ATOM      6  C   UNL     1      -5.185  26.126 -16.151  1.00  0.00     0.089 C 
ATOM      7  C   UNL     1      -5.248  26.820 -17.483  1.00  0.00     0.158 C 
ATOM      8  O   UNL     1      -6.356  27.258 -17.896  1.00  0.00    -0.295 OA
ENDROOT
BRANCH   5   9
ATOM      9  C   UNL     1      -3.664  25.465 -14.239  1.00  0.00    -0.077 C 
ATOM     10  C   UNL     1      -3.829  24.133 -14.226  1.00  0.00     0.008 C 
ATOM     11  C   UNL     1      -3.371  26.167 -12.936  1.00  0.00     0.039 C 
ENDBRANCH   5   9
TORSDOF 1
ENDMDL
MODEL 4
REMARK VINA RESULT:    -4.716      8.874     11.614
REMARK INTER + INTRA:          -5.090
REMARK INTER:                  -5.003
REMARK INTRA:                  -0.087
REMARK UNBOUND:                -0.098
REMARK SMILES C=C(C)[C@H]1CC=C(C)C(=O)C1
REMARK SMILES IDX 8 1 7 2 6 3 5 4 4 5 11 6 9 7 10 8 2 9 1 10 3 11
REMARK H PARENT
REMARK Flexibility Score: inf
ROOT
ATOM      1  C   UNL     1       4.052  30.768 -28.766  1.00  0.00     0.048 C 
ATOM      2  C   UNL     1       3.640  30.631 -27.326  1.00  0.00    -0.012 C 
ATOM      3  C   UNL     1       4.452  30.009 -26.454  1.00  0.00    -0.019 C 
ATOM      4  C   UNL     1       4.080  29.828 -25.006  1.00  0.00     0.036 C 
ATOM      5  C   UNL     1       3.228  31.007 -24.501  1.00  0.00     0.025 C 
ATOM      6  C   UNL     1       1.993  31.197 -25.401  1.00  0.00     0.089 C 
ATOM      7  C   UNL     1       2.400  31.290 -26.846  1.00  0.00     0.158 C 
ATOM      8  O   UNL     1       1.655  31.905 -27.656  1.00  0.00    -0.295 OA
ENDROOT
BRANCH   5   9
ATOM      9  C   UNL     1       2.831  30.825 -23.043  1.00  0.00    -0.077 C 
ATOM     10  C   UNL     1       3.339  31.635 -22.101  1.00  0.00     0.008 C 
ATOM     11  C   UNL     1       1.866  29.744 -22.620  1.00  0.00     0.039 C 
ENDBRANCH   5   9
TORSDOF 1
ENDMDL
MODEL 5
REMARK VINA RESULT:    -4.701     16.587     18.091
REMARK INTER + INTRA:          -5.073
REMARK INTER:                  -4.977
REMARK INTRA:                  -0.096
REMARK UNBOUND:                -0.098
REMARK SMILES C=C(C)[C@H]1CC=C(C)C(=O)C1
REMARK SMILES IDX 8 1 7 2 6 3 5 4 4 5 11 6 9 7 10 8 2 9 1 10 3 11
REMARK H PARENT
REMARK Flexibility Score: inf
ROOT
ATOM      1  C   UNL     1      10.950  39.077 -13.871  1.00  0.00     0.048 C 
ATOM      2  C   UNL     1      10.703  37.652 -13.459  1.00  0.00    -0.012 C 
ATOM      3  C   UNL     1      11.569  37.033 -12.638  1.00  0.00    -0.019 C 
ATOM      4  C   UNL     1      11.378  35.602 -12.210  1.00  0.00     0.036 C 
ATOM      5  C   UNL     1       9.883  35.250 -12.099  1.00  0.00     0.025 C 
ATOM      6  C   UNL     1       9.162  35.563 -13.423  1.00  0.00     0.089 C 
ATOM      7  C   UNL     1       9.444  36.975 -13.858  1.00  0.00     0.158 C 
ATOM      8  O   UNL     1       8.614  37.567 -14.600  1.00  0.00    -0.295 OA
ENDROOT
BRANCH   5   9
ATOM      9  C   UNL     1       9.680  33.799 -11.685  1.00  0.00    -0.077 C 
ATOM     10  C   UNL     1      10.149  32.807 -12.458  1.00  0.00     0.008 C 
ATOM     11  C   UNL     1       8.958  33.439 -10.410  1.00  0.00     0.039 C 
ENDBRANCH   5   9
TORSDOF 1
ENDMDL
MODEL 6
REMARK VINA RESULT:    -4.560     16.279     17.627
REMARK INTER + INTRA:          -4.925
REMARK INTER:                  -4.826
REMARK INTRA:                  -0.098
REMARK UNBOUND:                -0.098
REMARK SMILES C=C(C)[C@H]1CC=C(C)C(=O)C1
REMARK SMILES IDX 8 1 7 2 6 3 5 4 4 5 11 6 9 7 10 8 2 9 1 10 3 11
REMARK H PARENT
REMARK Flexibility Score: inf
ROOT
ATOM      1  C   UNL     1      10.909  35.717 -12.814  1.00  0.00     0.048 C 
ATOM      2  C   UNL     1      10.388  34.706 -11.831  1.00  0.00    -0.012 C 
ATOM      3  C   UNL     1       9.133  34.813 -11.363  1.00  0.00    -0.019 C 
ATOM      4  C   UNL     1       8.567  33.838 -10.363  1.00  0.00     0.036 C 
ATOM      5  C   UNL     1       9.156  32.430 -10.568  1.00  0.00     0.025 C 
ATOM      6  C   UNL     1      10.694  32.483 -10.526  1.00  0.00     0.089 C 
ATOM      7  C   UNL     1      11.214  33.525 -11.477  1.00  0.00     0.158 C 
ATOM      8  O   UNL     1      12.379  33.404 -11.943  1.00  0.00    -0.295 OA
ENDROOT
BRANCH   5   9
ATOM      9  C   UNL     1       8.605  31.442  -9.550  1.00  0.00    -0.077 C 
ATOM     10  C   UNL     1       9.432  30.590  -8.922  1.00  0.00     0.008 C 
ATOM     11  C   UNL     1       7.133  31.392  -9.219  1.00  0.00     0.039 C 
ENDBRANCH   5   9
TORSDOF 1
ENDMDL
MODEL 7
REMARK VINA RESULT:    -4.532     16.726     18.199
REMARK INTER + INTRA:          -4.895
REMARK INTER:                  -4.798
REMARK INTRA:                  -0.097
REMARK UNBOUND:                -0.098
REMARK SMILES C=C(C)[C@H]1CC=C(C)C(=O)C1
REMARK SMILES IDX 8 1 7 2 6 3 5 4 4 5 11 6 9 7 10 8 2 9 1 10 3 11
REMARK H PARENT
REMARK Flexibility Score: inf
ROOT
ATOM      1  C   UNL     1      10.219  39.243 -14.494  1.00  0.00     0.048 C 
ATOM      2  C   UNL     1      10.084  37.870 -13.896  1.00  0.00    -0.012 C 
ATOM      3  C   UNL     1       9.056  37.082 -14.254  1.00  0.00    -0.019 C 
ATOM      4  C   UNL     1       8.864  35.707 -13.672  1.00  0.00     0.036 C 
ATOM      5  C   UNL     1      10.218  35.046 -13.353  1.00  0.00     0.025 C 
ATOM      6  C   UNL     1      11.053  35.956 -12.435  1.00  0.00     0.089 C 
ATOM      7  C   UNL     1      11.152  37.342 -13.011  1.00  0.00     0.158 C 
ATOM      8  O   UNL     1      12.136  38.067 -12.702  1.00  0.00    -0.295 OA
ENDROOT
BRANCH   5   9
ATOM      9  C   UNL     1      10.034  33.661 -12.747  1.00  0.00    -0.077 C 
ATOM     10  C   UNL     1       9.707  33.533 -11.451  1.00  0.00     0.008 C 
ATOM     11  C   UNL     1      10.208  32.411 -13.573  1.00  0.00     0.039 C 
ENDBRANCH   5   9
TORSDOF 1
ENDMDL
MODEL 8
REMARK VINA RESULT:    -4.400     16.422     17.319
REMARK INTER + INTRA:          -4.756
REMARK INTER:                  -4.661
REMARK INTRA:                  -0.094
REMARK UNBOUND:                -0.098
REMARK SMILES C=C(C)[C@H]1CC=C(C)C(=O)C1
REMARK SMILES IDX 8 1 7 2 6 3 5 4 4 5 11 6 9 7 10 8 2 9 1 10 3 11
REMARK H PARENT
REMARK Flexibility Score: inf
ROOT
ATOM      1  C   UNL     1       9.795  36.184 -12.983  1.00  0.00     0.048 C 
ATOM      2  C   UNL     1       9.706  34.872 -12.254  1.00  0.00    -0.012 C 
ATOM      3  C   UNL     1      10.600  33.902 -12.511  1.00  0.00    -0.019 C 
ATOM      4  C   UNL     1      10.545  32.563 -11.823  1.00  0.00     0.036 C 
ATOM      5  C   UNL     1      10.003  32.699 -10.388  1.00  0.00     0.025 C 
ATOM      6  C   UNL     1       8.635  33.406 -10.399  1.00  0.00     0.089 C 
ATOM      7  C   UNL     1       8.712  34.697 -11.165  1.00  0.00     0.158 C 
ATOM      8  O   UNL     1       7.896  35.620 -10.898  1.00  0.00    -0.295 OA
ENDROOT
BRANCH   5   9
ATOM      9  C   UNL     1       9.927  31.348  -9.690  1.00  0.00    -0.077 C 
ATOM     10  C   UNL     1      10.997  30.537  -9.675  1.00  0.00     0.008 C 
ATOM     11  C   UNL     1       8.665  30.888  -9.004  1.00  0.00     0.039 C 
ENDBRANCH   5   9
TORSDOF 1
ENDMDL
MODEL 9
REMARK VINA RESULT:    -4.361     16.987     17.704
REMARK INTER + INTRA:          -4.714
REMARK INTER:                  -4.623
REMARK INTRA:                  -0.090
REMARK UNBOUND:                -0.098
REMARK SMILES C=C(C)[C@H]1CC=C(C)C(=O)C1
REMARK SMILES IDX 8 1 7 2 6 3 5 4 4 5 11 6 9 7 10 8 2 9 1 10 3 11
REMARK H PARENT
REMARK Flexibility Score: inf
ROOT
ATOM      1  C   UNL     1      10.447  31.511  -9.625  1.00  0.00     0.048 C 
ATOM      2  C   UNL     1      10.300  32.644 -10.602  1.00  0.00    -0.012 C 
ATOM      3  C   UNL     1       9.334  33.561 -10.422  1.00  0.00    -0.019 C 
ATOM      4  C   UNL     1       9.131  34.706 -11.380  1.00  0.00     0.036 C 
ATOM      5  C   UNL     1      10.470  35.161 -11.991  1.00  0.00     0.025 C 
ATOM      6  C   UNL     1      11.189  33.969 -12.650  1.00  0.00     0.089 C 
ATOM      7  C   UNL     1      11.297  32.818 -11.687  1.00  0.00     0.158 C 
ATOM      8  O   UNL     1      12.225  31.979 -11.836  1.00  0.00    -0.295 OA
ENDROOT
BRANCH   5   9
ATOM      9  C   UNL     1      10.273  36.305 -12.976  1.00  0.00    -0.077 C 
ATOM     10  C   UNL     1      11.244  37.216 -13.151  1.00  0.00     0.008 C 
ATOM     11  C   UNL     1       9.000  36.447 -13.773  1.00  0.00     0.039 C 
ENDBRANCH   5   9
TORSDOF 1
ENDMDL
