MODEL 1
REMARK VINA RESULT:    -7.448      0.000      0.000
REMARK INTER + INTRA:          -8.522
REMARK INTER:                  -8.754
REMARK INTRA:                   0.232
REMARK UNBOUND:                 0.232
REMARK SMILES Oc1ccc(-c2[o+]c3cc(O)cc(O)c3cc2O)cc1
REMARK SMILES IDX 6 1 7 2 8 3 9 4 10 5 12 6 13 7 15 8 16 9 17 10 5 11 4 12
REMARK SMILES IDX 3 13 2 14 19 15 20 16 1 17 18 19 11 21 14 23
REMARK H PARENT 1 18 18 20 11 22 14 24
REMARK Flexibility Score: inf
ROOT
ATOM      1  C   UNL     1       9.536 -12.855 -23.311  1.00  0.00     0.401 A 
ATOM      2  O   UNL     1       9.743 -11.540 -23.365  1.00  0.00    -0.202 OA
ATOM      3  C   UNL     1       9.413 -10.794 -24.415  1.00  0.00     0.368 A 
ATOM      4  C   UNL     1       9.669  -9.420 -24.396  1.00  0.00     0.162 A 
ATOM      5  C   UNL     1       9.330  -8.623 -25.497  1.00  0.00     0.128 A 
ATOM      6  C   UNL     1       8.734  -9.205 -26.621  1.00  0.00     0.093 A 
ATOM      7  C   UNL     1       8.471 -10.583 -26.655  1.00  0.00     0.136 A 
ATOM      8  C   UNL     1       8.812 -11.383 -25.548  1.00  0.00     0.125 A 
ATOM      9  C   UNL     1       8.566 -12.761 -25.523  1.00  0.00     0.078 A 
ATOM     10  C   UNL     1       8.918 -13.509 -24.396  1.00  0.00     0.223 A 
ENDROOT
BRANCH   1  11
ATOM     11  C   UNL     1       9.955 -13.579 -22.090  1.00  0.00     0.084 A 
ATOM     12  C   UNL     1      10.330 -14.935 -22.132  1.00  0.00     0.022 A 
ATOM     13  C   UNL     1      10.743 -15.590 -20.969  1.00  0.00     0.047 A 
ATOM     14  C   UNL     1      10.800 -14.901 -19.754  1.00  0.00     0.115 A 
ATOM     15  C   UNL     1      10.034 -12.888 -20.869  1.00  0.00     0.022 A 
ATOM     16  C   UNL     1      10.447 -13.547 -19.707  1.00  0.00     0.047 A 
BRANCH  14  17
ATOM     17  O   UNL     1      11.213 -15.568 -18.602  1.00  0.00    -0.508 OA
ATOM     18  H   UNL     1      10.585 -16.176 -18.089  1.00  0.00     0.293 HD
ENDBRANCH  14  17
ENDBRANCH   1  11
BRANCH  10  19
ATOM     19  O   UNL     1       8.629 -14.872 -24.344  1.00  0.00    -0.500 OA
ATOM     20  H   UNL     1       7.818 -15.262 -24.811  1.00  0.00     0.294 HD
ENDBRANCH  10  19
BRANCH   5  21
ATOM     21  O   UNL     1       9.581  -7.253 -25.487  1.00  0.00    -0.507 OA
ATOM     22  H   UNL     1       8.939  -6.602 -25.049  1.00  0.00     0.293 HD
ENDBRANCH   5  21
BRANCH   7  23
ATOM     23  O   UNL     1       7.875 -11.151 -27.782  1.00  0.00    -0.507 OA
ATOM     24  H   UNL     1       7.497 -12.093 -27.764  1.00  0.00     0.293 HD
ENDBRANCH   7  23
TORSDOF 5
ENDMDL
MODEL 2
REMARK VINA RESULT:    -6.952      2.184      6.819
REMARK INTER + INTRA:          -7.939
REMARK INTER:                  -7.639
REMARK INTRA:                  -0.300
REMARK UNBOUND:                 0.232
REMARK SMILES Oc1ccc(-c2[o+]c3cc(O)cc(O)c3cc2O)cc1
REMARK SMILES IDX 6 1 7 2 8 3 9 4 10 5 12 6 13 7 15 8 16 9 17 10 5 11 4 12
REMARK SMILES IDX 3 13 2 14 19 15 20 16 1 17 18 19 11 21 14 23
REMARK H PARENT 1 18 18 20 11 22 14 24
REMARK Flexibility Score: inf
ROOT
ATOM      1  C   UNL     1       9.851 -13.152 -23.501  1.00  0.00     0.401 A 
ATOM      2  O   UNL     1      10.209 -14.089 -24.377  1.00  0.00    -0.202 OA
ATOM      3  C   UNL     1      10.561 -15.321 -24.021  1.00  0.00     0.368 A 
ATOM      4  C   UNL     1      10.930 -16.246 -25.002  1.00  0.00     0.162 A 
ATOM      5  C   UNL     1      11.306 -17.546 -24.640  1.00  0.00     0.128 A 
ATOM      6  C   UNL     1      11.312 -17.920 -23.292  1.00  0.00     0.093 A 
ATOM      7  C   UNL     1      10.944 -17.003 -22.296  1.00  0.00     0.136 A 
ATOM      8  C   UNL     1      10.566 -15.696 -22.661  1.00  0.00     0.125 A 
ATOM      9  C   UNL     1      10.181 -14.742 -21.712  1.00  0.00     0.078 A 
ATOM     10  C   UNL     1       9.808 -13.460 -22.126  1.00  0.00     0.223 A 
ENDROOT
BRANCH   1  11
ATOM     11  C   UNL     1       9.489 -11.813 -24.019  1.00  0.00     0.084 A 
ATOM     12  C   UNL     1       8.200 -11.541 -24.514  1.00  0.00     0.022 A 
ATOM     13  C   UNL     1       7.875 -10.262 -24.977  1.00  0.00     0.047 A 
ATOM     14  C   UNL     1       8.825  -9.237 -24.938  1.00  0.00     0.115 A 
ATOM     15  C   UNL     1      10.431 -10.772 -23.965  1.00  0.00     0.022 A 
ATOM     16  C   UNL     1      10.104  -9.494 -24.429  1.00  0.00     0.047 A 
BRANCH  14  17
ATOM     17  O   UNL     1       8.488  -7.968 -25.404  1.00  0.00    -0.508 OA
ATOM     18  H   UNL     1       7.521  -7.682 -25.509  1.00  0.00     0.293 HD
ENDBRANCH  14  17
ENDBRANCH   1  11
BRANCH  10  19
ATOM     19  O   UNL     1       9.376 -12.521 -21.191  1.00  0.00    -0.500 OA
ATOM     20  H   UNL     1       8.740 -12.771 -20.442  1.00  0.00     0.294 HD
ENDBRANCH  10  19
BRANCH   5  21
ATOM     21  O   UNL     1      11.676 -18.474 -25.610  1.00  0.00    -0.507 OA
ATOM     22  H   UNL     1      11.161 -18.565 -26.479  1.00  0.00     0.293 HD
ENDBRANCH   5  21
BRANCH   7  23
ATOM     23  O   UNL     1      10.952 -17.388 -20.955  1.00  0.00    -0.507 OA
ATOM     24  H   UNL     1      11.317 -18.289 -20.664  1.00  0.00     0.293 HD
ENDBRANCH   7  23
TORSDOF 5
ENDMDL
MODEL 3
REMARK VINA RESULT:    -6.704      1.209      6.537
REMARK INTER + INTRA:          -7.648
REMARK INTER:                  -7.901
REMARK INTRA:                   0.253
REMARK UNBOUND:                 0.232
REMARK SMILES Oc1ccc(-c2[o+]c3cc(O)cc(O)c3cc2O)cc1
REMARK SMILES IDX 6 1 7 2 8 3 9 4 10 5 12 6 13 7 15 8 16 9 17 10 5 11 4 12
REMARK SMILES IDX 3 13 2 14 19 15 20 16 1 17 18 19 11 21 14 23
REMARK H PARENT 1 18 18 20 11 22 14 24
REMARK Flexibility Score: inf
ROOT
ATOM      1  C   UNL     1       9.062 -12.044 -24.323  1.00  0.00     0.401 A 
ATOM      2  O   UNL     1       9.548 -12.112 -23.084  1.00  0.00    -0.202 OA
ATOM      3  C   UNL     1       9.694 -13.256 -22.422  1.00  0.00     0.368 A 
ATOM      4  C   UNL     1      10.207 -13.242 -21.122  1.00  0.00     0.162 A 
ATOM      5  C   UNL     1      10.362 -14.440 -20.412  1.00  0.00     0.128 A 
ATOM      6  C   UNL     1      10.002 -15.654 -21.007  1.00  0.00     0.093 A 
ATOM      7  C   UNL     1       9.486 -15.683 -22.311  1.00  0.00     0.136 A 
ATOM      8  C   UNL     1       9.330 -14.479 -23.024  1.00  0.00     0.125 A 
ATOM      9  C   UNL     1       8.829 -14.449 -24.330  1.00  0.00     0.078 A 
ATOM     10  C   UNL     1       8.700 -13.227 -24.997  1.00  0.00     0.223 A 
ENDROOT
BRANCH   1  11
ATOM     11  C   UNL     1       8.939 -10.710 -24.953  1.00  0.00     0.084 A 
ATOM     12  C   UNL     1       7.987 -10.458 -25.959  1.00  0.00     0.022 A 
ATOM     13  C   UNL     1       7.875  -9.184 -26.522  1.00  0.00     0.047 A 
ATOM     14  C   UNL     1       8.699  -8.143 -26.082  1.00  0.00     0.115 A 
ATOM     15  C   UNL     1       9.750  -9.654 -24.502  1.00  0.00     0.022 A 
ATOM     16  C   UNL     1       9.635  -8.381 -25.068  1.00  0.00     0.047 A 
BRANCH  14  17
ATOM     17  O   UNL     1       8.577  -6.878 -26.654  1.00  0.00    -0.508 OA
ATOM     18  H   UNL     1       8.621  -6.036 -26.092  1.00  0.00     0.293 HD
ENDBRANCH  14  17
ENDBRANCH   1  11
BRANCH  10  19
ATOM     19  O   UNL     1       8.250 -13.195 -26.316  1.00  0.00    -0.500 OA
ATOM     20  H   UNL     1       8.498 -12.439 -26.945  1.00  0.00     0.294 HD
ENDBRANCH  10  19
BRANCH   5  21
ATOM     21  O   UNL     1      10.872 -14.436 -19.116  1.00  0.00    -0.507 OA
ATOM     22  H   UNL     1      11.345 -13.624 -18.737  1.00  0.00     0.293 HD
ENDBRANCH   5  21
BRANCH   7  23
ATOM     23  O   UNL     1       9.132 -16.901 -22.893  1.00  0.00    -0.507 OA
ATOM     24  H   UNL     1       8.856 -17.699 -22.331  1.00  0.00     0.293 HD
ENDBRANCH   7  23
TORSDOF 5
ENDMDL
MODEL 4
REMARK VINA RESULT:    -6.662      4.414      7.310
REMARK INTER + INTRA:          -7.598
REMARK INTER:                  -7.301
REMARK INTRA:                  -0.297
REMARK UNBOUND:                 0.232
REMARK SMILES Oc1ccc(-c2[o+]c3cc(O)cc(O)c3cc2O)cc1
REMARK SMILES IDX 6 1 7 2 8 3 9 4 10 5 12 6 13 7 15 8 16 9 17 10 5 11 4 12
REMARK SMILES IDX 3 13 2 14 19 15 20 16 1 17 18 19 11 21 14 23
REMARK H PARENT 1 18 18 20 11 22 14 24
REMARK Flexibility Score: inf
ROOT
ATOM      1  C   UNL     1      11.167 -16.891 -25.459  1.00  0.00     0.401 A 
ATOM      2  O   UNL     1      10.893 -15.627 -25.138  1.00  0.00    -0.202 OA
ATOM      3  C   UNL     1      10.691 -15.222 -23.887  1.00  0.00     0.368 A 
ATOM      4  C   UNL     1      10.402 -13.878 -23.634  1.00  0.00     0.162 A 
ATOM      5  C   UNL     1      10.184 -13.439 -22.322  1.00  0.00     0.128 A 
ATOM      6  C   UNL     1      10.255 -14.348 -21.261  1.00  0.00     0.093 A 
ATOM      7  C   UNL     1      10.544 -15.700 -21.500  1.00  0.00     0.136 A 
ATOM      8  C   UNL     1      10.764 -16.141 -22.819  1.00  0.00     0.125 A 
ATOM      9  C   UNL     1      11.064 -17.475 -23.116  1.00  0.00     0.078 A 
ATOM     10  C   UNL     1      11.279 -17.861 -24.442  1.00  0.00     0.223 A 
ENDROOT
BRANCH   1  11
ATOM     11  C   UNL     1      11.363 -17.222 -26.888  1.00  0.00     0.084 A 
ATOM     12  C   UNL     1      10.270 -17.435 -27.749  1.00  0.00     0.022 A 
ATOM     13  C   UNL     1      10.480 -17.724 -29.100  1.00  0.00     0.047 A 
ATOM     14  C   UNL     1      11.780 -17.791 -29.613  1.00  0.00     0.115 A 
ATOM     15  C   UNL     1      12.665 -17.271 -27.415  1.00  0.00     0.022 A 
ATOM     16  C   UNL     1      12.872 -17.561 -28.767  1.00  0.00     0.047 A 
BRANCH  14  17
ATOM     17  O   UNL     1      11.974 -18.081 -30.962  1.00  0.00    -0.508 OA
ATOM     18  H   UNL     1      11.733 -17.415 -31.687  1.00  0.00     0.293 HD
ENDBRANCH  14  17
ENDBRANCH   1  11
BRANCH  10  19
ATOM     19  O   UNL     1      11.629 -19.178 -24.740  1.00  0.00    -0.500 OA
ATOM     20  H   UNL     1      12.594 -19.451 -24.888  1.00  0.00     0.294 HD
ENDBRANCH  10  19
BRANCH   5  21
ATOM     21  O   UNL     1       9.895 -12.102 -22.059  1.00  0.00    -0.507 OA
ATOM     22  H   UNL     1       9.076 -11.832 -21.527  1.00  0.00     0.293 HD
ENDBRANCH   5  21
BRANCH   7  23
ATOM     23  O   UNL     1      10.614 -16.597 -20.434  1.00  0.00    -0.507 OA
ATOM     24  H   UNL     1      10.433 -17.587 -20.560  1.00  0.00     0.293 HD
ENDBRANCH   7  23
TORSDOF 5
ENDMDL
MODEL 5
REMARK VINA RESULT:    -6.576      3.930      6.907
REMARK INTER + INTRA:          -7.497
REMARK INTER:                  -7.205
REMARK INTRA:                  -0.292
REMARK UNBOUND:                 0.232
REMARK SMILES Oc1ccc(-c2[o+]c3cc(O)cc(O)c3cc2O)cc1
REMARK SMILES IDX 6 1 7 2 8 3 9 4 10 5 12 6 13 7 15 8 16 9 17 10 5 11 4 12
REMARK SMILES IDX 3 13 2 14 19 15 20 16 1 17 18 19 11 21 14 23
REMARK H PARENT 1 18 18 20 11 22 14 24
REMARK Flexibility Score: inf
ROOT
ATOM      1  C   UNL     1      10.194 -16.773 -24.500  1.00  0.00     0.401 A 
ATOM      2  O   UNL     1      10.537 -16.926 -23.221  1.00  0.00    -0.202 OA
ATOM      3  C   UNL     1      10.423 -15.959 -22.316  1.00  0.00     0.368 A 
ATOM      4  C   UNL     1      10.810 -16.198 -20.995  1.00  0.00     0.162 A 
ATOM      5  C   UNL     1      10.698 -15.186 -20.032  1.00  0.00     0.128 A 
ATOM      6  C   UNL     1      10.197 -13.932 -20.396  1.00  0.00     0.093 A 
ATOM      7  C   UNL     1       9.804 -13.677 -21.718  1.00  0.00     0.136 A 
ATOM      8  C   UNL     1       9.916 -14.694 -22.685  1.00  0.00     0.125 A 
ATOM      9  C   UNL     1       9.532 -14.499 -24.016  1.00  0.00     0.078 A 
ATOM     10  C   UNL     1       9.658 -15.544 -24.936  1.00  0.00     0.223 A 
ENDROOT
BRANCH   1  11
ATOM     11  C   UNL     1      10.376 -17.922 -25.415  1.00  0.00     0.084 A 
ATOM     12  C   UNL     1       9.434 -18.965 -25.480  1.00  0.00     0.022 A 
ATOM     13  C   UNL     1       9.616 -20.028 -26.369  1.00  0.00     0.047 A 
ATOM     14  C   UNL     1      10.731 -20.058 -27.213  1.00  0.00     0.115 A 
ATOM     15  C   UNL     1      11.483 -17.949 -26.280  1.00  0.00     0.022 A 
ATOM     16  C   UNL     1      11.663 -19.014 -27.168  1.00  0.00     0.047 A 
BRANCH  14  17
ATOM     17  O   UNL     1      10.901 -21.125 -28.093  1.00  0.00    -0.508 OA
ATOM     18  H   UNL     1      10.291 -21.253 -28.892  1.00  0.00     0.293 HD
ENDBRANCH  14  17
ENDBRANCH   1  11
BRANCH  10  19
ATOM     19  O   UNL     1       9.230 -15.373 -26.252  1.00  0.00    -0.500 OA
ATOM     20  H   UNL     1       9.869 -15.458 -27.034  1.00  0.00     0.294 HD
ENDBRANCH  10  19
BRANCH   5  21
ATOM     21  O   UNL     1      11.082 -15.415 -18.713  1.00  0.00    -0.507 OA
ATOM     22  H   UNL     1      11.859 -14.917 -18.295  1.00  0.00     0.293 HD
ENDBRANCH   5  21
BRANCH   7  23
ATOM     23  O   UNL     1       9.304 -12.421 -22.067  1.00  0.00    -0.507 OA
ATOM     24  H   UNL     1       9.235 -11.670 -21.389  1.00  0.00     0.293 HD
ENDBRANCH   7  23
TORSDOF 5
ENDMDL
MODEL 6
REMARK VINA RESULT:    -6.069      3.794      7.457
REMARK INTER + INTRA:          -6.901
REMARK INTER:                  -6.680
REMARK INTRA:                  -0.221
REMARK UNBOUND:                 0.232
REMARK SMILES Oc1ccc(-c2[o+]c3cc(O)cc(O)c3cc2O)cc1
REMARK SMILES IDX 6 1 7 2 8 3 9 4 10 5 12 6 13 7 15 8 16 9 17 10 5 11 4 12
REMARK SMILES IDX 3 13 2 14 19 15 20 16 1 17 18 19 11 21 14 23
REMARK H PARENT 1 18 18 20 11 22 14 24
REMARK Flexibility Score: inf
ROOT
ATOM      1  C   UNL     1       9.927 -15.799 -23.601  1.00  0.00     0.401 A 
ATOM      2  O   UNL     1      10.340 -16.536 -24.632  1.00  0.00    -0.202 OA
ATOM      3  C   UNL     1      10.333 -17.866 -24.625  1.00  0.00     0.368 A 
ATOM      4  C   UNL     1      10.788 -18.566 -25.745  1.00  0.00     0.162 A 
ATOM      5  C   UNL     1      10.789 -19.967 -25.748  1.00  0.00     0.128 A 
ATOM      6  C   UNL     1      10.333 -20.667 -24.627  1.00  0.00     0.093 A 
ATOM      7  C   UNL     1       9.872 -19.978 -23.495  1.00  0.00     0.136 A 
ATOM      8  C   UNL     1       9.871 -18.570 -23.492  1.00  0.00     0.125 A 
ATOM      9  C   UNL     1       9.416 -17.830 -22.395  1.00  0.00     0.078 A 
ATOM     10  C   UNL     1       9.429 -16.433 -22.445  1.00  0.00     0.223 A 
ENDROOT
BRANCH   1  11
ATOM     11  C   UNL     1       9.991 -14.325 -23.726  1.00  0.00     0.084 A 
ATOM     12  C   UNL     1       9.119 -13.621 -24.576  1.00  0.00     0.022 A 
ATOM     13  C   UNL     1       9.184 -12.228 -24.659  1.00  0.00     0.047 A 
ATOM     14  C   UNL     1      10.109 -11.518 -23.886  1.00  0.00     0.115 A 
ATOM     15  C   UNL     1      10.904 -13.604 -22.937  1.00  0.00     0.022 A 
ATOM     16  C   UNL     1      10.967 -12.210 -23.023  1.00  0.00     0.047 A 
BRANCH  14  17
ATOM     17  O   UNL     1      10.163 -10.129 -23.980  1.00  0.00    -0.508 OA
ATOM     18  H   UNL     1       9.609  -9.535 -23.374  1.00  0.00     0.293 HD
ENDBRANCH  14  17
ENDBRANCH   1  11
BRANCH  10  19
ATOM     19  O   UNL     1       8.930 -15.690 -21.376  1.00  0.00    -0.500 OA
ATOM     20  H   UNL     1       9.508 -15.025 -20.875  1.00  0.00     0.294 HD
ENDBRANCH  10  19
BRANCH   5  21
ATOM     21  O   UNL     1      11.242 -20.674 -26.860  1.00  0.00    -0.507 OA
ATOM     22  H   UNL     1      11.039 -20.363 -27.803  1.00  0.00     0.293 HD
ENDBRANCH   5  21
BRANCH   7  23
ATOM     23  O   UNL     1       9.418 -20.688 -22.383  1.00  0.00    -0.507 OA
ATOM     24  H   UNL     1       9.902 -20.647 -21.493  1.00  0.00     0.293 HD
ENDBRANCH   7  23
TORSDOF 5
ENDMDL
MODEL 7
REMARK VINA RESULT:    -6.041     15.937     17.978
REMARK INTER + INTRA:          -6.868
REMARK INTER:                  -6.619
REMARK INTRA:                  -0.249
REMARK UNBOUND:                 0.232
REMARK SMILES Oc1ccc(-c2[o+]c3cc(O)cc(O)c3cc2O)cc1
REMARK SMILES IDX 6 1 7 2 8 3 9 4 10 5 12 6 13 7 15 8 16 9 17 10 5 11 4 12
REMARK SMILES IDX 3 13 2 14 19 15 20 16 1 17 18 19 11 21 14 23
REMARK H PARENT 1 18 18 20 11 22 14 24
REMARK Flexibility Score: inf
ROOT
ATOM      1  C   UNL     1      24.195  -3.326 -28.274  1.00  0.00     0.401 A 
ATOM      2  O   UNL     1      24.041  -4.628 -28.508  1.00  0.00    -0.202 OA
ATOM      3  C   UNL     1      23.172  -5.111 -29.391  1.00  0.00     0.368 A 
ATOM      4  C   UNL     1      23.066  -6.493 -29.573  1.00  0.00     0.162 A 
ATOM      5  C   UNL     1      22.152  -7.014 -30.498  1.00  0.00     0.128 A 
ATOM      6  C   UNL     1      21.341  -6.149 -31.241  1.00  0.00     0.093 A 
ATOM      7  C   UNL     1      21.437  -4.760 -31.069  1.00  0.00     0.136 A 
ATOM      8  C   UNL     1      22.355  -4.236 -30.139  1.00  0.00     0.125 A 
ATOM      9  C   UNL     1      22.499  -2.860 -29.932  1.00  0.00     0.078 A 
ATOM     10  C   UNL     1      23.432  -2.391 -29.001  1.00  0.00     0.223 A 
ENDROOT
BRANCH   1  11
ATOM     11  C   UNL     1      25.190  -2.911 -27.259  1.00  0.00     0.084 A 
ATOM     12  C   UNL     1      24.951  -3.084 -25.883  1.00  0.00     0.022 A 
ATOM     13  C   UNL     1      25.915  -2.705 -24.945  1.00  0.00     0.047 A 
ATOM     14  C   UNL     1      27.133  -2.162 -25.366  1.00  0.00     0.115 A 
ATOM     15  C   UNL     1      26.424  -2.383 -27.675  1.00  0.00     0.022 A 
ATOM     16  C   UNL     1      27.386  -2.004 -26.734  1.00  0.00     0.047 A 
BRANCH  14  17
ATOM     17  O   UNL     1      28.084  -1.788 -24.419  1.00  0.00    -0.508 OA
ATOM     18  H   UNL     1      27.906  -1.876 -23.426  1.00  0.00     0.293 HD
ENDBRANCH  14  17
ENDBRANCH   1  11
BRANCH  10  19
ATOM     19  O   UNL     1      23.615  -1.020 -28.827  1.00  0.00    -0.500 OA
ATOM     20  H   UNL     1      24.492  -0.567 -29.059  1.00  0.00     0.294 HD
ENDBRANCH  10  19
BRANCH   5  21
ATOM     21  O   UNL     1      22.039  -8.389 -30.687  1.00  0.00    -0.507 OA
ATOM     22  H   UNL     1      21.832  -9.014 -29.915  1.00  0.00     0.293 HD
ENDBRANCH   5  21
BRANCH   7  23
ATOM     23  O   UNL     1      20.624  -3.907 -31.817  1.00  0.00    -0.507 OA
ATOM     24  H   UNL     1      20.455  -4.066 -32.804  1.00  0.00     0.293 HD
ENDBRANCH   7  23
TORSDOF 5
ENDMDL
MODEL 8
REMARK VINA RESULT:    -5.975      3.923      6.515
REMARK INTER + INTRA:          -6.791
REMARK INTER:                  -6.583
REMARK INTRA:                  -0.208
REMARK UNBOUND:                 0.232
REMARK SMILES Oc1ccc(-c2[o+]c3cc(O)cc(O)c3cc2O)cc1
REMARK SMILES IDX 6 1 7 2 8 3 9 4 10 5 12 6 13 7 15 8 16 9 17 10 5 11 4 12
REMARK SMILES IDX 3 13 2 14 19 15 20 16 1 17 18 19 11 21 14 23
REMARK H PARENT 1 18 18 20 11 22 14 24
REMARK Flexibility Score: inf
ROOT
ATOM      1  C   UNL     1      10.239 -16.582 -24.769  1.00  0.00     0.401 A 
ATOM      2  O   UNL     1      10.647 -15.319 -24.658  1.00  0.00    -0.202 OA
ATOM      3  C   UNL     1      10.467 -14.590 -23.560  1.00  0.00     0.368 A 
ATOM      4  C   UNL     1      10.920 -13.269 -23.525  1.00  0.00     0.162 A 
ATOM      5  C   UNL     1      10.734 -12.489 -22.376  1.00  0.00     0.128 A 
ATOM      6  C   UNL     1      10.093 -13.036 -21.259  1.00  0.00     0.093 A 
ATOM      7  C   UNL     1       9.633 -14.361 -21.280  1.00  0.00     0.136 A 
ATOM      8  C   UNL     1       9.820 -15.144 -22.435  1.00  0.00     0.125 A 
ATOM      9  C   UNL     1       9.390 -16.474 -22.509  1.00  0.00     0.078 A 
ATOM     10  C   UNL     1       9.606 -17.210 -23.677  1.00  0.00     0.223 A 
ENDROOT
BRANCH   1  11
ATOM     11  C   UNL     1      10.488 -17.288 -26.047  1.00  0.00     0.084 A 
ATOM     12  C   UNL     1      11.415 -18.343 -26.134  1.00  0.00     0.022 A 
ATOM     13  C   UNL     1      11.616 -19.009 -27.346  1.00  0.00     0.047 A 
ATOM     14  C   UNL     1      10.888 -18.640 -28.482  1.00  0.00     0.115 A 
ATOM     15  C   UNL     1       9.746 -16.937 -27.187  1.00  0.00     0.022 A 
ATOM     16  C   UNL     1       9.950 -17.604 -28.399  1.00  0.00     0.047 A 
BRANCH  14  17
ATOM     17  O   UNL     1      11.100 -19.312 -29.684  1.00  0.00    -0.508 OA
ATOM     18  H   UNL     1      10.336 -19.740 -30.193  1.00  0.00     0.293 HD
ENDBRANCH  14  17
ENDBRANCH   1  11
BRANCH  10  19
ATOM     19  O   UNL     1       9.225 -18.550 -23.740  1.00  0.00    -0.500 OA
ATOM     20  H   UNL     1       9.777 -19.280 -23.303  1.00  0.00     0.294 HD
ENDBRANCH  10  19
BRANCH   5  21
ATOM     21  O   UNL     1      11.182 -11.171 -22.331  1.00  0.00    -0.507 OA
ATOM     22  H   UNL     1      11.447 -10.732 -21.457  1.00  0.00     0.293 HD
ENDBRANCH   5  21
BRANCH   7  23
ATOM     23  O   UNL     1       8.996 -14.896 -20.159  1.00  0.00    -0.507 OA
ATOM     24  H   UNL     1       9.466 -15.549 -19.542  1.00  0.00     0.293 HD
ENDBRANCH   7  23
TORSDOF 5
ENDMDL
MODEL 9
REMARK VINA RESULT:    -5.942      4.001      6.726
REMARK INTER + INTRA:          -6.752
REMARK INTER:                  -6.817
REMARK INTRA:                   0.064
REMARK UNBOUND:                 0.232
REMARK SMILES Oc1ccc(-c2[o+]c3cc(O)cc(O)c3cc2O)cc1
REMARK SMILES IDX 6 1 7 2 8 3 9 4 10 5 12 6 13 7 15 8 16 9 17 10 5 11 4 12
REMARK SMILES IDX 3 13 2 14 19 15 20 16 1 17 18 19 11 21 14 23
REMARK H PARENT 1 18 18 20 11 22 14 24
REMARK Flexibility Score: inf
ROOT
ATOM      1  C   UNL     1      10.426 -16.534 -22.788  1.00  0.00     0.401 A 
ATOM      2  O   UNL     1      10.951 -16.456 -24.011  1.00  0.00    -0.202 OA
ATOM      3  C   UNL     1      11.033 -17.497 -24.834  1.00  0.00     0.368 A 
ATOM      4  C   UNL     1      11.604 -17.334 -26.100  1.00  0.00     0.162 A 
ATOM      5  C   UNL     1      11.700 -18.423 -26.976  1.00  0.00     0.128 A 
ATOM      6  C   UNL     1      11.223 -19.678 -26.583  1.00  0.00     0.093 A 
ATOM      7  C   UNL     1      10.648 -19.856 -25.316  1.00  0.00     0.136 A 
ATOM      8  C   UNL     1      10.552 -18.762 -24.436  1.00  0.00     0.125 A 
ATOM      9  C   UNL     1       9.980 -18.879 -23.164  1.00  0.00     0.078 A 
ATOM     10  C   UNL     1       9.902 -17.759 -22.330  1.00  0.00     0.223 A 
ENDROOT
BRANCH   1  11
ATOM     11  C   UNL     1      10.398 -15.307 -21.960  1.00  0.00     0.084 A 
ATOM     12  C   UNL     1      10.710 -15.340 -20.588  1.00  0.00     0.022 A 
ATOM     13  C   UNL     1      10.699 -14.165 -19.832  1.00  0.00     0.047 A 
ATOM     14  C   UNL     1      10.391 -12.941 -20.436  1.00  0.00     0.115 A 
ATOM     15  C   UNL     1      10.110 -14.071 -22.564  1.00  0.00     0.022 A 
ATOM     16  C   UNL     1      10.099 -12.897 -21.805  1.00  0.00     0.047 A 
BRANCH  14  17
ATOM     17  O   UNL     1      10.383 -11.778 -19.669  1.00  0.00    -0.508 OA
ATOM     18  H   UNL     1      11.231 -11.250 -19.500  1.00  0.00     0.293 HD
ENDBRANCH  14  17
ENDBRANCH   1  11
BRANCH  10  19
ATOM     19  O   UNL     1       9.288 -17.858 -21.082  1.00  0.00    -0.500 OA
ATOM     20  H   UNL     1       8.667 -17.135 -20.737  1.00  0.00     0.294 HD
ENDBRANCH  10  19
BRANCH   5  21
ATOM     21  O   UNL     1      12.267 -18.270 -28.239  1.00  0.00    -0.507 OA
ATOM     22  H   UNL     1      12.232 -19.013 -28.928  1.00  0.00     0.293 HD
ENDBRANCH   5  21
BRANCH   7  23
ATOM     23  O   UNL     1      10.174 -21.113 -24.936  1.00  0.00    -0.507 OA
ATOM     24  H   UNL     1       9.866 -21.794 -25.622  1.00  0.00     0.293 HD
ENDBRANCH   7  23
TORSDOF 5
ENDMDL
