MODEL 1
REMARK VINA RESULT:     0.335      0.000      0.000
REMARK INTER + INTRA:           0.223
REMARK INTER:                   0.491
REMARK INTRA:                  -0.268
REMARK UNBOUND:                -0.268
REMARK SMILES O=C([O-])CCCCCCCC(=O)[O-]
REMARK SMILES IDX 7 1 6 2 5 3 4 4 2 5 1 6 3 7 8 8 9 9 10 10 11 11 12 12 13 13
REMARK H PARENT
REMARK Flexibility Score: inf
ROOT
ATOM      1  C   UNL     1     100.746  95.934  10.250  1.00  0.00     0.000 C 
ENDROOT
BRANCH   1   2
ATOM      2  C   UNL     1     100.969  94.445  10.539  1.00  0.00     0.000 C 
BRANCH   2   3
ATOM      3  C   UNL     1      99.719  93.811  11.161  1.00  0.00     0.006 C 
BRANCH   3   4
ATOM      4  C   UNL     1      98.579  94.829  11.260  1.00  0.00     0.053 C 
BRANCH   4   5
ATOM      5  C   UNL     1      98.314  95.182  12.689  1.00  0.00     0.041 C 
ATOM      6  O   UNL     1      97.918  96.337  12.994  1.00  0.00    -0.550 OA
ATOM      7  O   UNL     1      98.454  94.219  13.680  1.00  0.00    -0.550 OA
ENDBRANCH   4   5
ENDBRANCH   3   4
ENDBRANCH   2   3
ENDBRANCH   1   2
BRANCH   1   8
ATOM      8  C   UNL     1     101.930  96.774  10.744  1.00  0.00     0.000 C 
BRANCH   8   9
ATOM      9  C   UNL     1     102.011  98.108   9.993  1.00  0.00     0.006 C 
BRANCH   9  10
ATOM     10  C   UNL     1     101.276  99.215  10.755  1.00  0.00     0.053 C 
BRANCH  10  11
ATOM     11  C   UNL     1     101.531 100.545  10.121  1.00  0.00     0.041 C 
ATOM     12  O   UNL     1     100.619 101.125   9.475  1.00  0.00    -0.550 OA
ATOM     13  O   UNL     1     102.791 101.124  10.202  1.00  0.00    -0.550 OA
ENDBRANCH  10  11
ENDBRANCH   9  10
ENDBRANCH   8   9
ENDBRANCH   1   8
TORSDOF 8
ENDMDL
MODEL 2
REMARK VINA RESULT:     0.487      0.114      5.875
REMARK INTER + INTRA:           0.447
REMARK INTER:                   0.701
REMARK INTRA:                  -0.254
REMARK UNBOUND:                -0.268
REMARK SMILES O=C([O-])CCCCCCCC(=O)[O-]
REMARK SMILES IDX 7 1 6 2 5 3 4 4 2 5 1 6 3 7 8 8 9 9 10 10 11 11 12 12 13 13
REMARK H PARENT
REMARK Flexibility Score: inf
ROOT
ATOM      1  C   UNL     1     100.800  96.052  10.382  1.00  0.00     0.000 C 
ENDROOT
BRANCH   1   2
ATOM      2  C   UNL     1     102.103  96.782  10.728  1.00  0.00     0.000 C 
BRANCH   2   3
ATOM      3  C   UNL     1     102.189  98.130  10.003  1.00  0.00     0.006 C 
BRANCH   3   4
ATOM      4  C   UNL     1     101.246  99.156  10.637  1.00  0.00     0.053 C 
BRANCH   4   5
ATOM      5  C   UNL     1     101.475 100.512  10.049  1.00  0.00     0.041 C 
ATOM      6  O   UNL     1     100.532 101.125   9.483  1.00  0.00    -0.550 OA
ATOM      7  O   UNL     1     102.716 101.122  10.171  1.00  0.00    -0.550 OA
ENDBRANCH   4   5
ENDBRANCH   3   4
ENDBRANCH   2   3
ENDBRANCH   1   2
BRANCH   1   8
ATOM      8  C   UNL     1     100.983  94.532  10.457  1.00  0.00     0.000 C 
BRANCH   8   9
ATOM      9  C   UNL     1      99.780  93.865  11.135  1.00  0.00     0.006 C 
BRANCH   9  10
ATOM     10  C   UNL     1      98.592  94.827  11.220  1.00  0.00     0.053 C 
BRANCH  10  11
ATOM     11  C   UNL     1      98.288  95.161  12.646  1.00  0.00     0.041 C 
ATOM     12  O   UNL     1      97.940  96.328  12.963  1.00  0.00    -0.550 OA
ATOM     13  O   UNL     1      98.438  94.195  13.633  1.00  0.00    -0.550 OA
ENDBRANCH  10  11
ENDBRANCH   9  10
ENDBRANCH   8   9
ENDBRANCH   1   8
TORSDOF 8
ENDMDL
MODEL 3
REMARK VINA RESULT:     1.602     18.699     22.024
REMARK INTER + INTRA:           2.084
REMARK INTER:                   1.687
REMARK INTRA:                   0.397
REMARK UNBOUND:                -0.268
REMARK SMILES O=C([O-])CCCCCCCC(=O)[O-]
REMARK SMILES IDX 7 1 6 2 5 3 4 4 2 5 1 6 3 7 8 8 9 9 10 10 11 11 12 12 13 13
REMARK H PARENT
REMARK Flexibility Score: inf
ROOT
ATOM      1  C   UNL     1      87.601  81.733  18.294  1.00  0.00     0.000 C 
ENDROOT
BRANCH   1   2
ATOM      2  C   UNL     1      88.748  80.875  18.843  1.00  0.00     0.000 C 
BRANCH   2   3
ATOM      3  C   UNL     1      90.045  81.687  18.940  1.00  0.00     0.006 C 
BRANCH   3   4
ATOM      4  C   UNL     1      89.953  82.739  20.050  1.00  0.00     0.053 C 
BRANCH   4   5
ATOM      5  C   UNL     1      89.632  84.081  19.473  1.00  0.00     0.041 C 
ATOM      6  O   UNL     1      88.435  84.457  19.369  1.00  0.00    -0.550 OA
ATOM      7  O   UNL     1      90.657  84.940  19.099  1.00  0.00    -0.550 OA
ENDBRANCH   4   5
ENDBRANCH   3   4
ENDBRANCH   2   3
ENDBRANCH   1   2
BRANCH   1   8
ATOM      8  C   UNL     1      86.264  80.990  18.388  1.00  0.00     0.000 C 
BRANCH   8   9
ATOM      9  C   UNL     1      85.789  80.892  19.842  1.00  0.00     0.006 C 
BRANCH   9  10
ATOM     10  C   UNL     1      84.668  81.897  20.124  1.00  0.00     0.053 C 
BRANCH  10  11
ATOM     11  C   UNL     1      83.717  81.957  18.971  1.00  0.00     0.041 C 
ATOM     12  O   UNL     1      83.327  80.897  18.414  1.00  0.00    -0.550 OA
ATOM     13  O   UNL     1      83.299  83.187  18.477  1.00  0.00    -0.550 OA
ENDBRANCH  10  11
ENDBRANCH   9  10
ENDBRANCH   8   9
ENDBRANCH   1   8
TORSDOF 8
ENDMDL
MODEL 4
REMARK VINA RESULT:     2.952      1.776      6.110
REMARK INTER + INTRA:           4.066
REMARK INTER:                   4.166
REMARK INTRA:                  -0.100
REMARK UNBOUND:                -0.268
REMARK SMILES O=C([O-])CCCCCCCC(=O)[O-]
REMARK SMILES IDX 7 1 6 2 5 3 4 4 2 5 1 6 3 7 8 8 9 9 10 10 11 11 12 12 13 13
REMARK H PARENT
REMARK Flexibility Score: inf
ROOT
ATOM      1  C   UNL     1      99.459  98.096  10.750  1.00  0.00     0.000 C 
ENDROOT
BRANCH   1   2
ATOM      2  C   UNL     1     100.712  97.346  10.284  1.00  0.00     0.000 C 
BRANCH   2   3
ATOM      3  C   UNL     1     101.965  98.217  10.437  1.00  0.00     0.006 C 
BRANCH   3   4
ATOM      4  C   UNL     1     101.616  99.579  11.044  1.00  0.00     0.053 C 
BRANCH   4   5
ATOM      5  C   UNL     1     101.767 100.662  10.024  1.00  0.00     0.041 C 
ATOM      6  O   UNL     1     102.907 101.124   9.755  1.00  0.00    -0.550 OA
ATOM      7  O   UNL     1     100.655 101.125   9.332  1.00  0.00    -0.550 OA
ENDBRANCH   4   5
ENDBRANCH   3   4
ENDBRANCH   2   3
ENDBRANCH   1   2
BRANCH   1   8
ATOM      8  C   UNL     1      98.514  97.165  11.520  1.00  0.00     0.000 C 
BRANCH   8   9
ATOM      9  C   UNL     1      98.367  95.817  10.804  1.00  0.00     0.006 C 
BRANCH   9  10
ATOM     10  C   UNL     1      98.740  94.657  11.733  1.00  0.00     0.053 C 
BRANCH  10  11
ATOM     11  C   UNL     1      99.808  93.813  11.114  1.00  0.00     0.041 C 
ATOM     12  O   UNL     1      99.693  92.559  11.094  1.00  0.00    -0.550 OA
ATOM     13  O   UNL     1     100.954  94.407  10.602  1.00  0.00    -0.550 OA
ENDBRANCH  10  11
ENDBRANCH   9  10
ENDBRANCH   8   9
ENDBRANCH   1   8
TORSDOF 8
ENDMDL
MODEL 5
REMARK VINA RESULT:     3.121      1.050      1.726
REMARK INTER + INTRA:           4.313
REMARK INTER:                   3.829
REMARK INTRA:                   0.483
REMARK UNBOUND:                -0.268
REMARK SMILES O=C([O-])CCCCCCCC(=O)[O-]
REMARK SMILES IDX 7 1 6 2 5 3 4 4 2 5 1 6 3 7 8 8 9 9 10 10 11 11 12 12 13 13
REMARK H PARENT
REMARK Flexibility Score: inf
ROOT
ATOM      1  C   UNL     1      99.414  97.009  10.399  1.00  0.00     0.000 C 
ENDROOT
BRANCH   1   2
ATOM      2  C   UNL     1      98.603  95.732  10.651  1.00  0.00     0.000 C 
BRANCH   2   3
ATOM      3  C   UNL     1      99.526  94.533  10.897  1.00  0.00     0.006 C 
BRANCH   3   4
ATOM      4  C   UNL     1      98.867  93.516  11.833  1.00  0.00     0.053 C 
BRANCH   4   5
ATOM      5  C   UNL     1      98.515  94.157  13.138  1.00  0.00     0.041 C 
ATOM      6  O   UNL     1      98.397  93.456  14.177  1.00  0.00    -0.550 OA
ATOM      7  O   UNL     1      98.367  95.535  13.217  1.00  0.00    -0.550 OA
ENDBRANCH   4   5
ENDBRANCH   3   4
ENDBRANCH   2   3
ENDBRANCH   1   2
BRANCH   1   8
ATOM      8  C   UNL     1     100.904  96.777  10.673  1.00  0.00     0.000 C 
BRANCH   8   9
ATOM      9  C   UNL     1     101.766  97.812   9.941  1.00  0.00     0.006 C 
BRANCH   9  10
ATOM     10  C   UNL     1     102.036  99.031  10.828  1.00  0.00     0.053 C 
BRANCH  10  11
ATOM     11  C   UNL     1     101.290 100.224  10.321  1.00  0.00     0.041 C 
ATOM     12  O   UNL     1     101.892 101.121   9.673  1.00  0.00    -0.550 OA
ATOM     13  O   UNL     1      99.938 100.372  10.605  1.00  0.00    -0.550 OA
ENDBRANCH  10  11
ENDBRANCH   9  10
ENDBRANCH   8   9
ENDBRANCH   1   8
TORSDOF 8
ENDMDL
