MODEL 1
REMARK VINA RESULT:    -4.523      0.000      0.000
REMARK INTER + INTRA:          -7.809
REMARK INTER:                  -7.036
REMARK INTRA:                  -0.774
REMARK UNBOUND:                -0.774
REMARK SMILES COc1cc(CNC(=O)CCCCC=CC(C)C)ccc1O
REMARK SMILES IDX 11 1 12 2 13 3 14 4 15 5 16 6 17 7 18 8 10 9 8 10 9 11 7 12
REMARK SMILES IDX 6 14 5 15 4 16 19 17 3 18 20 19 21 20 2 21 1 22 22 23
REMARK H PARENT 7 13 22 24
REMARK Flexibility Score: inf
ROOT
ATOM      1  C   UNL     1       2.300  -4.354  66.455  1.00  0.00     0.010 C 
ENDROOT
BRANCH   1   2
ATOM      2  C   UNL     1       1.338  -3.397  67.168  1.00  0.00     0.005 C 
BRANCH   2   3
ATOM      3  C   UNL     1       0.631  -2.482  66.158  1.00  0.00     0.027 C 
BRANCH   3   4
ATOM      4  C   UNL     1      -0.826  -2.830  66.040  1.00  0.00    -0.031 C 
ATOM      5  C   UNL     1      -1.249  -4.106  66.117  1.00  0.00    -0.028 C 
BRANCH   5   6
ATOM      6  C   UNL     1      -2.705  -4.491  65.988  1.00  0.00     0.005 C 
ATOM      7  C   UNL     1      -3.391  -4.547  67.359  1.00  0.00     0.012 C 
ATOM      8  C   UNL     1      -3.452  -3.555  65.030  1.00  0.00     0.012 C 
ENDBRANCH   5   6
ENDBRANCH   3   4
ENDBRANCH   2   3
ENDBRANCH   1   2
BRANCH   1   9
ATOM      9  C   UNL     1       3.118  -3.623  65.388  1.00  0.00     0.100 C 
BRANCH   9  10
ATOM     10  C   UNL     1       4.488  -3.303  65.907  1.00  0.00     0.220 C 
ATOM     11  O   UNL     1       5.147  -2.370  65.378  1.00  0.00    -0.275 OA
ATOM     12  N   UNL     1       5.060  -4.084  66.966  1.00  0.00    -0.352 N 
ATOM     13  H   UNL     1       4.505  -4.871  67.378  1.00  0.00     0.163 HD
BRANCH  12  14
ATOM     14  C   UNL     1       6.418  -3.865  67.462  1.00  0.00     0.151 C 
BRANCH  14  15
ATOM     15  C   UNL     1       7.202  -5.152  67.441  1.00  0.00    -0.025 A 
ATOM     16  C   UNL     1       8.502  -5.192  67.969  1.00  0.00     0.056 A 
ATOM     17  C   UNL     1       6.653  -6.312  66.875  1.00  0.00     0.009 A 
ATOM     18  C   UNL     1       9.259  -6.383  67.926  1.00  0.00     0.160 A 
ATOM     19  C   UNL     1       7.395  -7.494  66.828  1.00  0.00     0.050 A 
ATOM     20  C   UNL     1       8.694  -7.536  67.346  1.00  0.00     0.157 A 
BRANCH  18  21
ATOM     21  O   UNL     1      10.562  -6.455  68.443  1.00  0.00    -0.493 OA
ATOM     22  C   UNL     1      11.650  -5.643  68.007  1.00  0.00     0.278 C 
ENDBRANCH  18  21
BRANCH  20  23
ATOM     23  O   UNL     1       9.408  -8.731  67.273  1.00  0.00    -0.504 OA
ATOM     24  H   UNL     1      10.417  -8.754  67.190  1.00  0.00     0.293 HD
ENDBRANCH  20  23
ENDBRANCH  14  15
ENDBRANCH  12  14
ENDBRANCH   9  10
ENDBRANCH   1   9
TORSDOF 10
ENDMDL
MODEL 2
REMARK VINA RESULT:    -4.477      1.337      1.561
REMARK INTER + INTRA:          -7.737
REMARK INTER:                  -7.043
REMARK INTRA:                  -0.694
REMARK UNBOUND:                -0.774
REMARK SMILES COc1cc(CNC(=O)CCCCC=CC(C)C)ccc1O
REMARK SMILES IDX 11 1 12 2 13 3 14 4 15 5 16 6 17 7 18 8 10 9 8 10 9 11 7 12
REMARK SMILES IDX 6 14 5 15 4 16 19 17 3 18 20 19 21 20 2 21 1 22 22 23
REMARK H PARENT 7 13 22 24
REMARK Flexibility Score: inf
ROOT
ATOM      1  C   UNL     1       2.151  -2.914  65.871  1.00  0.00     0.010 C 
ENDROOT
BRANCH   1   2
ATOM      2  C   UNL     1       0.850  -2.221  66.294  1.00  0.00     0.005 C 
BRANCH   2   3
ATOM      3  C   UNL     1      -0.184  -3.249  66.775  1.00  0.00     0.027 C 
BRANCH   3   4
ATOM      4  C   UNL     1      -1.481  -3.101  66.028  1.00  0.00    -0.031 C 
ATOM      5  C   UNL     1      -2.043  -4.143  65.388  1.00  0.00    -0.028 C 
BRANCH   5   6
ATOM      6  C   UNL     1      -3.337  -4.025  64.616  1.00  0.00     0.005 C 
ATOM      7  C   UNL     1      -4.053  -2.704  64.928  1.00  0.00     0.012 C 
ATOM      8  C   UNL     1      -3.110  -4.192  63.109  1.00  0.00     0.012 C 
ENDBRANCH   5   6
ENDBRANCH   3   4
ENDBRANCH   2   3
ENDBRANCH   1   2
BRANCH   1   9
ATOM      9  C   UNL     1       2.261  -4.309  66.491  1.00  0.00     0.100 C 
BRANCH   9  10
ATOM     10  C   UNL     1       3.392  -4.358  67.474  1.00  0.00     0.220 C 
ATOM     11  O   UNL     1       3.146  -4.568  68.690  1.00  0.00    -0.275 OA
ATOM     12  N   UNL     1       4.738  -4.120  67.038  1.00  0.00    -0.352 N 
ATOM     13  H   UNL     1       4.920  -3.924  66.025  1.00  0.00     0.163 HD
BRANCH  12  14
ATOM     14  C   UNL     1       5.871  -4.082  67.961  1.00  0.00     0.151 C 
BRANCH  14  15
ATOM     15  C   UNL     1       6.761  -5.281  67.756  1.00  0.00    -0.025 A 
ATOM     16  C   UNL     1       8.070  -5.280  68.262  1.00  0.00     0.056 A 
ATOM     17  C   UNL     1       6.301  -6.396  67.039  1.00  0.00     0.009 A 
ATOM     18  C   UNL     1       8.924  -6.383  68.048  1.00  0.00     0.160 A 
ATOM     19  C   UNL     1       7.140  -7.491  66.823  1.00  0.00     0.050 A 
ATOM     20  C   UNL     1       8.447  -7.490  67.319  1.00  0.00     0.157 A 
BRANCH  18  21
ATOM     21  O   UNL     1      10.239  -6.412  68.538  1.00  0.00    -0.493 OA
ATOM     22  C   UNL     1      11.298  -5.587  68.059  1.00  0.00     0.278 C 
ENDBRANCH  18  21
BRANCH  20  23
ATOM     23  O   UNL     1       9.259  -8.597  67.074  1.00  0.00    -0.504 OA
ATOM     24  H   UNL     1      10.081  -8.546  66.484  1.00  0.00     0.293 HD
ENDBRANCH  20  23
ENDBRANCH  14  15
ENDBRANCH  12  14
ENDBRANCH   9  10
ENDBRANCH   1   9
TORSDOF 10
ENDMDL
MODEL 3
REMARK VINA RESULT:    -4.362      1.695      2.505
REMARK INTER + INTRA:          -7.559
REMARK INTER:                  -6.823
REMARK INTRA:                  -0.736
REMARK UNBOUND:                -0.774
REMARK SMILES COc1cc(CNC(=O)CCCCC=CC(C)C)ccc1O
REMARK SMILES IDX 11 1 12 2 13 3 14 4 15 5 16 6 17 7 18 8 10 9 8 10 9 11 7 12
REMARK SMILES IDX 6 14 5 15 4 16 19 17 3 18 20 19 21 20 2 21 1 22 22 23
REMARK H PARENT 7 13 22 24
REMARK Flexibility Score: inf
ROOT
ATOM      1  C   UNL     1       2.111  -4.516  66.293  1.00  0.00     0.010 C 
ENDROOT
BRANCH   1   2
ATOM      2  C   UNL     1       1.972  -2.995  66.162  1.00  0.00     0.005 C 
BRANCH   2   3
ATOM      3  C   UNL     1       0.903  -2.460  67.126  1.00  0.00     0.027 C 
BRANCH   3   4
ATOM      4  C   UNL     1      -0.406  -3.173  66.931  1.00  0.00    -0.031 C 
ATOM      5  C   UNL     1      -1.193  -2.914  65.871  1.00  0.00    -0.028 C 
BRANCH   5   6
ATOM      6  C   UNL     1      -2.521  -3.603  65.653  1.00  0.00     0.005 C 
ATOM      7  C   UNL     1      -2.804  -3.810  64.160  1.00  0.00     0.012 C 
ATOM      8  C   UNL     1      -2.601  -4.926  66.424  1.00  0.00     0.012 C 
ENDBRANCH   5   6
ENDBRANCH   3   4
ENDBRANCH   2   3
ENDBRANCH   1   2
BRANCH   1   9
ATOM      9  C   UNL     1       3.212  -4.887  67.290  1.00  0.00     0.100 C 
BRANCH   9  10
ATOM     10  C   UNL     1       4.340  -5.582  66.589  1.00  0.00     0.220 C 
ATOM     11  O   UNL     1       4.366  -5.605  65.331  1.00  0.00    -0.275 OA
ATOM     12  N   UNL     1       5.355  -6.256  67.347  1.00  0.00    -0.352 N 
ATOM     13  H   UNL     1       5.303  -6.245  68.393  1.00  0.00     0.163 HD
BRANCH  12  14
ATOM     14  C   UNL     1       6.437  -7.011  66.718  1.00  0.00     0.151 C 
BRANCH  14  15
ATOM     15  C   UNL     1       7.778  -6.506  67.187  1.00  0.00    -0.025 A 
ATOM     16  C   UNL     1       8.053  -5.130  67.178  1.00  0.00     0.056 A 
ATOM     17  C   UNL     1       8.768  -7.404  67.613  1.00  0.00     0.009 A 
ATOM     18  C   UNL     1       9.316  -4.647  67.585  1.00  0.00     0.160 A 
ATOM     19  C   UNL     1      10.019  -6.934  68.017  1.00  0.00     0.050 A 
ATOM     20  C   UNL     1      10.300  -5.564  68.002  1.00  0.00     0.157 A 
BRANCH  18  21
ATOM     21  O   UNL     1       9.624  -3.278  67.584  1.00  0.00    -0.493 OA
ATOM     22  C   UNL     1       8.844  -2.274  66.937  1.00  0.00     0.278 C 
ENDBRANCH  18  21
BRANCH  20  23
ATOM     23  O   UNL     1      11.565  -5.133  68.401  1.00  0.00    -0.504 OA
ATOM     24  H   UNL     1      11.775  -4.887  69.361  1.00  0.00     0.293 HD
ENDBRANCH  20  23
ENDBRANCH  14  15
ENDBRANCH  12  14
ENDBRANCH   9  10
ENDBRANCH   1   9
TORSDOF 10
ENDMDL
MODEL 4
REMARK VINA RESULT:    -4.361      3.358      9.969
REMARK INTER + INTRA:          -7.557
REMARK INTER:                  -6.852
REMARK INTRA:                  -0.705
REMARK UNBOUND:                -0.774
REMARK SMILES COc1cc(CNC(=O)CCCCC=CC(C)C)ccc1O
REMARK SMILES IDX 11 1 12 2 13 3 14 4 15 5 16 6 17 7 18 8 10 9 8 10 9 11 7 12
REMARK SMILES IDX 6 14 5 15 4 16 19 17 3 18 20 19 21 20 2 21 1 22 22 23
REMARK H PARENT 7 13 22 24
REMARK Flexibility Score: inf
ROOT
ATOM      1  C   UNL     1       4.427  -5.655  66.691  1.00  0.00     0.010 C 
ENDROOT
BRANCH   1   2
ATOM      2  C   UNL     1       3.816  -6.082  68.032  1.00  0.00     0.005 C 
BRANCH   2   3
ATOM      3  C   UNL     1       4.907  -6.558  69.001  1.00  0.00     0.027 C 
BRANCH   3   4
ATOM      4  C   UNL     1       6.189  -6.849  68.271  1.00  0.00    -0.031 C 
ATOM      5  C   UNL     1       7.382  -6.758  68.889  1.00  0.00    -0.028 C 
BRANCH   5   6
ATOM      6  C   UNL     1       8.689  -7.030  68.180  1.00  0.00     0.005 C 
ATOM      7  C   UNL     1       8.455  -7.620  66.784  1.00  0.00     0.012 C 
ATOM      8  C   UNL     1       9.564  -5.772  68.113  1.00  0.00     0.012 C 
ENDBRANCH   5   6
ENDBRANCH   3   4
ENDBRANCH   2   3
ENDBRANCH   1   2
BRANCH   1   9
ATOM      9  C   UNL     1       3.350  -5.146  65.730  1.00  0.00     0.100 C 
BRANCH   9  10
ATOM     10  C   UNL     1       2.753  -3.870  66.242  1.00  0.00     0.220 C 
ATOM     11  O   UNL     1       3.486  -2.856  66.380  1.00  0.00    -0.275 OA
ATOM     12  N   UNL     1       1.368  -3.818  66.614  1.00  0.00    -0.352 N 
ATOM     13  H   UNL     1       0.780  -4.679  66.514  1.00  0.00     0.163 HD
BRANCH  12  14
ATOM     14  C   UNL     1       0.750  -2.624  67.187  1.00  0.00     0.151 C 
BRANCH  14  15
ATOM     15  C   UNL     1      -0.751  -2.701  67.077  1.00  0.00    -0.025 A 
ATOM     16  C   UNL     1      -1.357  -2.848  65.819  1.00  0.00     0.056 A 
ATOM     17  C   UNL     1      -1.556  -2.602  68.222  1.00  0.00     0.009 A 
ATOM     18  C   UNL     1      -2.763  -2.889  65.700  1.00  0.00     0.160 A 
ATOM     19  C   UNL     1      -2.947  -2.641  68.112  1.00  0.00     0.050 A 
ATOM     20  C   UNL     1      -3.555  -2.780  66.860  1.00  0.00     0.157 A 
BRANCH  18  21
ATOM     21  O   UNL     1      -3.400  -3.032  64.458  1.00  0.00    -0.493 OA
ATOM     22  C   UNL     1      -3.118  -4.068  63.520  1.00  0.00     0.278 C 
ENDBRANCH  18  21
BRANCH  20  23
ATOM     23  O   UNL     1      -4.948  -2.804  66.789  1.00  0.00    -0.504 OA
ATOM     24  H   UNL     1      -5.517  -3.287  67.473  1.00  0.00     0.293 HD
ENDBRANCH  20  23
ENDBRANCH  14  15
ENDBRANCH  12  14
ENDBRANCH   9  10
ENDBRANCH   1   9
TORSDOF 10
ENDMDL
MODEL 5
REMARK VINA RESULT:    -4.173      3.086      9.963
REMARK INTER + INTRA:          -7.264
REMARK INTER:                  -6.560
REMARK INTRA:                  -0.704
REMARK UNBOUND:                -0.774
REMARK SMILES COc1cc(CNC(=O)CCCCC=CC(C)C)ccc1O
REMARK SMILES IDX 11 1 12 2 13 3 14 4 15 5 16 6 17 7 18 8 10 9 8 10 9 11 7 12
REMARK SMILES IDX 6 14 5 15 4 16 19 17 3 18 20 19 21 20 2 21 1 22 22 23
REMARK H PARENT 7 13 22 24
REMARK Flexibility Score: inf
ROOT
ATOM      1  C   UNL     1       5.500  -5.756  67.471  1.00  0.00     0.010 C 
ENDROOT
BRANCH   1   2
ATOM      2  C   UNL     1       5.997  -6.738  66.404  1.00  0.00     0.005 C 
BRANCH   2   3
ATOM      3  C   UNL     1       7.262  -7.466  66.881  1.00  0.00     0.027 C 
BRANCH   3   4
ATOM      4  C   UNL     1       8.118  -6.565  67.727  1.00  0.00    -0.031 C 
ATOM      5  C   UNL     1       9.462  -6.618  67.667  1.00  0.00    -0.028 C 
BRANCH   5   6
ATOM      6  C   UNL     1      10.351  -5.737  68.515  1.00  0.00     0.005 C 
ATOM      7  C   UNL     1      11.825  -5.880  68.112  1.00  0.00     0.012 C 
ATOM      8  C   UNL     1       9.901  -4.272  68.467  1.00  0.00     0.012 C 
ENDBRANCH   5   6
ENDBRANCH   3   4
ENDBRANCH   2   3
ENDBRANCH   1   2
BRANCH   1   9
ATOM      9  C   UNL     1       4.035  -6.020  67.826  1.00  0.00     0.100 C 
BRANCH   9  10
ATOM     10  C   UNL     1       3.141  -5.049  67.115  1.00  0.00     0.220 C 
ATOM     11  O   UNL     1       2.875  -5.230  65.898  1.00  0.00    -0.275 OA
ATOM     12  N   UNL     1       2.631  -3.898  67.804  1.00  0.00    -0.352 N 
ATOM     13  H   UNL     1       2.883  -3.752  68.810  1.00  0.00     0.163 HD
BRANCH  12  14
ATOM     14  C   UNL     1       1.816  -2.881  67.142  1.00  0.00     0.151 C 
BRANCH  14  15
ATOM     15  C   UNL     1       0.350  -3.159  67.352  1.00  0.00    -0.025 A 
ATOM     16  C   UNL     1      -0.417  -3.713  66.315  1.00  0.00     0.056 A 
ATOM     17  C   UNL     1      -0.267  -2.846  68.573  1.00  0.00     0.009 A 
ATOM     18  C   UNL     1      -1.798  -3.948  66.489  1.00  0.00     0.160 A 
ATOM     19  C   UNL     1      -1.633  -3.076  68.753  1.00  0.00     0.050 A 
ATOM     20  C   UNL     1      -2.401  -3.620  67.719  1.00  0.00     0.157 A 
BRANCH  18  21
ATOM     21  O   UNL     1      -2.593  -4.497  65.470  1.00  0.00    -0.493 OA
ATOM     22  C   UNL     1      -2.856  -3.863  64.221  1.00  0.00     0.278 C 
ENDBRANCH  18  21
BRANCH  20  23
ATOM     23  O   UNL     1      -3.765  -3.825  67.931  1.00  0.00    -0.504 OA
ATOM     24  H   UNL     1      -4.170  -3.850  68.858  1.00  0.00     0.293 HD
ENDBRANCH  20  23
ENDBRANCH  14  15
ENDBRANCH  12  14
ENDBRANCH   9  10
ENDBRANCH   1   9
TORSDOF 10
ENDMDL
MODEL 6
REMARK VINA RESULT:    -4.031      3.600      9.794
REMARK INTER + INTRA:          -7.043
REMARK INTER:                  -6.343
REMARK INTRA:                  -0.701
REMARK UNBOUND:                -0.774
REMARK SMILES COc1cc(CNC(=O)CCCCC=CC(C)C)ccc1O
REMARK SMILES IDX 11 1 12 2 13 3 14 4 15 5 16 6 17 7 18 8 10 9 8 10 9 11 7 12
REMARK SMILES IDX 6 14 5 15 4 16 19 17 3 18 20 19 21 20 2 21 1 22 22 23
REMARK H PARENT 7 13 22 24
REMARK Flexibility Score: inf
ROOT
ATOM      1  C   UNL     1       3.312  -3.011  65.010  1.00  0.00     0.010 C 
ENDROOT
BRANCH   1   2
ATOM      2  C   UNL     1       4.742  -3.137  65.548  1.00  0.00     0.005 C 
BRANCH   2   3
ATOM      3  C   UNL     1       4.763  -3.009  67.078  1.00  0.00     0.027 C 
BRANCH   3   4
ATOM      4  C   UNL     1       5.320  -4.251  67.717  1.00  0.00    -0.031 C 
ATOM      5  C   UNL     1       5.910  -5.212  66.981  1.00  0.00    -0.028 C 
BRANCH   5   6
ATOM      6  C   UNL     1       6.467  -6.478  67.589  1.00  0.00     0.005 C 
ATOM      7  C   UNL     1       5.470  -7.113  68.567  1.00  0.00     0.012 C 
ATOM      8  C   UNL     1       6.900  -7.477  66.510  1.00  0.00     0.012 C 
ENDBRANCH   5   6
ENDBRANCH   3   4
ENDBRANCH   2   3
ENDBRANCH   1   2
BRANCH   1   9
ATOM      9  C   UNL     1       2.460  -2.114  65.911  1.00  0.00     0.100 C 
BRANCH   9  10
ATOM     10  C   UNL     1       1.383  -2.915  66.579  1.00  0.00     0.220 C 
ATOM     11  O   UNL     1       1.443  -4.172  66.556  1.00  0.00    -0.275 OA
ATOM     12  N   UNL     1       0.269  -2.254  67.196  1.00  0.00    -0.352 N 
ATOM     13  H   UNL     1       0.225  -1.208  67.184  1.00  0.00     0.163 HD
BRANCH  12  14
ATOM     14  C   UNL     1      -0.846  -2.984  67.797  1.00  0.00     0.151 C 
BRANCH  14  15
ATOM     15  C   UNL     1      -2.034  -2.993  66.870  1.00  0.00    -0.025 A 
ATOM     16  C   UNL     1      -2.022  -3.796  65.719  1.00  0.00     0.056 A 
ATOM     17  C   UNL     1      -3.149  -2.183  67.133  1.00  0.00     0.009 A 
ATOM     18  C   UNL     1      -3.115  -3.788  64.826  1.00  0.00     0.160 A 
ATOM     19  C   UNL     1      -4.234  -2.170  66.254  1.00  0.00     0.050 A 
ATOM     20  C   UNL     1      -4.223  -2.963  65.102  1.00  0.00     0.157 A 
BRANCH  18  21
ATOM     21  O   UNL     1      -3.133  -4.578  63.665  1.00  0.00    -0.493 OA
ATOM     22  C   UNL     1      -2.776  -4.111  62.366  1.00  0.00     0.278 C 
ENDBRANCH  18  21
BRANCH  20  23
ATOM     23  O   UNL     1      -5.320  -2.915  64.242  1.00  0.00    -0.504 OA
ATOM     24  H   UNL     1      -6.260  -2.741  64.574  1.00  0.00     0.293 HD
ENDBRANCH  20  23
ENDBRANCH  14  15
ENDBRANCH  12  14
ENDBRANCH   9  10
ENDBRANCH   1   9
TORSDOF 10
ENDMDL
MODEL 7
REMARK VINA RESULT:    -3.820      3.503     10.001
REMARK INTER + INTRA:          -6.715
REMARK INTER:                  -5.878
REMARK INTRA:                  -0.837
REMARK UNBOUND:                -0.774
REMARK SMILES COc1cc(CNC(=O)CCCCC=CC(C)C)ccc1O
REMARK SMILES IDX 11 1 12 2 13 3 14 4 15 5 16 6 17 7 18 8 10 9 8 10 9 11 7 12
REMARK SMILES IDX 6 14 5 15 4 16 19 17 3 18 20 19 21 20 2 21 1 22 22 23
REMARK H PARENT 7 13 22 24
REMARK Flexibility Score: inf
ROOT
ATOM      1  C   UNL     1       4.479  -3.684  65.431  1.00  0.00     0.010 C 
ENDROOT
BRANCH   1   2
ATOM      2  C   UNL     1       5.427  -2.838  66.289  1.00  0.00     0.005 C 
BRANCH   2   3
ATOM      3  C   UNL     1       5.594  -3.453  67.686  1.00  0.00     0.027 C 
BRANCH   3   4
ATOM      4  C   UNL     1       5.855  -4.931  67.598  1.00  0.00    -0.031 C 
ATOM      5  C   UNL     1       7.088  -5.410  67.349  1.00  0.00    -0.028 C 
BRANCH   5   6
ATOM      6  C   UNL     1       7.382  -6.889  67.239  1.00  0.00     0.005 C 
ATOM      7  C   UNL     1       6.722  -7.498  65.995  1.00  0.00     0.012 C 
ATOM      8  C   UNL     1       8.890  -7.166  67.260  1.00  0.00     0.012 C 
ENDBRANCH   5   6
ENDBRANCH   3   4
ENDBRANCH   2   3
ENDBRANCH   1   2
BRANCH   1   9
ATOM      9  C   UNL     1       3.150  -2.961  65.199  1.00  0.00     0.100 C 
BRANCH   9  10
ATOM     10  C   UNL     1       2.150  -3.357  66.242  1.00  0.00     0.220 C 
ATOM     11  O   UNL     1       2.137  -4.542  66.669  1.00  0.00    -0.275 OA
ATOM     12  N   UNL     1       1.185  -2.406  66.716  1.00  0.00    -0.352 N 
ATOM     13  H   UNL     1       1.197  -1.432  66.331  1.00  0.00     0.163 HD
BRANCH  12  14
ATOM     14  C   UNL     1       0.141  -2.755  67.677  1.00  0.00     0.151 C 
BRANCH  14  15
ATOM     15  C   UNL     1      -1.219  -2.688  67.029  1.00  0.00    -0.025 A 
ATOM     16  C   UNL     1      -2.376  -2.866  67.803  1.00  0.00     0.056 A 
ATOM     17  C   UNL     1      -1.340  -2.471  65.648  1.00  0.00     0.009 A 
ATOM     18  C   UNL     1      -3.653  -2.836  67.202  1.00  0.00     0.160 A 
ATOM     19  C   UNL     1      -2.599  -2.441  65.046  1.00  0.00     0.050 A 
ATOM     20  C   UNL     1      -3.755  -2.625  65.812  1.00  0.00     0.157 A 
BRANCH  18  21
ATOM     21  O   UNL     1      -4.830  -3.014  67.947  1.00  0.00    -0.493 OA
ATOM     22  C   UNL     1      -5.072  -4.111  68.825  1.00  0.00     0.278 C 
ENDBRANCH  18  21
BRANCH  20  23
ATOM     23  O   UNL     1      -4.995  -2.600  65.175  1.00  0.00    -0.504 OA
ATOM     24  H   UNL     1      -5.745  -1.989  65.475  1.00  0.00     0.293 HD
ENDBRANCH  20  23
ENDBRANCH  14  15
ENDBRANCH  12  14
ENDBRANCH   9  10
ENDBRANCH   1   9
TORSDOF 10
ENDMDL
MODEL 8
REMARK VINA RESULT:    -3.809      1.189      2.314
REMARK INTER + INTRA:          -6.698
REMARK INTER:                  -6.017
REMARK INTRA:                  -0.681
REMARK UNBOUND:                -0.774
REMARK SMILES COc1cc(CNC(=O)CCCCC=CC(C)C)ccc1O
REMARK SMILES IDX 11 1 12 2 13 3 14 4 15 5 16 6 17 7 18 8 10 9 8 10 9 11 7 12
REMARK SMILES IDX 6 14 5 15 4 16 19 17 3 18 20 19 21 20 2 21 1 22 22 23
REMARK H PARENT 7 13 22 24
REMARK Flexibility Score: inf
ROOT
ATOM      1  C   UNL     1       2.974  -4.301  66.185  1.00  0.00     0.010 C 
ENDROOT
BRANCH   1   2
ATOM      2  C   UNL     1       1.691  -3.844  66.889  1.00  0.00     0.005 C 
BRANCH   2   3
ATOM      3  C   UNL     1       1.126  -2.579  66.227  1.00  0.00     0.027 C 
BRANCH   3   4
ATOM      4  C   UNL     1      -0.376  -2.614  66.188  1.00  0.00    -0.031 C 
ATOM      5  C   UNL     1      -1.049  -3.780  66.173  1.00  0.00    -0.028 C 
BRANCH   5   6
ATOM      6  C   UNL     1      -2.558  -3.850  66.118  1.00  0.00     0.005 C 
ATOM      7  C   UNL     1      -3.053  -4.089  64.685  1.00  0.00     0.012 C 
ATOM      8  C   UNL     1      -3.106  -4.910  67.080  1.00  0.00     0.012 C 
ENDBRANCH   5   6
ENDBRANCH   3   4
ENDBRANCH   2   3
ENDBRANCH   1   2
BRANCH   1   9
ATOM      9  C   UNL     1       3.842  -3.105  65.786  1.00  0.00     0.100 C 
BRANCH   9  10
ATOM     10  C   UNL     1       4.895  -2.855  66.823  1.00  0.00     0.220 C 
ATOM     11  O   UNL     1       4.550  -2.538  67.992  1.00  0.00    -0.275 OA
ATOM     12  N   UNL     1       6.285  -2.928  66.474  1.00  0.00    -0.352 N 
ATOM     13  H   UNL     1       6.552  -3.170  65.490  1.00  0.00     0.163 HD
BRANCH  12  14
ATOM     14  C   UNL     1       7.354  -2.622  67.423  1.00  0.00     0.151 C 
BRANCH  14  15
ATOM     15  C   UNL     1       8.280  -3.802  67.574  1.00  0.00    -0.025 A 
ATOM     16  C   UNL     1       7.857  -5.083  67.189  1.00  0.00     0.056 A 
ATOM     17  C   UNL     1       9.561  -3.635  68.122  1.00  0.00     0.009 A 
ATOM     18  C   UNL     1       8.704  -6.200  67.356  1.00  0.00     0.160 A 
ATOM     19  C   UNL     1      10.405  -4.735  68.290  1.00  0.00     0.050 A 
ATOM     20  C   UNL     1       9.984  -6.015  67.915  1.00  0.00     0.157 A 
BRANCH  18  21
ATOM     21  O   UNL     1       8.309  -7.495  66.984  1.00  0.00    -0.493 OA
ATOM     22  C   UNL     1       7.046  -7.820  66.408  1.00  0.00     0.278 C 
ENDBRANCH  18  21
BRANCH  20  23
ATOM     23  O   UNL     1      10.849  -7.091  68.108  1.00  0.00    -0.504 OA
ATOM     24  H   UNL     1      11.177  -7.666  67.342  1.00  0.00     0.293 HD
ENDBRANCH  20  23
ENDBRANCH  14  15
ENDBRANCH  12  14
ENDBRANCH   9  10
ENDBRANCH   1   9
TORSDOF 10
ENDMDL
MODEL 9
REMARK VINA RESULT:    -3.648      2.353      8.076
REMARK INTER + INTRA:          -6.448
REMARK INTER:                  -5.019
REMARK INTRA:                  -1.429
REMARK UNBOUND:                -0.774
REMARK SMILES COc1cc(CNC(=O)CCCCC=CC(C)C)ccc1O
REMARK SMILES IDX 11 1 12 2 13 3 14 4 15 5 16 6 17 7 18 8 10 9 8 10 9 11 7 12
REMARK SMILES IDX 6 14 5 15 4 16 19 17 3 18 20 19 21 20 2 21 1 22 22 23
REMARK H PARENT 7 13 22 24
REMARK Flexibility Score: inf
ROOT
ATOM      1  C   UNL     1       8.263  -6.234  68.238  1.00  0.00     0.010 C 
ENDROOT
BRANCH   1   2
ATOM      2  C   UNL     1       9.468  -5.594  67.539  1.00  0.00     0.005 C 
BRANCH   2   3
ATOM      3  C   UNL     1       9.782  -4.218  68.145  1.00  0.00     0.027 C 
BRANCH   3   4
ATOM      4  C   UNL     1       8.566  -3.334  68.138  1.00  0.00    -0.031 C 
ATOM      5  C   UNL     1       8.104  -2.789  66.997  1.00  0.00    -0.028 C 
BRANCH   5   6
ATOM      6  C   UNL     1       6.893  -1.885  66.958  1.00  0.00     0.005 C 
ATOM      7  C   UNL     1       5.969  -2.241  65.785  1.00  0.00     0.012 C 
ATOM      8  C   UNL     1       6.134  -1.903  68.290  1.00  0.00     0.012 C 
ENDBRANCH   5   6
ENDBRANCH   3   4
ENDBRANCH   2   3
ENDBRANCH   1   2
BRANCH   1   9
ATOM      9  C   UNL     1       7.752  -7.447  67.457  1.00  0.00     0.100 C 
BRANCH   9  10
ATOM     10  C   UNL     1       6.640  -7.046  66.535  1.00  0.00     0.220 C 
ATOM     11  O   UNL     1       6.626  -7.485  65.355  1.00  0.00    -0.275 OA
ATOM     12  N   UNL     1       5.627  -6.133  66.979  1.00  0.00    -0.352 N 
ATOM     13  H   UNL     1       5.669  -5.760  67.958  1.00  0.00     0.163 HD
BRANCH  12  14
ATOM     14  C   UNL     1       4.562  -5.649  66.103  1.00  0.00     0.151 C 
BRANCH  14  15
ATOM     15  C   UNL     1       3.538  -4.873  66.892  1.00  0.00    -0.025 A 
ATOM     16  C   UNL     1       2.396  -4.366  66.254  1.00  0.00     0.056 A 
ATOM     17  C   UNL     1       3.729  -4.630  68.260  1.00  0.00     0.009 A 
ATOM     18  C   UNL     1       1.447  -3.610  66.975  1.00  0.00     0.160 A 
ATOM     19  C   UNL     1       2.795  -3.883  68.981  1.00  0.00     0.050 A 
ATOM     20  C   UNL     1       1.658  -3.369  68.347  1.00  0.00     0.157 A 
BRANCH  18  21
ATOM     21  O   UNL     1       0.295  -3.086  66.367  1.00  0.00    -0.493 OA
ATOM     22  C   UNL     1      -0.977  -3.729  66.358  1.00  0.00     0.278 C 
ENDBRANCH  18  21
BRANCH  20  23
ATOM     23  O   UNL     1       0.753  -2.619  69.097  1.00  0.00    -0.504 OA
ATOM     24  H   UNL     1       0.914  -2.390  70.069  1.00  0.00     0.293 HD
ENDBRANCH  20  23
ENDBRANCH  14  15
ENDBRANCH  12  14
ENDBRANCH   9  10
ENDBRANCH   1   9
TORSDOF 10
ENDMDL
