MODEL 1
REMARK VINA RESULT:    -5.563      0.000      0.000
REMARK INTER + INTRA:          -6.829
REMARK INTER:                  -6.538
REMARK INTRA:                  -0.290
REMARK UNBOUND:                -0.290
REMARK SMILES O=c1cc(-c2ccc(O)c(O)c2)oc2cc(O)cc(O)c12
REMARK SMILES IDX 4 1 3 2 2 3 1 4 21 5 19 6 18 7 16 8 15 9 14 10 13 11 5 12
REMARK SMILES IDX 6 13 7 14 8 15 12 16 10 17 9 18 11 20 20 22 17 24
REMARK H PARENT 9 19 11 21 20 23 17 25
REMARK Flexibility Score: inf
ROOT
ATOM      1  C   UNL     1     -37.964  29.242  14.815  1.00  0.00     0.138 A 
ATOM      2  C   UNL     1     -37.425  30.413  15.375  1.00  0.00     0.100 A 
ATOM      3  C   UNL     1     -37.994  31.648  15.063  1.00  0.00     0.197 A 
ATOM      4  O   UNL     1     -37.505  32.693  15.571  1.00  0.00    -0.289 OA
ATOM      5  C   UNL     1     -39.103  31.705  14.195  1.00  0.00     0.107 A 
ATOM      6  C   UNL     1     -39.738  32.913  13.826  1.00  0.00     0.134 A 
ATOM      7  C   UNL     1     -40.841  32.884  12.960  1.00  0.00     0.093 A 
ATOM      8  C   UNL     1     -41.319  31.671  12.457  1.00  0.00     0.123 A 
ATOM      9  C   UNL     1     -40.696  30.472  12.818  1.00  0.00     0.094 A 
ATOM     10  C   UNL     1     -39.595  30.481  13.680  1.00  0.00     0.146 A 
ATOM     11  O   UNL     1     -39.017  29.329  14.006  1.00  0.00    -0.456 OA
ENDROOT
BRANCH   1  12
ATOM     12  C   UNL     1     -37.400  27.901  15.112  1.00  0.00     0.021 A 
ATOM     13  C   UNL     1     -36.023  27.638  15.007  1.00  0.00     0.016 A 
ATOM     14  C   UNL     1     -35.523  26.364  15.283  1.00  0.00     0.051 A 
ATOM     15  C   UNL     1     -36.379  25.325  15.661  1.00  0.00     0.157 A 
ATOM     16  C   UNL     1     -38.263  26.854  15.478  1.00  0.00     0.062 A 
ATOM     17  C   UNL     1     -37.769  25.573  15.758  1.00  0.00     0.158 A 
BRANCH  15  18
ATOM     18  O   UNL     1     -35.815  24.077  15.926  1.00  0.00    -0.504 OA
ATOM     19  H   UNL     1     -36.122  23.215  15.499  1.00  0.00     0.293 HD
ENDBRANCH  15  18
BRANCH  17  20
ATOM     20  O   UNL     1     -38.687  24.586  16.125  1.00  0.00    -0.504 OA
ATOM     21  H   UNL     1     -38.757  24.199  17.055  1.00  0.00     0.293 HD
ENDBRANCH  17  20
ENDBRANCH   1  12
BRANCH   6  22
ATOM     22  O   UNL     1     -39.283  34.140  14.312  1.00  0.00    -0.507 OA
ATOM     23  H   UNL     1     -38.310  34.290  14.554  1.00  0.00     0.293 HD
ENDBRANCH   6  22
BRANCH   8  24
ATOM     24  O   UNL     1     -42.417  31.669  11.600  1.00  0.00    -0.508 OA
ATOM     25  H   UNL     1     -43.163  32.349  11.690  1.00  0.00     0.293 HD
ENDBRANCH   8  24
TORSDOF 5
ENDMDL
MODEL 2
REMARK VINA RESULT:    -5.341      3.139      7.799
REMARK INTER + INTRA:          -6.568
REMARK INTER:                  -6.287
REMARK INTRA:                  -0.281
REMARK UNBOUND:                -0.290
REMARK SMILES O=c1cc(-c2ccc(O)c(O)c2)oc2cc(O)cc(O)c12
REMARK SMILES IDX 4 1 3 2 2 3 1 4 21 5 19 6 18 7 16 8 15 9 14 10 13 11 5 12
REMARK SMILES IDX 6 13 7 14 8 15 12 16 10 17 9 18 11 20 20 22 17 24
REMARK H PARENT 9 19 11 21 20 23 17 25
REMARK Flexibility Score: inf
ROOT
ATOM      1  C   UNL     1     -40.966  32.999  15.098  1.00  0.00     0.138 A 
ATOM      2  C   UNL     1     -39.741  33.654  14.883  1.00  0.00     0.100 A 
ATOM      3  C   UNL     1     -38.565  32.905  14.813  1.00  0.00     0.197 A 
ATOM      4  O   UNL     1     -37.471  33.501  14.619  1.00  0.00    -0.289 OA
ATOM      5  C   UNL     1     -38.622  31.504  14.954  1.00  0.00     0.107 A 
ATOM      6  C   UNL     1     -37.480  30.672  14.896  1.00  0.00     0.134 A 
ATOM      7  C   UNL     1     -37.622  29.284  15.041  1.00  0.00     0.093 A 
ATOM      8  C   UNL     1     -38.882  28.714  15.240  1.00  0.00     0.123 A 
ATOM      9  C   UNL     1     -40.016  29.531  15.298  1.00  0.00     0.094 A 
ATOM     10  C   UNL     1     -39.895  30.917  15.157  1.00  0.00     0.146 A 
ATOM     11  O   UNL     1     -40.987  31.673  15.217  1.00  0.00    -0.456 OA
ENDROOT
BRANCH   1  12
ATOM     12  C   UNL     1     -42.247  33.744  15.181  1.00  0.00     0.021 A 
ATOM     13  C   UNL     1     -43.266  33.365  16.073  1.00  0.00     0.016 A 
ATOM     14  C   UNL     1     -44.464  34.079  16.122  1.00  0.00     0.051 A 
ATOM     15  C   UNL     1     -44.679  35.176  15.281  1.00  0.00     0.157 A 
ATOM     16  C   UNL     1     -42.468  34.837  14.326  1.00  0.00     0.062 A 
ATOM     17  C   UNL     1     -43.668  35.559  14.370  1.00  0.00     0.158 A 
BRANCH  15  18
ATOM     18  O   UNL     1     -45.898  35.848  15.382  1.00  0.00    -0.504 OA
ATOM     19  H   UNL     1     -46.374  36.278  14.602  1.00  0.00     0.293 HD
ENDBRANCH  15  18
BRANCH  17  20
ATOM     20  O   UNL     1     -43.809  36.640  13.496  1.00  0.00    -0.504 OA
ATOM     21  H   UNL     1     -43.034  37.161  13.112  1.00  0.00     0.293 HD
ENDBRANCH  17  20
ENDBRANCH   1  12
BRANCH   6  22
ATOM     22  O   UNL     1     -36.209  31.211  14.699  1.00  0.00    -0.507 OA
ATOM     23  H   UNL     1     -35.851  31.407  13.770  1.00  0.00     0.293 HD
ENDBRANCH   6  22
BRANCH   8  24
ATOM     24  O   UNL     1     -38.997  27.332  15.380  1.00  0.00    -0.508 OA
ATOM     25  H   UNL     1     -38.924  26.711  14.582  1.00  0.00     0.293 HD
ENDBRANCH   8  24
TORSDOF 5
ENDMDL
MODEL 3
REMARK VINA RESULT:    -5.213      2.059      7.107
REMARK INTER + INTRA:          -6.418
REMARK INTER:                  -6.146
REMARK INTRA:                  -0.271
REMARK UNBOUND:                -0.290
REMARK SMILES O=c1cc(-c2ccc(O)c(O)c2)oc2cc(O)cc(O)c12
REMARK SMILES IDX 4 1 3 2 2 3 1 4 21 5 19 6 18 7 16 8 15 9 14 10 13 11 5 12
REMARK SMILES IDX 6 13 7 14 8 15 12 16 10 17 9 18 11 20 20 22 17 24
REMARK H PARENT 9 19 11 21 20 23 17 25
REMARK Flexibility Score: inf
ROOT
ATOM      1  C   UNL     1     -39.422  31.866  14.218  1.00  0.00     0.138 A 
ATOM      2  C   UNL     1     -38.134  32.221  13.780  1.00  0.00     0.100 A 
ATOM      3  C   UNL     1     -37.091  31.303  13.901  1.00  0.00     0.197 A 
ATOM      4  O   UNL     1     -35.939  31.630  13.504  1.00  0.00    -0.289 OA
ATOM      5  C   UNL     1     -37.341  30.033  14.457  1.00  0.00     0.107 A 
ATOM      6  C   UNL     1     -36.342  29.045  14.617  1.00  0.00     0.134 A 
ATOM      7  C   UNL     1     -36.675  27.802  15.175  1.00  0.00     0.093 A 
ATOM      8  C   UNL     1     -37.985  27.529  15.575  1.00  0.00     0.123 A 
ATOM      9  C   UNL     1     -38.979  28.501  15.419  1.00  0.00     0.094 A 
ATOM     10  C   UNL     1     -38.667  29.747  14.866  1.00  0.00     0.146 A 
ATOM     11  O   UNL     1     -39.628  30.655  14.730  1.00  0.00    -0.456 OA
ENDROOT
BRANCH   1  12
ATOM     12  C   UNL     1     -40.570  32.802  14.113  1.00  0.00     0.021 A 
ATOM     13  C   UNL     1     -40.686  33.927  14.948  1.00  0.00     0.016 A 
ATOM     14  C   UNL     1     -41.782  34.784  14.832  1.00  0.00     0.051 A 
ATOM     15  C   UNL     1     -42.788  34.536  13.893  1.00  0.00     0.157 A 
ATOM     16  C   UNL     1     -41.587  32.546  13.178  1.00  0.00     0.062 A 
ATOM     17  C   UNL     1     -42.690  33.401  13.056  1.00  0.00     0.158 A 
BRANCH  15  18
ATOM     18  O   UNL     1     -43.855  35.434  13.827  1.00  0.00    -0.504 OA
ATOM     19  H   UNL     1     -44.810  35.193  14.048  1.00  0.00     0.293 HD
ENDBRANCH  15  18
BRANCH  17  20
ATOM     20  O   UNL     1     -43.656  33.085  12.097  1.00  0.00    -0.504 OA
ATOM     21  H   UNL     1     -44.597  33.451  12.102  1.00  0.00     0.293 HD
ENDBRANCH  17  20
ENDBRANCH   1  12
BRANCH   6  22
ATOM     22  O   UNL     1     -35.024  29.289  14.228  1.00  0.00    -0.507 OA
ATOM     23  H   UNL     1     -34.430  28.552  13.865  1.00  0.00     0.293 HD
ENDBRANCH   6  22
BRANCH   8  24
ATOM     24  O   UNL     1     -38.290  26.286  16.125  1.00  0.00    -0.508 OA
ATOM     25  H   UNL     1     -38.963  25.665  15.692  1.00  0.00     0.293 HD
ENDBRANCH   8  24
TORSDOF 5
ENDMDL
MODEL 4
REMARK VINA RESULT:    -5.037      3.122      4.715
REMARK INTER + INTRA:          -6.211
REMARK INTER:                  -5.929
REMARK INTRA:                  -0.282
REMARK UNBOUND:                -0.290
REMARK SMILES O=c1cc(-c2ccc(O)c(O)c2)oc2cc(O)cc(O)c12
REMARK SMILES IDX 4 1 3 2 2 3 1 4 21 5 19 6 18 7 16 8 15 9 14 10 13 11 5 12
REMARK SMILES IDX 6 13 7 14 8 15 12 16 10 17 9 18 11 20 20 22 17 24
REMARK H PARENT 9 19 11 21 20 23 17 25
REMARK Flexibility Score: inf
ROOT
ATOM      1  C   UNL     1     -40.757  32.299  14.575  1.00  0.00     0.138 A 
ATOM      2  C   UNL     1     -40.111  33.295  13.823  1.00  0.00     0.100 A 
ATOM      3  C   UNL     1     -40.725  34.538  13.659  1.00  0.00     0.197 A 
ATOM      4  O   UNL     1     -40.137  35.426  12.984  1.00  0.00    -0.289 OA
ATOM      5  C   UNL     1     -41.980  34.779  14.253  1.00  0.00     0.107 A 
ATOM      6  C   UNL     1     -42.670  36.008  14.137  1.00  0.00     0.134 A 
ATOM      7  C   UNL     1     -43.915  36.169  14.763  1.00  0.00     0.093 A 
ATOM      8  C   UNL     1     -44.480  35.127  15.503  1.00  0.00     0.123 A 
ATOM      9  C   UNL     1     -43.802  33.909  15.623  1.00  0.00     0.094 A 
ATOM     10  C   UNL     1     -42.561  33.729  15.005  1.00  0.00     0.146 A 
ATOM     11  O   UNL     1     -41.938  32.561  15.131  1.00  0.00    -0.456 OA
ENDROOT
BRANCH   1  12
ATOM     12  C   UNL     1     -40.151  30.959  14.783  1.00  0.00     0.021 A 
ATOM     13  C   UNL     1     -40.936  29.794  14.837  1.00  0.00     0.016 A 
ATOM     14  C   UNL     1     -40.339  28.549  15.043  1.00  0.00     0.051 A 
ATOM     15  C   UNL     1     -38.955  28.437  15.208  1.00  0.00     0.157 A 
ATOM     16  C   UNL     1     -38.762  30.849  14.962  1.00  0.00     0.062 A 
ATOM     17  C   UNL     1     -38.156  29.603  15.168  1.00  0.00     0.158 A 
BRANCH  15  18
ATOM     18  O   UNL     1     -38.422  27.162  15.407  1.00  0.00    -0.504 OA
ATOM     19  H   UNL     1     -38.443  26.426  14.716  1.00  0.00     0.293 HD
ENDBRANCH  15  18
BRANCH  17  20
ATOM     20  O   UNL     1     -36.768  29.572  15.328  1.00  0.00    -0.504 OA
ATOM     21  H   UNL     1     -36.242  30.277  15.825  1.00  0.00     0.293 HD
ENDBRANCH  17  20
ENDBRANCH   1  12
BRANCH   6  22
ATOM     22  O   UNL     1     -42.131  37.066  13.405  1.00  0.00    -0.507 OA
ATOM     23  H   UNL     1     -41.449  36.914  12.670  1.00  0.00     0.293 HD
ENDBRANCH   6  22
BRANCH   8  24
ATOM     24  O   UNL     1     -45.717  35.313  16.117  1.00  0.00    -0.508 OA
ATOM     25  H   UNL     1     -46.124  36.235  16.220  1.00  0.00     0.293 HD
ENDBRANCH   8  24
TORSDOF 5
ENDMDL
MODEL 5
REMARK VINA RESULT:    -5.032      1.707      2.460
REMARK INTER + INTRA:          -6.204
REMARK INTER:                  -5.939
REMARK INTRA:                  -0.265
REMARK UNBOUND:                -0.290
REMARK SMILES O=c1cc(-c2ccc(O)c(O)c2)oc2cc(O)cc(O)c12
REMARK SMILES IDX 4 1 3 2 2 3 1 4 21 5 19 6 18 7 16 8 15 9 14 10 13 11 5 12
REMARK SMILES IDX 6 13 7 14 8 15 12 16 10 17 9 18 11 20 20 22 17 24
REMARK H PARENT 9 19 11 21 20 23 17 25
REMARK Flexibility Score: inf
ROOT
ATOM      1  C   UNL     1     -38.558  30.927  14.881  1.00  0.00     0.138 A 
ATOM      2  C   UNL     1     -38.195  32.078  15.601  1.00  0.00     0.100 A 
ATOM      3  C   UNL     1     -38.960  33.238  15.472  1.00  0.00     0.197 A 
ATOM      4  O   UNL     1     -38.628  34.266  16.123  1.00  0.00    -0.289 OA
ATOM      5  C   UNL     1     -40.086  33.239  14.624  1.00  0.00     0.107 A 
ATOM      6  C   UNL     1     -40.913  34.371  14.435  1.00  0.00     0.134 A 
ATOM      7  C   UNL     1     -42.020  34.288  13.577  1.00  0.00     0.093 A 
ATOM      8  C   UNL     1     -42.314  33.098  12.907  1.00  0.00     0.123 A 
ATOM      9  C   UNL     1     -41.500  31.975  13.090  1.00  0.00     0.094 A 
ATOM     10  C   UNL     1     -40.392  32.037  13.940  1.00  0.00     0.146 A 
ATOM     11  O   UNL     1     -39.632  30.958  14.096  1.00  0.00    -0.456 OA
ENDROOT
BRANCH   1  12
ATOM     12  C   UNL     1     -37.782  29.665  14.980  1.00  0.00     0.021 A 
ATOM     13  C   UNL     1     -38.039  28.716  15.986  1.00  0.00     0.016 A 
ATOM     14  C   UNL     1     -37.286  27.543  16.060  1.00  0.00     0.051 A 
ATOM     15  C   UNL     1     -36.260  27.292  15.144  1.00  0.00     0.157 A 
ATOM     16  C   UNL     1     -36.742  29.419  14.068  1.00  0.00     0.062 A 
ATOM     17  C   UNL     1     -35.983  28.243  14.135  1.00  0.00     0.158 A 
BRANCH  15  18
ATOM     18  O   UNL     1     -35.548  26.098  15.272  1.00  0.00    -0.504 OA
ATOM     19  H   UNL     1     -34.700  26.000  15.812  1.00  0.00     0.293 HD
ENDBRANCH  15  18
BRANCH  17  20
ATOM     20  O   UNL     1     -34.972  28.066  13.188  1.00  0.00    -0.504 OA
ATOM     21  H   UNL     1     -34.166  27.474  13.327  1.00  0.00     0.293 HD
ENDBRANCH  17  20
ENDBRANCH   1  12
BRANCH   6  22
ATOM     22  O   UNL     1     -40.644  35.573  15.090  1.00  0.00    -0.507 OA
ATOM     23  H   UNL     1     -40.949  35.741  16.043  1.00  0.00     0.293 HD
ENDBRANCH   6  22
BRANCH   8  24
ATOM     24  O   UNL     1     -43.420  33.041  12.062  1.00  0.00    -0.508 OA
ATOM     25  H   UNL     1     -43.977  32.200  11.973  1.00  0.00     0.293 HD
ENDBRANCH   8  24
TORSDOF 5
ENDMDL
MODEL 6
REMARK VINA RESULT:    -5.011      2.563      7.028
REMARK INTER + INTRA:          -6.180
REMARK INTER:                  -5.899
REMARK INTRA:                  -0.282
REMARK UNBOUND:                -0.290
REMARK SMILES O=c1cc(-c2ccc(O)c(O)c2)oc2cc(O)cc(O)c12
REMARK SMILES IDX 4 1 3 2 2 3 1 4 21 5 19 6 18 7 16 8 15 9 14 10 13 11 5 12
REMARK SMILES IDX 6 13 7 14 8 15 12 16 10 17 9 18 11 20 20 22 17 24
REMARK H PARENT 9 19 11 21 20 23 17 25
REMARK Flexibility Score: inf
ROOT
ATOM      1  C   UNL     1     -39.489  31.453  13.944  1.00  0.00     0.138 A 
ATOM      2  C   UNL     1     -39.182  30.724  15.105  1.00  0.00     0.100 A 
ATOM      3  C   UNL     1     -38.140  29.796  15.078  1.00  0.00     0.197 A 
ATOM      4  O   UNL     1     -37.870  29.147  16.125  1.00  0.00    -0.289 OA
ATOM      5  C   UNL     1     -37.409  29.605  13.888  1.00  0.00     0.107 A 
ATOM      6  C   UNL     1     -36.340  28.685  13.774  1.00  0.00     0.134 A 
ATOM      7  C   UNL     1     -35.659  28.559  12.554  1.00  0.00     0.093 A 
ATOM      8  C   UNL     1     -36.024  29.332  11.450  1.00  0.00     0.123 A 
ATOM      9  C   UNL     1     -37.080  30.245  11.557  1.00  0.00     0.094 A 
ATOM     10  C   UNL     1     -37.772  30.385  12.763  1.00  0.00     0.146 A 
ATOM     11  O   UNL     1     -38.773  31.256  12.839  1.00  0.00    -0.456 OA
ENDROOT
BRANCH   1  12
ATOM     12  C   UNL     1     -40.586  32.454  13.915  1.00  0.00     0.021 A 
ATOM     13  C   UNL     1     -40.631  33.527  14.822  1.00  0.00     0.016 A 
ATOM     14  C   UNL     1     -41.680  34.447  14.777  1.00  0.00     0.051 A 
ATOM     15  C   UNL     1     -42.708  34.315  13.838  1.00  0.00     0.157 A 
ATOM     16  C   UNL     1     -41.626  32.313  12.981  1.00  0.00     0.062 A 
ATOM     17  C   UNL     1     -42.682  33.232  12.929  1.00  0.00     0.158 A 
BRANCH  15  18
ATOM     18  O   UNL     1     -43.726  35.271  13.845  1.00  0.00    -0.504 OA
ATOM     19  H   UNL     1     -43.792  36.021  14.518  1.00  0.00     0.293 HD
ENDBRANCH  15  18
BRANCH  17  20
ATOM     20  O   UNL     1     -43.674  33.031  11.966  1.00  0.00    -0.504 OA
ATOM     21  H   UNL     1     -44.480  33.628  11.854  1.00  0.00     0.293 HD
ENDBRANCH  17  20
ENDBRANCH   1  12
BRANCH   6  22
ATOM     22  O   UNL     1     -35.952  27.898  14.859  1.00  0.00    -0.507 OA
ATOM     23  H   UNL     1     -36.513  27.838  15.702  1.00  0.00     0.293 HD
ENDBRANCH   6  22
BRANCH   8  24
ATOM     24  O   UNL     1     -35.330  29.189  10.251  1.00  0.00    -0.508 OA
ATOM     25  H   UNL     1     -34.635  28.463  10.124  1.00  0.00     0.293 HD
ENDBRANCH   8  24
TORSDOF 5
ENDMDL
MODEL 7
REMARK VINA RESULT:    -4.951      1.872      2.265
REMARK INTER + INTRA:          -6.109
REMARK INTER:                  -5.793
REMARK INTRA:                  -0.316
REMARK UNBOUND:                -0.290
REMARK SMILES O=c1cc(-c2ccc(O)c(O)c2)oc2cc(O)cc(O)c12
REMARK SMILES IDX 4 1 3 2 2 3 1 4 21 5 19 6 18 7 16 8 15 9 14 10 13 11 5 12
REMARK SMILES IDX 6 13 7 14 8 15 12 16 10 17 9 18 11 20 20 22 17 24
REMARK H PARENT 9 19 11 21 20 23 17 25
REMARK Flexibility Score: inf
ROOT
ATOM      1  C   UNL     1     -37.273  27.969  15.142  1.00  0.00     0.138 A 
ATOM      2  C   UNL     1     -36.221  28.730  14.605  1.00  0.00     0.100 A 
ATOM      3  C   UNL     1     -36.406  30.094  14.378  1.00  0.00     0.197 A 
ATOM      4  O   UNL     1     -35.456  30.769  13.897  1.00  0.00    -0.289 OA
ATOM      5  C   UNL     1     -37.643  30.690  14.694  1.00  0.00     0.107 A 
ATOM      6  C   UNL     1     -37.915  32.064  14.495  1.00  0.00     0.134 A 
ATOM      7  C   UNL     1     -39.172  32.582  14.840  1.00  0.00     0.093 A 
ATOM      8  C   UNL     1     -40.159  31.755  15.381  1.00  0.00     0.123 A 
ATOM      9  C   UNL     1     -39.897  30.395  15.581  1.00  0.00     0.094 A 
ATOM     10  C   UNL     1     -38.651  29.860  15.242  1.00  0.00     0.146 A 
ATOM     11  O   UNL     1     -38.426  28.564  15.439  1.00  0.00    -0.456 OA
ENDROOT
BRANCH   1  12
ATOM     12  C   UNL     1     -37.132  26.514  15.406  1.00  0.00     0.021 A 
ATOM     13  C   UNL     1     -35.878  25.878  15.394  1.00  0.00     0.016 A 
ATOM     14  C   UNL     1     -35.778  24.507  15.635  1.00  0.00     0.051 A 
ATOM     15  C   UNL     1     -36.920  23.739  15.885  1.00  0.00     0.157 A 
ATOM     16  C   UNL     1     -38.281  25.740  15.643  1.00  0.00     0.062 A 
ATOM     17  C   UNL     1     -38.189  24.364  15.887  1.00  0.00     0.158 A 
BRANCH  15  18
ATOM     18  O   UNL     1     -36.750  22.374  16.122  1.00  0.00    -0.504 OA
ATOM     19  H   UNL     1     -35.872  21.951  16.385  1.00  0.00     0.293 HD
ENDBRANCH  15  18
BRANCH  17  20
ATOM     20  O   UNL     1     -39.374  23.663  16.124  1.00  0.00    -0.504 OA
ATOM     21  H   UNL     1     -40.269  23.920  15.732  1.00  0.00     0.293 HD
ENDBRANCH  17  20
ENDBRANCH   1  12
BRANCH   6  22
ATOM     22  O   UNL     1     -36.949  32.915  13.957  1.00  0.00    -0.507 OA
ATOM     23  H   UNL     1     -36.682  32.869  12.980  1.00  0.00     0.293 HD
ENDBRANCH   6  22
BRANCH   8  24
ATOM     24  O   UNL     1     -41.399  32.294  15.717  1.00  0.00    -0.508 OA
ATOM     25  H   UNL     1     -41.481  33.074  16.360  1.00  0.00     0.293 HD
ENDBRANCH   8  24
TORSDOF 5
ENDMDL
MODEL 8
REMARK VINA RESULT:    -4.867      2.300      3.155
REMARK INTER + INTRA:          -6.011
REMARK INTER:                  -5.693
REMARK INTRA:                  -0.318
REMARK UNBOUND:                -0.290
REMARK SMILES O=c1cc(-c2ccc(O)c(O)c2)oc2cc(O)cc(O)c12
REMARK SMILES IDX 4 1 3 2 2 3 1 4 21 5 19 6 18 7 16 8 15 9 14 10 13 11 5 12
REMARK SMILES IDX 6 13 7 14 8 15 12 16 10 17 9 18 11 20 20 22 17 24
REMARK H PARENT 9 19 11 21 20 23 17 25
REMARK Flexibility Score: inf
ROOT
ATOM      1  C   UNL     1     -39.040  31.640  14.396  1.00  0.00     0.138 A 
ATOM      2  C   UNL     1     -38.582  32.726  13.631  1.00  0.00     0.100 A 
ATOM      3  C   UNL     1     -39.417  33.826  13.433  1.00  0.00     0.197 A 
ATOM      4  O   UNL     1     -38.997  34.797  12.746  1.00  0.00    -0.289 OA
ATOM      5  C   UNL     1     -40.704  33.836  14.005  1.00  0.00     0.107 A 
ATOM      6  C   UNL     1     -41.613  34.909  13.853  1.00  0.00     0.134 A 
ATOM      7  C   UNL     1     -42.876  34.842  14.460  1.00  0.00     0.093 A 
ATOM      8  C   UNL     1     -43.246  33.727  15.215  1.00  0.00     0.123 A 
ATOM      9  C   UNL     1     -42.352  32.662  15.370  1.00  0.00     0.094 A 
ATOM     10  C   UNL     1     -41.089  32.708  14.772  1.00  0.00     0.146 A 
ATOM     11  O   UNL     1     -40.258  31.683  14.931  1.00  0.00    -0.456 OA
ENDROOT
BRANCH   1  12
ATOM     12  C   UNL     1     -38.195  30.443  14.640  1.00  0.00     0.021 A 
ATOM     13  C   UNL     1     -36.847  30.396  14.241  1.00  0.00     0.016 A 
ATOM     14  C   UNL     1     -36.080  29.253  14.476  1.00  0.00     0.051 A 
ATOM     15  C   UNL     1     -36.637  28.134  15.103  1.00  0.00     0.157 A 
ATOM     16  C   UNL     1     -38.758  29.314  15.258  1.00  0.00     0.062 A 
ATOM     17  C   UNL     1     -37.995  28.164  15.498  1.00  0.00     0.158 A 
BRANCH  15  18
ATOM     18  O   UNL     1     -35.815  27.025  15.310  1.00  0.00    -0.504 OA
ATOM     19  H   UNL     1     -36.039  26.090  15.002  1.00  0.00     0.293 HD
ENDBRANCH  15  18
BRANCH  17  20
ATOM     20  O   UNL     1     -38.622  27.085  16.125  1.00  0.00    -0.504 OA
ATOM     21  H   UNL     1     -38.131  26.364  16.634  1.00  0.00     0.293 HD
ENDBRANCH  17  20
ENDBRANCH   1  12
BRANCH   6  22
ATOM     22  O   UNL     1     -41.273  36.036  13.106  1.00  0.00    -0.507 OA
ATOM     23  H   UNL     1     -41.139  35.990  12.102  1.00  0.00     0.293 HD
ENDBRANCH   6  22
BRANCH   8  24
ATOM     24  O   UNL     1     -44.506  33.686  15.809  1.00  0.00    -0.508 OA
ATOM     25  H   UNL     1     -45.285  33.213  15.366  1.00  0.00     0.293 HD
ENDBRANCH   8  24
TORSDOF 5
ENDMDL
MODEL 9
REMARK VINA RESULT:    -4.740     15.089     17.271
REMARK INTER + INTRA:          -5.861
REMARK INTER:                  -5.595
REMARK INTRA:                  -0.266
REMARK UNBOUND:                -0.290
REMARK SMILES O=c1cc(-c2ccc(O)c(O)c2)oc2cc(O)cc(O)c12
REMARK SMILES IDX 4 1 3 2 2 3 1 4 21 5 19 6 18 7 16 8 15 9 14 10 13 11 5 12
REMARK SMILES IDX 6 13 7 14 8 15 12 16 10 17 9 18 11 20 20 22 17 24
REMARK H PARENT 9 19 11 21 20 23 17 25
REMARK Flexibility Score: inf
ROOT
ATOM      1  C   UNL     1     -46.970  23.257   2.318  1.00  0.00     0.138 A 
ATOM      2  C   UNL     1     -45.630  22.845   2.218  1.00  0.00     0.100 A 
ATOM      3  C   UNL     1     -45.134  21.898   3.114  1.00  0.00     0.197 A 
ATOM      4  O   UNL     1     -43.931  21.533   3.016  1.00  0.00    -0.289 OA
ATOM      5  C   UNL     1     -45.983  21.364   4.104  1.00  0.00     0.107 A 
ATOM      6  C   UNL     1     -45.562  20.402   5.051  1.00  0.00     0.134 A 
ATOM      7  C   UNL     1     -46.471  19.917   6.003  1.00  0.00     0.093 A 
ATOM      8  C   UNL     1     -47.791  20.374   6.024  1.00  0.00     0.123 A 
ATOM      9  C   UNL     1     -48.215  21.326   5.090  1.00  0.00     0.094 A 
ATOM     10  C   UNL     1     -47.323  21.822   4.134  1.00  0.00     0.146 A 
ATOM     11  O   UNL     1     -47.749  22.727   3.259  1.00  0.00    -0.456 OA
ENDROOT
BRANCH   1  12
ATOM     12  C   UNL     1     -47.552  24.261   1.392  1.00  0.00     0.021 A 
ATOM     13  C   UNL     1     -48.000  23.909   0.106  1.00  0.00     0.016 A 
ATOM     14  C   UNL     1     -48.534  24.877  -0.746  1.00  0.00     0.051 A 
ATOM     15  C   UNL     1     -48.625  26.213  -0.344  1.00  0.00     0.157 A 
ATOM     16  C   UNL     1     -47.631  25.606   1.791  1.00  0.00     0.062 A 
ATOM     17  C   UNL     1     -48.165  26.583   0.942  1.00  0.00     0.158 A 
BRANCH  15  18
ATOM     18  O   UNL     1     -49.171  27.131  -1.243  1.00  0.00    -0.504 OA
ATOM     19  H   UNL     1     -48.931  27.173  -2.223  1.00  0.00     0.293 HD
ENDBRANCH  15  18
BRANCH  17  20
ATOM     20  O   UNL     1     -48.219  27.897   1.413  1.00  0.00    -0.504 OA
ATOM     21  H   UNL     1     -48.353  28.144   2.383  1.00  0.00     0.293 HD
ENDBRANCH  17  20
ENDBRANCH   1  12
BRANCH   6  22
ATOM     22  O   UNL     1     -44.250  19.926   5.055  1.00  0.00    -0.507 OA
ATOM     23  H   UNL     1     -43.891  19.359   5.814  1.00  0.00     0.293 HD
ENDBRANCH   6  22
BRANCH   8  24
ATOM     24  O   UNL     1     -48.675  19.875   6.978  1.00  0.00    -0.508 OA
ATOM     25  H   UNL     1     -49.014  20.451   7.740  1.00  0.00     0.293 HD
ENDBRANCH   8  24
TORSDOF 5
ENDMDL
