MODEL 1
REMARK VINA RESULT:    -5.546      0.000      0.000
REMARK INTER + INTRA:          -7.542
REMARK INTER:                  -7.167
REMARK INTRA:                  -0.376
REMARK UNBOUND:                -0.376
REMARK SMILES CCO[C@H]1O[C@@H](CO)[C@@H](O)[C@@H](O)[C@H]1O
REMARK SMILES IDX 4 1 13 2 11 3 9 4 6 5 5 6 3 7 2 8 1 9 14 10 12 12 7 14 8 15
REMARK SMILES IDX 10 17
REMARK H PARENT 14 11 12 13 8 16 10 18
REMARK Flexibility Score: inf
ROOT
ATOM      1  C   UNL     1      23.771   4.439  39.063  1.00  0.00     0.281 C 
ATOM      2  C   UNL     1      23.891   4.367  37.507  1.00  0.00     0.202 C 
ATOM      3  C   UNL     1      22.634   4.932  36.820  1.00  0.00     0.179 C 
ATOM      4  C   UNL     1      21.344   4.248  37.358  1.00  0.00     0.177 C 
ATOM      5  C   UNL     1      21.576   3.662  38.778  1.00  0.00     0.178 C 
ATOM      6  O   UNL     1      22.421   4.524  39.514  1.00  0.00    -0.341 OA
ENDROOT
BRANCH   1   7
ATOM      7  O   UNL     1      24.472   5.579  39.528  1.00  0.00    -0.350 OA
BRANCH   7   8
ATOM      8  C   UNL     1      24.651   5.535  40.932  1.00  0.00     0.160 C 
ATOM      9  C   UNL     1      24.708   6.948  41.499  1.00  0.00     0.035 C 
ENDBRANCH   7   8
ENDBRANCH   1   7
BRANCH   2  10
ATOM     10  O   UNL     1      25.033   5.043  37.045  1.00  0.00    -0.385 OA
ATOM     11  H   UNL     1      25.285   5.692  37.753  1.00  0.00     0.211 HD
ENDBRANCH   2  10
BRANCH   3  12
ATOM     12  O   UNL     1      22.583   6.335  36.947  1.00  0.00    -0.387 OA
ATOM     13  H   UNL     1      22.820   6.733  36.070  1.00  0.00     0.211 HD
ENDBRANCH   3  12
BRANCH   5  14
ATOM     14  C   UNL     1      20.274   3.442  39.564  1.00  0.00     0.191 C 
BRANCH  14  15
ATOM     15  O   UNL     1      19.925   4.598  40.279  1.00  0.00    -0.394 OA
ATOM     16  H   UNL     1      19.064   4.919  39.904  1.00  0.00     0.210 HD
ENDBRANCH  14  15
ENDBRANCH   5  14
BRANCH   4  17
ATOM     17  O   UNL     1      20.273   5.161  37.359  1.00  0.00    -0.387 OA
ATOM     18  H   UNL     1      19.853   5.105  38.257  1.00  0.00     0.211 HD
ENDBRANCH   4  17
TORSDOF 7
ENDMDL
MODEL 2
REMARK VINA RESULT:    -5.036      1.743      3.757
REMARK INTER + INTRA:          -6.884
REMARK INTER:                  -6.645
REMARK INTRA:                  -0.238
REMARK UNBOUND:                -0.376
REMARK SMILES CCO[C@H]1O[C@@H](CO)[C@@H](O)[C@@H](O)[C@H]1O
REMARK SMILES IDX 4 1 13 2 11 3 9 4 6 5 5 6 3 7 2 8 1 9 14 10 12 12 7 14 8 15
REMARK SMILES IDX 10 17
REMARK H PARENT 14 11 12 13 8 16 10 18
REMARK Flexibility Score: inf
ROOT
ATOM      1  C   UNL     1      21.827   3.651  38.443  1.00  0.00     0.281 C 
ATOM      2  C   UNL     1      23.378   3.464  38.441  1.00  0.00     0.202 C 
ATOM      3  C   UNL     1      24.101   4.783  38.111  1.00  0.00     0.179 C 
ATOM      4  C   UNL     1      23.566   5.402  36.788  1.00  0.00     0.177 C 
ATOM      5  C   UNL     1      22.126   4.904  36.483  1.00  0.00     0.178 C 
ATOM      6  O   UNL     1      21.400   4.785  37.690  1.00  0.00    -0.341 OA
ENDROOT
BRANCH   1   7
ATOM      7  O   UNL     1      21.382   3.807  39.779  1.00  0.00    -0.350 OA
BRANCH   7   8
ATOM      8  C   UNL     1      20.028   3.419  39.919  1.00  0.00     0.160 C 
ATOM      9  C   UNL     1      19.893   1.911  39.745  1.00  0.00     0.035 C 
ENDBRANCH   7   8
ENDBRANCH   1   7
BRANCH   2  10
ATOM     10  O   UNL     1      23.839   2.959  39.668  1.00  0.00    -0.385 OA
ATOM     11  H   UNL     1      23.251   3.341  40.371  1.00  0.00     0.211 HD
ENDBRANCH   2  10
BRANCH   3  12
ATOM     12  O   UNL     1      24.016   5.684  39.191  1.00  0.00    -0.387 OA
ATOM     13  H   UNL     1      23.157   6.175  39.116  1.00  0.00     0.211 HD
ENDBRANCH   3  12
BRANCH   5  14
ATOM     14  C   UNL     1      21.356   5.824  35.523  1.00  0.00     0.191 C 
BRANCH  14  15
ATOM     15  O   UNL     1      20.221   6.359  36.151  1.00  0.00    -0.394 OA
ATOM     16  H   UNL     1      19.559   5.623  36.225  1.00  0.00     0.210 HD
ENDBRANCH  14  15
ENDBRANCH   5  14
BRANCH   4  17
ATOM     17  O   UNL     1      23.609   6.807  36.855  1.00  0.00    -0.387 OA
ATOM     18  H   UNL     1      23.335   7.144  35.962  1.00  0.00     0.211 HD
ENDBRANCH   4  17
TORSDOF 7
ENDMDL
MODEL 3
REMARK VINA RESULT:    -4.709      1.514      4.025
REMARK INTER + INTRA:          -6.461
REMARK INTER:                  -6.113
REMARK INTRA:                  -0.348
REMARK UNBOUND:                -0.376
REMARK SMILES CCO[C@H]1O[C@@H](CO)[C@@H](O)[C@@H](O)[C@H]1O
REMARK SMILES IDX 4 1 13 2 11 3 9 4 6 5 5 6 3 7 2 8 1 9 14 10 12 12 7 14 8 15
REMARK SMILES IDX 10 17
REMARK H PARENT 14 11 12 13 8 16 10 18
REMARK Flexibility Score: inf
ROOT
ATOM      1  C   UNL     1      22.561   4.470  36.447  1.00  0.00     0.281 C 
ATOM      2  C   UNL     1      21.515   3.390  36.874  1.00  0.00     0.202 C 
ATOM      3  C   UNL     1      21.069   3.588  38.335  1.00  0.00     0.179 C 
ATOM      4  C   UNL     1      22.294   3.654  39.293  1.00  0.00     0.177 C 
ATOM      5  C   UNL     1      23.574   4.095  38.529  1.00  0.00     0.178 C 
ATOM      6  O   UNL     1      23.235   5.062  37.555  1.00  0.00    -0.341 OA
ENDROOT
BRANCH   1   7
ATOM      7  O   UNL     1      21.899   5.494  35.725  1.00  0.00    -0.350 OA
BRANCH   7   8
ATOM      8  C   UNL     1      22.812   6.475  35.271  1.00  0.00     0.160 C 
ATOM      9  C   UNL     1      22.223   7.869  35.460  1.00  0.00     0.035 C 
ENDBRANCH   7   8
ENDBRANCH   1   7
BRANCH   2  10
ATOM     10  O   UNL     1      20.394   3.393  36.027  1.00  0.00    -0.385 OA
ATOM     11  H   UNL     1      20.335   4.304  35.637  1.00  0.00     0.211 HD
ENDBRANCH   2  10
BRANCH   3  12
ATOM     12  O   UNL     1      20.240   4.721  38.455  1.00  0.00    -0.387 OA
ATOM     13  H   UNL     1      19.779   4.675  39.332  1.00  0.00     0.211 HD
ENDBRANCH   3  12
BRANCH   5  14
ATOM     14  C   UNL     1      24.662   4.669  39.449  1.00  0.00     0.191 C 
BRANCH  14  15
ATOM     15  O   UNL     1      24.299   5.943  39.914  1.00  0.00    -0.394 OA
ATOM     16  H   UNL     1      24.367   5.919  40.903  1.00  0.00     0.210 HD
ENDBRANCH  14  15
ENDBRANCH   5  14
BRANCH   4  17
ATOM     17  O   UNL     1      22.025   4.522  40.367  1.00  0.00    -0.387 OA
ATOM     18  H   UNL     1      22.902   4.751  40.775  1.00  0.00     0.211 HD
ENDBRANCH   4  17
TORSDOF 7
ENDMDL
MODEL 4
REMARK VINA RESULT:    -4.665      1.889      3.706
REMARK INTER + INTRA:          -6.404
REMARK INTER:                  -6.199
REMARK INTRA:                  -0.205
REMARK UNBOUND:                -0.376
REMARK SMILES CCO[C@H]1O[C@@H](CO)[C@@H](O)[C@@H](O)[C@H]1O
REMARK SMILES IDX 4 1 13 2 11 3 9 4 6 5 5 6 3 7 2 8 1 9 14 10 12 12 7 14 8 15
REMARK SMILES IDX 10 17
REMARK H PARENT 14 11 12 13 8 16 10 18
REMARK Flexibility Score: inf
ROOT
ATOM      1  C   UNL     1      22.868   4.780  37.947  1.00  0.00     0.281 C 
ATOM      2  C   UNL     1      21.341   4.532  38.166  1.00  0.00     0.202 C 
ATOM      3  C   UNL     1      20.616   4.281  36.831  1.00  0.00     0.179 C 
ATOM      4  C   UNL     1      20.901   5.423  35.813  1.00  0.00     0.177 C 
ATOM      5  C   UNL     1      22.233   6.149  36.151  1.00  0.00     0.178 C 
ATOM      6  O   UNL     1      23.179   5.210  36.623  1.00  0.00    -0.341 OA
ENDROOT
BRANCH   1   7
ATOM      7  O   UNL     1      23.574   3.579  38.206  1.00  0.00    -0.350 OA
BRANCH   7   8
ATOM      8  C   UNL     1      24.695   3.811  39.038  1.00  0.00     0.160 C 
ATOM      9  C   UNL     1      24.370   4.883  40.071  1.00  0.00     0.035 C 
ENDBRANCH   7   8
ENDBRANCH   1   7
BRANCH   2  10
ATOM     10  O   UNL     1      21.113   3.458  39.043  1.00  0.00    -0.385 OA
ATOM     11  H   UNL     1      21.990   3.234  39.452  1.00  0.00     0.211 HD
ENDBRANCH   2  10
BRANCH   3  12
ATOM     12  O   UNL     1      20.947   3.013  36.313  1.00  0.00    -0.387 OA
ATOM     13  H   UNL     1      20.230   2.377  36.570  1.00  0.00     0.211 HD
ENDBRANCH   3  12
BRANCH   5  14
ATOM     14  C   UNL     1      22.832   6.906  34.955  1.00  0.00     0.191 C 
BRANCH  14  15
ATOM     15  O   UNL     1      22.460   8.259  34.987  1.00  0.00    -0.394 OA
ATOM     16  H   UNL     1      22.473   8.539  35.938  1.00  0.00     0.210 HD
ENDBRANCH  14  15
ENDBRANCH   5  14
BRANCH   4  17
ATOM     17  O   UNL     1      20.925   4.912  34.502  1.00  0.00    -0.387 OA
ATOM     18  H   UNL     1      21.587   4.172  34.497  1.00  0.00     0.211 HD
ENDBRANCH   4  17
TORSDOF 7
ENDMDL
MODEL 5
REMARK VINA RESULT:    -4.665      1.850      2.555
REMARK INTER + INTRA:          -6.404
REMARK INTER:                  -5.929
REMARK INTRA:                  -0.474
REMARK UNBOUND:                -0.376
REMARK SMILES CCO[C@H]1O[C@@H](CO)[C@@H](O)[C@@H](O)[C@H]1O
REMARK SMILES IDX 4 1 13 2 11 3 9 4 6 5 5 6 3 7 2 8 1 9 14 10 12 12 7 14 8 15
REMARK SMILES IDX 10 17
REMARK H PARENT 14 11 12 13 8 16 10 18
REMARK Flexibility Score: inf
ROOT
ATOM      1  C   UNL     1      23.486   4.255  37.599  1.00  0.00     0.281 C 
ATOM      2  C   UNL     1      22.234   4.787  36.831  1.00  0.00     0.202 C 
ATOM      3  C   UNL     1      20.929   4.241  37.440  1.00  0.00     0.179 C 
ATOM      4  C   UNL     1      20.961   2.689  37.541  1.00  0.00     0.177 C 
ATOM      5  C   UNL     1      22.423   2.164  37.580  1.00  0.00     0.178 C 
ATOM      6  O   UNL     1      23.227   3.056  38.326  1.00  0.00    -0.341 OA
ENDROOT
BRANCH   1   7
ATOM      7  O   UNL     1      23.924   5.246  38.512  1.00  0.00    -0.350 OA
BRANCH   7   8
ATOM      8  C   UNL     1      23.978   4.742  39.833  1.00  0.00     0.160 C 
ATOM      9  C   UNL     1      24.645   5.756  40.756  1.00  0.00     0.035 C 
ENDBRANCH   7   8
ENDBRANCH   1   7
BRANCH   2  10
ATOM     10  O   UNL     1      22.200   6.191  36.807  1.00  0.00    -0.385 OA
ATOM     11  H   UNL     1      21.595   6.473  37.542  1.00  0.00     0.211 HD
ENDBRANCH   2  10
BRANCH   3  12
ATOM     12  O   UNL     1      20.666   4.848  38.685  1.00  0.00    -0.387 OA
ATOM     13  H   UNL     1      21.525   4.935  39.173  1.00  0.00     0.211 HD
ENDBRANCH   3  12
BRANCH   5  14
ATOM     14  C   UNL     1      22.547   0.755  38.179  1.00  0.00     0.191 C 
BRANCH  14  15
ATOM     15  O   UNL     1      22.667   0.818  39.576  1.00  0.00    -0.394 OA
ATOM     16  H   UNL     1      23.520   0.372  39.813  1.00  0.00     0.210 HD
ENDBRANCH  14  15
ENDBRANCH   5  14
BRANCH   4  17
ATOM     17  O   UNL     1      20.242   2.259  38.672  1.00  0.00    -0.387 OA
ATOM     18  H   UNL     1      19.873   3.075  39.102  1.00  0.00     0.211 HD
ENDBRANCH   4  17
TORSDOF 7
ENDMDL
MODEL 6
REMARK VINA RESULT:    -4.486      2.353      4.005
REMARK INTER + INTRA:          -6.172
REMARK INTER:                  -5.734
REMARK INTRA:                  -0.438
REMARK UNBOUND:                -0.376
REMARK SMILES CCO[C@H]1O[C@@H](CO)[C@@H](O)[C@@H](O)[C@H]1O
REMARK SMILES IDX 4 1 13 2 11 3 9 4 6 5 5 6 3 7 2 8 1 9 14 10 12 12 7 14 8 15
REMARK SMILES IDX 10 17
REMARK H PARENT 14 11 12 13 8 16 10 18
REMARK Flexibility Score: inf
ROOT
ATOM      1  C   UNL     1      23.000   2.029  37.993  1.00  0.00     0.281 C 
ATOM      2  C   UNL     1      23.664   3.352  38.493  1.00  0.00     0.202 C 
ATOM      3  C   UNL     1      22.609   4.436  38.780  1.00  0.00     0.179 C 
ATOM      4  C   UNL     1      21.678   4.655  37.552  1.00  0.00     0.177 C 
ATOM      5  C   UNL     1      21.651   3.394  36.644  1.00  0.00     0.178 C 
ATOM      6  O   UNL     1      21.698   2.231  37.446  1.00  0.00    -0.341 OA
ENDROOT
BRANCH   1   7
ATOM      7  O   UNL     1      22.895   1.126  39.079  1.00  0.00    -0.350 OA
BRANCH   7   8
ATOM      8  C   UNL     1      21.641   0.468  39.082  1.00  0.00     0.160 C 
ATOM      9  C   UNL     1      21.619  -0.615  40.154  1.00  0.00     0.035 C 
ENDBRANCH   7   8
ENDBRANCH   1   7
BRANCH   2  10
ATOM     10  O   UNL     1      24.451   3.136  39.636  1.00  0.00    -0.385 OA
ATOM     11  H   UNL     1      23.895   3.399  40.417  1.00  0.00     0.211 HD
ENDBRANCH   2  10
BRANCH   3  12
ATOM     12  O   UNL     1      21.883   4.130  39.948  1.00  0.00    -0.387 OA
ATOM     13  H   UNL     1      22.018   3.169  40.152  1.00  0.00     0.211 HD
ENDBRANCH   3  12
BRANCH   5  14
ATOM     14  C   UNL     1      20.413   3.327  35.735  1.00  0.00     0.191 C 
BRANCH  14  15
ATOM     15  O   UNL     1      20.166   4.573  35.140  1.00  0.00    -0.394 OA
ATOM     16  H   UNL     1      20.749   5.232  35.598  1.00  0.00     0.210 HD
ENDBRANCH  14  15
ENDBRANCH   5  14
BRANCH   4  17
ATOM     17  O   UNL     1      20.381   4.996  37.978  1.00  0.00    -0.387 OA
ATOM     18  H   UNL     1      20.072   5.733  37.389  1.00  0.00     0.211 HD
ENDBRANCH   4  17
TORSDOF 7
ENDMDL
MODEL 7
REMARK VINA RESULT:    -4.434     10.661     13.099
REMARK INTER + INTRA:          -6.106
REMARK INTER:                  -5.799
REMARK INTRA:                  -0.307
REMARK UNBOUND:                -0.376
REMARK SMILES CCO[C@H]1O[C@@H](CO)[C@@H](O)[C@@H](O)[C@H]1O
REMARK SMILES IDX 4 1 13 2 11 3 9 4 6 5 5 6 3 7 2 8 1 9 14 10 12 12 7 14 8 15
REMARK SMILES IDX 10 17
REMARK H PARENT 14 11 12 13 8 16 10 18
REMARK Flexibility Score: inf
ROOT
ATOM      1  C   UNL     1      33.622   2.416  41.959  1.00  0.00     0.281 C 
ATOM      2  C   UNL     1      33.543   0.870  42.175  1.00  0.00     0.202 C 
ATOM      3  C   UNL     1      33.901   0.487  43.623  1.00  0.00     0.179 C 
ATOM      4  C   UNL     1      35.275   1.085  44.040  1.00  0.00     0.177 C 
ATOM      5  C   UNL     1      35.623   2.332  43.180  1.00  0.00     0.178 C 
ATOM      6  O   UNL     1      34.447   3.072  42.920  1.00  0.00    -0.341 OA
ENDROOT
BRANCH   1   7
ATOM      7  O   UNL     1      32.317   2.961  42.042  1.00  0.00    -0.350 OA
BRANCH   7   8
ATOM      8  C   UNL     1      31.928   3.551  40.815  1.00  0.00     0.160 C 
ATOM      9  C   UNL     1      31.663   5.040  41.008  1.00  0.00     0.035 C 
ENDBRANCH   7   8
ENDBRANCH   1   7
BRANCH   2  10
ATOM     10  O   UNL     1      32.273   0.367  41.847  1.00  0.00    -0.385 OA
ATOM     11  H   UNL     1      32.165  -0.482  42.352  1.00  0.00     0.211 HD
ENDBRANCH   2  10
BRANCH   3  12
ATOM     12  O   UNL     1      32.870   0.861  44.508  1.00  0.00    -0.387 OA
ATOM     13  H   UNL     1      32.698   0.100  45.121  1.00  0.00     0.211 HD
ENDBRANCH   3  12
BRANCH   5  14
ATOM     14  C   UNL     1      36.661   3.254  43.839  1.00  0.00     0.191 C 
BRANCH  14  15
ATOM     15  O   UNL     1      36.072   4.013  44.862  1.00  0.00    -0.394 OA
ATOM     16  H   UNL     1      36.007   3.424  45.657  1.00  0.00     0.210 HD
ENDBRANCH  14  15
ENDBRANCH   5  14
BRANCH   4  17
ATOM     17  O   UNL     1      35.272   1.405  45.410  1.00  0.00    -0.387 OA
ATOM     18  H   UNL     1      36.189   1.223  45.747  1.00  0.00     0.211 HD
ENDBRANCH   4  17
TORSDOF 7
ENDMDL
MODEL 8
REMARK VINA RESULT:    -4.331     13.489     15.903
REMARK INTER + INTRA:          -5.972
REMARK INTER:                  -5.455
REMARK INTRA:                  -0.517
REMARK UNBOUND:                -0.376
REMARK SMILES CCO[C@H]1O[C@@H](CO)[C@@H](O)[C@@H](O)[C@H]1O
REMARK SMILES IDX 4 1 13 2 11 3 9 4 6 5 5 6 3 7 2 8 1 9 14 10 12 12 7 14 8 15
REMARK SMILES IDX 10 17
REMARK H PARENT 14 11 12 13 8 16 10 18
REMARK Flexibility Score: inf
ROOT
ATOM      1  C   UNL     1      35.764   0.938  43.034  1.00  0.00     0.281 C 
ATOM      2  C   UNL     1      35.123   0.912  44.459  1.00  0.00     0.202 C 
ATOM      3  C   UNL     1      35.989   1.677  45.477  1.00  0.00     0.179 C 
ATOM      4  C   UNL     1      37.457   1.163  45.466  1.00  0.00     0.177 C 
ATOM      5  C   UNL     1      37.802   0.493  44.106  1.00  0.00     0.178 C 
ATOM      6  O   UNL     1      37.166   1.196  43.057  1.00  0.00    -0.341 OA
ENDROOT
BRANCH   1   7
ATOM      7  O   UNL     1      35.135   1.947  42.263  1.00  0.00    -0.350 OA
BRANCH   7   8
ATOM      8  C   UNL     1      36.076   2.888  41.781  1.00  0.00     0.160 C 
ATOM      9  C   UNL     1      35.515   4.300  41.897  1.00  0.00     0.035 C 
ENDBRANCH   7   8
ENDBRANCH   1   7
BRANCH   2  10
ATOM     10  O   UNL     1      33.820   1.436  44.450  1.00  0.00    -0.385 OA
ATOM     11  H   UNL     1      33.414   1.173  43.582  1.00  0.00     0.211 HD
ENDBRANCH   2  10
BRANCH   3  12
ATOM     12  O   UNL     1      35.911   3.066  45.255  1.00  0.00    -0.387 OA
ATOM     13  H   UNL     1      36.743   3.352  44.795  1.00  0.00     0.211 HD
ENDBRANCH   3  12
BRANCH   5  14
ATOM     14  C   UNL     1      39.311   0.430  43.826  1.00  0.00     0.191 C 
BRANCH  14  15
ATOM     15  O   UNL     1      40.003  -0.074  44.938  1.00  0.00    -0.394 OA
ATOM     16  H   UNL     1      40.878   0.392  44.968  1.00  0.00     0.210 HD
ENDBRANCH  14  15
ENDBRANCH   5  14
BRANCH   4  17
ATOM     17  O   UNL     1      38.345   2.218  45.746  1.00  0.00    -0.387 OA
ATOM     18  H   UNL     1      39.129   2.097  45.149  1.00  0.00     0.211 HD
ENDBRANCH   4  17
TORSDOF 7
ENDMDL
MODEL 9
REMARK VINA RESULT:    -4.081     14.077     16.602
REMARK INTER + INTRA:          -5.649
REMARK INTER:                  -5.274
REMARK INTRA:                  -0.375
REMARK UNBOUND:                -0.376
REMARK SMILES CCO[C@H]1O[C@@H](CO)[C@@H](O)[C@@H](O)[C@H]1O
REMARK SMILES IDX 4 1 13 2 11 3 9 4 6 5 5 6 3 7 2 8 1 9 14 10 12 12 7 14 8 15
REMARK SMILES IDX 10 17
REMARK H PARENT 14 11 12 13 8 16 10 18
REMARK Flexibility Score: inf
ROOT
ATOM      1  C   UNL     1      36.460   2.681  44.015  1.00  0.00     0.281 C 
ATOM      2  C   UNL     1      36.180   1.221  44.494  1.00  0.00     0.202 C 
ATOM      3  C   UNL     1      37.090   0.834  45.676  1.00  0.00     0.179 C 
ATOM      4  C   UNL     1      38.588   1.082  45.337  1.00  0.00     0.177 C 
ATOM      5  C   UNL     1      38.736   2.153  44.220  1.00  0.00     0.178 C 
ATOM      6  O   UNL     1      37.752   3.154  44.390  1.00  0.00    -0.341 OA
ENDROOT
BRANCH   1   7
ATOM      7  O   UNL     1      35.487   3.546  44.576  1.00  0.00    -0.350 OA
BRANCH   7   8
ATOM      8  C   UNL     1      35.623   4.864  44.079  1.00  0.00     0.160 C 
ATOM      9  C   UNL     1      35.330   4.895  42.583  1.00  0.00     0.035 C 
ENDBRANCH   7   8
ENDBRANCH   1   7
BRANCH   2  10
ATOM     10  O   UNL     1      34.833   1.042  44.849  1.00  0.00    -0.385 OA
ATOM     11  H   UNL     1      34.389   0.614  44.070  1.00  0.00     0.211 HD
ENDBRANCH   2  10
BRANCH   3  12
ATOM     12  O   UNL     1      36.694   1.503  46.851  1.00  0.00    -0.387 OA
ATOM     13  H   UNL     1      37.077   1.018  47.627  1.00  0.00     0.211 HD
ENDBRANCH   3  12
BRANCH   5  14
ATOM     14  C   UNL     1      40.124   2.812  44.191  1.00  0.00     0.191 C 
BRANCH  14  15
ATOM     15  O   UNL     1      40.125   3.999  44.940  1.00  0.00    -0.394 OA
ATOM     16  H   UNL     1      40.946   3.988  45.496  1.00  0.00     0.210 HD
ENDBRANCH  14  15
ENDBRANCH   5  14
BRANCH   4  17
ATOM     17  O   UNL     1      39.293   1.462  46.494  1.00  0.00    -0.387 OA
ATOM     18  H   UNL     1      40.084   1.978  46.189  1.00  0.00     0.211 HD
ENDBRANCH   4  17
TORSDOF 7
ENDMDL
