MODEL 1
REMARK VINA RESULT:    -4.498      0.000      0.000
REMARK INTER + INTRA:         -13.263
REMARK INTER:                  -9.757
REMARK INTRA:                  -3.506
REMARK UNBOUND:                -3.506
REMARK SMILES CCCCCCCCCCCCCCCCCCCCCC(=O)[O-]
REMARK SMILES IDX 12 1 11 2 10 3 9 4 8 5 7 6 6 7 5 8 4 9 3 10 2 11 1 12 13 13
REMARK SMILES IDX 14 14 15 15 16 16 17 17 18 18 19 19 20 20 21 21 22 22 23 23
REMARK SMILES IDX 24 24
REMARK H PARENT
REMARK Flexibility Score: inf
ROOT
ATOM      1  C   UNL     1      55.593  22.318  52.590  1.00  0.00     0.000 C 
ENDROOT
BRANCH   1   2
ATOM      2  C   UNL     1      56.268  23.668  52.292  1.00  0.00     0.000 C 
BRANCH   2   3
ATOM      3  C   UNL     1      55.287  24.716  51.741  1.00  0.00     0.000 C 
BRANCH   3   4
ATOM      4  C   UNL     1      53.795  24.389  51.949  1.00  0.00    -0.000 C 
BRANCH   4   5
ATOM      5  C   UNL     1      53.057  23.987  50.653  1.00  0.00    -0.000 C 
BRANCH   5   6
ATOM      6  C   UNL     1      53.641  24.683  49.411  1.00  0.00    -0.000 C 
BRANCH   6   7
ATOM      7  C   UNL     1      53.924  23.696  48.258  1.00  0.00    -0.000 C 
BRANCH   7   8
ATOM      8  C   UNL     1      55.359  23.783  47.705  1.00  0.00    -0.000 C 
BRANCH   8   9
ATOM      9  C   UNL     1      56.393  22.904  48.435  1.00  0.00    -0.000 C 
BRANCH   9  10
ATOM     10  C   UNL     1      56.807  21.626  47.683  1.00  0.00    -0.000 C 
BRANCH  10  11
ATOM     11  C   UNL     1      56.490  20.343  48.463  1.00  0.00    -0.003 C 
ATOM     12  C   UNL     1      55.586  20.637  49.657  1.00  0.00     0.004 C 
ENDBRANCH  10  11
ENDBRANCH   9  10
ENDBRANCH   8   9
ENDBRANCH   7   8
ENDBRANCH   6   7
ENDBRANCH   5   6
ENDBRANCH   4   5
ENDBRANCH   3   4
ENDBRANCH   2   3
ENDBRANCH   1   2
BRANCH   1  13
ATOM     13  C   UNL     1      56.520  21.334  53.329  1.00  0.00     0.000 C 
BRANCH  13  14
ATOM     14  C   UNL     1      56.043  20.908  54.729  1.00  0.00     0.000 C 
BRANCH  14  15
ATOM     15  C   UNL     1      57.037  21.282  55.841  1.00  0.00     0.000 C 
BRANCH  15  16
ATOM     16  C   UNL     1      56.892  22.744  56.295  1.00  0.00     0.000 C 
BRANCH  16  17
ATOM     17  C   UNL     1      55.430  23.141  56.567  1.00  0.00     0.000 C 
BRANCH  17  18
ATOM     18  C   UNL     1      55.000  24.386  55.777  1.00  0.00     0.000 C 
BRANCH  18  19
ATOM     19  C   UNL     1      53.507  24.372  55.415  1.00  0.00     0.000 C 
BRANCH  19  20
ATOM     20  C   UNL     1      52.986  22.935  55.292  1.00  0.00     0.006 C 
BRANCH  20  21
ATOM     21  C   UNL     1      51.522  22.917  54.845  1.00  0.00     0.053 C 
BRANCH  21  22
ATOM     22  C   UNL     1      51.357  22.071  53.623  1.00  0.00     0.041 C 
ATOM     23  O   UNL     1      50.337  22.200  52.896  1.00  0.00    -0.550 OA
ATOM     24  O   UNL     1      52.306  21.104  53.313  1.00  0.00    -0.550 OA
ENDBRANCH  21  22
ENDBRANCH  20  21
ENDBRANCH  19  20
ENDBRANCH  18  19
ENDBRANCH  17  18
ENDBRANCH  16  17
ENDBRANCH  15  16
ENDBRANCH  14  15
ENDBRANCH  13  14
ENDBRANCH   1  13
TORSDOF 20
ENDMDL
MODEL 2
REMARK VINA RESULT:    -4.452      0.940      1.292
REMARK INTER + INTRA:         -13.164
REMARK INTER:                  -9.802
REMARK INTRA:                  -3.362
REMARK UNBOUND:                -3.506
REMARK SMILES CCCCCCCCCCCCCCCCCCCCCC(=O)[O-]
REMARK SMILES IDX 12 1 11 2 10 3 9 4 8 5 7 6 6 7 5 8 4 9 3 10 2 11 1 12 13 13
REMARK SMILES IDX 14 14 15 15 16 16 17 17 18 18 19 19 20 20 21 21 22 22 23 23
REMARK SMILES IDX 24 24
REMARK H PARENT
REMARK Flexibility Score: inf
ROOT
ATOM      1  C   UNL     1      56.008  21.813  52.719  1.00  0.00     0.000 C 
ENDROOT
BRANCH   1   2
ATOM      2  C   UNL     1      56.567  23.187  52.310  1.00  0.00     0.000 C 
BRANCH   2   3
ATOM      3  C   UNL     1      55.477  24.151  51.814  1.00  0.00     0.000 C 
BRANCH   3   4
ATOM      4  C   UNL     1      54.180  23.476  51.326  1.00  0.00    -0.000 C 
BRANCH   4   5
ATOM      5  C   UNL     1      53.144  24.462  50.745  1.00  0.00    -0.000 C 
BRANCH   5   6
ATOM      6  C   UNL     1      53.463  24.852  49.291  1.00  0.00    -0.000 C 
BRANCH   6   7
ATOM      7  C   UNL     1      53.843  23.633  48.421  1.00  0.00    -0.000 C 
BRANCH   7   8
ATOM      8  C   UNL     1      55.216  23.765  47.735  1.00  0.00    -0.000 C 
BRANCH   8   9
ATOM      9  C   UNL     1      56.360  22.983  48.409  1.00  0.00    -0.000 C 
BRANCH   9  10
ATOM     10  C   UNL     1      56.904  21.795  47.593  1.00  0.00    -0.000 C 
BRANCH  10  11
ATOM     11  C   UNL     1      56.557  20.435  48.214  1.00  0.00    -0.003 C 
ATOM     12  C   UNL     1      55.818  20.608  49.538  1.00  0.00     0.004 C 
ENDBRANCH  10  11
ENDBRANCH   9  10
ENDBRANCH   8   9
ENDBRANCH   7   8
ENDBRANCH   6   7
ENDBRANCH   5   6
ENDBRANCH   4   5
ENDBRANCH   3   4
ENDBRANCH   2   3
ENDBRANCH   1   2
BRANCH   1  13
ATOM     13  C   UNL     1      56.931  21.056  53.692  1.00  0.00     0.000 C 
BRANCH  13  14
ATOM     14  C   UNL     1      56.437  20.991  55.149  1.00  0.00     0.000 C 
BRANCH  14  15
ATOM     15  C   UNL     1      56.721  22.281  55.936  1.00  0.00     0.000 C 
BRANCH  15  16
ATOM     16  C   UNL     1      55.435  22.986  56.398  1.00  0.00     0.000 C 
BRANCH  16  17
ATOM     17  C   UNL     1      55.070  24.195  55.519  1.00  0.00     0.000 C 
BRANCH  17  18
ATOM     18  C   UNL     1      53.617  24.147  55.023  1.00  0.00     0.000 C 
BRANCH  18  19
ATOM     19  C   UNL     1      53.097  22.711  54.852  1.00  0.00     0.000 C 
BRANCH  19  20
ATOM     20  C   UNL     1      51.568  22.691  54.737  1.00  0.00     0.006 C 
BRANCH  20  21
ATOM     21  C   UNL     1      51.127  22.179  53.364  1.00  0.00     0.053 C 
BRANCH  21  22
ATOM     22  C   UNL     1      49.655  22.374  53.180  1.00  0.00     0.041 C 
ATOM     23  O   UNL     1      49.013  23.126  53.960  1.00  0.00    -0.550 OA
ATOM     24  O   UNL     1      48.982  21.687  52.177  1.00  0.00    -0.550 OA
ENDBRANCH  21  22
ENDBRANCH  20  21
ENDBRANCH  19  20
ENDBRANCH  18  19
ENDBRANCH  17  18
ENDBRANCH  16  17
ENDBRANCH  15  16
ENDBRANCH  14  15
ENDBRANCH  13  14
ENDBRANCH   1  13
TORSDOF 20
ENDMDL
MODEL 3
REMARK VINA RESULT:    -4.315      2.198      6.191
REMARK INTER + INTRA:         -12.866
REMARK INTER:                  -9.833
REMARK INTRA:                  -3.032
REMARK UNBOUND:                -3.506
REMARK SMILES CCCCCCCCCCCCCCCCCCCCCC(=O)[O-]
REMARK SMILES IDX 12 1 11 2 10 3 9 4 8 5 7 6 6 7 5 8 4 9 3 10 2 11 1 12 13 13
REMARK SMILES IDX 14 14 15 15 16 16 17 17 18 18 19 19 20 20 21 21 22 22 23 23
REMARK SMILES IDX 24 24
REMARK H PARENT
REMARK Flexibility Score: inf
ROOT
ATOM      1  C   UNL     1      55.019  23.738  47.626  1.00  0.00     0.000 C 
ENDROOT
BRANCH   1   2
ATOM      2  C   UNL     1      53.866  23.758  48.645  1.00  0.00     0.000 C 
BRANCH   2   3
ATOM      3  C   UNL     1      53.810  25.062  49.458  1.00  0.00     0.000 C 
BRANCH   3   4
ATOM      4  C   UNL     1      53.670  24.878  50.982  1.00  0.00    -0.000 C 
BRANCH   4   5
ATOM      5  C   UNL     1      52.889  23.610  51.388  1.00  0.00    -0.000 C 
BRANCH   5   6
ATOM      6  C   UNL     1      52.938  23.358  52.905  1.00  0.00    -0.000 C 
BRANCH   6   7
ATOM      7  C   UNL     1      52.949  21.853  53.255  1.00  0.00    -0.000 C 
BRANCH   7   8
ATOM      8  C   UNL     1      51.745  21.405  54.104  1.00  0.00    -0.000 C 
BRANCH   8   9
ATOM      9  C   UNL     1      50.918  22.550  54.720  1.00  0.00    -0.000 C 
BRANCH   9  10
ATOM     10  C   UNL     1      49.391  22.380  54.614  1.00  0.00    -0.000 C 
BRANCH  10  11
ATOM     11  C   UNL     1      48.946  21.816  53.258  1.00  0.00    -0.003 C 
ATOM     12  C   UNL     1      49.243  22.800  52.129  1.00  0.00     0.004 C 
ENDBRANCH  10  11
ENDBRANCH   9  10
ENDBRANCH   8   9
ENDBRANCH   7   8
ENDBRANCH   6   7
ENDBRANCH   5   6
ENDBRANCH   4   5
ENDBRANCH   3   4
ENDBRANCH   2   3
ENDBRANCH   1   2
BRANCH   1  13
ATOM     13  C   UNL     1      56.331  23.188  48.217  1.00  0.00     0.000 C 
BRANCH  13  14
ATOM     14  C   UNL     1      56.809  21.852  47.620  1.00  0.00     0.000 C 
BRANCH  14  15
ATOM     15  C   UNL     1      56.840  20.712  48.651  1.00  0.00     0.000 C 
BRANCH  15  16
ATOM     16  C   UNL     1      55.434  20.298  49.117  1.00  0.00     0.000 C 
BRANCH  16  17
ATOM     17  C   UNL     1      55.083  20.849  50.511  1.00  0.00     0.000 C 
BRANCH  17  18
ATOM     18  C   UNL     1      56.330  21.149  51.357  1.00  0.00     0.000 C 
BRANCH  18  19
ATOM     19  C   UNL     1      56.297  22.551  51.984  1.00  0.00     0.000 C 
BRANCH  19  20
ATOM     20  C   UNL     1      57.102  22.588  53.288  1.00  0.00     0.006 C 
BRANCH  20  21
ATOM     21  C   UNL     1      56.595  21.535  54.277  1.00  0.00     0.053 C 
BRANCH  21  22
ATOM     22  C   UNL     1      56.709  22.038  55.682  1.00  0.00     0.041 C 
ATOM     23  O   UNL     1      56.525  23.258  55.935  1.00  0.00    -0.550 OA
ATOM     24  O   UNL     1      57.068  21.169  56.705  1.00  0.00    -0.550 OA
ENDBRANCH  21  22
ENDBRANCH  20  21
ENDBRANCH  19  20
ENDBRANCH  18  19
ENDBRANCH  17  18
ENDBRANCH  16  17
ENDBRANCH  15  16
ENDBRANCH  14  15
ENDBRANCH  13  14
ENDBRANCH   1  13
TORSDOF 20
ENDMDL
MODEL 4
REMARK VINA RESULT:    -4.308      0.979      2.151
REMARK INTER + INTRA:         -12.852
REMARK INTER:                  -9.777
REMARK INTRA:                  -3.075
REMARK UNBOUND:                -3.506
REMARK SMILES CCCCCCCCCCCCCCCCCCCCCC(=O)[O-]
REMARK SMILES IDX 12 1 11 2 10 3 9 4 8 5 7 6 6 7 5 8 4 9 3 10 2 11 1 12 13 13
REMARK SMILES IDX 14 14 15 15 16 16 17 17 18 18 19 19 20 20 21 21 22 22 23 23
REMARK SMILES IDX 24 24
REMARK H PARENT
REMARK Flexibility Score: inf
ROOT
ATOM      1  C   UNL     1      55.006  23.666  51.501  1.00  0.00     0.000 C 
ENDROOT
BRANCH   1   2
ATOM      2  C   UNL     1      54.250  24.964  51.165  1.00  0.00     0.000 C 
BRANCH   2   3
ATOM      3  C   UNL     1      53.298  24.806  49.968  1.00  0.00     0.000 C 
BRANCH   3   4
ATOM      4  C   UNL     1      53.808  23.883  48.843  1.00  0.00    -0.000 C 
BRANCH   4   5
ATOM      5  C   UNL     1      53.792  24.536  47.445  1.00  0.00    -0.000 C 
BRANCH   5   6
ATOM      6  C   UNL     1      55.201  24.940  46.975  1.00  0.00    -0.000 C 
BRANCH   6   7
ATOM      7  C   UNL     1      56.311  24.407  47.906  1.00  0.00    -0.000 C 
BRANCH   7   8
ATOM      8  C   UNL     1      57.240  23.375  47.239  1.00  0.00    -0.000 C 
BRANCH   8   9
ATOM      9  C   UNL     1      56.861  21.902  47.484  1.00  0.00    -0.000 C 
BRANCH   9  10
ATOM     10  C   UNL     1      56.045  21.645  48.764  1.00  0.00    -0.000 C 
BRANCH  10  11
ATOM     11  C   UNL     1      56.089  20.180  49.217  1.00  0.00    -0.003 C 
ATOM     12  C   UNL     1      57.294  19.457  48.622  1.00  0.00     0.004 C 
ENDBRANCH  10  11
ENDBRANCH   9  10
ENDBRANCH   8   9
ENDBRANCH   7   8
ENDBRANCH   6   7
ENDBRANCH   5   6
ENDBRANCH   4   5
ENDBRANCH   3   4
ENDBRANCH   2   3
ENDBRANCH   1   2
BRANCH   1  13
ATOM     13  C   UNL     1      56.523  23.881  51.662  1.00  0.00     0.000 C 
BRANCH  13  14
ATOM     14  C   UNL     1      57.166  23.149  52.854  1.00  0.00     0.000 C 
BRANCH  14  15
ATOM     15  C   UNL     1      56.570  21.752  53.093  1.00  0.00     0.000 C 
BRANCH  15  16
ATOM     16  C   UNL     1      56.369  21.443  54.586  1.00  0.00     0.000 C 
BRANCH  16  17
ATOM     17  C   UNL     1      56.593  22.673  55.484  1.00  0.00     0.000 C 
BRANCH  17  18
ATOM     18  C   UNL     1      55.283  23.226  56.064  1.00  0.00     0.000 C 
BRANCH  18  19
ATOM     19  C   UNL     1      54.559  24.172  55.094  1.00  0.00     0.000 C 
BRANCH  19  20
ATOM     20  C   UNL     1      53.043  23.944  55.133  1.00  0.00     0.006 C 
BRANCH  20  21
ATOM     21  C   UNL     1      52.707  22.456  54.997  1.00  0.00     0.053 C 
BRANCH  21  22
ATOM     22  C   UNL     1      52.430  22.111  53.568  1.00  0.00     0.041 C 
ATOM     23  O   UNL     1      51.533  22.723  52.931  1.00  0.00    -0.550 OA
ATOM     24  O   UNL     1      53.128  21.079  52.953  1.00  0.00    -0.550 OA
ENDBRANCH  21  22
ENDBRANCH  20  21
ENDBRANCH  19  20
ENDBRANCH  18  19
ENDBRANCH  17  18
ENDBRANCH  16  17
ENDBRANCH  15  16
ENDBRANCH  14  15
ENDBRANCH  13  14
ENDBRANCH   1  13
TORSDOF 20
ENDMDL
MODEL 5
REMARK VINA RESULT:    -4.261      2.707      3.970
REMARK INTER + INTRA:         -12.748
REMARK INTER:                 -10.396
REMARK INTRA:                  -2.353
REMARK UNBOUND:                -3.506
REMARK SMILES CCCCCCCCCCCCCCCCCCCCCC(=O)[O-]
REMARK SMILES IDX 12 1 11 2 10 3 9 4 8 5 7 6 6 7 5 8 4 9 3 10 2 11 1 12 13 13
REMARK SMILES IDX 14 14 15 15 16 16 17 17 18 18 19 19 20 20 21 21 22 22 23 23
REMARK SMILES IDX 24 24
REMARK H PARENT
REMARK Flexibility Score: inf
ROOT
ATOM      1  C   UNL     1      55.477  21.547  53.085  1.00  0.00     0.000 C 
ENDROOT
BRANCH   1   2
ATOM      2  C   UNL     1      55.458  23.002  52.584  1.00  0.00     0.000 C 
BRANCH   2   3
ATOM      3  C   UNL     1      54.362  23.258  51.536  1.00  0.00     0.000 C 
BRANCH   3   4
ATOM      4  C   UNL     1      54.297  24.699  50.994  1.00  0.00    -0.000 C 
BRANCH   4   5
ATOM      5  C   UNL     1      53.415  24.855  49.737  1.00  0.00    -0.000 C 
BRANCH   5   6
ATOM      6  C   UNL     1      53.636  23.716  48.727  1.00  0.00    -0.000 C 
BRANCH   6   7
ATOM      7  C   UNL     1      54.361  24.190  47.449  1.00  0.00    -0.000 C 
BRANCH   7   8
ATOM      8  C   UNL     1      55.894  24.056  47.518  1.00  0.00    -0.000 C 
BRANCH   8   9
ATOM      9  C   UNL     1      56.408  22.898  48.396  1.00  0.00    -0.000 C 
BRANCH   9  10
ATOM     10  C   UNL     1      56.858  21.646  47.621  1.00  0.00    -0.000 C 
BRANCH  10  11
ATOM     11  C   UNL     1      56.619  20.344  48.398  1.00  0.00    -0.003 C 
ATOM     12  C   UNL     1      55.644  20.564  49.551  1.00  0.00     0.004 C 
ENDBRANCH  10  11
ENDBRANCH   9  10
ENDBRANCH   8   9
ENDBRANCH   7   8
ENDBRANCH   6   7
ENDBRANCH   5   6
ENDBRANCH   4   5
ENDBRANCH   3   4
ENDBRANCH   2   3
ENDBRANCH   1   2
BRANCH   1  13
ATOM     13  C   UNL     1      54.233  21.184  53.917  1.00  0.00     0.000 C 
BRANCH  13  14
ATOM     14  C   UNL     1      53.809  22.235  54.958  1.00  0.00     0.000 C 
BRANCH  14  15
ATOM     15  C   UNL     1      52.363  22.720  54.766  1.00  0.00     0.000 C 
BRANCH  15  16
ATOM     16  C   UNL     1      51.563  21.827  53.802  1.00  0.00     0.000 C 
BRANCH  16  17
ATOM     17  C   UNL     1      50.632  22.632  52.878  1.00  0.00     0.000 C 
BRANCH  17  18
ATOM     18  C   UNL     1      49.166  22.189  52.987  1.00  0.00     0.000 C 
BRANCH  18  19
ATOM     19  C   UNL     1      48.518  22.606  54.316  1.00  0.00     0.000 C 
BRANCH  19  20
ATOM     20  C   UNL     1      48.400  21.411  55.269  1.00  0.00     0.006 C 
BRANCH  20  21
ATOM     21  C   UNL     1      47.007  20.781  55.190  1.00  0.00     0.053 C 
BRANCH  21  22
ATOM     22  C   UNL     1      46.265  20.988  56.472  1.00  0.00     0.041 C 
ATOM     23  O   UNL     1      46.774  21.679  57.395  1.00  0.00    -0.550 OA
ATOM     24  O   UNL     1      45.033  20.377  56.671  1.00  0.00    -0.550 OA
ENDBRANCH  21  22
ENDBRANCH  20  21
ENDBRANCH  19  20
ENDBRANCH  18  19
ENDBRANCH  17  18
ENDBRANCH  16  17
ENDBRANCH  15  16
ENDBRANCH  14  15
ENDBRANCH  13  14
ENDBRANCH   1  13
TORSDOF 20
ENDMDL
MODEL 6
REMARK VINA RESULT:    -4.209      1.256      2.074
REMARK INTER + INTRA:         -12.637
REMARK INTER:                  -9.627
REMARK INTRA:                  -3.010
REMARK UNBOUND:                -3.506
REMARK SMILES CCCCCCCCCCCCCCCCCCCCCC(=O)[O-]
REMARK SMILES IDX 12 1 11 2 10 3 9 4 8 5 7 6 6 7 5 8 4 9 3 10 2 11 1 12 13 13
REMARK SMILES IDX 14 14 15 15 16 16 17 17 18 18 19 19 20 20 21 21 22 22 23 23
REMARK SMILES IDX 24 24
REMARK H PARENT
REMARK Flexibility Score: inf
ROOT
ATOM      1  C   UNL     1      56.617  23.788  52.165  1.00  0.00     0.000 C 
ENDROOT
BRANCH   1   2
ATOM      2  C   UNL     1      55.415  24.555  51.586  1.00  0.00     0.000 C 
BRANCH   2   3
ATOM      3  C   UNL     1      54.106  23.752  51.656  1.00  0.00     0.000 C 
BRANCH   3   4
ATOM      4  C   UNL     1      52.968  24.275  50.758  1.00  0.00    -0.000 C 
BRANCH   4   5
ATOM      5  C   UNL     1      53.454  24.879  49.423  1.00  0.00    -0.000 C 
BRANCH   5   6
ATOM      6  C   UNL     1      53.731  23.798  48.363  1.00  0.00    -0.000 C 
BRANCH   6   7
ATOM      7  C   UNL     1      54.639  24.308  47.222  1.00  0.00    -0.000 C 
BRANCH   7   8
ATOM      8  C   UNL     1      56.127  23.960  47.410  1.00  0.00    -0.000 C 
BRANCH   8   9
ATOM      9  C   UNL     1      56.416  22.885  48.475  1.00  0.00    -0.000 C 
BRANCH   9  10
ATOM     10  C   UNL     1      56.769  21.494  47.915  1.00  0.00    -0.000 C 
BRANCH  10  11
ATOM     11  C   UNL     1      56.077  20.352  48.672  1.00  0.00    -0.003 C 
ATOM     12  C   UNL     1      55.619  20.808  50.054  1.00  0.00     0.004 C 
ENDBRANCH  10  11
ENDBRANCH   9  10
ENDBRANCH   8   9
ENDBRANCH   7   8
ENDBRANCH   6   7
ENDBRANCH   5   6
ENDBRANCH   4   5
ENDBRANCH   3   4
ENDBRANCH   2   3
ENDBRANCH   1   2
BRANCH   1  13
ATOM     13  C   UNL     1      57.558  24.684  52.992  1.00  0.00     0.000 C 
BRANCH  13  14
ATOM     14  C   UNL     1      57.654  24.333  54.488  1.00  0.00     0.000 C 
BRANCH  14  15
ATOM     15  C   UNL     1      56.408  23.602  55.013  1.00  0.00     0.000 C 
BRANCH  15  16
ATOM     16  C   UNL     1      56.750  22.265  55.691  1.00  0.00     0.000 C 
BRANCH  16  17
ATOM     17  C   UNL     1      56.334  21.046  54.848  1.00  0.00     0.000 C 
BRANCH  17  18
ATOM     18  C   UNL     1      55.117  21.334  53.956  1.00  0.00     0.000 C 
BRANCH  18  19
ATOM     19  C   UNL     1      53.790  20.929  54.615  1.00  0.00     0.000 C 
BRANCH  19  20
ATOM     20  C   UNL     1      52.707  21.984  54.361  1.00  0.00     0.006 C 
BRANCH  20  21
ATOM     21  C   UNL     1      51.510  21.377  53.624  1.00  0.00     0.053 C 
BRANCH  21  22
ATOM     22  C   UNL     1      50.386  22.361  53.551  1.00  0.00     0.041 C 
ATOM     23  O   UNL     1      49.961  22.756  52.433  1.00  0.00    -0.550 OA
ATOM     24  O   UNL     1      49.838  22.881  54.718  1.00  0.00    -0.550 OA
ENDBRANCH  21  22
ENDBRANCH  20  21
ENDBRANCH  19  20
ENDBRANCH  18  19
ENDBRANCH  17  18
ENDBRANCH  16  17
ENDBRANCH  15  16
ENDBRANCH  14  15
ENDBRANCH  13  14
ENDBRANCH   1  13
TORSDOF 20
ENDMDL
MODEL 7
REMARK VINA RESULT:    -4.204      2.907      5.985
REMARK INTER + INTRA:         -12.625
REMARK INTER:                  -9.212
REMARK INTRA:                  -3.413
REMARK UNBOUND:                -3.506
REMARK SMILES CCCCCCCCCCCCCCCCCCCCCC(=O)[O-]
REMARK SMILES IDX 12 1 11 2 10 3 9 4 8 5 7 6 6 7 5 8 4 9 3 10 2 11 1 12 13 13
REMARK SMILES IDX 14 14 15 15 16 16 17 17 18 18 19 19 20 20 21 21 22 22 23 23
REMARK SMILES IDX 24 24
REMARK H PARENT
REMARK Flexibility Score: inf
ROOT
ATOM      1  C   UNL     1      54.453  23.282  48.446  1.00  0.00     0.000 C 
ENDROOT
BRANCH   1   2
ATOM      2  C   UNL     1      53.427  23.731  49.501  1.00  0.00     0.000 C 
BRANCH   2   3
ATOM      3  C   UNL     1      53.775  25.090  50.131  1.00  0.00     0.000 C 
BRANCH   3   4
ATOM      4  C   UNL     1      53.767  25.118  51.673  1.00  0.00    -0.000 C 
BRANCH   4   5
ATOM      5  C   UNL     1      53.246  23.816  52.318  1.00  0.00    -0.000 C 
BRANCH   5   6
ATOM      6  C   UNL     1      53.564  23.745  53.822  1.00  0.00    -0.000 C 
BRANCH   6   7
ATOM      7  C   UNL     1      53.345  22.333  54.407  1.00  0.00    -0.000 C 
BRANCH   7   8
ATOM      8  C   UNL     1      52.703  21.343  53.418  1.00  0.00    -0.000 C 
BRANCH   8   9
ATOM      9  C   UNL     1      51.235  20.982  53.716  1.00  0.00    -0.000 C 
BRANCH   9  10
ATOM     10  C   UNL     1      50.450  22.050  54.501  1.00  0.00    -0.000 C 
BRANCH  10  11
ATOM     11  C   UNL     1      49.584  22.938  53.598  1.00  0.00    -0.003 C 
ATOM     12  C   UNL     1      49.280  22.244  52.273  1.00  0.00     0.004 C 
ENDBRANCH  10  11
ENDBRANCH   9  10
ENDBRANCH   8   9
ENDBRANCH   7   8
ENDBRANCH   6   7
ENDBRANCH   5   6
ENDBRANCH   4   5
ENDBRANCH   3   4
ENDBRANCH   2   3
ENDBRANCH   1   2
BRANCH   1  13
ATOM     13  C   UNL     1      55.647  22.524  49.055  1.00  0.00     0.000 C 
BRANCH  13  14
ATOM     14  C   UNL     1      55.292  21.207  49.770  1.00  0.00     0.000 C 
BRANCH  14  15
ATOM     15  C   UNL     1      55.613  21.236  51.274  1.00  0.00     0.000 C 
BRANCH  15  16
ATOM     16  C   UNL     1      56.325  22.531  51.701  1.00  0.00     0.000 C 
BRANCH  16  17
ATOM     17  C   UNL     1      56.987  22.416  53.086  1.00  0.00     0.000 C 
BRANCH  17  18
ATOM     18  C   UNL     1      56.848  21.011  53.691  1.00  0.00     0.000 C 
BRANCH  18  19
ATOM     19  C   UNL     1      56.651  21.040  55.214  1.00  0.00     0.000 C 
BRANCH  19  20
ATOM     20  C   UNL     1      56.853  22.456  55.767  1.00  0.00     0.006 C 
BRANCH  20  21
ATOM     21  C   UNL     1      56.959  22.439  57.295  1.00  0.00     0.053 C 
BRANCH  21  22
ATOM     22  C   UNL     1      58.379  22.234  57.719  1.00  0.00     0.041 C 
ATOM     23  O   UNL     1      58.767  21.100  58.107  1.00  0.00    -0.550 OA
ATOM     24  O   UNL     1      59.263  23.305  57.734  1.00  0.00    -0.550 OA
ENDBRANCH  21  22
ENDBRANCH  20  21
ENDBRANCH  19  20
ENDBRANCH  18  19
ENDBRANCH  17  18
ENDBRANCH  16  17
ENDBRANCH  15  16
ENDBRANCH  14  15
ENDBRANCH  13  14
ENDBRANCH   1  13
TORSDOF 20
ENDMDL
MODEL 8
REMARK VINA RESULT:    -4.156      1.983      6.838
REMARK INTER + INTRA:         -12.521
REMARK INTER:                  -8.993
REMARK INTRA:                  -3.528
REMARK UNBOUND:                -3.506
REMARK SMILES CCCCCCCCCCCCCCCCCCCCCC(=O)[O-]
REMARK SMILES IDX 12 1 11 2 10 3 9 4 8 5 7 6 6 7 5 8 4 9 3 10 2 11 1 12 13 13
REMARK SMILES IDX 14 14 15 15 16 16 17 17 18 18 19 19 20 20 21 21 22 22 23 23
REMARK SMILES IDX 24 24
REMARK H PARENT
REMARK Flexibility Score: inf
ROOT
ATOM      1  C   UNL     1      55.100  22.406  51.940  1.00  0.00     0.000 C 
ENDROOT
BRANCH   1   2
ATOM      2  C   UNL     1      55.530  21.379  53.002  1.00  0.00     0.000 C 
BRANCH   2   3
ATOM      3  C   UNL     1      56.773  21.822  53.791  1.00  0.00     0.000 C 
BRANCH   3   4
ATOM      4  C   UNL     1      56.609  21.824  55.324  1.00  0.00    -0.000 C 
BRANCH   4   5
ATOM      5  C   UNL     1      56.293  23.214  55.916  1.00  0.00    -0.000 C 
BRANCH   5   6
ATOM      6  C   UNL     1      54.800  23.379  56.250  1.00  0.00    -0.000 C 
BRANCH   6   7
ATOM      7  C   UNL     1      54.116  24.459  55.382  1.00  0.00    -0.000 C 
BRANCH   7   8
ATOM      8  C   UNL     1      52.936  23.928  54.547  1.00  0.00    -0.000 C 
BRANCH   8   9
ATOM      9  C   UNL     1      52.508  22.483  54.868  1.00  0.00    -0.000 C 
BRANCH   9  10
ATOM     10  C   UNL     1      51.837  21.730  53.703  1.00  0.00    -0.000 C 
BRANCH  10  11
ATOM     11  C   UNL     1      50.638  22.486  53.115  1.00  0.00    -0.003 C 
ATOM     12  C   UNL     1      49.343  22.099  53.824  1.00  0.00     0.004 C 
ENDBRANCH  10  11
ENDBRANCH   9  10
ENDBRANCH   8   9
ENDBRANCH   7   8
ENDBRANCH   6   7
ENDBRANCH   5   6
ENDBRANCH   4   5
ENDBRANCH   3   4
ENDBRANCH   2   3
ENDBRANCH   1   2
BRANCH   1  13
ATOM     13  C   UNL     1      55.807  23.764  52.098  1.00  0.00     0.000 C 
BRANCH  13  14
ATOM     14  C   UNL     1      55.116  24.950  51.401  1.00  0.00     0.000 C 
BRANCH  14  15
ATOM     15  C   UNL     1      53.653  24.658  51.030  1.00  0.00     0.000 C 
BRANCH  15  16
ATOM     16  C   UNL     1      53.358  24.914  49.543  1.00  0.00     0.000 C 
BRANCH  16  17
ATOM     17  C   UNL     1      53.927  23.817  48.626  1.00  0.00     0.000 C 
BRANCH  17  18
ATOM     18  C   UNL     1      54.705  24.391  47.433  1.00  0.00     0.000 C 
BRANCH  18  19
ATOM     19  C   UNL     1      56.118  23.802  47.309  1.00  0.00     0.000 C 
BRANCH  19  20
ATOM     20  C   UNL     1      56.357  22.720  48.370  1.00  0.00     0.006 C 
BRANCH  20  21
ATOM     21  C   UNL     1      56.840  21.418  47.727  1.00  0.00     0.053 C 
BRANCH  21  22
ATOM     22  C   UNL     1      56.619  20.264  48.653  1.00  0.00     0.041 C 
ATOM     23  O   UNL     1      55.592  20.223  49.381  1.00  0.00    -0.550 OA
ATOM     24  O   UNL     1      57.570  19.256  48.749  1.00  0.00    -0.550 OA
ENDBRANCH  21  22
ENDBRANCH  20  21
ENDBRANCH  19  20
ENDBRANCH  18  19
ENDBRANCH  17  18
ENDBRANCH  16  17
ENDBRANCH  15  16
ENDBRANCH  14  15
ENDBRANCH  13  14
ENDBRANCH   1  13
TORSDOF 20
ENDMDL
MODEL 9
REMARK VINA RESULT:    -4.140      1.389      5.360
REMARK INTER + INTRA:         -12.487
REMARK INTER:                  -8.930
REMARK INTRA:                  -3.557
REMARK UNBOUND:                -3.506
REMARK SMILES CCCCCCCCCCCCCCCCCCCCCC(=O)[O-]
REMARK SMILES IDX 12 1 11 2 10 3 9 4 8 5 7 6 6 7 5 8 4 9 3 10 2 11 1 12 13 13
REMARK SMILES IDX 14 14 15 15 16 16 17 17 18 18 19 19 20 20 21 21 22 22 23 23
REMARK SMILES IDX 24 24
REMARK H PARENT
REMARK Flexibility Score: inf
ROOT
ATOM      1  C   UNL     1      55.853  22.823  48.020  1.00  0.00     0.000 C 
ENDROOT
BRANCH   1   2
ATOM      2  C   UNL     1      56.717  21.549  48.023  1.00  0.00     0.000 C 
BRANCH   2   3
ATOM      3  C   UNL     1      56.380  20.603  49.187  1.00  0.00     0.000 C 
BRANCH   3   4
ATOM      4  C   UNL     1      54.968  20.773  49.781  1.00  0.00    -0.000 C 
BRANCH   4   5
ATOM      5  C   UNL     1      54.960  21.098  51.290  1.00  0.00    -0.000 C 
BRANCH   5   6
ATOM      6  C   UNL     1      56.234  21.840  51.732  1.00  0.00    -0.000 C 
BRANCH   6   7
ATOM      7  C   UNL     1      56.793  21.310  53.071  1.00  0.00    -0.000 C 
BRANCH   7   8
ATOM      8  C   UNL     1      55.738  21.205  54.187  1.00  0.00    -0.000 C 
BRANCH   8   9
ATOM      9  C   UNL     1      56.231  21.606  55.591  1.00  0.00    -0.000 C 
BRANCH   9  10
ATOM     10  C   UNL     1      57.148  22.843  55.629  1.00  0.00    -0.000 C 
BRANCH  10  11
ATOM     11  C   UNL     1      56.407  24.146  55.300  1.00  0.00    -0.003 C 
ATOM     12  C   UNL     1      57.109  24.910  54.181  1.00  0.00     0.004 C 
ENDBRANCH  10  11
ENDBRANCH   9  10
ENDBRANCH   8   9
ENDBRANCH   7   8
ENDBRANCH   6   7
ENDBRANCH   5   6
ENDBRANCH   4   5
ENDBRANCH   3   4
ENDBRANCH   2   3
ENDBRANCH   1   2
BRANCH   1  13
ATOM     13  C   UNL     1      56.519  24.000  48.758  1.00  0.00     0.000 C 
BRANCH  13  14
ATOM     14  C   UNL     1      55.554  24.929  49.517  1.00  0.00     0.000 C 
BRANCH  14  15
ATOM     15  C   UNL     1      54.075  24.615  49.238  1.00  0.00     0.000 C 
BRANCH  15  16
ATOM     16  C   UNL     1      53.280  24.326  50.522  1.00  0.00     0.000 C 
BRANCH  16  17
ATOM     17  C   UNL     1      53.930  24.939  51.775  1.00  0.00     0.000 C 
BRANCH  17  18
ATOM     18  C   UNL     1      53.645  24.124  53.046  1.00  0.00     0.000 C 
BRANCH  18  19
ATOM     19  C   UNL     1      52.578  23.041  52.828  1.00  0.00     0.000 C 
BRANCH  19  20
ATOM     20  C   UNL     1      51.673  22.907  54.058  1.00  0.00     0.006 C 
BRANCH  20  21
ATOM     21  C   UNL     1      50.609  21.827  53.844  1.00  0.00     0.053 C 
BRANCH  21  22
ATOM     22  C   UNL     1      49.335  22.438  53.353  1.00  0.00     0.041 C 
ATOM     23  O   UNL     1      49.152  22.620  52.120  1.00  0.00    -0.550 OA
ATOM     24  O   UNL     1      48.366  22.851  54.260  1.00  0.00    -0.550 OA
ENDBRANCH  21  22
ENDBRANCH  20  21
ENDBRANCH  19  20
ENDBRANCH  18  19
ENDBRANCH  17  18
ENDBRANCH  16  17
ENDBRANCH  15  16
ENDBRANCH  14  15
ENDBRANCH  13  14
ENDBRANCH   1  13
TORSDOF 20
ENDMDL
