MODEL 1
REMARK VINA RESULT:    -3.987      0.000      0.000
REMARK INTER + INTRA:          -4.104
REMARK INTER:                  -4.104
REMARK INTRA:                   0.000
REMARK UNBOUND:                 0.000
REMARK SMILES Oc1ccc2[nH]ccc2c1
REMARK SMILES IDX 3 1 4 2 5 3 9 4 8 5 7 6 6 7 10 8 2 9 1 11
REMARK H PARENT 6 10 1 12
REMARK Flexibility Score: inf
ROOT
ATOM      1  C   UNL     1     140.656 139.405 128.200  1.00  0.00     0.048 A 
ATOM      2  C   UNL     1     140.610 138.037 127.875  1.00  0.00     0.030 A 
ATOM      3  C   UNL     1     140.299 137.137 128.893  1.00  0.00     0.046 A 
ATOM      4  C   UNL     1     140.044 137.556 130.171  1.00  0.00     0.003 A 
ATOM      5  C   UNL     1     139.773 136.435 130.926  1.00  0.00     0.028 A 
ATOM      6  C   UNL     1     139.881 135.367 130.041  1.00  0.00     0.083 A 
ATOM      7  N   UNL     1     140.204 135.800 128.800  1.00  0.00    -0.361 N 
ATOM      8  C   UNL     1     140.080 138.902 130.526  1.00  0.00     0.056 A 
ATOM      9  C   UNL     1     140.392 139.840 129.523  1.00  0.00     0.116 A 
ATOM     10  H   UNL     1     140.346 135.213 127.949  1.00  0.00     0.166 HD
ENDROOT
BRANCH   9  11
ATOM     11  O   UNL     1     140.438 141.195 129.843  1.00  0.00    -0.508 OA
ATOM     12  H   UNL     1     140.229 141.908 129.154  1.00  0.00     0.293 HD
ENDBRANCH   9  11
TORSDOF 1
ENDMDL
MODEL 2
REMARK VINA RESULT:    -3.976      3.958      4.550
REMARK INTER + INTRA:          -4.092
REMARK INTER:                  -4.092
REMARK INTRA:                   0.000
REMARK UNBOUND:                 0.000
REMARK SMILES Oc1ccc2[nH]ccc2c1
REMARK SMILES IDX 3 1 4 2 5 3 9 4 8 5 7 6 6 7 10 8 2 9 1 11
REMARK H PARENT 6 10 1 12
REMARK Flexibility Score: inf
ROOT
ATOM      1  C   UNL     1     139.430 134.445 128.186  1.00  0.00     0.048 A 
ATOM      2  C   UNL     1     138.058 134.479 127.878  1.00  0.00     0.030 A 
ATOM      3  C   UNL     1     137.173 134.844 128.891  1.00  0.00     0.046 A 
ATOM      4  C   UNL     1     137.610 135.161 130.149  1.00  0.00     0.003 A 
ATOM      5  C   UNL     1     136.500 135.473 130.904  1.00  0.00     0.028 A 
ATOM      6  C   UNL     1     135.420 135.325 130.040  1.00  0.00     0.083 A 
ATOM      7  N   UNL     1     135.835 134.940 128.811  1.00  0.00    -0.361 N 
ATOM      8  C   UNL     1     138.960 135.137 130.487  1.00  0.00     0.056 A 
ATOM      9  C   UNL     1     139.884 134.773 129.488  1.00  0.00     0.116 A 
ATOM     10  H   UNL     1     135.236 134.758 127.976  1.00  0.00     0.166 HD
ENDROOT
BRANCH   9  11
ATOM     11  O   UNL     1     141.242 134.738 129.793  1.00  0.00    -0.508 OA
ATOM     12  H   UNL     1     141.656 133.947 130.273  1.00  0.00     0.293 HD
ENDBRANCH   9  11
TORSDOF 1
ENDMDL
MODEL 3
REMARK VINA RESULT:    -3.949      3.977      4.553
REMARK INTER + INTRA:          -4.064
REMARK INTER:                  -4.064
REMARK INTRA:                   0.000
REMARK UNBOUND:                 0.000
REMARK SMILES Oc1ccc2[nH]ccc2c1
REMARK SMILES IDX 3 1 4 2 5 3 9 4 8 5 7 6 6 7 10 8 2 9 1 11
REMARK H PARENT 6 10 1 12
REMARK Flexibility Score: inf
ROOT
ATOM      1  C   UNL     1     135.807 140.610 128.163  1.00  0.00     0.048 A 
ATOM      2  C   UNL     1     137.184 140.583 127.875  1.00  0.00     0.030 A 
ATOM      3  C   UNL     1     138.061 140.288 128.918  1.00  0.00     0.046 A 
ATOM      4  C   UNL     1     137.611 140.031 130.185  1.00  0.00     0.003 A 
ATOM      5  C   UNL     1     138.715 139.780 130.971  1.00  0.00     0.028 A 
ATOM      6  C   UNL     1     139.805 139.900 130.115  1.00  0.00     0.083 A 
ATOM      7  N   UNL     1     139.401 140.212 128.861  1.00  0.00    -0.361 N 
ATOM      8  C   UNL     1     136.256 140.050 130.504  1.00  0.00     0.056 A 
ATOM      9  C   UNL     1     135.341 140.344 129.475  1.00  0.00     0.116 A 
ATOM     10  H   UNL     1     140.008 140.359 128.025  1.00  0.00     0.166 HD
ENDROOT
BRANCH   9  11
ATOM     11  O   UNL     1     133.978 140.372 129.759  1.00  0.00    -0.508 OA
ATOM     12  H   UNL     1     133.490 141.244 129.925  1.00  0.00     0.293 HD
ENDBRANCH   9  11
TORSDOF 1
ENDMDL
MODEL 4
REMARK VINA RESULT:    -3.869      5.778      6.426
REMARK INTER + INTRA:          -3.982
REMARK INTER:                  -3.982
REMARK INTRA:                   0.000
REMARK UNBOUND:                 0.000
REMARK SMILES Oc1ccc2[nH]ccc2c1
REMARK SMILES IDX 3 1 4 2 5 3 9 4 8 5 7 6 6 7 10 8 2 9 1 11
REMARK H PARENT 6 10 1 12
REMARK Flexibility Score: inf
ROOT
ATOM      1  C   UNL     1     134.539 135.743 128.322  1.00  0.00     0.048 A 
ATOM      2  C   UNL     1     134.621 137.074 127.875  1.00  0.00     0.030 A 
ATOM      3  C   UNL     1     134.928 138.057 128.814  1.00  0.00     0.046 A 
ATOM      4  C   UNL     1     135.146 137.752 130.131  1.00  0.00     0.003 A 
ATOM      5  C   UNL     1     135.423 138.932 130.787  1.00  0.00     0.028 A 
ATOM      6  C   UNL     1     135.357 139.917 129.806  1.00  0.00     0.083 A 
ATOM      7  N   UNL     1     135.053 139.378 128.602  1.00  0.00    -0.361 N 
ATOM      8  C   UNL     1     135.073 136.445 130.605  1.00  0.00     0.056 A 
ATOM      9  C   UNL     1     134.765 135.426 129.685  1.00  0.00     0.116 A 
ATOM     10  H   UNL     1     134.943 139.887 127.698  1.00  0.00     0.166 HD
ENDROOT
BRANCH   9  11
ATOM     11  O   UNL     1     134.683 134.107 130.126  1.00  0.00    -0.508 OA
ATOM     12  H   UNL     1     135.505 133.601 130.436  1.00  0.00     0.293 HD
ENDBRANCH   9  11
TORSDOF 1
ENDMDL
MODEL 5
REMARK VINA RESULT:    -3.741      4.241      4.438
REMARK INTER + INTRA:          -3.850
REMARK INTER:                  -3.850
REMARK INTRA:                   0.000
REMARK UNBOUND:                 0.000
REMARK SMILES Oc1ccc2[nH]ccc2c1
REMARK SMILES IDX 3 1 4 2 5 3 9 4 8 5 7 6 6 7 10 8 2 9 1 11
REMARK H PARENT 6 10 1 12
REMARK Flexibility Score: inf
ROOT
ATOM      1  C   UNL     1     136.829 141.072 128.892  1.00  0.00     0.048 A 
ATOM      2  C   UNL     1     135.542 140.513 128.788  1.00  0.00     0.030 A 
ATOM      3  C   UNL     1     135.402 139.151 129.048  1.00  0.00     0.046 A 
ATOM      4  C   UNL     1     136.473 138.371 129.394  1.00  0.00     0.003 A 
ATOM      5  C   UNL     1     136.004 137.088 129.580  1.00  0.00     0.028 A 
ATOM      6  C   UNL     1     134.637 137.161 129.331  1.00  0.00     0.083 A 
ATOM      7  N   UNL     1     134.274 138.424 129.005  1.00  0.00    -0.361 N 
ATOM      8  C   UNL     1     137.758 138.892 129.506  1.00  0.00     0.056 A 
ATOM      9  C   UNL     1     137.937 140.265 129.250  1.00  0.00     0.116 A 
ATOM     10  H   UNL     1     133.313 138.758 128.772  1.00  0.00     0.166 HD
ENDROOT
BRANCH   9  11
ATOM     11  O   UNL     1     139.211 140.820 129.353  1.00  0.00    -0.508 OA
ATOM     12  H   UNL     1     139.529 141.536 128.710  1.00  0.00     0.293 HD
ENDBRANCH   9  11
TORSDOF 1
ENDMDL
MODEL 6
REMARK VINA RESULT:    -3.738      3.956      4.635
REMARK INTER + INTRA:          -3.847
REMARK INTER:                  -3.847
REMARK INTRA:                   0.000
REMARK UNBOUND:                 0.000
REMARK SMILES Oc1ccc2[nH]ccc2c1
REMARK SMILES IDX 3 1 4 2 5 3 9 4 8 5 7 6 6 7 10 8 2 9 1 11
REMARK H PARENT 6 10 1 12
REMARK Flexibility Score: inf
ROOT
ATOM      1  C   UNL     1     135.710 140.080 128.885  1.00  0.00     0.048 A 
ATOM      2  C   UNL     1     136.855 140.795 129.281  1.00  0.00     0.030 A 
ATOM      3  C   UNL     1     138.099 140.211 129.047  1.00  0.00     0.046 A 
ATOM      4  C   UNL     1     138.217 138.982 128.454  1.00  0.00     0.003 A 
ATOM      5  C   UNL     1     139.562 138.694 128.369  1.00  0.00     0.028 A 
ATOM      6  C   UNL     1     140.206 139.793 128.930  1.00  0.00     0.083 A 
ATOM      7  N   UNL     1     139.307 140.717 129.344  1.00  0.00    -0.361 N 
ATOM      8  C   UNL     1     137.105 138.249 128.050  1.00  0.00     0.056 A 
ATOM      9  C   UNL     1     135.832 138.808 128.271  1.00  0.00     0.116 A 
ATOM     10  H   UNL     1     139.516 141.633 129.798  1.00  0.00     0.166 HD
ENDROOT
BRANCH   9  11
ATOM     11  O   UNL     1     134.697 138.101 127.880  1.00  0.00    -0.508 OA
ATOM     12  H   UNL     1     134.202 138.327 127.025  1.00  0.00     0.293 HD
ENDBRANCH   9  11
TORSDOF 1
ENDMDL
MODEL 7
REMARK VINA RESULT:    -3.737      5.237      6.032
REMARK INTER + INTRA:          -3.847
REMARK INTER:                  -3.847
REMARK INTRA:                   0.000
REMARK UNBOUND:                 0.000
REMARK SMILES Oc1ccc2[nH]ccc2c1
REMARK SMILES IDX 3 1 4 2 5 3 9 4 8 5 7 6 6 7 10 8 2 9 1 11
REMARK H PARENT 6 10 1 12
REMARK Flexibility Score: inf
ROOT
ATOM      1  C   UNL     1     135.148 135.654 128.963  1.00  0.00     0.048 A 
ATOM      2  C   UNL     1     134.424 136.800 129.340  1.00  0.00     0.030 A 
ATOM      3  C   UNL     1     134.976 138.045 129.040  1.00  0.00     0.046 A 
ATOM      4  C   UNL     1     136.180 138.163 128.400  1.00  0.00     0.003 A 
ATOM      5  C   UNL     1     136.439 139.509 128.255  1.00  0.00     0.028 A 
ATOM      6  C   UNL     1     135.348 140.153 128.830  1.00  0.00     0.083 A 
ATOM      7  N   UNL     1     134.456 139.254 129.309  1.00  0.00    -0.361 N 
ATOM      8  C   UNL     1     136.921 137.049 128.013  1.00  0.00     0.056 A 
ATOM      9  C   UNL     1     136.395 135.775 128.301  1.00  0.00     0.116 A 
ATOM     10  H   UNL     1     133.552 139.463 129.786  1.00  0.00     0.166 HD
ENDROOT
BRANCH   9  11
ATOM     11  O   UNL     1     137.110 134.640 127.929  1.00  0.00    -0.508 OA
ATOM     12  H   UNL     1     136.827 134.072 127.138  1.00  0.00     0.293 HD
ENDBRANCH   9  11
TORSDOF 1
ENDMDL
MODEL 8
REMARK VINA RESULT:    -3.727      1.567      1.747
REMARK INTER + INTRA:          -3.836
REMARK INTER:                  -3.836
REMARK INTRA:                   0.000
REMARK UNBOUND:                 0.000
REMARK SMILES Oc1ccc2[nH]ccc2c1
REMARK SMILES IDX 3 1 4 2 5 3 9 4 8 5 7 6 6 7 10 8 2 9 1 11
REMARK H PARENT 6 10 1 12
REMARK Flexibility Score: inf
ROOT
ATOM      1  C   UNL     1     140.275 139.711 129.333  1.00  0.00     0.048 A 
ATOM      2  C   UNL     1     140.973 138.493 129.421  1.00  0.00     0.030 A 
ATOM      3  C   UNL     1     140.257 137.317 129.201  1.00  0.00     0.046 A 
ATOM      4  C   UNL     1     138.920 137.332 128.909  1.00  0.00     0.003 A 
ATOM      5  C   UNL     1     138.518 136.023 128.750  1.00  0.00     0.028 A 
ATOM      6  C   UNL     1     139.665 135.264 128.960  1.00  0.00     0.083 A 
ATOM      7  N   UNL     1     140.725 136.058 129.236  1.00  0.00    -0.361 N 
ATOM      8  C   UNL     1     138.200 138.520 128.814  1.00  0.00     0.056 A 
ATOM      9  C   UNL     1     138.890 139.728 129.031  1.00  0.00     0.116 A 
ATOM     10  H   UNL     1     141.703 135.752 129.433  1.00  0.00     0.166 HD
ENDROOT
BRANCH   9  11
ATOM     11  O   UNL     1     138.201 140.935 128.945  1.00  0.00    -0.508 OA
ATOM     12  H   UNL     1     137.314 141.004 128.460  1.00  0.00     0.293 HD
ENDBRANCH   9  11
TORSDOF 1
ENDMDL
MODEL 9
REMARK VINA RESULT:    -3.716      3.395      4.233
REMARK INTER + INTRA:          -3.825
REMARK INTER:                  -3.825
REMARK INTRA:                   0.000
REMARK UNBOUND:                 0.000
REMARK SMILES Oc1ccc2[nH]ccc2c1
REMARK SMILES IDX 3 1 4 2 5 3 9 4 8 5 7 6 6 7 10 8 2 9 1 11
REMARK H PARENT 6 10 1 12
REMARK Flexibility Score: inf
ROOT
ATOM      1  C   UNL     1     139.627 135.225 128.902  1.00  0.00     0.048 A 
ATOM      2  C   UNL     1     138.475 134.499 129.256  1.00  0.00     0.030 A 
ATOM      3  C   UNL     1     137.236 135.058 128.950  1.00  0.00     0.046 A 
ATOM      4  C   UNL     1     137.127 136.272 128.327  1.00  0.00     0.003 A 
ATOM      5  C   UNL     1     135.784 136.537 128.171  1.00  0.00     0.028 A 
ATOM      6  C   UNL     1     135.131 135.439 128.722  1.00  0.00     0.083 A 
ATOM      7  N   UNL     1     136.022 134.538 129.199  1.00  0.00    -0.361 N 
ATOM      8  C   UNL     1     138.247 137.015 127.963  1.00  0.00     0.056 A 
ATOM      9  C   UNL     1     139.517 136.482 128.257  1.00  0.00     0.116 A 
ATOM     10  H   UNL     1     135.806 133.627 129.661  1.00  0.00     0.166 HD
ENDROOT
BRANCH   9  11
ATOM     11  O   UNL     1     140.658 137.200 127.908  1.00  0.00    -0.508 OA
ATOM     12  H   UNL     1     141.579 136.911 128.216  1.00  0.00     0.293 HD
ENDBRANCH   9  11
TORSDOF 1
ENDMDL
