MODEL 1
REMARK VINA RESULT:    -4.787      0.000      0.000
REMARK INTER + INTRA:          -7.379
REMARK INTER:                  -7.025
REMARK INTRA:                  -0.354
REMARK UNBOUND:                -0.354
REMARK SMILES O=C([O-])CCCCCCCC(=O)[O-]
REMARK SMILES IDX 7 1 6 2 5 3 4 4 2 5 1 6 3 7 8 8 9 9 10 10 11 11 12 12 13 13
REMARK H PARENT
REMARK Flexibility Score: inf
ROOT
ATOM      1  C   UNL     1      13.680  29.872  61.960  1.00  0.00     0.000 C 
ENDROOT
BRANCH   1   2
ATOM      2  C   UNL     1      12.685  28.734  61.706  1.00  0.00     0.000 C 
BRANCH   2   3
ATOM      3  C   UNL     1      11.508  29.212  60.847  1.00  0.00     0.006 C 
BRANCH   3   4
ATOM      4  C   UNL     1      10.364  29.731  61.722  1.00  0.00     0.053 C 
BRANCH   4   5
ATOM      5  C   UNL     1       9.042  29.397  61.108  1.00  0.00     0.041 C 
ATOM      6  O   UNL     1       8.989  28.767  60.019  1.00  0.00    -0.550 OA
ATOM      7  O   UNL     1       7.867  29.826  61.712  1.00  0.00    -0.550 OA
ENDBRANCH   4   5
ENDBRANCH   3   4
ENDBRANCH   2   3
ENDBRANCH   1   2
BRANCH   1   8
ATOM      8  C   UNL     1      14.982  29.650  61.176  1.00  0.00     0.000 C 
BRANCH   8   9
ATOM      9  C   UNL     1      16.161  29.243  62.079  1.00  0.00     0.006 C 
BRANCH   9  10
ATOM     10  C   UNL     1      15.797  29.095  63.565  1.00  0.00     0.053 C 
BRANCH  10  11
ATOM     11  C   UNL     1      15.718  27.659  63.982  1.00  0.00     0.041 C 
ATOM     12  O   UNL     1      14.600  27.116  64.179  1.00  0.00    -0.550 OA
ATOM     13  O   UNL     1      16.883  26.930  64.187  1.00  0.00    -0.550 OA
ENDBRANCH  10  11
ENDBRANCH   9  10
ENDBRANCH   8   9
ENDBRANCH   1   8
TORSDOF 8
ENDMDL
MODEL 2
REMARK VINA RESULT:    -4.776      2.049      6.596
REMARK INTER + INTRA:          -7.363
REMARK INTER:                  -6.959
REMARK INTRA:                  -0.404
REMARK UNBOUND:                -0.354
REMARK SMILES O=C([O-])CCCCCCCC(=O)[O-]
REMARK SMILES IDX 7 1 6 2 5 3 4 4 2 5 1 6 3 7 8 8 9 9 10 10 11 11 12 12 13 13
REMARK H PARENT
REMARK Flexibility Score: inf
ROOT
ATOM      1  C   UNL     1      11.703  28.405  60.076  1.00  0.00     0.000 C 
ENDROOT
BRANCH   1   2
ATOM      2  C   UNL     1      12.349  28.576  61.456  1.00  0.00     0.000 C 
BRANCH   2   3
ATOM      3  C   UNL     1      13.541  29.539  61.391  1.00  0.00     0.006 C 
BRANCH   3   4
ATOM      4  C   UNL     1      14.687  29.056  62.283  1.00  0.00     0.053 C 
BRANCH   4   5
ATOM      5  C   UNL     1      15.968  29.726  61.899  1.00  0.00     0.041 C 
ATOM      6  O   UNL     1      16.334  29.752  60.694  1.00  0.00    -0.550 OA
ATOM      7  O   UNL     1      16.784  30.280  62.878  1.00  0.00    -0.550 OA
ENDBRANCH   4   5
ENDBRANCH   3   4
ENDBRANCH   2   3
ENDBRANCH   1   2
BRANCH   1   8
ATOM      8  C   UNL     1      11.400  29.769  59.437  1.00  0.00     0.000 C 
BRANCH   8   9
ATOM      9  C   UNL     1       9.891  30.069  59.359  1.00  0.00     0.006 C 
BRANCH   9  10
ATOM     10  C   UNL     1       9.004  29.047  60.085  1.00  0.00     0.053 C 
BRANCH  10  11
ATOM     11  C   UNL     1       8.310  29.646  61.269  1.00  0.00     0.041 C 
ATOM     12  O   UNL     1       8.750  29.447  62.431  1.00  0.00    -0.550 OA
ATOM     13  O   UNL     1       7.155  30.398  61.089  1.00  0.00    -0.550 OA
ENDBRANCH  10  11
ENDBRANCH   9  10
ENDBRANCH   8   9
ENDBRANCH   1   8
TORSDOF 8
ENDMDL
MODEL 3
REMARK VINA RESULT:    -4.766      1.157      6.145
REMARK INTER + INTRA:          -7.348
REMARK INTER:                  -6.778
REMARK INTRA:                  -0.570
REMARK UNBOUND:                -0.354
REMARK SMILES O=C([O-])CCCCCCCC(=O)[O-]
REMARK SMILES IDX 7 1 6 2 5 3 4 4 2 5 1 6 3 7 8 8 9 9 10 10 11 11 12 12 13 13
REMARK H PARENT
REMARK Flexibility Score: inf
ROOT
ATOM      1  C   UNL     1      14.070  30.310  62.321  1.00  0.00     0.000 C 
ENDROOT
BRANCH   1   2
ATOM      2  C   UNL     1      15.151  29.690  61.427  1.00  0.00     0.000 C 
BRANCH   2   3
ATOM      3  C   UNL     1      16.364  29.248  62.255  1.00  0.00     0.006 C 
BRANCH   3   4
ATOM      4  C   UNL     1      15.987  29.062  63.727  1.00  0.00     0.053 C 
BRANCH   4   5
ATOM      5  C   UNL     1      15.818  27.610  64.045  1.00  0.00     0.041 C 
ATOM      6  O   UNL     1      14.666  27.116  64.162  1.00  0.00    -0.550 OA
ATOM      7  O   UNL     1      16.934  26.811  64.260  1.00  0.00    -0.550 OA
ENDBRANCH   4   5
ENDBRANCH   3   4
ENDBRANCH   2   3
ENDBRANCH   1   2
BRANCH   1   8
ATOM      8  C   UNL     1      12.667  30.023  61.766  1.00  0.00     0.000 C 
BRANCH   8   9
ATOM      9  C   UNL     1      12.439  28.531  61.462  1.00  0.00     0.006 C 
BRANCH   9  10
ATOM     10  C   UNL     1      11.866  28.250  60.065  1.00  0.00     0.053 C 
BRANCH  10  11
ATOM     11  C   UNL     1      10.599  29.008  59.815  1.00  0.00     0.041 C 
ATOM     12  O   UNL     1       9.527  28.653  60.370  1.00  0.00    -0.550 OA
ATOM     13  O   UNL     1      10.597  30.089  58.942  1.00  0.00    -0.550 OA
ENDBRANCH  10  11
ENDBRANCH   9  10
ENDBRANCH   8   9
ENDBRANCH   1   8
TORSDOF 8
ENDMDL
MODEL 4
REMARK VINA RESULT:    -4.695      1.454      2.239
REMARK INTER + INTRA:          -7.245
REMARK INTER:                  -6.941
REMARK INTRA:                  -0.304
REMARK UNBOUND:                -0.354
REMARK SMILES O=C([O-])CCCCCCCC(=O)[O-]
REMARK SMILES IDX 7 1 6 2 5 3 4 4 2 5 1 6 3 7 8 8 9 9 10 10 11 11 12 12 13 13
REMARK H PARENT
REMARK Flexibility Score: inf
ROOT
ATOM      1  C   UNL     1      11.570  28.997  59.898  1.00  0.00     0.000 C 
ENDROOT
BRANCH   1   2
ATOM      2  C   UNL     1      10.970  30.113  59.035  1.00  0.00     0.000 C 
BRANCH   2   3
ATOM      3  C   UNL     1       9.452  30.208  59.235  1.00  0.00     0.006 C 
BRANCH   3   4
ATOM      4  C   UNL     1       8.939  29.058  60.106  1.00  0.00     0.053 C 
BRANCH   4   5
ATOM      5  C   UNL     1       8.200  29.589  61.293  1.00  0.00     0.041 C 
ATOM      6  O   UNL     1       7.103  30.190  61.140  1.00  0.00    -0.550 OA
ATOM      7  O   UNL     1       8.745  29.464  62.564  1.00  0.00    -0.550 OA
ENDBRANCH   4   5
ENDBRANCH   3   4
ENDBRANCH   2   3
ENDBRANCH   1   2
BRANCH   1   8
ATOM      8  C   UNL     1      12.911  29.434  60.507  1.00  0.00     0.000 C 
BRANCH   8   9
ATOM      9  C   UNL     1      13.220  28.725  61.839  1.00  0.00     0.006 C 
BRANCH   9  10
ATOM     10  C   UNL     1      14.404  29.325  62.615  1.00  0.00     0.053 C 
BRANCH  10  11
ATOM     11  C   UNL     1      15.292  28.265  63.189  1.00  0.00     0.041 C 
ATOM     12  O   UNL     1      14.834  27.429  64.011  1.00  0.00    -0.550 OA
ATOM     13  O   UNL     1      16.637  28.222  62.840  1.00  0.00    -0.550 OA
ENDBRANCH  10  11
ENDBRANCH   9  10
ENDBRANCH   8   9
ENDBRANCH   1   8
TORSDOF 8
ENDMDL
MODEL 5
REMARK VINA RESULT:    -4.680      0.800      6.521
REMARK INTER + INTRA:          -7.223
REMARK INTER:                  -6.880
REMARK INTRA:                  -0.343
REMARK UNBOUND:                -0.354
REMARK SMILES O=C([O-])CCCCCCCC(=O)[O-]
REMARK SMILES IDX 7 1 6 2 5 3 4 4 2 5 1 6 3 7 8 8 9 9 10 10 11 11 12 12 13 13
REMARK H PARENT
REMARK Flexibility Score: inf
ROOT
ATOM      1  C   UNL     1      13.757  30.005  62.325  1.00  0.00     0.000 C 
ENDROOT
BRANCH   1   2
ATOM      2  C   UNL     1      15.005  29.964  61.436  1.00  0.00     0.000 C 
BRANCH   2   3
ATOM      3  C   UNL     1      16.055  29.001  62.004  1.00  0.00     0.006 C 
BRANCH   3   4
ATOM      4  C   UNL     1      16.056  29.030  63.534  1.00  0.00     0.053 C 
BRANCH   4   5
ATOM      5  C   UNL     1      15.882  27.650  64.084  1.00  0.00     0.041 C 
ATOM      6  O   UNL     1      16.885  26.983  64.454  1.00  0.00    -0.550 OA
ATOM      7  O   UNL     1      14.617  27.079  64.142  1.00  0.00    -0.550 OA
ENDBRANCH   4   5
ENDBRANCH   3   4
ENDBRANCH   2   3
ENDBRANCH   1   2
BRANCH   1   8
ATOM      8  C   UNL     1      12.692  29.018  61.825  1.00  0.00     0.000 C 
BRANCH   8   9
ATOM      9  C   UNL     1      11.317  29.679  61.616  1.00  0.00     0.006 C 
BRANCH   9  10
ATOM     10  C   UNL     1      10.466  29.035  60.511  1.00  0.00     0.053 C 
BRANCH  10  11
ATOM     11  C   UNL     1       9.154  29.734  60.333  1.00  0.00     0.041 C 
ATOM     12  O   UNL     1       8.173  29.438  61.065  1.00  0.00    -0.550 OA
ATOM     13  O   UNL     1       9.005  30.690  59.337  1.00  0.00    -0.550 OA
ENDBRANCH  10  11
ENDBRANCH   9  10
ENDBRANCH   8   9
ENDBRANCH   1   8
TORSDOF 8
ENDMDL
MODEL 6
REMARK VINA RESULT:    -4.669      1.292      2.102
REMARK INTER + INTRA:          -7.206
REMARK INTER:                  -6.735
REMARK INTRA:                  -0.471
REMARK UNBOUND:                -0.354
REMARK SMILES O=C([O-])CCCCCCCC(=O)[O-]
REMARK SMILES IDX 7 1 6 2 5 3 4 4 2 5 1 6 3 7 8 8 9 9 10 10 11 11 12 12 13 13
REMARK H PARENT
REMARK Flexibility Score: inf
ROOT
ATOM      1  C   UNL     1      16.095  30.083  60.471  1.00  0.00     0.000 C 
ENDROOT
BRANCH   1   2
ATOM      2  C   UNL     1      14.606  30.098  60.106  1.00  0.00     0.000 C 
BRANCH   2   3
ATOM      3  C   UNL     1      13.729  30.040  61.363  1.00  0.00     0.006 C 
BRANCH   3   4
ATOM      4  C   UNL     1      12.677  28.933  61.248  1.00  0.00     0.053 C 
BRANCH   4   5
ATOM      5  C   UNL     1      11.299  29.509  61.335  1.00  0.00     0.041 C 
ATOM      6  O   UNL     1      10.847  29.907  62.442  1.00  0.00    -0.550 OA
ATOM      7  O   UNL     1      10.494  29.562  60.204  1.00  0.00    -0.550 OA
ENDBRANCH   4   5
ENDBRANCH   3   4
ENDBRANCH   2   3
ENDBRANCH   1   2
BRANCH   1   8
ATOM      8  C   UNL     1      16.389  29.014  61.534  1.00  0.00     0.000 C 
BRANCH   8   9
ATOM      9  C   UNL     1      16.803  29.618  62.889  1.00  0.00     0.006 C 
BRANCH   9  10
ATOM     10  C   UNL     1      15.970  29.125  64.082  1.00  0.00     0.053 C 
BRANCH  10  11
ATOM     11  C   UNL     1      15.780  27.640  64.058  1.00  0.00     0.041 C 
ATOM     12  O   UNL     1      14.627  27.149  63.939  1.00  0.00    -0.550 OA
ATOM     13  O   UNL     1      16.875  26.797  64.200  1.00  0.00    -0.550 OA
ENDBRANCH  10  11
ENDBRANCH   9  10
ENDBRANCH   8   9
ENDBRANCH   1   8
TORSDOF 8
ENDMDL
MODEL 7
REMARK VINA RESULT:    -4.557      2.083      2.809
REMARK INTER + INTRA:          -7.042
REMARK INTER:                  -6.621
REMARK INTRA:                  -0.421
REMARK UNBOUND:                -0.354
REMARK SMILES O=C([O-])CCCCCCCC(=O)[O-]
REMARK SMILES IDX 7 1 6 2 5 3 4 4 2 5 1 6 3 7 8 8 9 9 10 10 11 11 12 12 13 13
REMARK H PARENT
REMARK Flexibility Score: inf
ROOT
ATOM      1  C   UNL     1      11.713  28.971  60.093  1.00  0.00     0.000 C 
ENDROOT
BRANCH   1   2
ATOM      2  C   UNL     1      10.665  29.946  59.543  1.00  0.00     0.000 C 
BRANCH   2   3
ATOM      3  C   UNL     1       9.428  29.196  59.033  1.00  0.00     0.006 C 
BRANCH   3   4
ATOM      4  C   UNL     1       8.668  28.541  60.190  1.00  0.00     0.053 C 
BRANCH   4   5
ATOM      5  C   UNL     1       8.216  29.575  61.172  1.00  0.00     0.041 C 
ATOM      6  O   UNL     1       8.683  29.586  62.341  1.00  0.00    -0.550 OA
ATOM      7  O   UNL     1       7.242  30.497  60.811  1.00  0.00    -0.550 OA
ENDBRANCH   4   5
ENDBRANCH   3   4
ENDBRANCH   2   3
ENDBRANCH   1   2
BRANCH   1   8
ATOM      8  C   UNL     1      12.151  29.376  61.509  1.00  0.00     0.000 C 
BRANCH   8   9
ATOM      9  C   UNL     1      13.527  28.802  61.895  1.00  0.00     0.006 C 
BRANCH   9  10
ATOM     10  C   UNL     1      14.473  29.816  62.557  1.00  0.00     0.053 C 
BRANCH  10  11
ATOM     11  C   UNL     1      15.802  29.874  61.870  1.00  0.00     0.041 C 
ATOM     12  O   UNL     1      15.882  29.699  60.626  1.00  0.00    -0.550 OA
ATOM     13  O   UNL     1      16.958  30.089  62.611  1.00  0.00    -0.550 OA
ENDBRANCH  10  11
ENDBRANCH   9  10
ENDBRANCH   8   9
ENDBRANCH   1   8
TORSDOF 8
ENDMDL
MODEL 8
REMARK VINA RESULT:    -4.542      1.501      6.354
REMARK INTER + INTRA:          -7.021
REMARK INTER:                  -6.603
REMARK INTRA:                  -0.417
REMARK UNBOUND:                -0.354
REMARK SMILES O=C([O-])CCCCCCCC(=O)[O-]
REMARK SMILES IDX 7 1 6 2 5 3 4 4 2 5 1 6 3 7 8 8 9 9 10 10 11 11 12 12 13 13
REMARK H PARENT
REMARK Flexibility Score: inf
ROOT
ATOM      1  C   UNL     1      13.695  30.480  60.370  1.00  0.00     0.000 C 
ENDROOT
BRANCH   1   2
ATOM      2  C   UNL     1      15.136  30.019  60.117  1.00  0.00     0.000 C 
BRANCH   2   3
ATOM      3  C   UNL     1      15.763  29.444  61.392  1.00  0.00     0.006 C 
BRANCH   3   4
ATOM      4  C   UNL     1      14.684  29.016  62.391  1.00  0.00     0.053 C 
BRANCH   4   5
ATOM      5  C   UNL     1      15.308  28.541  63.664  1.00  0.00     0.041 C 
ATOM      6  O   UNL     1      16.097  29.287  64.301  1.00  0.00    -0.550 OA
ATOM      7  O   UNL     1      15.057  27.254  64.123  1.00  0.00    -0.550 OA
ENDBRANCH   4   5
ENDBRANCH   3   4
ENDBRANCH   2   3
ENDBRANCH   1   2
BRANCH   1   8
ATOM      8  C   UNL     1      12.720  29.796  59.399  1.00  0.00     0.000 C 
BRANCH   8   9
ATOM      9  C   UNL     1      11.764  28.816  60.104  1.00  0.00     0.006 C 
BRANCH   9  10
ATOM     10  C   UNL     1      10.458  29.454  60.601  1.00  0.00     0.053 C 
BRANCH  10  11
ATOM     11  C   UNL     1       9.487  29.687  59.485  1.00  0.00     0.041 C 
ATOM     12  O   UNL     1       8.721  30.686  59.508  1.00  0.00    -0.550 OA
ATOM     13  O   UNL     1       9.407  28.783  58.433  1.00  0.00    -0.550 OA
ENDBRANCH  10  11
ENDBRANCH   9  10
ENDBRANCH   8   9
ENDBRANCH   1   8
TORSDOF 8
ENDMDL
MODEL 9
REMARK VINA RESULT:    -4.519      1.495      5.858
REMARK INTER + INTRA:          -6.987
REMARK INTER:                  -6.526
REMARK INTRA:                  -0.461
REMARK UNBOUND:                -0.354
REMARK SMILES O=C([O-])CCCCCCCC(=O)[O-]
REMARK SMILES IDX 7 1 6 2 5 3 4 4 2 5 1 6 3 7 8 8 9 9 10 10 11 11 12 12 13 13
REMARK H PARENT
REMARK Flexibility Score: inf
ROOT
ATOM      1  C   UNL     1      15.098  29.950  59.498  1.00  0.00     0.000 C 
ENDROOT
BRANCH   1   2
ATOM      2  C   UNL     1      15.999  29.874  60.736  1.00  0.00     0.000 C 
BRANCH   2   3
ATOM      3  C   UNL     1      15.197  29.462  61.977  1.00  0.00     0.006 C 
BRANCH   3   4
ATOM      4  C   UNL     1      16.127  29.142  63.150  1.00  0.00     0.053 C 
BRANCH   4   5
ATOM      5  C   UNL     1      15.753  27.835  63.774  1.00  0.00     0.041 C 
ATOM      6  O   UNL     1      14.561  27.431  63.731  1.00  0.00    -0.550 OA
ATOM      7  O   UNL     1      16.710  27.086  64.446  1.00  0.00    -0.550 OA
ENDBRANCH   4   5
ENDBRANCH   3   4
ENDBRANCH   2   3
ENDBRANCH   1   2
BRANCH   1   8
ATOM      8  C   UNL     1      13.849  30.800  59.778  1.00  0.00     0.000 C 
BRANCH   8   9
ATOM      9  C   UNL     1      12.558  30.160  59.233  1.00  0.00     0.006 C 
BRANCH   9  10
ATOM     10  C   UNL     1      12.015  29.006  60.089  1.00  0.00     0.053 C 
BRANCH  10  11
ATOM     11  C   UNL     1      10.987  29.472  61.073  1.00  0.00     0.041 C 
ATOM     12  O   UNL     1      11.330  29.822  62.232  1.00  0.00    -0.550 OA
ATOM     13  O   UNL     1       9.643  29.488  60.718  1.00  0.00    -0.550 OA
ENDBRANCH  10  11
ENDBRANCH   9  10
ENDBRANCH   8   9
ENDBRANCH   1   8
TORSDOF 8
ENDMDL
