MODEL 1
REMARK VINA RESULT:    -4.586      0.000      0.000
REMARK INTER + INTRA:          -6.774
REMARK INTER:                  -6.195
REMARK INTRA:                  -0.579
REMARK UNBOUND:                -0.579
REMARK SMILES CC(=O)CCC=C(C)CCC=C(C)C
REMARK SMILES IDX 7 1 6 2 8 3 9 4 10 5 11 6 13 7 12 8 14 9 5 10 4 11 2 12 3 13
REMARK SMILES IDX 1 14
REMARK H PARENT
REMARK Flexibility Score: inf
ROOT
ATOM      1  C   UNL     1      -7.995 -13.114  -3.034  1.00  0.00    -0.077 C 
ATOM      2  C   UNL     1      -8.919 -12.128  -3.017  1.00  0.00    -0.028 C 
ATOM      3  C   UNL     1      -7.269 -13.490  -4.304  1.00  0.00     0.039 C 
ENDROOT
BRANCH   1   4
ATOM      4  C   UNL     1      -7.681 -13.859  -1.753  1.00  0.00     0.034 C 
BRANCH   4   5
ATOM      5  C   UNL     1      -8.531 -15.129  -1.606  1.00  0.00     0.032 C 
BRANCH   5   6
ATOM      6  C   UNL     1      -8.386 -15.743  -0.233  1.00  0.00    -0.028 C 
ATOM      7  C   UNL     1      -9.104 -16.833   1.847  1.00  0.00     0.039 C 
ATOM      8  C   UNL     1      -9.395 -16.308   0.466  1.00  0.00    -0.080 C 
ATOM      9  C   UNL     1     -10.787 -16.443  -0.104  1.00  0.00     0.039 C 
ENDBRANCH   5   6
ENDBRANCH   4   5
ENDBRANCH   1   4
BRANCH   2  10
ATOM     10  C   UNL     1      -9.304 -11.337  -4.246  1.00  0.00     0.035 C 
BRANCH  10  11
ATOM     11  C   UNL     1     -10.575 -11.882  -4.910  1.00  0.00     0.079 C 
BRANCH  11  12
ATOM     12  C   UNL     1     -10.306 -12.384  -6.305  1.00  0.00     0.130 C 
ATOM     13  O   UNL     1      -9.749 -11.656  -7.113  1.00  0.00    -0.300 OA
ATOM     14  C   UNL     1     -10.685 -13.776  -6.711  1.00  0.00     0.087 C 
ENDBRANCH  11  12
ENDBRANCH  10  11
ENDBRANCH   2  10
TORSDOF 6
ENDMDL
MODEL 2
REMARK VINA RESULT:    -4.427      3.313      6.891
REMARK INTER + INTRA:          -6.559
REMARK INTER:                  -5.796
REMARK INTRA:                  -0.763
REMARK UNBOUND:                -0.579
REMARK SMILES CC(=O)CCC=C(C)CCC=C(C)C
REMARK SMILES IDX 7 1 6 2 8 3 9 4 10 5 11 6 13 7 12 8 14 9 5 10 4 11 2 12 3 13
REMARK SMILES IDX 1 14
REMARK H PARENT
REMARK Flexibility Score: inf
ROOT
ATOM      1  C   UNL     1      -8.487 -16.196  -1.805  1.00  0.00    -0.077 C 
ATOM      2  C   UNL     1      -9.215 -15.646  -0.808  1.00  0.00    -0.028 C 
ATOM      3  C   UNL     1      -8.517 -17.682  -2.074  1.00  0.00     0.039 C 
ENDROOT
BRANCH   1   4
ATOM      4  C   UNL     1      -7.622 -15.304  -2.671  1.00  0.00     0.034 C 
BRANCH   4   5
ATOM      5  C   UNL     1      -8.128 -13.855  -2.687  1.00  0.00     0.032 C 
BRANCH   5   6
ATOM      6  C   UNL     1      -8.809 -13.515  -3.993  1.00  0.00    -0.028 C 
ATOM      7  C   UNL     1     -10.140 -12.189  -5.574  1.00  0.00     0.039 C 
ATOM      8  C   UNL     1      -9.468 -12.361  -4.237  1.00  0.00    -0.080 C 
ATOM      9  C   UNL     1      -9.530 -11.243  -3.223  1.00  0.00     0.039 C 
ENDBRANCH   5   6
ENDBRANCH   4   5
ENDBRANCH   1   4
BRANCH   2  10
ATOM     10  C   UNL     1     -10.099 -16.456   0.111  1.00  0.00     0.035 C 
BRANCH  10  11
ATOM     11  C   UNL     1      -9.567 -16.485   1.550  1.00  0.00     0.079 C 
BRANCH  11  12
ATOM     12  C   UNL     1      -8.549 -17.577   1.748  1.00  0.00     0.130 C 
ATOM     13  O   UNL     1      -8.919 -18.736   1.866  1.00  0.00    -0.300 OA
ATOM     14  C   UNL     1      -7.081 -17.270   1.772  1.00  0.00     0.087 C 
ENDBRANCH  11  12
ENDBRANCH  10  11
ENDBRANCH   2  10
TORSDOF 6
ENDMDL
MODEL 3
REMARK VINA RESULT:    -4.311      2.524      6.327
REMARK INTER + INTRA:          -6.403
REMARK INTER:                  -5.711
REMARK INTRA:                  -0.692
REMARK UNBOUND:                -0.579
REMARK SMILES CC(=O)CCC=C(C)CCC=C(C)C
REMARK SMILES IDX 7 1 6 2 8 3 9 4 10 5 11 6 13 7 12 8 14 9 5 10 4 11 2 12 3 13
REMARK SMILES IDX 1 14
REMARK H PARENT
REMARK Flexibility Score: inf
ROOT
ATOM      1  C   UNL     1      -8.014 -14.054  -2.017  1.00  0.00    -0.077 C 
ATOM      2  C   UNL     1      -8.400 -15.323  -2.274  1.00  0.00    -0.028 C 
ATOM      3  C   UNL     1      -6.984 -13.744  -0.957  1.00  0.00     0.039 C 
ENDROOT
BRANCH   1   4
ATOM      4  C   UNL     1      -8.628 -12.918  -2.809  1.00  0.00     0.034 C 
BRANCH   4   5
ATOM      5  C   UNL     1      -8.040 -12.823  -4.225  1.00  0.00     0.032 C 
BRANCH   5   6
ATOM      6  C   UNL     1      -8.922 -13.506  -5.244  1.00  0.00    -0.028 C 
ATOM      7  C   UNL     1     -10.813 -13.768  -6.789  1.00  0.00     0.039 C 
ATOM      8  C   UNL     1     -10.002 -12.940  -5.827  1.00  0.00    -0.080 C 
ATOM      9  C   UNL     1     -10.400 -11.508  -5.558  1.00  0.00     0.039 C 
ENDBRANCH   5   6
ENDBRANCH   4   5
ENDBRANCH   1   4
BRANCH   2  10
ATOM     10  C   UNL     1      -7.850 -16.518  -1.530  1.00  0.00     0.035 C 
BRANCH  10  11
ATOM     11  C   UNL     1      -8.957 -17.340  -0.857  1.00  0.00     0.079 C 
BRANCH  11  12
ATOM     12  C   UNL     1      -9.625 -16.576   0.255  1.00  0.00     0.130 C 
ATOM     13  O   UNL     1     -10.796 -16.245   0.145  1.00  0.00    -0.300 OA
ATOM     14  C   UNL     1      -8.883 -16.237   1.514  1.00  0.00     0.087 C 
ENDBRANCH  11  12
ENDBRANCH  10  11
ENDBRANCH   2  10
TORSDOF 6
ENDMDL
MODEL 4
REMARK VINA RESULT:    -4.311     13.180     14.984
REMARK INTER + INTRA:          -6.402
REMARK INTER:                  -5.558
REMARK INTRA:                  -0.844
REMARK UNBOUND:                -0.579
REMARK SMILES CC(=O)CCC=C(C)CCC=C(C)C
REMARK SMILES IDX 7 1 6 2 8 3 9 4 10 5 11 6 13 7 12 8 14 9 5 10 4 11 2 12 3 13
REMARK SMILES IDX 1 14
REMARK H PARENT
REMARK Flexibility Score: inf
ROOT
ATOM      1  C   UNL     1     -22.330  -9.978  -8.783  1.00  0.00    -0.077 C 
ATOM      2  C   UNL     1     -22.709  -9.948  -7.487  1.00  0.00    -0.028 C 
ATOM      3  C   UNL     1     -22.992  -9.099  -9.818  1.00  0.00     0.039 C 
ENDROOT
BRANCH   1   4
ATOM      4  C   UNL     1     -21.217 -10.914  -9.209  1.00  0.00     0.034 C 
BRANCH   4   5
ATOM      5  C   UNL     1     -20.543 -11.588  -8.006  1.00  0.00     0.032 C 
BRANCH   5   6
ATOM      6  C   UNL     1     -20.355 -13.071  -8.227  1.00  0.00    -0.028 C 
ATOM      7  C   UNL     1     -20.932 -15.457  -8.190  1.00  0.00     0.039 C 
ATOM      8  C   UNL     1     -21.287 -14.011  -7.962  1.00  0.00    -0.080 C 
ATOM      9  C   UNL     1     -22.670 -13.653  -7.469  1.00  0.00     0.039 C 
ENDBRANCH   5   6
ENDBRANCH   4   5
ENDBRANCH   1   4
BRANCH   2  10
ATOM     10  C   UNL     1     -23.814  -9.055  -6.972  1.00  0.00     0.035 C 
BRANCH  10  11
ATOM     11  C   UNL     1     -24.889  -9.842  -6.214  1.00  0.00     0.079 C 
BRANCH  11  12
ATOM     12  C   UNL     1     -24.447 -10.190  -4.817  1.00  0.00     0.130 C 
ATOM     13  O   UNL     1     -24.530  -9.354  -3.930  1.00  0.00    -0.300 OA
ATOM     14  C   UNL     1     -23.933 -11.560  -4.488  1.00  0.00     0.087 C 
ENDBRANCH  11  12
ENDBRANCH  10  11
ENDBRANCH   2  10
TORSDOF 6
ENDMDL
MODEL 5
REMARK VINA RESULT:    -4.261      1.210      1.486
REMARK INTER + INTRA:          -6.334
REMARK INTER:                  -5.764
REMARK INTRA:                  -0.571
REMARK UNBOUND:                -0.579
REMARK SMILES CC(=O)CCC=C(C)CCC=C(C)C
REMARK SMILES IDX 7 1 6 2 8 3 9 4 10 5 11 6 13 7 12 8 14 9 5 10 4 11 2 12 3 13
REMARK SMILES IDX 1 14
REMARK H PARENT
REMARK Flexibility Score: inf
ROOT
ATOM      1  C   UNL     1      -8.443 -13.325  -3.071  1.00  0.00    -0.077 C 
ATOM      2  C   UNL     1      -9.019 -12.104  -3.114  1.00  0.00    -0.028 C 
ATOM      3  C   UNL     1      -8.442 -14.237  -4.275  1.00  0.00     0.039 C 
ENDROOT
BRANCH   1   4
ATOM      4  C   UNL     1      -7.786 -13.792  -1.788  1.00  0.00     0.034 C 
BRANCH   4   5
ATOM      5  C   UNL     1      -7.952 -15.303  -1.576  1.00  0.00     0.032 C 
BRANCH   5   6
ATOM      6  C   UNL     1      -8.122 -15.648  -0.115  1.00  0.00    -0.028 C 
ATOM      7  C   UNL     1      -9.273 -16.428   1.909  1.00  0.00     0.039 C 
ATOM      8  C   UNL     1      -9.238 -16.186   0.423  1.00  0.00    -0.080 C 
ATOM      9  C   UNL     1     -10.430 -16.568  -0.422  1.00  0.00     0.039 C 
ENDBRANCH   5   6
ENDBRANCH   4   5
ENDBRANCH   1   4
BRANCH   2  10
ATOM     10  C   UNL     1      -9.705 -11.558  -4.344  1.00  0.00     0.035 C 
BRANCH  10  11
ATOM     11  C   UNL     1      -8.767 -10.692  -5.194  1.00  0.00     0.079 C 
BRANCH  11  12
ATOM     12  C   UNL     1      -8.680 -11.188  -6.613  1.00  0.00     0.130 C 
ATOM     13  O   UNL     1      -9.662 -11.686  -7.142  1.00  0.00    -0.300 OA
ATOM     14  C   UNL     1      -7.411 -11.055  -7.402  1.00  0.00     0.087 C 
ENDBRANCH  11  12
ENDBRANCH  10  11
ENDBRANCH   2  10
TORSDOF 6
ENDMDL
MODEL 6
REMARK VINA RESULT:    -4.221      2.547      6.410
REMARK INTER + INTRA:          -6.280
REMARK INTER:                  -5.517
REMARK INTRA:                  -0.763
REMARK UNBOUND:                -0.579
REMARK SMILES CC(=O)CCC=C(C)CCC=C(C)C
REMARK SMILES IDX 7 1 6 2 8 3 9 4 10 5 11 6 13 7 12 8 14 9 5 10 4 11 2 12 3 13
REMARK SMILES IDX 1 14
REMARK H PARENT
REMARK Flexibility Score: inf
ROOT
ATOM      1  C   UNL     1      -8.333 -12.670  -3.478  1.00  0.00    -0.077 C 
ATOM      2  C   UNL     1      -8.517 -13.203  -2.250  1.00  0.00    -0.028 C 
ATOM      3  C   UNL     1      -7.340 -13.261  -4.451  1.00  0.00     0.039 C 
ENDROOT
BRANCH   1   4
ATOM      4  C   UNL     1      -9.138 -11.454  -3.888  1.00  0.00     0.034 C 
BRANCH   4   5
ATOM      5  C   UNL     1     -10.326 -11.829  -4.786  1.00  0.00     0.032 C 
BRANCH   5   6
ATOM      6  C   UNL     1      -9.996 -11.657  -6.251  1.00  0.00    -0.028 C 
ATOM      7  C   UNL     1      -9.478 -12.342  -8.551  1.00  0.00     0.039 C 
ATOM      8  C   UNL     1      -9.860 -12.672  -7.132  1.00  0.00    -0.080 C 
ATOM      9  C   UNL     1     -10.099 -14.111  -6.740  1.00  0.00     0.039 C 
ENDBRANCH   5   6
ENDBRANCH   4   5
ENDBRANCH   1   4
BRANCH   2  10
ATOM     10  C   UNL     1      -7.754 -14.408  -1.751  1.00  0.00     0.035 C 
BRANCH  10  11
ATOM     11  C   UNL     1      -8.641 -15.656  -1.653  1.00  0.00     0.079 C 
BRANCH  11  12
ATOM     12  C   UNL     1      -9.045 -15.945  -0.232  1.00  0.00     0.130 C 
ATOM     13  O   UNL     1      -8.232 -15.805   0.669  1.00  0.00    -0.300 OA
ATOM     14  C   UNL     1     -10.442 -16.374   0.103  1.00  0.00     0.087 C 
ENDBRANCH  11  12
ENDBRANCH  10  11
ENDBRANCH   2  10
TORSDOF 6
ENDMDL
MODEL 7
REMARK VINA RESULT:    -4.184      1.369      2.043
REMARK INTER + INTRA:          -6.230
REMARK INTER:                  -5.406
REMARK INTRA:                  -0.824
REMARK UNBOUND:                -0.579
REMARK SMILES CC(=O)CCC=C(C)CCC=C(C)C
REMARK SMILES IDX 7 1 6 2 8 3 9 4 10 5 11 6 13 7 12 8 14 9 5 10 4 11 2 12 3 13
REMARK SMILES IDX 1 14
REMARK H PARENT
REMARK Flexibility Score: inf
ROOT
ATOM      1  C   UNL     1      -7.637 -14.664  -2.186  1.00  0.00    -0.077 C 
ATOM      2  C   UNL     1      -8.345 -14.182  -3.231  1.00  0.00    -0.028 C 
ATOM      3  C   UNL     1      -7.206 -13.768  -1.048  1.00  0.00     0.039 C 
ENDROOT
BRANCH   1   4
ATOM      4  C   UNL     1      -7.266 -16.132  -2.154  1.00  0.00     0.034 C 
BRANCH   4   5
ATOM      5  C   UNL     1      -8.485 -17.025  -1.879  1.00  0.00     0.032 C 
BRANCH   5   6
ATOM      6  C   UNL     1      -8.556 -17.444  -0.429  1.00  0.00    -0.028 C 
ATOM      7  C   UNL     1      -9.364 -17.447   1.890  1.00  0.00     0.039 C 
ATOM      8  C   UNL     1      -9.452 -16.969   0.464  1.00  0.00    -0.080 C 
ATOM      9  C   UNL     1     -10.540 -15.999   0.069  1.00  0.00     0.039 C 
ENDBRANCH   5   6
ENDBRANCH   4   5
ENDBRANCH   1   4
BRANCH   2  10
ATOM     10  C   UNL     1      -8.752 -12.732  -3.353  1.00  0.00     0.035 C 
BRANCH  10  11
ATOM     11  C   UNL     1      -8.095 -12.046  -4.558  1.00  0.00     0.079 C 
BRANCH  11  12
ATOM     12  C   UNL     1      -9.042 -11.099  -5.246  1.00  0.00     0.130 C 
ATOM     13  O   UNL     1      -8.654  -9.987  -5.574  1.00  0.00    -0.300 OA
ATOM     14  C   UNL     1     -10.449 -11.508  -5.565  1.00  0.00     0.087 C 
ENDBRANCH  11  12
ENDBRANCH  10  11
ENDBRANCH   2  10
TORSDOF 6
ENDMDL
MODEL 8
REMARK VINA RESULT:    -4.113     12.860     15.165
REMARK INTER + INTRA:          -6.134
REMARK INTER:                  -5.418
REMARK INTRA:                  -0.716
REMARK UNBOUND:                -0.579
REMARK SMILES CC(=O)CCC=C(C)CCC=C(C)C
REMARK SMILES IDX 7 1 6 2 8 3 9 4 10 5 11 6 13 7 12 8 14 9 5 10 4 11 2 12 3 13
REMARK SMILES IDX 1 14
REMARK H PARENT
REMARK Flexibility Score: inf
ROOT
ATOM      1  C   UNL     1     -23.021  -9.312  -8.590  1.00  0.00    -0.077 C 
ATOM      2  C   UNL     1     -22.170 -10.122  -7.924  1.00  0.00    -0.028 C 
ATOM      3  C   UNL     1     -23.011  -9.229 -10.098  1.00  0.00     0.039 C 
ENDROOT
BRANCH   1   4
ATOM      4  C   UNL     1     -24.006  -8.467  -7.808  1.00  0.00     0.034 C 
BRANCH   4   5
ATOM      5  C   UNL     1     -25.105  -9.320  -7.159  1.00  0.00     0.032 C 
BRANCH   5   6
ATOM      6  C   UNL     1     -25.018  -9.291  -5.651  1.00  0.00    -0.028 C 
ATOM      7  C   UNL     1     -24.637 -10.164  -3.388  1.00  0.00     0.039 C 
ATOM      8  C   UNL     1     -24.623 -10.331  -4.884  1.00  0.00    -0.080 C 
ATOM      9  C   UNL     1     -24.152 -11.635  -5.484  1.00  0.00     0.039 C 
ENDBRANCH   5   6
ENDBRANCH   4   5
ENDBRANCH   1   4
BRANCH   2  10
ATOM     10  C   UNL     1     -21.148 -10.994  -8.617  1.00  0.00     0.035 C 
BRANCH  10  11
ATOM     11  C   UNL     1     -20.626 -12.111  -7.705  1.00  0.00     0.079 C 
BRANCH  11  12
ATOM     12  C   UNL     1     -20.322 -13.367  -8.478  1.00  0.00     0.130 C 
ATOM     13  O   UNL     1     -19.563 -13.321  -9.435  1.00  0.00    -0.300 OA
ATOM     14  C   UNL     1     -20.912 -14.685  -8.074  1.00  0.00     0.087 C 
ENDBRANCH  11  12
ENDBRANCH  10  11
ENDBRANCH   2  10
TORSDOF 6
ENDMDL
MODEL 9
REMARK VINA RESULT:    -4.088     13.955     15.620
REMARK INTER + INTRA:          -6.101
REMARK INTER:                  -5.339
REMARK INTRA:                  -0.763
REMARK UNBOUND:                -0.579
REMARK SMILES CC(=O)CCC=C(C)CCC=C(C)C
REMARK SMILES IDX 7 1 6 2 8 3 9 4 10 5 11 6 13 7 12 8 14 9 5 10 4 11 2 12 3 13
REMARK SMILES IDX 1 14
REMARK H PARENT
REMARK Flexibility Score: inf
ROOT
ATOM      1  C   UNL     1     -21.789 -10.715  -8.715  1.00  0.00    -0.077 C 
ATOM      2  C   UNL     1     -22.634  -9.706  -8.410  1.00  0.00    -0.028 C 
ATOM      3  C   UNL     1     -21.272 -10.911 -10.121  1.00  0.00     0.039 C 
ENDROOT
BRANCH   1   4
ATOM      4  C   UNL     1     -21.351 -11.672  -7.625  1.00  0.00     0.034 C 
BRANCH   4   5
ATOM      5  C   UNL     1     -22.529 -12.480  -7.064  1.00  0.00     0.032 C 
BRANCH   5   6
ATOM      6  C   UNL     1     -22.928 -12.006  -5.686  1.00  0.00    -0.028 C 
ATOM      7  C   UNL     1     -24.351 -10.976  -3.970  1.00  0.00     0.039 C 
ATOM      8  C   UNL     1     -24.119 -11.446  -5.382  1.00  0.00    -0.080 C 
ATOM      9  C   UNL     1     -25.221 -11.299  -6.405  1.00  0.00     0.039 C 
ENDBRANCH   5   6
ENDBRANCH   4   5
ENDBRANCH   1   4
BRANCH   2  10
ATOM     10  C   UNL     1     -23.132  -8.710  -9.431  1.00  0.00     0.035 C 
BRANCH  10  11
ATOM     11  C   UNL     1     -24.337  -7.911  -8.920  1.00  0.00     0.079 C 
BRANCH  11  12
ATOM     12  C   UNL     1     -24.063  -6.430  -8.912  1.00  0.00     0.130 C 
ATOM     13  O   UNL     1     -24.322  -5.772  -7.916  1.00  0.00    -0.300 OA
ATOM     14  C   UNL     1     -23.448  -5.752 -10.100  1.00  0.00     0.087 C 
ENDBRANCH  11  12
ENDBRANCH  10  11
ENDBRANCH   2  10
TORSDOF 6
ENDMDL
