MODEL 1
REMARK VINA RESULT:    -5.648      0.000      0.000
REMARK INTER + INTRA:          -7.498
REMARK INTER:                  -7.299
REMARK INTRA:                  -0.200
REMARK UNBOUND:                -0.200
REMARK SMILES CCO[C@@H]1O[C@@H](CO)[C@H](O)[C@@H](O)[C@H]1O
REMARK SMILES IDX 4 1 13 2 11 3 9 4 6 5 5 6 3 7 2 8 1 9 14 10 12 12 7 14 8 15
REMARK SMILES IDX 10 17
REMARK H PARENT 14 11 12 13 8 16 10 18
REMARK Flexibility Score: inf
ROOT
ATOM      1  C   UNL     1      24.249   5.586  38.858  1.00  0.00     0.281 C 
ATOM      2  C   UNL     1      25.194   4.608  38.141  1.00  0.00     0.202 C 
ATOM      3  C   UNL     1      24.439   3.874  37.017  1.00  0.00     0.179 C 
ATOM      4  C   UNL     1      23.721   4.884  36.105  1.00  0.00     0.177 C 
ATOM      5  C   UNL     1      22.872   5.854  36.965  1.00  0.00     0.178 C 
ATOM      6  O   UNL     1      23.680   6.505  37.935  1.00  0.00    -0.341 OA
ENDROOT
BRANCH   1   7
ATOM      7  O   UNL     1      23.250   4.869  39.566  1.00  0.00    -0.350 OA
BRANCH   7   8
ATOM      8  C   UNL     1      23.782   4.268  40.733  1.00  0.00     0.160 C 
ATOM      9  C   UNL     1      23.702   5.238  41.906  1.00  0.00     0.035 C 
ENDBRANCH   7   8
ENDBRANCH   1   7
BRANCH   2  10
ATOM     10  O   UNL     1      26.283   5.324  37.615  1.00  0.00    -0.385 OA
ATOM     11  H   UNL     1      26.076   5.507  36.661  1.00  0.00     0.211 HD
ENDBRANCH   2  10
BRANCH   3  12
ATOM     12  O   UNL     1      25.328   3.100  36.254  1.00  0.00    -0.387 OA
ATOM     13  H   UNL     1      25.728   3.707  35.578  1.00  0.00     0.211 HD
ENDBRANCH   3  12
BRANCH   5  14
ATOM     14  C   UNL     1      22.215   6.941  36.101  1.00  0.00     0.191 C 
BRANCH  14  15
ATOM     15  O   UNL     1      22.397   8.212  36.671  1.00  0.00    -0.394 OA
ATOM     16  H   UNL     1      22.375   8.870  35.929  1.00  0.00     0.210 HD
ENDBRANCH  14  15
ENDBRANCH   5  14
BRANCH   4  17
ATOM     17  O   UNL     1      22.892   4.191  35.208  1.00  0.00    -0.387 OA
ATOM     18  H   UNL     1      22.645   3.335  35.646  1.00  0.00     0.211 HD
ENDBRANCH   4  17
TORSDOF 7
ENDMDL
MODEL 2
REMARK VINA RESULT:    -5.559     10.189     12.255
REMARK INTER + INTRA:          -7.384
REMARK INTER:                  -7.018
REMARK INTRA:                  -0.366
REMARK UNBOUND:                -0.200
REMARK SMILES CCO[C@@H]1O[C@@H](CO)[C@H](O)[C@@H](O)[C@H]1O
REMARK SMILES IDX 4 1 13 2 11 3 9 4 6 5 5 6 3 7 2 8 1 9 14 10 12 12 7 14 8 15
REMARK SMILES IDX 10 17
REMARK H PARENT 14 11 12 13 8 16 10 18
REMARK Flexibility Score: inf
ROOT
ATOM      1  C   UNL     1      32.715   2.268  43.078  1.00  0.00     0.281 C 
ATOM      2  C   UNL     1      33.044   3.446  42.147  1.00  0.00     0.202 C 
ATOM      3  C   UNL     1      33.869   4.503  42.904  1.00  0.00     0.179 C 
ATOM      4  C   UNL     1      35.080   3.847  43.590  1.00  0.00     0.177 C 
ATOM      5  C   UNL     1      34.612   2.632  44.428  1.00  0.00     0.178 C 
ATOM      6  O   UNL     1      33.904   1.705  43.617  1.00  0.00    -0.341 OA
ENDROOT
BRANCH   1   7
ATOM      7  O   UNL     1      31.825   2.689  44.100  1.00  0.00    -0.350 OA
BRANCH   7   8
ATOM      8  C   UNL     1      30.571   3.066  43.562  1.00  0.00     0.160 C 
ATOM      9  C   UNL     1      29.451   2.287  44.242  1.00  0.00     0.035 C 
ENDBRANCH   7   8
ENDBRANCH   1   7
BRANCH   2  10
ATOM     10  O   UNL     1      33.762   2.966  41.037  1.00  0.00    -0.385 OA
ATOM     11  H   UNL     1      34.589   3.511  40.969  1.00  0.00     0.211 HD
ENDBRANCH   2  10
BRANCH   3  12
ATOM     12  O   UNL     1      34.311   5.503  42.023  1.00  0.00    -0.387 OA
ATOM     13  H   UNL     1      33.955   6.364  42.368  1.00  0.00     0.211 HD
ENDBRANCH   3  12
BRANCH   5  14
ATOM     14  C   UNL     1      35.803   1.889  45.052  1.00  0.00     0.191 C 
BRANCH  14  15
ATOM     15  O   UNL     1      36.253   2.546  46.209  1.00  0.00    -0.394 OA
ATOM     16  H   UNL     1      36.998   3.142  45.935  1.00  0.00     0.210 HD
ENDBRANCH  14  15
ENDBRANCH   5  14
BRANCH   4  17
ATOM     17  O   UNL     1      35.706   4.789  44.424  1.00  0.00    -0.387 OA
ATOM     18  H   UNL     1      36.198   5.416  43.833  1.00  0.00     0.211 HD
ENDBRANCH   4  17
TORSDOF 7
ENDMDL
MODEL 3
REMARK VINA RESULT:    -5.372      1.956      3.439
REMARK INTER + INTRA:          -7.142
REMARK INTER:                  -6.741
REMARK INTRA:                  -0.400
REMARK UNBOUND:                -0.200
REMARK SMILES CCO[C@@H]1O[C@@H](CO)[C@H](O)[C@@H](O)[C@H]1O
REMARK SMILES IDX 4 1 13 2 11 3 9 4 6 5 5 6 3 7 2 8 1 9 14 10 12 12 7 14 8 15
REMARK SMILES IDX 10 17
REMARK H PARENT 14 11 12 13 8 16 10 18
REMARK Flexibility Score: inf
ROOT
ATOM      1  C   UNL     1      24.047   3.801  39.005  1.00  0.00     0.281 C 
ATOM      2  C   UNL     1      23.176   3.287  37.848  1.00  0.00     0.202 C 
ATOM      3  C   UNL     1      23.601   3.958  36.529  1.00  0.00     0.179 C 
ATOM      4  C   UNL     1      25.120   3.821  36.323  1.00  0.00     0.177 C 
ATOM      5  C   UNL     1      25.866   4.300  37.593  1.00  0.00     0.178 C 
ATOM      6  O   UNL     1      25.425   3.580  38.736  1.00  0.00    -0.341 OA
ENDROOT
BRANCH   1   7
ATOM      7  O   UNL     1      23.775   5.172  39.249  1.00  0.00    -0.350 OA
BRANCH   7   8
ATOM      8  C   UNL     1      24.086   5.526  40.584  1.00  0.00     0.160 C 
ATOM      9  C   UNL     1      23.503   4.500  41.549  1.00  0.00     0.035 C 
ENDBRANCH   7   8
ENDBRANCH   1   7
BRANCH   2  10
ATOM     10  O   UNL     1      23.315   1.890  37.754  1.00  0.00    -0.385 OA
ATOM     11  H   UNL     1      22.935   1.504  38.587  1.00  0.00     0.211 HD
ENDBRANCH   2  10
BRANCH   3  12
ATOM     12  O   UNL     1      22.924   3.380  35.443  1.00  0.00    -0.387 OA
ATOM     13  H   UNL     1      22.015   3.144  35.766  1.00  0.00     0.211 HD
ENDBRANCH   3  12
BRANCH   5  14
ATOM     14  C   UNL     1      27.382   4.088  37.466  1.00  0.00     0.191 C 
BRANCH  14  15
ATOM     15  O   UNL     1      27.668   3.034  36.583  1.00  0.00    -0.394 OA
ATOM     16  H   UNL     1      26.838   2.500  36.487  1.00  0.00     0.210 HD
ENDBRANCH  14  15
ENDBRANCH   5  14
BRANCH   4  17
ATOM     17  O   UNL     1      25.510   4.598  35.220  1.00  0.00    -0.387 OA
ATOM     18  H   UNL     1      26.210   4.085  34.738  1.00  0.00     0.211 HD
ENDBRANCH   4  17
TORSDOF 7
ENDMDL
MODEL 4
REMARK VINA RESULT:    -5.322     14.371     15.675
REMARK INTER + INTRA:          -7.077
REMARK INTER:                  -6.745
REMARK INTRA:                  -0.333
REMARK UNBOUND:                -0.200
REMARK SMILES CCO[C@@H]1O[C@@H](CO)[C@H](O)[C@@H](O)[C@H]1O
REMARK SMILES IDX 4 1 13 2 11 3 9 4 6 5 5 6 3 7 2 8 1 9 14 10 12 12 7 14 8 15
REMARK SMILES IDX 10 17
REMARK H PARENT 14 11 12 13 8 16 10 18
REMARK Flexibility Score: inf
ROOT
ATOM      1  C   UNL     1      37.852   9.711  44.350  1.00  0.00     0.281 C 
ATOM      2  C   UNL     1      37.018   9.371  45.596  1.00  0.00     0.202 C 
ATOM      3  C   UNL     1      36.025   8.240  45.273  1.00  0.00     0.179 C 
ATOM      4  C   UNL     1      36.756   7.052  44.625  1.00  0.00     0.177 C 
ATOM      5  C   UNL     1      37.616   7.552  43.437  1.00  0.00     0.178 C 
ATOM      6  O   UNL     1      38.525   8.557  43.863  1.00  0.00    -0.341 OA
ENDROOT
BRANCH   1   7
ATOM      7  O   UNL     1      37.025  10.294  43.355  1.00  0.00    -0.350 OA
BRANCH   7   8
ATOM      8  C   UNL     1      36.579  11.579  43.749  1.00  0.00     0.160 C 
ATOM      9  C   UNL     1      37.771  12.468  44.085  1.00  0.00     0.035 C 
ENDBRANCH   7   8
ENDBRANCH   1   7
BRANCH   2  10
ATOM     10  O   UNL     1      37.884   8.982  46.634  1.00  0.00    -0.385 OA
ATOM     11  H   UNL     1      38.735   8.696  46.211  1.00  0.00     0.211 HD
ENDBRANCH   2  10
BRANCH   3  12
ATOM     12  O   UNL     1      35.373   7.811  46.440  1.00  0.00    -0.387 OA
ATOM     13  H   UNL     1      36.082   7.579  47.095  1.00  0.00     0.211 HD
ENDBRANCH   3  12
BRANCH   5  14
ATOM     14  C   UNL     1      38.440   6.411  42.822  1.00  0.00     0.191 C 
BRANCH  14  15
ATOM     15  O   UNL     1      37.615   5.520  42.117  1.00  0.00    -0.394 OA
ATOM     16  H   UNL     1      38.208   4.948  41.564  1.00  0.00     0.210 HD
ENDBRANCH  14  15
ENDBRANCH   5  14
BRANCH   4  17
ATOM     17  O   UNL     1      35.811   6.118  44.169  1.00  0.00    -0.387 OA
ATOM     18  H   UNL     1      35.257   6.578  43.486  1.00  0.00     0.211 HD
ENDBRANCH   4  17
TORSDOF 7
ENDMDL
MODEL 5
REMARK VINA RESULT:    -5.278     10.572     12.247
REMARK INTER + INTRA:          -7.020
REMARK INTER:                  -6.658
REMARK INTRA:                  -0.362
REMARK UNBOUND:                -0.200
REMARK SMILES CCO[C@@H]1O[C@@H](CO)[C@H](O)[C@@H](O)[C@H]1O
REMARK SMILES IDX 4 1 13 2 11 3 9 4 6 5 5 6 3 7 2 8 1 9 14 10 12 12 7 14 8 15
REMARK SMILES IDX 10 17
REMARK H PARENT 14 11 12 13 8 16 10 18
REMARK Flexibility Score: inf
ROOT
ATOM      1  C   UNL     1      34.577   2.621  44.726  1.00  0.00     0.281 C 
ATOM      2  C   UNL     1      35.174   3.896  44.110  1.00  0.00     0.202 C 
ATOM      3  C   UNL     1      34.738   4.026  42.639  1.00  0.00     0.179 C 
ATOM      4  C   UNL     1      33.210   3.888  42.518  1.00  0.00     0.177 C 
ATOM      5  C   UNL     1      32.741   2.605  43.249  1.00  0.00     0.178 C 
ATOM      6  O   UNL     1      33.160   2.619  44.606  1.00  0.00    -0.341 OA
ENDROOT
BRANCH   1   7
ATOM      7  O   UNL     1      35.155   1.473  44.125  1.00  0.00    -0.350 OA
BRANCH   7   8
ATOM      8  C   UNL     1      36.325   1.069  44.814  1.00  0.00     0.160 C 
ATOM      9  C   UNL     1      36.588  -0.413  44.578  1.00  0.00     0.035 C 
ENDBRANCH   7   8
ENDBRANCH   1   7
BRANCH   2  10
ATOM     10  O   UNL     1      34.739   5.010  44.850  1.00  0.00    -0.385 OA
ATOM     11  H   UNL     1      34.956   5.818  44.315  1.00  0.00     0.211 HD
ENDBRANCH   2  10
BRANCH   3  12
ATOM     12  O   UNL     1      35.142   5.264  42.114  1.00  0.00    -0.387 OA
ATOM     13  H   UNL     1      35.956   5.535  42.615  1.00  0.00     0.211 HD
ENDBRANCH   3  12
BRANCH   5  14
ATOM     14  C   UNL     1      31.210   2.481  43.237  1.00  0.00     0.191 C 
BRANCH  14  15
ATOM     15  O   UNL     1      30.762   1.924  42.028  1.00  0.00    -0.394 OA
ATOM     16  H   UNL     1      30.927   0.947  42.078  1.00  0.00     0.210 HD
ENDBRANCH  14  15
ENDBRANCH   5  14
BRANCH   4  17
ATOM     17  O   UNL     1      32.857   3.819  41.160  1.00  0.00    -0.387 OA
ATOM     18  H   UNL     1      32.737   2.859  40.942  1.00  0.00     0.211 HD
ENDBRANCH   4  17
TORSDOF 7
ENDMDL
MODEL 6
REMARK VINA RESULT:    -5.226     14.620     16.002
REMARK INTER + INTRA:          -6.953
REMARK INTER:                  -6.753
REMARK INTRA:                  -0.200
REMARK UNBOUND:                -0.200
REMARK SMILES CCO[C@@H]1O[C@@H](CO)[C@H](O)[C@@H](O)[C@H]1O
REMARK SMILES IDX 4 1 13 2 11 3 9 4 6 5 5 6 3 7 2 8 1 9 14 10 12 12 7 14 8 15
REMARK SMILES IDX 10 17
REMARK H PARENT 14 11 12 13 8 16 10 18
REMARK Flexibility Score: inf
ROOT
ATOM      1  C   UNL     1      38.108   7.904  44.076  1.00  0.00     0.281 C 
ATOM      2  C   UNL     1      36.812   7.866  44.902  1.00  0.00     0.202 C 
ATOM      3  C   UNL     1      36.489   9.272  45.442  1.00  0.00     0.179 C 
ATOM      4  C   UNL     1      36.514  10.303  44.301  1.00  0.00     0.177 C 
ATOM      5  C   UNL     1      37.839  10.175  43.508  1.00  0.00     0.178 C 
ATOM      6  O   UNL     1      38.006   8.851  43.021  1.00  0.00    -0.341 OA
ENDROOT
BRANCH   1   7
ATOM      7  O   UNL     1      39.216   8.179  44.920  1.00  0.00    -0.350 OA
BRANCH   7   8
ATOM      8  C   UNL     1      39.899   6.989  45.270  1.00  0.00     0.160 C 
ATOM      9  C   UNL     1      39.881   6.010  44.101  1.00  0.00     0.035 C 
ENDBRANCH   7   8
ENDBRANCH   1   7
BRANCH   2  10
ATOM     10  O   UNL     1      35.764   7.400  44.089  1.00  0.00    -0.385 OA
ATOM     11  H   UNL     1      35.576   8.111  43.421  1.00  0.00     0.211 HD
ENDBRANCH   2  10
BRANCH   3  12
ATOM     12  O   UNL     1      35.228   9.282  46.060  1.00  0.00    -0.387 OA
ATOM     13  H   UNL     1      35.352   9.694  46.954  1.00  0.00     0.211 HD
ENDBRANCH   3  12
BRANCH   5  14
ATOM     14  C   UNL     1      37.862  11.121  42.298  1.00  0.00     0.191 C 
BRANCH  14  15
ATOM     15  O   UNL     1      38.693  10.618  41.284  1.00  0.00    -0.394 OA
ATOM     16  H   UNL     1      39.507  11.186  41.265  1.00  0.00     0.210 HD
ENDBRANCH  14  15
ENDBRANCH   5  14
BRANCH   4  17
ATOM     17  O   UNL     1      36.406  11.595  44.842  1.00  0.00    -0.387 OA
ATOM     18  H   UNL     1      35.687  12.059  44.339  1.00  0.00     0.211 HD
ENDBRANCH   4  17
TORSDOF 7
ENDMDL
MODEL 7
REMARK VINA RESULT:    -5.179     11.676     13.392
REMARK INTER + INTRA:          -6.893
REMARK INTER:                  -6.539
REMARK INTRA:                  -0.354
REMARK UNBOUND:                -0.200
REMARK SMILES CCO[C@@H]1O[C@@H](CO)[C@H](O)[C@@H](O)[C@H]1O
REMARK SMILES IDX 4 1 13 2 11 3 9 4 6 5 5 6 3 7 2 8 1 9 14 10 12 12 7 14 8 15
REMARK SMILES IDX 10 17
REMARK H PARENT 14 11 12 13 8 16 10 18
REMARK Flexibility Score: inf
ROOT
ATOM      1  C   UNL     1      35.186   3.192  45.038  1.00  0.00     0.281 C 
ATOM      2  C   UNL     1      35.960   4.504  45.242  1.00  0.00     0.202 C 
ATOM      3  C   UNL     1      36.342   5.108  43.878  1.00  0.00     0.179 C 
ATOM      4  C   UNL     1      35.105   5.207  42.969  1.00  0.00     0.177 C 
ATOM      5  C   UNL     1      34.381   3.838  42.920  1.00  0.00     0.178 C 
ATOM      6  O   UNL     1      34.037   3.404  44.228  1.00  0.00    -0.341 OA
ENDROOT
BRANCH   1   7
ATOM      7  O   UNL     1      36.040   2.203  44.485  1.00  0.00    -0.350 OA
BRANCH   7   8
ATOM      8  C   UNL     1      36.838   1.598  45.487  1.00  0.00     0.160 C 
ATOM      9  C   UNL     1      36.950   0.099  45.235  1.00  0.00     0.035 C 
ENDBRANCH   7   8
ENDBRANCH   1   7
BRANCH   2  10
ATOM     10  O   UNL     1      35.157   5.402  45.968  1.00  0.00    -0.385 OA
ATOM     11  H   UNL     1      35.408   5.308  46.924  1.00  0.00     0.211 HD
ENDBRANCH   2  10
BRANCH   3  12
ATOM     12  O   UNL     1      36.906   6.383  44.046  1.00  0.00    -0.387 OA
ATOM     13  H   UNL     1      36.691   6.670  44.972  1.00  0.00     0.211 HD
ENDBRANCH   3  12
BRANCH   5  14
ATOM     14  C   UNL     1      33.084   3.918  42.101  1.00  0.00     0.191 C 
BRANCH  14  15
ATOM     15  O   UNL     1      33.326   3.622  40.749  1.00  0.00    -0.394 OA
ATOM     16  H   UNL     1      33.977   2.873  40.726  1.00  0.00     0.210 HD
ENDBRANCH  14  15
ENDBRANCH   5  14
BRANCH   4  17
ATOM     17  O   UNL     1      35.508   5.579  41.676  1.00  0.00    -0.387 OA
ATOM     18  H   UNL     1      36.496   5.673  41.697  1.00  0.00     0.211 HD
ENDBRANCH   4  17
TORSDOF 7
ENDMDL
MODEL 8
REMARK VINA RESULT:    -5.118     13.291     15.082
REMARK INTER + INTRA:          -6.814
REMARK INTER:                  -6.442
REMARK INTRA:                  -0.372
REMARK UNBOUND:                -0.200
REMARK SMILES CCO[C@@H]1O[C@@H](CO)[C@H](O)[C@@H](O)[C@H]1O
REMARK SMILES IDX 4 1 13 2 11 3 9 4 6 5 5 6 3 7 2 8 1 9 14 10 12 12 7 14 8 15
REMARK SMILES IDX 10 17
REMARK H PARENT 14 11 12 13 8 16 10 18
REMARK Flexibility Score: inf
ROOT
ATOM      1  C   UNL     1      36.485   5.427  44.017  1.00  0.00     0.281 C 
ATOM      2  C   UNL     1      38.018   5.315  43.972  1.00  0.00     0.202 C 
ATOM      3  C   UNL     1      38.633   6.659  43.540  1.00  0.00     0.179 C 
ATOM      4  C   UNL     1      38.080   7.804  44.405  1.00  0.00     0.177 C 
ATOM      5  C   UNL     1      36.532   7.747  44.424  1.00  0.00     0.178 C 
ATOM      6  O   UNL     1      36.082   6.480  44.882  1.00  0.00    -0.341 OA
ENDROOT
BRANCH   1   7
ATOM      7  O   UNL     1      35.971   5.600  42.706  1.00  0.00    -0.350 OA
BRANCH   7   8
ATOM      8  C   UNL     1      34.600   5.251  42.645  1.00  0.00     0.160 C 
ATOM      9  C   UNL     1      34.379   3.877  43.265  1.00  0.00     0.035 C 
ENDBRANCH   7   8
ENDBRANCH   1   7
BRANCH   2  10
ATOM     10  O   UNL     1      38.488   4.948  45.246  1.00  0.00    -0.385 OA
ATOM     11  H   UNL     1      37.717   5.008  45.869  1.00  0.00     0.211 HD
ENDBRANCH   2  10
BRANCH   3  12
ATOM     12  O   UNL     1      40.032   6.617  43.651  1.00  0.00    -0.387 OA
ATOM     13  H   UNL     1      40.374   6.229  42.803  1.00  0.00     0.211 HD
ENDBRANCH   3  12
BRANCH   5  14
ATOM     14  C   UNL     1      35.943   8.815  45.357  1.00  0.00     0.191 C 
BRANCH  14  15
ATOM     15  O   UNL     1      36.827   9.106  46.408  1.00  0.00    -0.394 OA
ATOM     16  H   UNL     1      36.905   8.284  46.960  1.00  0.00     0.210 HD
ENDBRANCH  14  15
ENDBRANCH   5  14
BRANCH   4  17
ATOM     17  O   UNL     1      38.505   9.033  43.874  1.00  0.00    -0.387 OA
ATOM     18  H   UNL     1      38.862   8.848  42.966  1.00  0.00     0.211 HD
ENDBRANCH   4  17
TORSDOF 7
ENDMDL
MODEL 9
REMARK VINA RESULT:    -5.089     14.277     16.048
REMARK INTER + INTRA:          -6.777
REMARK INTER:                  -6.411
REMARK INTRA:                  -0.366
REMARK UNBOUND:                -0.200
REMARK SMILES CCO[C@@H]1O[C@@H](CO)[C@H](O)[C@@H](O)[C@H]1O
REMARK SMILES IDX 4 1 13 2 11 3 9 4 6 5 5 6 3 7 2 8 1 9 14 10 12 12 7 14 8 15
REMARK SMILES IDX 10 17
REMARK H PARENT 14 11 12 13 8 16 10 18
REMARK Flexibility Score: inf
ROOT
ATOM      1  C   UNL     1      39.189   6.174  43.602  1.00  0.00     0.281 C 
ATOM      2  C   UNL     1      37.826   5.924  42.939  1.00  0.00     0.202 C 
ATOM      3  C   UNL     1      36.690   6.286  43.914  1.00  0.00     0.179 C 
ATOM      4  C   UNL     1      36.899   7.702  44.477  1.00  0.00     0.177 C 
ATOM      5  C   UNL     1      38.337   7.835  45.039  1.00  0.00     0.178 C 
ATOM      6  O   UNL     1      39.297   7.522  44.040  1.00  0.00    -0.341 OA
ENDROOT
BRANCH   1   7
ATOM      7  O   UNL     1      39.387   5.259  44.669  1.00  0.00    -0.350 OA
BRANCH   7   8
ATOM      8  C   UNL     1      39.772   3.985  44.185  1.00  0.00     0.160 C 
ATOM      9  C   UNL     1      38.952   2.895  44.866  1.00  0.00     0.035 C 
ENDBRANCH   7   8
ENDBRANCH   1   7
BRANCH   2  10
ATOM     10  O   UNL     1      37.735   6.700  41.770  1.00  0.00    -0.385 OA
ATOM     11  H   UNL     1      38.321   6.274  41.091  1.00  0.00     0.211 HD
ENDBRANCH   2  10
BRANCH   3  12
ATOM     12  O   UNL     1      35.446   6.216  43.266  1.00  0.00    -0.387 OA
ATOM     13  H   UNL     1      34.763   6.079  43.974  1.00  0.00     0.211 HD
ENDBRANCH   3  12
BRANCH   5  14
ATOM     14  C   UNL     1      38.619   9.265  45.524  1.00  0.00     0.191 C 
BRANCH  14  15
ATOM     15  O   UNL     1      38.416   9.374  46.909  1.00  0.00    -0.394 OA
ATOM     16  H   UNL     1      38.356   8.451  47.269  1.00  0.00     0.210 HD
ENDBRANCH  14  15
ENDBRANCH   5  14
BRANCH   4  17
ATOM     17  O   UNL     1      35.964   7.937  45.499  1.00  0.00    -0.387 OA
ATOM     18  H   UNL     1      36.291   7.458  46.305  1.00  0.00     0.211 HD
ENDBRANCH   4  17
TORSDOF 7
ENDMDL
