MODEL 1
REMARK VINA RESULT:    -7.203      0.000      0.000
REMARK INTER + INTRA:         -13.164
REMARK INTER:                 -12.256
REMARK INTRA:                  -0.909
REMARK UNBOUND:                -0.909
REMARK SMILES CCCCCCCCCCCCCC(=O)[O-]
REMARK SMILES IDX 8 1 9 2 10 3 11 4 12 5 13 6 14 7 15 8 16 9 7 10 6 11 5 12
REMARK SMILES IDX 4 13 3 14 2 15 1 16
REMARK H PARENT
REMARK Flexibility Score: inf
ROOT
ATOM      1  C   UNL     1      -7.580  -2.841 -19.481  1.00  0.00     0.000 C 
ENDROOT
BRANCH   1   2
ATOM      2  C   UNL     1      -7.157  -2.615 -20.942  1.00  0.00     0.000 C 
BRANCH   2   3
ATOM      3  C   UNL     1      -5.808  -3.277 -21.275  1.00  0.00     0.000 C 
BRANCH   3   4
ATOM      4  C   UNL     1      -4.630  -2.294 -21.179  1.00  0.00     0.000 C 
BRANCH   4   5
ATOM      5  C   UNL     1      -4.150  -2.082 -19.732  1.00  0.00     0.006 C 
BRANCH   5   6
ATOM      6  C   UNL     1      -4.444  -0.662 -19.228  1.00  0.00     0.053 C 
BRANCH   6   7
ATOM      7  C   UNL     1      -3.263  -0.069 -18.525  1.00  0.00     0.041 C 
ATOM      8  O   UNL     1      -2.364  -0.815 -18.052  1.00  0.00    -0.550 OA
ATOM      9  O   UNL     1      -3.137   1.310 -18.420  1.00  0.00    -0.550 OA
ENDBRANCH   6   7
ENDBRANCH   5   6
ENDBRANCH   4   5
ENDBRANCH   3   4
ENDBRANCH   2   3
ENDBRANCH   1   2
BRANCH   1  10
ATOM     10  C   UNL     1      -6.987  -4.130 -18.888  1.00  0.00     0.000 C 
BRANCH  10  11
ATOM     11  C   UNL     1      -8.038  -4.997 -18.171  1.00  0.00    -0.000 C 
BRANCH  11  12
ATOM     12  C   UNL     1      -9.292  -5.326 -19.005  1.00  0.00    -0.000 C 
BRANCH  12  13
ATOM     13  C   UNL     1      -9.096  -6.417 -20.077  1.00  0.00    -0.000 C 
BRANCH  13  14
ATOM     14  C   UNL     1      -7.996  -7.451 -19.762  1.00  0.00    -0.000 C 
BRANCH  14  15
ATOM     15  C   UNL     1      -8.498  -8.895 -19.585  1.00  0.00    -0.003 C 
ATOM     16  C   UNL     1      -7.874  -9.869 -20.585  1.00  0.00     0.004 C 
ENDBRANCH  14  15
ENDBRANCH  13  14
ENDBRANCH  12  13
ENDBRANCH  11  12
ENDBRANCH  10  11
ENDBRANCH   1  10
TORSDOF 12
ENDMDL
MODEL 2
REMARK VINA RESULT:    -6.999      4.301      8.020
REMARK INTER + INTRA:         -12.818
REMARK INTER:                 -12.093
REMARK INTRA:                  -0.725
REMARK UNBOUND:                -0.909
REMARK SMILES CCCCCCCCCCCCCC(=O)[O-]
REMARK SMILES IDX 8 1 9 2 10 3 11 4 12 5 13 6 14 7 15 8 16 9 7 10 6 11 5 12
REMARK SMILES IDX 4 13 3 14 2 15 1 16
REMARK H PARENT
REMARK Flexibility Score: inf
ROOT
ATOM      1  C   UNL     1      -7.619  -3.036 -19.473  1.00  0.00     0.000 C 
ENDROOT
BRANCH   1   2
ATOM      2  C   UNL     1      -7.257  -4.521 -19.297  1.00  0.00     0.000 C 
BRANCH   2   3
ATOM      3  C   UNL     1      -8.433  -5.353 -18.755  1.00  0.00     0.000 C 
BRANCH   3   4
ATOM      4  C   UNL     1      -8.925  -6.404 -19.762  1.00  0.00     0.000 C 
BRANCH   4   5
ATOM      5  C   UNL     1      -7.899  -7.527 -19.997  1.00  0.00     0.006 C 
BRANCH   5   6
ATOM      6  C   UNL     1      -8.462  -8.909 -19.639  1.00  0.00     0.053 C 
BRANCH   6   7
ATOM      7  C   UNL     1      -8.147  -9.925 -20.692  1.00  0.00     0.041 C 
ATOM      8  O   UNL     1      -8.412  -9.691 -21.901  1.00  0.00    -0.550 OA
ATOM      9  O   UNL     1      -7.529 -11.120 -20.344  1.00  0.00    -0.550 OA
ENDBRANCH   6   7
ENDBRANCH   5   6
ENDBRANCH   4   5
ENDBRANCH   3   4
ENDBRANCH   2   3
ENDBRANCH   1   2
BRANCH   1  10
ATOM     10  C   UNL     1      -7.189  -2.483 -20.842  1.00  0.00     0.000 C 
BRANCH  10  11
ATOM     11  C   UNL     1      -5.754  -2.888 -21.226  1.00  0.00    -0.000 C 
BRANCH  11  12
ATOM     12  C   UNL     1      -4.640  -2.033 -20.591  1.00  0.00    -0.000 C 
BRANCH  12  13
ATOM     13  C   UNL     1      -4.135  -2.527 -19.221  1.00  0.00    -0.000 C 
BRANCH  13  14
ATOM     14  C   UNL     1      -3.612  -1.422 -18.281  1.00  0.00    -0.000 C 
BRANCH  14  15
ATOM     15  C   UNL     1      -4.071   0.002 -18.641  1.00  0.00    -0.003 C 
ATOM     16  C   UNL     1      -2.984   1.053 -18.416  1.00  0.00     0.004 C 
ENDBRANCH  14  15
ENDBRANCH  13  14
ENDBRANCH  12  13
ENDBRANCH  11  12
ENDBRANCH  10  11
ENDBRANCH   1  10
TORSDOF 12
ENDMDL
MODEL 3
REMARK VINA RESULT:    -6.971      1.237      2.001
REMARK INTER + INTRA:         -12.770
REMARK INTER:                 -11.880
REMARK INTRA:                  -0.890
REMARK UNBOUND:                -0.909
REMARK SMILES CCCCCCCCCCCCCC(=O)[O-]
REMARK SMILES IDX 8 1 9 2 10 3 11 4 12 5 13 6 14 7 15 8 16 9 7 10 6 11 5 12
REMARK SMILES IDX 4 13 3 14 2 15 1 16
REMARK H PARENT
REMARK Flexibility Score: inf
ROOT
ATOM      1  C   UNL     1      -7.519  -1.776 -19.939  1.00  0.00     0.000 C 
ENDROOT
BRANCH   1   2
ATOM      2  C   UNL     1      -6.385  -1.073 -19.174  1.00  0.00     0.000 C 
BRANCH   2   3
ATOM      3  C   UNL     1      -4.992  -1.448 -19.709  1.00  0.00     0.000 C 
BRANCH   3   4
ATOM      4  C   UNL     1      -4.153  -2.222 -18.680  1.00  0.00     0.000 C 
BRANCH   4   5
ATOM      5  C   UNL     1      -2.872  -1.472 -18.274  1.00  0.00     0.006 C 
BRANCH   5   6
ATOM      6  C   UNL     1      -2.940   0.020 -18.630  1.00  0.00     0.053 C 
BRANCH   6   7
ATOM      7  C   UNL     1      -3.299   0.857 -17.441  1.00  0.00     0.041 C 
ATOM      8  O   UNL     1      -3.998   0.373 -16.511  1.00  0.00    -0.550 OA
ATOM      9  O   UNL     1      -2.835   2.162 -17.343  1.00  0.00    -0.550 OA
ENDBRANCH   6   7
ENDBRANCH   5   6
ENDBRANCH   4   5
ENDBRANCH   3   4
ENDBRANCH   2   3
ENDBRANCH   1   2
BRANCH   1  10
ATOM     10  C   UNL     1      -7.000  -2.652 -21.091  1.00  0.00     0.000 C 
BRANCH  10  11
ATOM     11  C   UNL     1      -7.204  -4.157 -20.836  1.00  0.00    -0.000 C 
BRANCH  11  12
ATOM     12  C   UNL     1      -7.225  -4.572 -19.352  1.00  0.00    -0.000 C 
BRANCH  12  13
ATOM     13  C   UNL     1      -8.423  -5.446 -18.934  1.00  0.00    -0.000 C 
BRANCH  13  14
ATOM     14  C   UNL     1      -8.719  -6.637 -19.868  1.00  0.00    -0.000 C 
BRANCH  14  15
ATOM     15  C   UNL     1      -8.414  -8.021 -19.267  1.00  0.00    -0.003 C 
ATOM     16  C   UNL     1      -8.139  -9.085 -20.330  1.00  0.00     0.004 C 
ENDBRANCH  14  15
ENDBRANCH  13  14
ENDBRANCH  12  13
ENDBRANCH  11  12
ENDBRANCH  10  11
ENDBRANCH   1  10
TORSDOF 12
ENDMDL
MODEL 4
REMARK VINA RESULT:    -6.435      4.445      7.839
REMARK INTER + INTRA:         -11.859
REMARK INTER:                 -10.832
REMARK INTRA:                  -1.026
REMARK UNBOUND:                -0.909
REMARK SMILES CCCCCCCCCCCCCC(=O)[O-]
REMARK SMILES IDX 8 1 9 2 10 3 11 4 12 5 13 6 14 7 15 8 16 9 7 10 6 11 5 12
REMARK SMILES IDX 4 13 3 14 2 15 1 16
REMARK H PARENT
REMARK Flexibility Score: inf
ROOT
ATOM      1  C   UNL     1      -6.370  -4.564 -19.671  1.00  0.00     0.000 C 
ENDROOT
BRANCH   1   2
ATOM      2  C   UNL     1      -7.672  -4.377 -18.874  1.00  0.00     0.000 C 
BRANCH   2   3
ATOM      3  C   UNL     1      -8.799  -5.305 -19.360  1.00  0.00     0.000 C 
BRANCH   3   4
ATOM      4  C   UNL     1      -8.591  -6.764 -18.925  1.00  0.00     0.000 C 
BRANCH   4   5
ATOM      5  C   UNL     1      -8.438  -7.723 -20.119  1.00  0.00     0.006 C 
BRANCH   5   6
ATOM      6  C   UNL     1      -8.569  -9.194 -19.700  1.00  0.00     0.053 C 
BRANCH   6   7
ATOM      7  C   UNL     1      -8.080 -10.120 -20.770  1.00  0.00     0.041 C 
ATOM      8  O   UNL     1      -7.378 -11.122 -20.470  1.00  0.00    -0.550 OA
ATOM      9  O   UNL     1      -8.426  -9.895 -22.096  1.00  0.00    -0.550 OA
ENDBRANCH   6   7
ENDBRANCH   5   6
ENDBRANCH   4   5
ENDBRANCH   3   4
ENDBRANCH   2   3
ENDBRANCH   1   2
BRANCH   1  10
ATOM     10  C   UNL     1      -6.371  -3.781 -20.995  1.00  0.00     0.000 C 
BRANCH  10  11
ATOM     11  C   UNL     1      -5.173  -2.821 -21.122  1.00  0.00    -0.000 C 
BRANCH  11  12
ATOM     12  C   UNL     1      -4.467  -2.478 -19.796  1.00  0.00    -0.000 C 
BRANCH  12  13
ATOM     13  C   UNL     1      -4.299  -0.972 -19.515  1.00  0.00    -0.000 C 
BRANCH  13  14
ATOM     14  C   UNL     1      -5.297  -0.383 -18.496  1.00  0.00    -0.000 C 
BRANCH  14  15
ATOM     15  C   UNL     1      -6.754  -0.844 -18.680  1.00  0.00    -0.003 C 
ATOM     16  C   UNL     1      -7.574   0.107 -19.553  1.00  0.00     0.004 C 
ENDBRANCH  14  15
ENDBRANCH  13  14
ENDBRANCH  12  13
ENDBRANCH  11  12
ENDBRANCH  10  11
ENDBRANCH   1  10
TORSDOF 12
ENDMDL
MODEL 5
REMARK VINA RESULT:    -6.276      3.811      8.408
REMARK INTER + INTRA:         -11.587
REMARK INTER:                 -10.963
REMARK INTRA:                  -0.624
REMARK UNBOUND:                -0.909
REMARK SMILES CCCCCCCCCCCCCC(=O)[O-]
REMARK SMILES IDX 8 1 9 2 10 3 11 4 12 5 13 6 14 7 15 8 16 9 7 10 6 11 5 12
REMARK SMILES IDX 4 13 3 14 2 15 1 16
REMARK H PARENT
REMARK Flexibility Score: inf
ROOT
ATOM      1  C   UNL     1      -6.790  -0.829 -19.181  1.00  0.00     0.000 C 
ENDROOT
BRANCH   1   2
ATOM      2  C   UNL     1      -7.647  -1.941 -19.808  1.00  0.00     0.000 C 
BRANCH   2   3
ATOM      3  C   UNL     1      -7.155  -2.346 -21.209  1.00  0.00     0.000 C 
BRANCH   3   4
ATOM      4  C   UNL     1      -6.656  -3.799 -21.262  1.00  0.00     0.000 C 
BRANCH   4   5
ATOM      5  C   UNL     1      -6.864  -4.546 -19.932  1.00  0.00     0.006 C 
BRANCH   5   6
ATOM      6  C   UNL     1      -7.101  -6.048 -20.144  1.00  0.00     0.053 C 
BRANCH   6   7
ATOM      7  C   UNL     1      -8.477  -6.456 -19.719  1.00  0.00     0.041 C 
ATOM      8  O   UNL     1      -8.821  -7.668 -19.755  1.00  0.00    -0.550 OA
ATOM      9  O   UNL     1      -9.372  -5.503 -19.251  1.00  0.00    -0.550 OA
ENDBRANCH   6   7
ENDBRANCH   5   6
ENDBRANCH   4   5
ENDBRANCH   3   4
ENDBRANCH   2   3
ENDBRANCH   1   2
BRANCH   1  10
ATOM     10  C   UNL     1      -5.384  -1.315 -18.793  1.00  0.00     0.000 C 
BRANCH  10  11
ATOM     11  C   UNL     1      -4.291  -0.268 -19.074  1.00  0.00    -0.000 C 
BRANCH  11  12
ATOM     12  C   UNL     1      -3.483   0.181 -17.841  1.00  0.00    -0.000 C 
BRANCH  12  13
ATOM     13  C   UNL     1      -2.340   1.173 -18.134  1.00  0.00    -0.000 C 
BRANCH  13  14
ATOM     14  C   UNL     1      -2.321   2.428 -17.237  1.00  0.00    -0.000 C 
BRANCH  14  15
ATOM     15  C   UNL     1      -1.875   3.720 -17.944  1.00  0.00    -0.003 C 
ATOM     16  C   UNL     1      -2.677   4.946 -17.505  1.00  0.00     0.004 C 
ENDBRANCH  14  15
ENDBRANCH  13  14
ENDBRANCH  12  13
ENDBRANCH  11  12
ENDBRANCH  10  11
ENDBRANCH   1  10
TORSDOF 12
ENDMDL
MODEL 6
REMARK VINA RESULT:    -6.149      2.905      5.243
REMARK INTER + INTRA:         -11.371
REMARK INTER:                 -10.660
REMARK INTRA:                  -0.711
REMARK UNBOUND:                -0.909
REMARK SMILES CCCCCCCCCCCCCC(=O)[O-]
REMARK SMILES IDX 8 1 9 2 10 3 11 4 12 5 13 6 14 7 15 8 16 9 7 10 6 11 5 12
REMARK SMILES IDX 4 13 3 14 2 15 1 16
REMARK H PARENT
REMARK Flexibility Score: inf
ROOT
ATOM      1  C   UNL     1      -3.651  -0.655 -19.039  1.00  0.00     0.000 C 
ENDROOT
BRANCH   1   2
ATOM      2  C   UNL     1      -3.808   0.050 -17.682  1.00  0.00     0.000 C 
BRANCH   2   3
ATOM      3  C   UNL     1      -2.466   0.548 -17.117  1.00  0.00     0.000 C 
BRANCH   3   4
ATOM      4  C   UNL     1      -1.964   1.818 -17.823  1.00  0.00     0.000 C 
BRANCH   4   5
ATOM      5  C   UNL     1      -2.863   3.039 -17.558  1.00  0.00     0.006 C 
BRANCH   5   6
ATOM      6  C   UNL     1      -2.068   4.352 -17.558  1.00  0.00     0.053 C 
BRANCH   6   7
ATOM      7  C   UNL     1      -2.955   5.536 -17.325  1.00  0.00     0.041 C 
ATOM      8  O   UNL     1      -2.735   6.622 -17.923  1.00  0.00    -0.550 OA
ATOM      9  O   UNL     1      -4.045   5.430 -16.471  1.00  0.00    -0.550 OA
ENDBRANCH   6   7
ENDBRANCH   5   6
ENDBRANCH   4   5
ENDBRANCH   3   4
ENDBRANCH   2   3
ENDBRANCH   1   2
BRANCH   1  10
ATOM     10  C   UNL     1      -4.865  -1.528 -19.395  1.00  0.00     0.000 C 
BRANCH  10  11
ATOM     11  C   UNL     1      -6.206  -0.868 -19.023  1.00  0.00    -0.000 C 
BRANCH  11  12
ATOM     12  C   UNL     1      -7.447  -1.484 -19.697  1.00  0.00    -0.000 C 
BRANCH  12  13
ATOM     13  C   UNL     1      -7.162  -2.300 -20.974  1.00  0.00    -0.000 C 
BRANCH  13  14
ATOM     14  C   UNL     1      -7.500  -3.802 -20.877  1.00  0.00    -0.000 C 
BRANCH  14  15
ATOM     15  C   UNL     1      -7.155  -4.456 -19.528  1.00  0.00    -0.003 C 
ATOM     16  C   UNL     1      -8.379  -5.033 -18.815  1.00  0.00     0.004 C 
ENDBRANCH  14  15
ENDBRANCH  13  14
ENDBRANCH  12  13
ENDBRANCH  11  12
ENDBRANCH  10  11
ENDBRANCH   1  10
TORSDOF 12
ENDMDL
MODEL 7
REMARK VINA RESULT:    -6.020      4.140      9.187
REMARK INTER + INTRA:         -11.152
REMARK INTER:                 -10.723
REMARK INTRA:                  -0.429
REMARK UNBOUND:                -0.909
REMARK SMILES CCCCCCCCCCCCCC(=O)[O-]
REMARK SMILES IDX 8 1 9 2 10 3 11 4 12 5 13 6 14 7 15 8 16 9 7 10 6 11 5 12
REMARK SMILES IDX 4 13 3 14 2 15 1 16
REMARK H PARENT
REMARK Flexibility Score: inf
ROOT
ATOM      1  C   UNL     1      -3.496  -1.854 -18.429  1.00  0.00     0.000 C 
ENDROOT
BRANCH   1   2
ATOM      2  C   UNL     1      -4.745  -2.741 -18.558  1.00  0.00     0.000 C 
BRANCH   2   3
ATOM      3  C   UNL     1      -5.451  -2.573 -19.915  1.00  0.00     0.000 C 
BRANCH   3   4
ATOM      4  C   UNL     1      -6.968  -2.798 -19.824  1.00  0.00     0.000 C 
BRANCH   4   5
ATOM      5  C   UNL     1      -7.448  -3.969 -20.701  1.00  0.00     0.006 C 
BRANCH   5   6
ATOM      6  C   UNL     1      -7.023  -5.330 -20.130  1.00  0.00     0.053 C 
BRANCH   6   7
ATOM      7  C   UNL     1      -8.204  -6.137 -19.688  1.00  0.00     0.041 C 
ATOM      8  O   UNL     1      -9.304  -5.573 -19.445  1.00  0.00    -0.550 OA
ATOM      9  O   UNL     1      -8.100  -7.517 -19.575  1.00  0.00    -0.550 OA
ENDBRANCH   6   7
ENDBRANCH   5   6
ENDBRANCH   4   5
ENDBRANCH   3   4
ENDBRANCH   2   3
ENDBRANCH   1   2
BRANCH   1  10
ATOM     10  C   UNL     1      -3.763  -0.395 -18.835  1.00  0.00     0.000 C 
BRANCH  10  11
ATOM     11  C   UNL     1      -2.564   0.531 -18.559  1.00  0.00    -0.000 C 
BRANCH  11  12
ATOM     12  C   UNL     1      -2.738   1.486 -17.362  1.00  0.00    -0.000 C 
BRANCH  12  13
ATOM     13  C   UNL     1      -2.029   2.847 -17.502  1.00  0.00    -0.000 C 
BRANCH  13  14
ATOM     14  C   UNL     1      -2.968   4.070 -17.541  1.00  0.00    -0.000 C 
BRANCH  14  15
ATOM     15  C   UNL     1      -2.260   5.432 -17.429  1.00  0.00    -0.003 C 
ATOM     16  C   UNL     1      -2.473   6.318 -18.657  1.00  0.00     0.004 C 
ENDBRANCH  14  15
ENDBRANCH  13  14
ENDBRANCH  12  13
ENDBRANCH  11  12
ENDBRANCH  10  11
ENDBRANCH   1  10
TORSDOF 12
ENDMDL
MODEL 8
REMARK VINA RESULT:    -5.951      3.940      6.860
REMARK INTER + INTRA:         -11.034
REMARK INTER:                 -10.326
REMARK INTRA:                  -0.709
REMARK UNBOUND:                -0.909
REMARK SMILES CCCCCCCCCCCCCC(=O)[O-]
REMARK SMILES IDX 8 1 9 2 10 3 11 4 12 5 13 6 14 7 15 8 16 9 7 10 6 11 5 12
REMARK SMILES IDX 4 13 3 14 2 15 1 16
REMARK H PARENT
REMARK Flexibility Score: inf
ROOT
ATOM      1  C   UNL     1      -3.203   0.492 -17.363  1.00  0.00     0.000 C 
ENDROOT
BRANCH   1   2
ATOM      2  C   UNL     1      -2.332   1.650 -17.878  1.00  0.00     0.000 C 
BRANCH   2   3
ATOM      3  C   UNL     1      -2.937   3.029 -17.559  1.00  0.00     0.000 C 
BRANCH   3   4
ATOM      4  C   UNL     1      -1.890   4.154 -17.592  1.00  0.00     0.000 C 
BRANCH   4   5
ATOM      5  C   UNL     1      -2.487   5.530 -17.245  1.00  0.00     0.006 C 
BRANCH   5   6
ATOM      6  C   UNL     1      -4.022   5.507 -17.234  1.00  0.00     0.053 C 
BRANCH   6   7
ATOM      7  C   UNL     1      -4.575   6.155 -16.003  1.00  0.00     0.041 C 
ATOM      8  O   UNL     1      -4.354   7.373 -15.771  1.00  0.00    -0.550 OA
ATOM      9  O   UNL     1      -5.364   5.421 -15.126  1.00  0.00    -0.550 OA
ENDBRANCH   6   7
ENDBRANCH   5   6
ENDBRANCH   4   5
ENDBRANCH   3   4
ENDBRANCH   2   3
ENDBRANCH   1   2
BRANCH   1  10
ATOM     10  C   UNL     1      -4.010  -0.183 -18.485  1.00  0.00     0.000 C 
BRANCH  10  11
ATOM     11  C   UNL     1      -3.749  -1.698 -18.579  1.00  0.00    -0.000 C 
BRANCH  11  12
ATOM     12  C   UNL     1      -4.572  -2.437 -19.653  1.00  0.00    -0.000 C 
BRANCH  12  13
ATOM     13  C   UNL     1      -5.679  -3.361 -19.108  1.00  0.00    -0.000 C 
BRANCH  13  14
ATOM     14  C   UNL     1      -7.112  -2.803 -19.227  1.00  0.00    -0.000 C 
BRANCH  14  15
ATOM     15  C   UNL     1      -7.250  -1.566 -20.132  1.00  0.00    -0.003 C 
ATOM     16  C   UNL     1      -7.553  -0.287 -19.351  1.00  0.00     0.004 C 
ENDBRANCH  14  15
ENDBRANCH  13  14
ENDBRANCH  12  13
ENDBRANCH  11  12
ENDBRANCH  10  11
ENDBRANCH   1  10
TORSDOF 12
ENDMDL
MODEL 9
REMARK VINA RESULT:    -5.622      4.192      7.019
REMARK INTER + INTRA:         -10.474
REMARK INTER:                  -9.969
REMARK INTRA:                  -0.505
REMARK UNBOUND:                -0.909
REMARK SMILES CCCCCCCCCCCCCC(=O)[O-]
REMARK SMILES IDX 8 1 9 2 10 3 11 4 12 5 13 6 14 7 15 8 16 9 7 10 6 11 5 12
REMARK SMILES IDX 4 13 3 14 2 15 1 16
REMARK H PARENT
REMARK Flexibility Score: inf
ROOT
ATOM      1  C   UNL     1      -2.124   0.888 -17.486  1.00  0.00     0.000 C 
ENDROOT
BRANCH   1   2
ATOM      2  C   UNL     1      -2.991   2.157 -17.535  1.00  0.00     0.000 C 
BRANCH   2   3
ATOM      3  C   UNL     1      -2.152   3.447 -17.500  1.00  0.00     0.000 C 
BRANCH   3   4
ATOM      4  C   UNL     1      -2.970   4.693 -17.875  1.00  0.00     0.000 C 
BRANCH   4   5
ATOM      5  C   UNL     1      -3.127   5.675 -16.701  1.00  0.00     0.006 C 
BRANCH   5   6
ATOM      6  C   UNL     1      -4.593   6.069 -16.470  1.00  0.00     0.053 C 
BRANCH   6   7
ATOM      7  C   UNL     1      -4.927   6.127 -15.011  1.00  0.00     0.041 C 
ATOM      8  O   UNL     1      -4.413   7.012 -14.276  1.00  0.00    -0.550 OA
ATOM      9  O   UNL     1      -5.832   5.224 -14.469  1.00  0.00    -0.550 OA
ENDBRANCH   6   7
ENDBRANCH   5   6
ENDBRANCH   4   5
ENDBRANCH   3   4
ENDBRANCH   2   3
ENDBRANCH   1   2
BRANCH   1  10
ATOM     10  C   UNL     1      -2.768  -0.296 -18.226  1.00  0.00     0.000 C 
BRANCH  10  11
ATOM     11  C   UNL     1      -4.269  -0.448 -17.918  1.00  0.00    -0.000 C 
BRANCH  11  12
ATOM     12  C   UNL     1      -5.121  -1.004 -19.076  1.00  0.00    -0.000 C 
BRANCH  12  13
ATOM     13  C   UNL     1      -6.624  -0.672 -19.000  1.00  0.00    -0.000 C 
BRANCH  13  14
ATOM     14  C   UNL     1      -7.500  -1.370 -20.061  1.00  0.00    -0.000 C 
BRANCH  14  15
ATOM     15  C   UNL     1      -7.110  -2.828 -20.363  1.00  0.00    -0.003 C 
ATOM     16  C   UNL     1      -7.718  -3.824 -19.375  1.00  0.00     0.004 C 
ENDBRANCH  14  15
ENDBRANCH  13  14
ENDBRANCH  12  13
ENDBRANCH  11  12
ENDBRANCH  10  11
ENDBRANCH   1  10
TORSDOF 12
ENDMDL
