MODEL 1
REMARK VINA RESULT:    -3.486      0.000      0.000
REMARK INTER + INTRA:          -3.486
REMARK INTER:                  -3.486
REMARK INTRA:                   0.000
REMARK UNBOUND:                 0.000
REMARK SMILES CC1(C)O[C@]2(C)CC[C@H]1CC2
REMARK SMILES IDX 1 1 2 2 9 3 8 4 7 5 5 6 4 7 11 8 10 9 6 10 3 11
REMARK H PARENT
REMARK Flexibility Score: inf
ROOT
ATOM      1  C   UNL     1     482.959  41.916 459.122  1.00  0.00     0.042 C 
ATOM      2  C   UNL     1     483.989  40.767 459.166  1.00  0.00     0.066 C 
ATOM      3  C   UNL     1     483.684  39.792 460.369  1.00  0.00     0.021 C 
ATOM      4  C   UNL     1     484.713  38.636 460.333  1.00  0.00     0.009 C 
ATOM      5  C   UNL     1     484.731  38.014 458.916  1.00  0.00     0.035 C 
ATOM      6  C   UNL     1     483.649  38.694 458.028  1.00  0.00     0.066 C 
ATOM      7  O   UNL     1     483.950  40.085 457.904  1.00  0.00    -0.369 OA
ATOM      8  C   UNL     1     482.260  38.532 458.711  1.00  0.00     0.035 C 
ATOM      9  C   UNL     1     482.300  39.141 460.133  1.00  0.00     0.009 C 
ATOM     10  C   UNL     1     483.634  38.065 456.631  1.00  0.00     0.042 C 
ATOM     11  C   UNL     1     485.385  41.408 459.323  1.00  0.00     0.042 C 
ENDROOT
TORSDOF 0
ENDMDL
MODEL 2
REMARK VINA RESULT:    -3.461      1.057      2.232
REMARK INTER + INTRA:          -3.461
REMARK INTER:                  -3.461
REMARK INTRA:                   0.000
REMARK UNBOUND:                 0.000
REMARK SMILES CC1(C)O[C@]2(C)CC[C@H]1CC2
REMARK SMILES IDX 1 1 2 2 9 3 8 4 7 5 5 6 4 7 11 8 10 9 6 10 3 11
REMARK H PARENT
REMARK Flexibility Score: inf
ROOT
ATOM      1  C   UNL     1     482.466  39.506 461.301  1.00  0.00     0.042 C 
ATOM      2  C   UNL     1     483.157  40.162 460.088  1.00  0.00     0.066 C 
ATOM      3  C   UNL     1     484.711  40.281 460.330  1.00  0.00     0.021 C 
ATOM      4  C   UNL     1     485.358  40.897 459.064  1.00  0.00     0.009 C 
ATOM      5  C   UNL     1     484.903  40.096 457.820  1.00  0.00     0.035 C 
ATOM      6  C   UNL     1     484.025  38.889 458.261  1.00  0.00     0.066 C 
ATOM      7  O   UNL     1     482.857  39.376 458.924  1.00  0.00    -0.369 OA
ATOM      8  C   UNL     1     484.841  38.005 459.249  1.00  0.00     0.035 C 
ATOM      9  C   UNL     1     485.298  38.855 460.460  1.00  0.00     0.009 C 
ATOM     10  C   UNL     1     483.595  38.069 457.041  1.00  0.00     0.042 C 
ATOM     11  C   UNL     1     482.525  41.559 459.899  1.00  0.00     0.042 C 
ENDROOT
TORSDOF 0
ENDMDL
MODEL 3
REMARK VINA RESULT:    -3.427      1.257      2.752
REMARK INTER + INTRA:          -3.427
REMARK INTER:                  -3.427
REMARK INTRA:                   0.000
REMARK UNBOUND:                 0.000
REMARK SMILES CC1(C)O[C@]2(C)CC[C@H]1CC2
REMARK SMILES IDX 1 1 2 2 9 3 8 4 7 5 5 6 4 7 11 8 10 9 6 10 3 11
REMARK H PARENT
REMARK Flexibility Score: inf
ROOT
ATOM      1  C   UNL     1     481.608  38.392 459.265  1.00  0.00     0.042 C 
ATOM      2  C   UNL     1     482.935  39.154 459.464  1.00  0.00     0.066 C 
ATOM      3  C   UNL     1     484.151  38.301 458.932  1.00  0.00     0.021 C 
ATOM      4  C   UNL     1     485.446  39.132 459.109  1.00  0.00     0.009 C 
ATOM      5  C   UNL     1     485.242  40.531 458.477  1.00  0.00     0.035 C 
ATOM      6  C   UNL     1     483.844  40.604 457.797  1.00  0.00     0.066 C 
ATOM      7  O   UNL     1     482.831  40.415 458.786  1.00  0.00    -0.369 OA
ATOM      8  C   UNL     1     483.739  39.471 456.735  1.00  0.00     0.035 C 
ATOM      9  C   UNL     1     483.978  38.098 457.408  1.00  0.00     0.009 C 
ATOM     10  C   UNL     1     483.643  41.973 457.139  1.00  0.00     0.042 C 
ATOM     11  C   UNL     1     483.083  39.432 460.976  1.00  0.00     0.042 C 
ENDROOT
TORSDOF 0
ENDMDL
MODEL 4
REMARK VINA RESULT:    -3.425      1.273      2.519
REMARK INTER + INTRA:          -3.425
REMARK INTER:                  -3.425
REMARK INTRA:                   0.000
REMARK UNBOUND:                 0.000
REMARK SMILES CC1(C)O[C@]2(C)CC[C@H]1CC2
REMARK SMILES IDX 1 1 2 2 9 3 8 4 7 5 5 6 4 7 11 8 10 9 6 10 3 11
REMARK H PARENT
REMARK Flexibility Score: inf
ROOT
ATOM      1  C   UNL     1     485.317  41.953 459.970  1.00  0.00     0.042 C 
ATOM      2  C   UNL     1     484.632  40.840 459.149  1.00  0.00     0.066 C 
ATOM      3  C   UNL     1     485.409  39.475 459.304  1.00  0.00     0.021 C 
ATOM      4  C   UNL     1     484.651  38.387 458.504  1.00  0.00     0.009 C 
ATOM      5  C   UNL     1     483.160  38.395 458.922  1.00  0.00     0.035 C 
ATOM      6  C   UNL     1     482.938  39.426 460.067  1.00  0.00     0.066 C 
ATOM      7  O   UNL     1     483.271  40.731 459.593  1.00  0.00    -0.369 OA
ATOM      8  C   UNL     1     483.869  39.064 461.260  1.00  0.00     0.035 C 
ATOM      9  C   UNL     1     485.344  39.040 460.788  1.00  0.00     0.009 C 
ATOM     10  C   UNL     1     481.473  39.420 460.512  1.00  0.00     0.042 C 
ATOM     11  C   UNL     1     484.621  41.298 457.674  1.00  0.00     0.042 C 
ENDROOT
TORSDOF 0
ENDMDL
MODEL 5
REMARK VINA RESULT:    -3.396      1.532      3.361
REMARK INTER + INTRA:          -3.396
REMARK INTER:                  -3.396
REMARK INTRA:                   0.000
REMARK UNBOUND:                 0.000
REMARK SMILES CC1(C)O[C@]2(C)CC[C@H]1CC2
REMARK SMILES IDX 1 1 2 2 9 3 8 4 7 5 5 6 4 7 11 8 10 9 6 10 3 11
REMARK H PARENT
REMARK Flexibility Score: inf
ROOT
ATOM      1  C   UNL     1     481.650  37.508 456.294  1.00  0.00     0.042 C 
ATOM      2  C   UNL     1     482.789  38.527 456.510  1.00  0.00     0.066 C 
ATOM      3  C   UNL     1     482.219  39.891 457.061  1.00  0.00     0.021 C 
ATOM      4  C   UNL     1     483.407  40.854 457.306  1.00  0.00     0.009 C 
ATOM      5  C   UNL     1     484.470  40.138 458.175  1.00  0.00     0.035 C 
ATOM      6  C   UNL     1     483.953  38.729 458.587  1.00  0.00     0.066 C 
ATOM      7  O   UNL     1     483.743  37.945 457.412  1.00  0.00    -0.369 OA
ATOM      8  C   UNL     1     482.603  38.887 459.344  1.00  0.00     0.035 C 
ATOM      9  C   UNL     1     481.583  39.632 458.448  1.00  0.00     0.009 C 
ATOM     10  C   UNL     1     484.983  38.023 459.475  1.00  0.00     0.042 C 
ATOM     11  C   UNL     1     483.483  38.735 455.146  1.00  0.00     0.042 C 
ENDROOT
TORSDOF 0
ENDMDL
MODEL 6
REMARK VINA RESULT:    -3.393      1.365      3.231
REMARK INTER + INTRA:          -3.393
REMARK INTER:                  -3.393
REMARK INTRA:                   0.000
REMARK UNBOUND:                 0.000
REMARK SMILES CC1(C)O[C@]2(C)CC[C@H]1CC2
REMARK SMILES IDX 1 1 2 2 9 3 8 4 7 5 5 6 4 7 11 8 10 9 6 10 3 11
REMARK H PARENT
REMARK Flexibility Score: inf
ROOT
ATOM      1  C   UNL     1     481.956  40.888 458.602  1.00  0.00     0.042 C 
ATOM      2  C   UNL     1     482.728  39.669 459.152  1.00  0.00     0.066 C 
ATOM      3  C   UNL     1     483.833  39.202 458.127  1.00  0.00     0.021 C 
ATOM      4  C   UNL     1     484.607  38.014 458.750  1.00  0.00     0.009 C 
ATOM      5  C   UNL     1     485.089  38.409 460.167  1.00  0.00     0.035 C 
ATOM      6  C   UNL     1     484.717  39.892 460.457  1.00  0.00     0.066 C 
ATOM      7  O   UNL     1     483.296  40.035 460.418  1.00  0.00    -0.369 OA
ATOM      8  C   UNL     1     485.351  40.796 459.360  1.00  0.00     0.035 C 
ATOM      9  C   UNL     1     484.863  40.345 457.962  1.00  0.00     0.009 C 
ATOM     10  C   UNL     1     485.218  40.305 461.844  1.00  0.00     0.042 C 
ATOM     11  C   UNL     1     481.698  38.545 459.395  1.00  0.00     0.042 C 
ENDROOT
TORSDOF 0
ENDMDL
MODEL 7
REMARK VINA RESULT:    -3.357      1.491      2.651
REMARK INTER + INTRA:          -3.357
REMARK INTER:                  -3.357
REMARK INTRA:                   0.000
REMARK UNBOUND:                 0.000
REMARK SMILES CC1(C)O[C@]2(C)CC[C@H]1CC2
REMARK SMILES IDX 1 1 2 2 9 3 8 4 7 5 5 6 4 7 11 8 10 9 6 10 3 11
REMARK H PARENT
REMARK Flexibility Score: inf
ROOT
ATOM      1  C   UNL     1     485.366  40.323 458.681  1.00  0.00     0.042 C 
ATOM      2  C   UNL     1     484.331  39.224 458.360  1.00  0.00     0.066 C 
ATOM      3  C   UNL     1     482.885  39.675 458.801  1.00  0.00     0.021 C 
ATOM      4  C   UNL     1     481.884  38.561 458.409  1.00  0.00     0.009 C 
ATOM      5  C   UNL     1     482.080  38.203 456.916  1.00  0.00     0.035 C 
ATOM      6  C   UNL     1     483.150  39.141 456.285  1.00  0.00     0.066 C 
ATOM      7  O   UNL     1     484.397  38.946 456.953  1.00  0.00    -0.369 OA
ATOM      8  C   UNL     1     482.697  40.619 456.468  1.00  0.00     0.035 C 
ATOM      9  C   UNL     1     482.486  40.920 457.972  1.00  0.00     0.009 C 
ATOM     10  C   UNL     1     483.330  38.819 454.798  1.00  0.00     0.042 C 
ATOM     11  C   UNL     1     484.762  37.951 459.121  1.00  0.00     0.042 C 
ENDROOT
TORSDOF 0
ENDMDL
MODEL 8
REMARK VINA RESULT:    -3.287      1.221      3.000
REMARK INTER + INTRA:          -3.287
REMARK INTER:                  -3.287
REMARK INTRA:                   0.000
REMARK UNBOUND:                 0.000
REMARK SMILES CC1(C)O[C@]2(C)CC[C@H]1CC2
REMARK SMILES IDX 1 1 2 2 9 3 8 4 7 5 5 6 4 7 11 8 10 9 6 10 3 11
REMARK H PARENT
REMARK Flexibility Score: inf
ROOT
ATOM      1  C   UNL     1     483.677  40.577 456.535  1.00  0.00     0.042 C 
ATOM      2  C   UNL     1     483.891  39.541 457.658  1.00  0.00     0.066 C 
ATOM      3  C   UNL     1     485.270  39.783 458.384  1.00  0.00     0.021 C 
ATOM      4  C   UNL     1     485.408  38.751 459.531  1.00  0.00     0.009 C 
ATOM      5  C   UNL     1     484.136  38.799 460.412  1.00  0.00     0.035 C 
ATOM      6  C   UNL     1     483.187  39.926 459.909  1.00  0.00     0.066 C 
ATOM      7  O   UNL     1     482.785  39.637 458.569  1.00  0.00    -0.369 OA
ATOM      8  C   UNL     1     483.955  41.280 459.931  1.00  0.00     0.035 C 
ATOM      9  C   UNL     1     485.231  41.174 459.061  1.00  0.00     0.009 C 
ATOM     10  C   UNL     1     481.939  40.005 460.793  1.00  0.00     0.042 C 
ATOM     11  C   UNL     1     483.854  38.142 457.005  1.00  0.00     0.042 C 
ENDROOT
TORSDOF 0
ENDMDL
MODEL 9
REMARK VINA RESULT:    -3.274      1.368      3.174
REMARK INTER + INTRA:          -3.274
REMARK INTER:                  -3.274
REMARK INTRA:                   0.000
REMARK UNBOUND:                 0.000
REMARK SMILES CC1(C)O[C@]2(C)CC[C@H]1CC2
REMARK SMILES IDX 1 1 2 2 9 3 8 4 7 5 5 6 4 7 11 8 10 9 6 10 3 11
REMARK H PARENT
REMARK Flexibility Score: inf
ROOT
ATOM      1  C   UNL     1     481.325  40.604 458.934  1.00  0.00     0.042 C 
ATOM      2  C   UNL     1     482.107  39.302 458.662  1.00  0.00     0.066 C 
ATOM      3  C   UNL     1     482.816  39.362 457.254  1.00  0.00     0.021 C 
ATOM      4  C   UNL     1     483.625  38.056 457.058  1.00  0.00     0.009 C 
ATOM      5  C   UNL     1     484.534  37.831 458.291  1.00  0.00     0.035 C 
ATOM      6  C   UNL     1     484.402  39.032 459.270  1.00  0.00     0.066 C 
ATOM      7  O   UNL     1     483.051  39.118 459.728  1.00  0.00    -0.369 OA
ATOM      8  C   UNL     1     484.769  40.343 458.515  1.00  0.00     0.035 C 
ATOM      9  C   UNL     1     483.854  40.509 457.277  1.00  0.00     0.009 C 
ATOM     10  C   UNL     1     485.322  38.838 460.479  1.00  0.00     0.042 C 
ATOM     11  C   UNL     1     481.093  38.137 458.714  1.00  0.00     0.042 C 
ENDROOT
TORSDOF 0
ENDMDL
