MODEL 1
REMARK VINA RESULT:    -3.989      0.000      0.000
REMARK INTER + INTRA:          -4.735
REMARK INTER:                  -4.688
REMARK INTRA:                  -0.047
REMARK UNBOUND:                -0.047
REMARK SMILES O=C([O-])CCC(=O)[O-]
REMARK SMILES IDX 4 1 2 2 1 3 3 4 5 5 6 6 7 7 8 8
REMARK H PARENT
REMARK Flexibility Score: inf
ROOT
ATOM      1  C   UNL     1      22.765   7.811  20.277  1.00  0.00     0.059 C 
ENDROOT
BRANCH   1   2
ATOM      2  C   UNL     1      22.138   9.171  20.252  1.00  0.00     0.042 C 
ATOM      3  O   UNL     1      22.713  10.125  19.665  1.00  0.00    -0.550 OA
ATOM      4  O   UNL     1      20.935   9.394  20.911  1.00  0.00    -0.550 OA
ENDBRANCH   1   2
BRANCH   1   5
ATOM      5  C   UNL     1      23.805   7.649  19.162  1.00  0.00     0.059 C 
BRANCH   5   6
ATOM      6  C   UNL     1      24.912   6.724  19.569  1.00  0.00     0.042 C 
ATOM      7  O   UNL     1      25.145   5.682  18.901  1.00  0.00    -0.550 OA
ATOM      8  O   UNL     1      25.712   7.034  20.662  1.00  0.00    -0.550 OA
ENDBRANCH   5   6
ENDBRANCH   1   5
TORSDOF 3
ENDMDL
MODEL 2
REMARK VINA RESULT:    -3.752      1.435      4.401
REMARK INTER + INTRA:          -4.456
REMARK INTER:                  -4.408
REMARK INTRA:                  -0.048
REMARK UNBOUND:                -0.047
REMARK SMILES O=C([O-])CCC(=O)[O-]
REMARK SMILES IDX 4 1 2 2 1 3 3 4 5 5 6 6 7 7 8 8
REMARK H PARENT
REMARK Flexibility Score: inf
ROOT
ATOM      1  C   UNL     1      24.800   6.811  19.557  1.00  0.00     0.059 C 
ENDROOT
BRANCH   1   2
ATOM      2  C   UNL     1      25.261   5.730  18.627  1.00  0.00     0.042 C 
ATOM      3  O   UNL     1      24.425   5.077  17.950  1.00  0.00    -0.550 OA
ATOM      4  O   UNL     1      26.612   5.419  18.539  1.00  0.00    -0.550 OA
ENDBRANCH   1   2
BRANCH   1   5
ATOM      5  C   UNL     1      23.882   7.812  18.847  1.00  0.00     0.059 C 
BRANCH   5   6
ATOM      6  C   UNL     1      22.904   8.435  19.796  1.00  0.00     0.042 C 
ATOM      7  O   UNL     1      22.310   7.724  20.650  1.00  0.00    -0.550 OA
ATOM      8  O   UNL     1      22.680   9.806  19.765  1.00  0.00    -0.550 OA
ENDBRANCH   5   6
ENDBRANCH   1   5
TORSDOF 3
ENDMDL
MODEL 3
REMARK VINA RESULT:    -3.455     12.685     13.245
REMARK INTER + INTRA:          -4.107
REMARK INTER:                  -4.059
REMARK INTRA:                  -0.049
REMARK UNBOUND:                -0.047
REMARK SMILES O=C([O-])CCC(=O)[O-]
REMARK SMILES IDX 4 1 2 2 1 3 3 4 5 5 6 6 7 7 8 8
REMARK H PARENT
REMARK Flexibility Score: inf
ROOT
ATOM      1  C   UNL     1      19.286   1.484   8.830  1.00  0.00     0.059 C 
ENDROOT
BRANCH   1   2
ATOM      2  C   UNL     1      20.155   2.681   8.591  1.00  0.00     0.042 C 
ATOM      3  O   UNL     1      19.676   3.717   8.060  1.00  0.00    -0.550 OA
ATOM      4  O   UNL     1      21.505   2.636   8.918  1.00  0.00    -0.550 OA
ENDBRANCH   1   2
BRANCH   1   5
ATOM      5  C   UNL     1      17.925   1.883   9.411  1.00  0.00     0.059 C 
BRANCH   5   6
ATOM      6  C   UNL     1      17.643   1.169  10.698  1.00  0.00     0.042 C 
ATOM      7  O   UNL     1      16.673   1.524  11.420  1.00  0.00    -0.550 OA
ATOM      8  O   UNL     1      18.425   0.086  11.080  1.00  0.00    -0.550 OA
ENDBRANCH   5   6
ENDBRANCH   1   5
TORSDOF 3
ENDMDL
MODEL 4
REMARK VINA RESULT:    -3.444      2.136      5.048
REMARK INTER + INTRA:          -4.095
REMARK INTER:                  -4.061
REMARK INTRA:                  -0.034
REMARK UNBOUND:                -0.047
REMARK SMILES O=C([O-])CCC(=O)[O-]
REMARK SMILES IDX 4 1 2 2 1 3 3 4 5 5 6 6 7 7 8 8
REMARK H PARENT
REMARK Flexibility Score: inf
ROOT
ATOM      1  C   UNL     1      25.890   5.522  18.587  1.00  0.00     0.059 C 
ENDROOT
BRANCH   1   2
ATOM      2  C   UNL     1      25.966   4.102  18.114  1.00  0.00     0.042 C 
ATOM      3  O   UNL     1      26.955   3.384  18.418  1.00  0.00    -0.550 OA
ATOM      4  O   UNL     1      24.962   3.584  17.305  1.00  0.00    -0.550 OA
ENDBRANCH   1   2
BRANCH   1   5
ATOM      5  C   UNL     1      24.438   5.989  18.737  1.00  0.00     0.059 C 
BRANCH   5   6
ATOM      6  C   UNL     1      24.339   7.217  19.590  1.00  0.00     0.042 C 
ATOM      7  O   UNL     1      23.424   8.059  19.383  1.00  0.00    -0.550 OA
ATOM      8  O   UNL     1      25.229   7.412  20.638  1.00  0.00    -0.550 OA
ENDBRANCH   5   6
ENDBRANCH   1   5
TORSDOF 3
ENDMDL
MODEL 5
REMARK VINA RESULT:    -3.425     12.643     13.036
REMARK INTER + INTRA:          -4.072
REMARK INTER:                  -4.016
REMARK INTRA:                  -0.057
REMARK UNBOUND:                -0.047
REMARK SMILES O=C([O-])CCC(=O)[O-]
REMARK SMILES IDX 4 1 2 2 1 3 3 4 5 5 6 6 7 7 8 8
REMARK H PARENT
REMARK Flexibility Score: inf
ROOT
ATOM      1  C   UNL     1      17.867   1.910   9.566  1.00  0.00     0.059 C 
ENDROOT
BRANCH   1   2
ATOM      2  C   UNL     1      17.659   1.150  10.841  1.00  0.00     0.042 C 
ATOM      3  O   UNL     1      18.340   0.119  11.084  1.00  0.00    -0.550 OA
ATOM      4  O   UNL     1      16.685   1.559  11.743  1.00  0.00    -0.550 OA
ENDBRANCH   1   2
BRANCH   1   5
ATOM      5  C   UNL     1      19.119   1.432   8.823  1.00  0.00     0.059 C 
BRANCH   5   6
ATOM      6  C   UNL     1      20.113   2.539   8.645  1.00  0.00     0.042 C 
ATOM      7  O   UNL     1      21.314   2.373   8.987  1.00  0.00    -0.550 OA
ATOM      8  O   UNL     1      19.722   3.739   8.065  1.00  0.00    -0.550 OA
ENDBRANCH   5   6
ENDBRANCH   1   5
TORSDOF 3
ENDMDL
MODEL 6
REMARK VINA RESULT:    -3.402      2.141      3.459
REMARK INTER + INTRA:          -4.046
REMARK INTER:                  -4.014
REMARK INTRA:                  -0.032
REMARK UNBOUND:                -0.047
REMARK SMILES O=C([O-])CCC(=O)[O-]
REMARK SMILES IDX 4 1 2 2 1 3 3 4 5 5 6 6 7 7 8 8
REMARK H PARENT
REMARK Flexibility Score: inf
ROOT
ATOM      1  C   UNL     1      24.386   5.947  18.751  1.00  0.00     0.059 C 
ENDROOT
BRANCH   1   2
ATOM      2  C   UNL     1      24.307   7.221  19.536  1.00  0.00     0.042 C 
ATOM      3  O   UNL     1      23.495   8.123  19.201  1.00  0.00    -0.550 OA
ATOM      4  O   UNL     1      25.160   7.427  20.613  1.00  0.00    -0.550 OA
ENDBRANCH   1   2
BRANCH   1   5
ATOM      5  C   UNL     1      25.836   5.569  18.433  1.00  0.00     0.059 C 
BRANCH   5   6
ATOM      6  C   UNL     1      25.966   4.116  18.089  1.00  0.00     0.042 C 
ATOM      7  O   UNL     1      26.960   3.456  18.494  1.00  0.00    -0.550 OA
ATOM      8  O   UNL     1      24.970   3.481  17.357  1.00  0.00    -0.550 OA
ENDBRANCH   5   6
ENDBRANCH   1   5
TORSDOF 3
ENDMDL
MODEL 7
REMARK VINA RESULT:    -3.191     11.622     12.838
REMARK INTER + INTRA:          -3.797
REMARK INTER:                  -3.678
REMARK INTRA:                  -0.119
REMARK UNBOUND:                -0.047
REMARK SMILES O=C([O-])CCC(=O)[O-]
REMARK SMILES IDX 4 1 2 2 1 3 3 4 5 5 6 6 7 7 8 8
REMARK H PARENT
REMARK Flexibility Score: inf
ROOT
ATOM      1  C   UNL     1      22.288  -4.118  18.972  1.00  0.00     0.059 C 
ENDROOT
BRANCH   1   2
ATOM      2  C   UNL     1      21.143  -3.477  19.696  1.00  0.00     0.042 C 
ATOM      3  O   UNL     1      20.361  -2.702  19.085  1.00  0.00    -0.550 OA
ATOM      4  O   UNL     1      20.964  -3.705  21.054  1.00  0.00    -0.550 OA
ENDBRANCH   1   2
BRANCH   1   5
ATOM      5  C   UNL     1      23.375  -4.590  19.944  1.00  0.00     0.059 C 
BRANCH   5   6
ATOM      6  C   UNL     1      23.485  -6.085  19.967  1.00  0.00     0.042 C 
ATOM      7  O   UNL     1      22.445  -6.795  20.006  1.00  0.00    -0.550 OA
ATOM      8  O   UNL     1      24.732  -6.693  19.903  1.00  0.00    -0.550 OA
ENDBRANCH   5   6
ENDBRANCH   1   5
TORSDOF 3
ENDMDL
MODEL 8
REMARK VINA RESULT:    -3.185     11.634     13.478
REMARK INTER + INTRA:          -3.791
REMARK INTER:                  -3.671
REMARK INTRA:                  -0.119
REMARK UNBOUND:                -0.047
REMARK SMILES O=C([O-])CCC(=O)[O-]
REMARK SMILES IDX 4 1 2 2 1 3 3 4 5 5 6 6 7 7 8 8
REMARK H PARENT
REMARK Flexibility Score: inf
ROOT
ATOM      1  C   UNL     1      23.439  -4.641  19.954  1.00  0.00     0.059 C 
ENDROOT
BRANCH   1   2
ATOM      2  C   UNL     1      23.583  -6.132  19.906  1.00  0.00     0.042 C 
ATOM      3  O   UNL     1      22.562  -6.869  19.934  1.00  0.00    -0.550 OA
ATOM      4  O   UNL     1      24.846  -6.707  19.869  1.00  0.00    -0.550 OA
ENDBRANCH   1   2
BRANCH   1   5
ATOM      5  C   UNL     1      22.351  -4.148  18.993  1.00  0.00     0.059 C 
BRANCH   5   6
ATOM      6  C   UNL     1      21.198  -3.538  19.731  1.00  0.00     0.042 C 
ATOM      7  O   UNL     1      21.029  -3.784  20.955  1.00  0.00    -0.550 OA
ATOM      8  O   UNL     1      20.335  -2.667  19.078  1.00  0.00    -0.550 OA
ENDBRANCH   5   6
ENDBRANCH   1   5
TORSDOF 3
ENDMDL
MODEL 9
REMARK VINA RESULT:    -1.097      0.389      4.259
REMARK INTER + INTRA:          -1.337
REMARK INTER:                  -1.300
REMARK INTRA:                  -0.036
REMARK UNBOUND:                -0.047
REMARK SMILES O=C([O-])CCC(=O)[O-]
REMARK SMILES IDX 4 1 2 2 1 3 3 4 5 5 6 6 7 7 8 8
REMARK H PARENT
REMARK Flexibility Score: inf
ROOT
ATOM      1  C   UNL     1      23.747   7.669  19.012  1.00  0.00     0.059 C 
ENDROOT
BRANCH   1   2
ATOM      2  C   UNL     1      24.720   6.541  19.171  1.00  0.00     0.042 C 
ATOM      3  O   UNL     1      24.652   5.533  18.420  1.00  0.00    -0.550 OA
ATOM      4  O   UNL     1      25.679   6.587  20.176  1.00  0.00    -0.550 OA
ENDBRANCH   1   2
BRANCH   1   5
ATOM      5  C   UNL     1      22.837   7.806  20.238  1.00  0.00     0.059 C 
BRANCH   5   6
ATOM      6  C   UNL     1      22.154   9.140  20.273  1.00  0.00     0.042 C 
ATOM      7  O   UNL     1      22.659  10.125  19.671  1.00  0.00    -0.550 OA
ATOM      8  O   UNL     1      20.942   9.284  20.935  1.00  0.00    -0.550 OA
ENDBRANCH   5   6
ENDBRANCH   1   5
TORSDOF 3
ENDMDL
