MODEL 1
REMARK VINA RESULT:    -4.001      0.000      0.000
REMARK INTER + INTRA:         -16.167
REMARK INTER:                 -10.550
REMARK INTRA:                  -5.617
REMARK UNBOUND:                -5.617
REMARK SMILES CCCCCCCCCCCCCCCCCCCCCCCCCCCCCC(=O)[O-]
REMARK SMILES IDX 16 1 17 2 18 3 19 4 20 5 21 6 22 7 23 8 24 9 25 10 26 11
REMARK SMILES IDX 27 12 28 13 29 14 30 15 31 16 32 17 15 18 14 19 13 20 12 21
REMARK SMILES IDX 11 22 10 23 9 24 8 25 7 26 6 27 5 28 4 29 3 30 2 31 1 32
REMARK H PARENT
REMARK Flexibility Score: inf
ROOT
ATOM      1  C   UNL     1     -33.752  83.990 -19.117  1.00  0.00     0.000 C 
ENDROOT
BRANCH   1   2
ATOM      2  C   UNL     1     -33.890  83.213 -20.443  1.00  0.00     0.000 C 
BRANCH   2   3
ATOM      3  C   UNL     1     -33.618  81.705 -20.280  1.00  0.00     0.000 C 
BRANCH   3   4
ATOM      4  C   UNL     1     -33.195  81.331 -18.850  1.00  0.00     0.000 C 
BRANCH   4   5
ATOM      5  C   UNL     1     -31.980  80.391 -18.816  1.00  0.00     0.000 C 
BRANCH   5   6
ATOM      6  C   UNL     1     -31.898  79.556 -20.102  1.00  0.00     0.000 C 
BRANCH   6   7
ATOM      7  C   UNL     1     -30.594  79.789 -20.885  1.00  0.00     0.000 C 
BRANCH   7   8
ATOM      8  C   UNL     1     -29.805  81.053 -20.486  1.00  0.00     0.000 C 
BRANCH   8   9
ATOM      9  C   UNL     1     -29.546  82.056 -21.628  1.00  0.00     0.000 C 
BRANCH   9  10
ATOM     10  C   UNL     1     -30.247  83.417 -21.463  1.00  0.00     0.000 C 
BRANCH  10  11
ATOM     11  C   UNL     1     -29.448  84.577 -22.083  1.00  0.00     0.000 C 
BRANCH  11  12
ATOM     12  C   UNL     1     -29.637  84.661 -23.614  1.00  0.00     0.000 C 
BRANCH  12  13
ATOM     13  C   UNL     1     -30.186  86.015 -24.093  1.00  0.00     0.006 C 
BRANCH  13  14
ATOM     14  C   UNL     1     -29.082  86.983 -24.536  1.00  0.00     0.053 C 
BRANCH  14  15
ATOM     15  C   UNL     1     -29.089  88.211 -23.681  1.00  0.00     0.041 C 
ATOM     16  O   UNL     1     -29.848  88.278 -22.677  1.00  0.00    -0.550 OA
ATOM     17  O   UNL     1     -28.204  89.248 -23.946  1.00  0.00    -0.550 OA
ENDBRANCH  14  15
ENDBRANCH  13  14
ENDBRANCH  12  13
ENDBRANCH  11  12
ENDBRANCH  10  11
ENDBRANCH   9  10
ENDBRANCH   8   9
ENDBRANCH   7   8
ENDBRANCH   6   7
ENDBRANCH   5   6
ENDBRANCH   4   5
ENDBRANCH   3   4
ENDBRANCH   2   3
ENDBRANCH   1   2
BRANCH   1  18
ATOM     18  C   UNL     1     -34.886  85.002 -18.861  1.00  0.00     0.000 C 
BRANCH  18  19
ATOM     19  C   UNL     1     -35.799  84.670 -17.668  1.00  0.00     0.000 C 
BRANCH  19  20
ATOM     20  C   UNL     1     -36.928  83.696 -18.037  1.00  0.00     0.000 C 
BRANCH  20  21
ATOM     21  C   UNL     1     -36.522  82.243 -17.751  1.00  0.00     0.000 C 
BRANCH  21  22
ATOM     22  C   UNL     1     -36.873  81.290 -18.905  1.00  0.00     0.000 C 
BRANCH  22  23
ATOM     23  C   UNL     1     -37.713  81.964 -20.002  1.00  0.00     0.000 C 
BRANCH  23  24
ATOM     24  C   UNL     1     -37.234  81.543 -21.399  1.00  0.00    -0.000 C 
BRANCH  24  25
ATOM     25  C   UNL     1     -36.975  82.742 -22.330  1.00  0.00    -0.000 C 
BRANCH  25  26
ATOM     26  C   UNL     1     -37.500  84.092 -21.809  1.00  0.00    -0.000 C 
BRANCH  26  27
ATOM     27  C   UNL     1     -37.090  85.272 -22.706  1.00  0.00    -0.000 C 
BRANCH  27  28
ATOM     28  C   UNL     1     -35.637  85.722 -22.475  1.00  0.00    -0.000 C 
BRANCH  28  29
ATOM     29  C   UNL     1     -34.753  85.764 -23.737  1.00  0.00    -0.000 C 
BRANCH  29  30
ATOM     30  C   UNL     1     -34.464  84.376 -24.347  1.00  0.00    -0.000 C 
BRANCH  30  31
ATOM     31  C   UNL     1     -33.108  83.812 -23.893  1.00  0.00    -0.003 C 
ATOM     32  C   UNL     1     -33.081  82.290 -24.001  1.00  0.00     0.004 C 
ENDBRANCH  30  31
ENDBRANCH  29  30
ENDBRANCH  28  29
ENDBRANCH  27  28
ENDBRANCH  26  27
ENDBRANCH  25  26
ENDBRANCH  24  25
ENDBRANCH  23  24
ENDBRANCH  22  23
ENDBRANCH  21  22
ENDBRANCH  20  21
ENDBRANCH  19  20
ENDBRANCH  18  19
ENDBRANCH   1  18
TORSDOF 28
ENDMDL
MODEL 2
REMARK VINA RESULT:    -3.909     10.146     14.590
REMARK INTER + INTRA:         -15.926
REMARK INTER:                 -10.853
REMARK INTRA:                  -5.073
REMARK UNBOUND:                -5.617
REMARK SMILES CCCCCCCCCCCCCCCCCCCCCCCCCCCCCC(=O)[O-]
REMARK SMILES IDX 16 1 17 2 18 3 19 4 20 5 21 6 22 7 23 8 24 9 25 10 26 11
REMARK SMILES IDX 27 12 28 13 29 14 30 15 31 16 32 17 15 18 14 19 13 20 12 21
REMARK SMILES IDX 11 22 10 23 9 24 8 25 7 26 6 27 5 28 4 29 3 30 2 31 1 32
REMARK H PARENT
REMARK Flexibility Score: inf
ROOT
ATOM      1  C   UNL     1     -25.939  93.592 -32.304  1.00  0.00     0.000 C 
ENDROOT
BRANCH   1   2
ATOM      2  C   UNL     1     -26.377  93.008 -30.944  1.00  0.00     0.000 C 
BRANCH   2   3
ATOM      3  C   UNL     1     -26.840  91.542 -31.046  1.00  0.00     0.000 C 
BRANCH   3   4
ATOM      4  C   UNL     1     -26.192  90.798 -32.225  1.00  0.00     0.000 C 
BRANCH   4   5
ATOM      5  C   UNL     1     -24.970  89.967 -31.805  1.00  0.00     0.000 C 
BRANCH   5   6
ATOM      6  C   UNL     1     -23.669  90.624 -32.291  1.00  0.00     0.000 C 
BRANCH   6   7
ATOM      7  C   UNL     1     -22.810  91.176 -31.140  1.00  0.00     0.000 C 
BRANCH   7   8
ATOM      8  C   UNL     1     -23.160  90.631 -29.740  1.00  0.00     0.000 C 
BRANCH   8   9
ATOM      9  C   UNL     1     -23.617  91.689 -28.716  1.00  0.00     0.000 C 
BRANCH   9  10
ATOM     10  C   UNL     1     -24.873  91.307 -27.911  1.00  0.00     0.000 C 
BRANCH  10  11
ATOM     11  C   UNL     1     -25.285  89.838 -28.111  1.00  0.00     0.000 C 
BRANCH  11  12
ATOM     12  C   UNL     1     -25.375  89.072 -26.772  1.00  0.00     0.000 C 
BRANCH  12  13
ATOM     13  C   UNL     1     -24.010  88.613 -26.233  1.00  0.00     0.006 C 
BRANCH  13  14
ATOM     14  C   UNL     1     -24.019  88.369 -24.719  1.00  0.00     0.053 C 
BRANCH  14  15
ATOM     15  C   UNL     1     -23.213  87.154 -24.381  1.00  0.00     0.041 C 
ATOM     16  O   UNL     1     -23.791  86.077 -24.075  1.00  0.00    -0.550 OA
ATOM     17  O   UNL     1     -21.828  87.188 -24.481  1.00  0.00    -0.550 OA
ENDBRANCH  14  15
ENDBRANCH  13  14
ENDBRANCH  12  13
ENDBRANCH  11  12
ENDBRANCH  10  11
ENDBRANCH   9  10
ENDBRANCH   8   9
ENDBRANCH   7   8
ENDBRANCH   6   7
ENDBRANCH   5   6
ENDBRANCH   4   5
ENDBRANCH   3   4
ENDBRANCH   2   3
ENDBRANCH   1   2
BRANCH   1  18
ATOM     18  C   UNL     1     -24.750  94.568 -32.216  1.00  0.00     0.000 C 
BRANCH  18  19
ATOM     19  C   UNL     1     -24.081  94.658 -30.833  1.00  0.00     0.000 C 
BRANCH  19  20
ATOM     20  C   UNL     1     -23.911  96.105 -30.348  1.00  0.00     0.000 C 
BRANCH  20  21
ATOM     21  C   UNL     1     -24.721  96.359 -29.068  1.00  0.00     0.000 C 
BRANCH  21  22
ATOM     22  C   UNL     1     -25.071  95.063 -28.319  1.00  0.00     0.000 C 
BRANCH  22  23
ATOM     23  C   UNL     1     -25.985  95.302 -27.106  1.00  0.00     0.000 C 
BRANCH  23  24
ATOM     24  C   UNL     1     -26.604  93.986 -26.615  1.00  0.00    -0.000 C 
BRANCH  24  25
ATOM     25  C   UNL     1     -28.060  93.799 -27.079  1.00  0.00    -0.000 C 
BRANCH  25  26
ATOM     26  C   UNL     1     -28.435  92.359 -27.472  1.00  0.00    -0.000 C 
BRANCH  26  27
ATOM     27  C   UNL     1     -29.522  92.307 -28.560  1.00  0.00    -0.000 C 
BRANCH  27  28
ATOM     28  C   UNL     1     -30.574  91.214 -28.302  1.00  0.00    -0.000 C 
BRANCH  28  29
ATOM     29  C   UNL     1     -31.219  91.241 -26.902  1.00  0.00    -0.000 C 
BRANCH  29  30
ATOM     30  C   UNL     1     -32.361  92.271 -26.758  1.00  0.00    -0.000 C 
BRANCH  30  31
ATOM     31  C   UNL     1     -31.834  93.694 -26.520  1.00  0.00    -0.003 C 
ATOM     32  C   UNL     1     -32.233  94.627 -27.660  1.00  0.00     0.004 C 
ENDBRANCH  30  31
ENDBRANCH  29  30
ENDBRANCH  28  29
ENDBRANCH  27  28
ENDBRANCH  26  27
ENDBRANCH  25  26
ENDBRANCH  24  25
ENDBRANCH  23  24
ENDBRANCH  22  23
ENDBRANCH  21  22
ENDBRANCH  20  21
ENDBRANCH  19  20
ENDBRANCH  18  19
ENDBRANCH   1  18
TORSDOF 28
ENDMDL
MODEL 3
REMARK VINA RESULT:    -3.879     10.737     15.361
REMARK INTER + INTRA:         -15.844
REMARK INTER:                 -11.061
REMARK INTRA:                  -4.783
REMARK UNBOUND:                -5.617
REMARK SMILES CCCCCCCCCCCCCCCCCCCCCCCCCCCCCC(=O)[O-]
REMARK SMILES IDX 16 1 17 2 18 3 19 4 20 5 21 6 22 7 23 8 24 9 25 10 26 11
REMARK SMILES IDX 27 12 28 13 29 14 30 15 31 16 32 17 15 18 14 19 13 20 12 21
REMARK SMILES IDX 11 22 10 23 9 24 8 25 7 26 6 27 5 28 4 29 3 30 2 31 1 32
REMARK H PARENT
REMARK Flexibility Score: inf
ROOT
ATOM      1  C   UNL     1     -26.275  94.881 -26.717  1.00  0.00     0.000 C 
ENDROOT
BRANCH   1   2
ATOM      2  C   UNL     1     -27.539  94.037 -26.991  1.00  0.00     0.000 C 
BRANCH   2   3
ATOM      3  C   UNL     1     -27.263  92.833 -27.912  1.00  0.00     0.000 C 
BRANCH   3   4
ATOM      4  C   UNL     1     -26.951  91.547 -27.128  1.00  0.00     0.000 C 
BRANCH   4   5
ATOM      5  C   UNL     1     -25.919  90.656 -27.835  1.00  0.00     0.000 C 
BRANCH   5   6
ATOM      6  C   UNL     1     -24.569  91.379 -27.965  1.00  0.00     0.000 C 
BRANCH   6   7
ATOM      7  C   UNL     1     -23.439  90.454 -28.451  1.00  0.00     0.000 C 
BRANCH   7   8
ATOM      8  C   UNL     1     -23.888  89.050 -28.904  1.00  0.00     0.000 C 
BRANCH   8   9
ATOM      9  C   UNL     1     -23.231  87.874 -28.154  1.00  0.00     0.000 C 
BRANCH   9  10
ATOM     10  C   UNL     1     -23.374  87.925 -26.621  1.00  0.00     0.000 C 
BRANCH  10  11
ATOM     11  C   UNL     1     -24.702  87.327 -26.127  1.00  0.00     0.000 C 
BRANCH  11  12
ATOM     12  C   UNL     1     -24.570  86.695 -24.723  1.00  0.00     0.000 C 
BRANCH  12  13
ATOM     13  C   UNL     1     -23.859  85.332 -24.726  1.00  0.00     0.006 C 
BRANCH  13  14
ATOM     14  C   UNL     1     -23.332  84.932 -23.343  1.00  0.00     0.053 C 
BRANCH  14  15
ATOM     15  C   UNL     1     -22.020  84.224 -23.469  1.00  0.00     0.041 C 
ATOM     16  O   UNL     1     -21.002  84.665 -22.871  1.00  0.00    -0.550 OA
ATOM     17  O   UNL     1     -21.937  83.035 -24.183  1.00  0.00    -0.550 OA
ENDBRANCH  14  15
ENDBRANCH  13  14
ENDBRANCH  12  13
ENDBRANCH  11  12
ENDBRANCH  10  11
ENDBRANCH   9  10
ENDBRANCH   8   9
ENDBRANCH   7   8
ENDBRANCH   6   7
ENDBRANCH   5   6
ENDBRANCH   4   5
ENDBRANCH   3   4
ENDBRANCH   2   3
ENDBRANCH   1   2
BRANCH   1  18
ATOM     18  C   UNL     1     -25.312  94.975 -27.916  1.00  0.00     0.000 C 
BRANCH  18  19
ATOM     19  C   UNL     1     -25.097  96.394 -28.470  1.00  0.00     0.000 C 
BRANCH  19  20
ATOM     20  C   UNL     1     -24.353  96.401 -29.814  1.00  0.00     0.000 C 
BRANCH  20  21
ATOM     21  C   UNL     1     -24.090  94.971 -30.309  1.00  0.00     0.000 C 
BRANCH  21  22
ATOM     22  C   UNL     1     -23.448  94.934 -31.705  1.00  0.00     0.000 C 
BRANCH  22  23
ATOM     23  C   UNL     1     -23.675  96.229 -32.501  1.00  0.00     0.000 C 
BRANCH  23  24
ATOM     24  C   UNL     1     -24.902  96.106 -33.416  1.00  0.00    -0.000 C 
BRANCH  24  25
ATOM     25  C   UNL     1     -25.033  94.712 -34.056  1.00  0.00    -0.000 C 
BRANCH  25  26
ATOM     26  C   UNL     1     -26.416  94.054 -33.900  1.00  0.00    -0.000 C 
BRANCH  26  27
ATOM     27  C   UNL     1     -27.002  94.236 -32.489  1.00  0.00    -0.000 C 
BRANCH  27  28
ATOM     28  C   UNL     1     -27.220  92.902 -31.756  1.00  0.00    -0.000 C 
BRANCH  28  29
ATOM     29  C   UNL     1     -25.933  92.172 -31.322  1.00  0.00    -0.000 C 
BRANCH  29  30
ATOM     30  C   UNL     1     -25.937  90.659 -31.626  1.00  0.00    -0.000 C 
BRANCH  30  31
ATOM     31  C   UNL     1     -24.648  90.203 -32.327  1.00  0.00    -0.003 C 
ATOM     32  C   UNL     1     -23.526  91.219 -32.132  1.00  0.00     0.004 C 
ENDBRANCH  30  31
ENDBRANCH  29  30
ENDBRANCH  28  29
ENDBRANCH  27  28
ENDBRANCH  26  27
ENDBRANCH  25  26
ENDBRANCH  24  25
ENDBRANCH  23  24
ENDBRANCH  22  23
ENDBRANCH  21  22
ENDBRANCH  20  21
ENDBRANCH  19  20
ENDBRANCH  18  19
ENDBRANCH   1  18
TORSDOF 28
ENDMDL
MODEL 4
REMARK VINA RESULT:    -3.868     11.182     15.399
REMARK INTER + INTRA:         -15.816
REMARK INTER:                 -10.099
REMARK INTRA:                  -5.716
REMARK UNBOUND:                -5.617
REMARK SMILES CCCCCCCCCCCCCCCCCCCCCCCCCCCCCC(=O)[O-]
REMARK SMILES IDX 16 1 17 2 18 3 19 4 20 5 21 6 22 7 23 8 24 9 25 10 26 11
REMARK SMILES IDX 27 12 28 13 29 14 30 15 31 16 32 17 15 18 14 19 13 20 12 21
REMARK SMILES IDX 11 22 10 23 9 24 8 25 7 26 6 27 5 28 4 29 3 30 2 31 1 32
REMARK H PARENT
REMARK Flexibility Score: inf
ROOT
ATOM      1  C   UNL     1     -25.813  95.174 -27.460  1.00  0.00     0.000 C 
ENDROOT
BRANCH   1   2
ATOM      2  C   UNL     1     -26.904  94.381 -26.708  1.00  0.00     0.000 C 
BRANCH   2   3
ATOM      3  C   UNL     1     -27.041  92.932 -27.212  1.00  0.00     0.000 C 
BRANCH   3   4
ATOM      4  C   UNL     1     -28.195  92.761 -28.215  1.00  0.00     0.000 C 
BRANCH   4   5
ATOM      5  C   UNL     1     -27.706  92.603 -29.662  1.00  0.00     0.000 C 
BRANCH   5   6
ATOM      6  C   UNL     1     -26.634  91.507 -29.761  1.00  0.00     0.000 C 
BRANCH   6   7
ATOM      7  C   UNL     1     -26.386  91.040 -31.206  1.00  0.00     0.000 C 
BRANCH   7   8
ATOM      8  C   UNL     1     -25.057  90.290 -31.436  1.00  0.00     0.000 C 
BRANCH   8   9
ATOM      9  C   UNL     1     -23.847  91.182 -31.774  1.00  0.00     0.000 C 
BRANCH   9  10
ATOM     10  C   UNL     1     -22.700  91.130 -30.747  1.00  0.00     0.000 C 
BRANCH  10  11
ATOM     11  C   UNL     1     -23.002  90.194 -29.564  1.00  0.00     0.000 C 
BRANCH  11  12
ATOM     12  C   UNL     1     -23.262  90.975 -28.256  1.00  0.00     0.000 C 
BRANCH  12  13
ATOM     13  C   UNL     1     -24.231  90.265 -27.297  1.00  0.00     0.006 C 
BRANCH  13  14
ATOM     14  C   UNL     1     -23.758  88.859 -26.905  1.00  0.00     0.053 C 
BRANCH  14  15
ATOM     15  C   UNL     1     -24.567  88.337 -25.760  1.00  0.00     0.041 C 
ATOM     16  O   UNL     1     -25.422  87.431 -25.949  1.00  0.00    -0.550 OA
ATOM     17  O   UNL     1     -24.322  88.795 -24.470  1.00  0.00    -0.550 OA
ENDBRANCH  14  15
ENDBRANCH  13  14
ENDBRANCH  12  13
ENDBRANCH  11  12
ENDBRANCH  10  11
ENDBRANCH   9  10
ENDBRANCH   8   9
ENDBRANCH   7   8
ENDBRANCH   6   7
ENDBRANCH   5   6
ENDBRANCH   4   5
ENDBRANCH   3   4
ENDBRANCH   2   3
ENDBRANCH   1   2
BRANCH   1  18
ATOM     18  C   UNL     1     -24.713  94.293 -28.082  1.00  0.00     0.000 C 
BRANCH  18  19
ATOM     19  C   UNL     1     -24.505  94.480 -29.595  1.00  0.00     0.000 C 
BRANCH  19  20
ATOM     20  C   UNL     1     -24.324  95.953 -29.992  1.00  0.00     0.000 C 
BRANCH  20  21
ATOM     21  C   UNL     1     -23.434  96.086 -31.236  1.00  0.00     0.000 C 
BRANCH  21  22
ATOM     22  C   UNL     1     -23.389  94.799 -32.075  1.00  0.00     0.000 C 
BRANCH  22  23
ATOM     23  C   UNL     1     -23.941  94.993 -33.496  1.00  0.00     0.000 C 
BRANCH  23  24
ATOM     24  C   UNL     1     -25.190  94.129 -33.724  1.00  0.00    -0.000 C 
BRANCH  24  25
ATOM     25  C   UNL     1     -26.318  94.430 -32.720  1.00  0.00    -0.000 C 
BRANCH  25  26
ATOM     26  C   UNL     1     -27.735  94.439 -33.320  1.00  0.00    -0.000 C 
BRANCH  26  27
ATOM     27  C   UNL     1     -28.270  93.023 -33.594  1.00  0.00    -0.000 C 
BRANCH  27  28
ATOM     28  C   UNL     1     -29.636  92.762 -32.935  1.00  0.00    -0.000 C 
BRANCH  28  29
ATOM     29  C   UNL     1     -29.946  91.283 -32.628  1.00  0.00    -0.000 C 
BRANCH  29  30
ATOM     30  C   UNL     1     -30.576  91.051 -31.238  1.00  0.00    -0.000 C 
BRANCH  30  31
ATOM     31  C   UNL     1     -31.242  92.319 -30.682  1.00  0.00    -0.003 C 
ATOM     32  C   UNL     1     -31.748  92.097 -29.259  1.00  0.00     0.004 C 
ENDBRANCH  30  31
ENDBRANCH  29  30
ENDBRANCH  28  29
ENDBRANCH  27  28
ENDBRANCH  26  27
ENDBRANCH  25  26
ENDBRANCH  24  25
ENDBRANCH  23  24
ENDBRANCH  22  23
ENDBRANCH  21  22
ENDBRANCH  20  21
ENDBRANCH  19  20
ENDBRANCH  18  19
ENDBRANCH   1  18
TORSDOF 28
ENDMDL
MODEL 5
REMARK VINA RESULT:    -3.853      2.888      5.184
REMARK INTER + INTRA:         -15.776
REMARK INTER:                 -10.381
REMARK INTRA:                  -5.395
REMARK UNBOUND:                -5.617
REMARK SMILES CCCCCCCCCCCCCCCCCCCCCCCCCCCCCC(=O)[O-]
REMARK SMILES IDX 16 1 17 2 18 3 19 4 20 5 21 6 22 7 23 8 24 9 25 10 26 11
REMARK SMILES IDX 27 12 28 13 29 14 30 15 31 16 32 17 15 18 14 19 13 20 12 21
REMARK SMILES IDX 11 22 10 23 9 24 8 25 7 26 6 27 5 28 4 29 3 30 2 31 1 32
REMARK H PARENT
REMARK Flexibility Score: inf
ROOT
ATOM      1  C   UNL     1     -36.334  81.236 -19.162  1.00  0.00     0.000 C 
ENDROOT
BRANCH   1   2
ATOM      2  C   UNL     1     -37.834  81.404 -19.488  1.00  0.00     0.000 C 
BRANCH   2   3
ATOM      3  C   UNL     1     -38.319  80.430 -20.579  1.00  0.00     0.000 C 
BRANCH   3   4
ATOM      4  C   UNL     1     -39.376  79.440 -20.061  1.00  0.00     0.000 C 
BRANCH   4   5
ATOM      5  C   UNL     1     -38.903  77.980 -20.120  1.00  0.00     0.000 C 
BRANCH   5   6
ATOM      6  C   UNL     1     -37.390  77.904 -20.376  1.00  0.00     0.000 C 
BRANCH   6   7
ATOM      7  C   UNL     1     -37.040  77.166 -21.680  1.00  0.00     0.000 C 
BRANCH   7   8
ATOM      8  C   UNL     1     -35.777  77.676 -22.405  1.00  0.00     0.000 C 
BRANCH   8   9
ATOM      9  C   UNL     1     -35.869  79.112 -22.957  1.00  0.00     0.000 C 
BRANCH   9  10
ATOM     10  C   UNL     1     -34.872  80.108 -22.335  1.00  0.00     0.000 C 
BRANCH  10  11
ATOM     11  C   UNL     1     -33.453  79.527 -22.206  1.00  0.00     0.000 C 
BRANCH  11  12
ATOM     12  C   UNL     1     -32.528  80.432 -21.362  1.00  0.00     0.000 C 
BRANCH  12  13
ATOM     13  C   UNL     1     -33.064  80.715 -19.950  1.00  0.00     0.006 C 
BRANCH  13  14
ATOM     14  C   UNL     1     -31.949  80.949 -18.924  1.00  0.00     0.053 C 
BRANCH  14  15
ATOM     15  C   UNL     1     -31.171  82.180 -19.270  1.00  0.00     0.041 C 
ATOM     16  O   UNL     1     -30.017  82.081 -19.766  1.00  0.00    -0.550 OA
ATOM     17  O   UNL     1     -31.751  83.434 -19.119  1.00  0.00    -0.550 OA
ENDBRANCH  14  15
ENDBRANCH  13  14
ENDBRANCH  12  13
ENDBRANCH  11  12
ENDBRANCH  10  11
ENDBRANCH   9  10
ENDBRANCH   8   9
ENDBRANCH   7   8
ENDBRANCH   6   7
ENDBRANCH   5   6
ENDBRANCH   4   5
ENDBRANCH   3   4
ENDBRANCH   2   3
ENDBRANCH   1   2
BRANCH   1  18
ATOM     18  C   UNL     1     -35.855  82.074 -17.961  1.00  0.00     0.000 C 
BRANCH  18  19
ATOM     19  C   UNL     1     -36.705  83.318 -17.653  1.00  0.00     0.000 C 
BRANCH  19  20
ATOM     20  C   UNL     1     -35.942  84.631 -17.881  1.00  0.00     0.000 C 
BRANCH  20  21
ATOM     21  C   UNL     1     -34.859  84.463 -18.957  1.00  0.00     0.000 C 
BRANCH  21  22
ATOM     22  C   UNL     1     -35.339  84.888 -20.355  1.00  0.00     0.000 C 
BRANCH  22  23
ATOM     23  C   UNL     1     -35.003  83.855 -21.442  1.00  0.00     0.000 C 
BRANCH  23  24
ATOM     24  C   UNL     1     -36.261  83.446 -22.221  1.00  0.00    -0.000 C 
BRANCH  24  25
ATOM     25  C   UNL     1     -37.529  84.171 -21.734  1.00  0.00    -0.000 C 
BRANCH  25  26
ATOM     26  C   UNL     1     -38.274  84.973 -22.816  1.00  0.00    -0.000 C 
BRANCH  26  27
ATOM     27  C   UNL     1     -37.654  84.799 -24.213  1.00  0.00    -0.000 C 
BRANCH  27  28
ATOM     28  C   UNL     1     -37.240  86.135 -24.853  1.00  0.00    -0.000 C 
BRANCH  28  29
ATOM     29  C   UNL     1     -36.637  87.170 -23.882  1.00  0.00    -0.000 C 
BRANCH  29  30
ATOM     30  C   UNL     1     -35.144  86.937 -23.565  1.00  0.00    -0.000 C 
BRANCH  30  31
ATOM     31  C   UNL     1     -34.347  86.505 -24.805  1.00  0.00    -0.003 C 
ATOM     32  C   UNL     1     -33.535  85.243 -24.525  1.00  0.00     0.004 C 
ENDBRANCH  30  31
ENDBRANCH  29  30
ENDBRANCH  28  29
ENDBRANCH  27  28
ENDBRANCH  26  27
ENDBRANCH  25  26
ENDBRANCH  24  25
ENDBRANCH  23  24
ENDBRANCH  22  23
ENDBRANCH  21  22
ENDBRANCH  20  21
ENDBRANCH  19  20
ENDBRANCH  18  19
ENDBRANCH   1  18
TORSDOF 28
ENDMDL
MODEL 6
REMARK VINA RESULT:    -3.818     10.042     14.605
REMARK INTER + INTRA:         -15.684
REMARK INTER:                 -11.209
REMARK INTRA:                  -4.475
REMARK UNBOUND:                -5.617
REMARK SMILES CCCCCCCCCCCCCCCCCCCCCCCCCCCCCC(=O)[O-]
REMARK SMILES IDX 16 1 17 2 18 3 19 4 20 5 21 6 22 7 23 8 24 9 25 10 26 11
REMARK SMILES IDX 27 12 28 13 29 14 30 15 31 16 32 17 15 18 14 19 13 20 12 21
REMARK SMILES IDX 11 22 10 23 9 24 8 25 7 26 6 27 5 28 4 29 3 30 2 31 1 32
REMARK H PARENT
REMARK Flexibility Score: inf
ROOT
ATOM      1  C   UNL     1     -22.876  90.052 -29.242  1.00  0.00     0.000 C 
ENDROOT
BRANCH   1   2
ATOM      2  C   UNL     1     -23.607  90.486 -30.530  1.00  0.00     0.000 C 
BRANCH   2   3
ATOM      3  C   UNL     1     -22.833  91.557 -31.323  1.00  0.00     0.000 C 
BRANCH   3   4
ATOM      4  C   UNL     1     -23.743  92.683 -31.840  1.00  0.00     0.000 C 
BRANCH   4   5
ATOM      5  C   UNL     1     -22.956  93.847 -32.461  1.00  0.00     0.000 C 
BRANCH   5   6
ATOM      6  C   UNL     1     -23.468  95.196 -31.936  1.00  0.00     0.000 C 
BRANCH   6   7
ATOM      7  C   UNL     1     -24.628  95.048 -30.936  1.00  0.00     0.000 C 
BRANCH   7   8
ATOM      8  C   UNL     1     -24.416  95.744 -29.575  1.00  0.00     0.000 C 
BRANCH   8   9
ATOM      9  C   UNL     1     -24.846  94.925 -28.342  1.00  0.00     0.000 C 
BRANCH   9  10
ATOM     10  C   UNL     1     -24.293  93.489 -28.296  1.00  0.00     0.000 C 
BRANCH  10  11
ATOM     11  C   UNL     1     -25.359  92.452 -27.902  1.00  0.00     0.000 C 
BRANCH  11  12
ATOM     12  C   UNL     1     -26.793  93.012 -28.036  1.00  0.00     0.000 C 
BRANCH  12  13
ATOM     13  C   UNL     1     -27.645  92.280 -29.085  1.00  0.00     0.006 C 
BRANCH  13  14
ATOM     14  C   UNL     1     -26.965  92.204 -30.457  1.00  0.00     0.053 C 
BRANCH  14  15
ATOM     15  C   UNL     1     -27.323  90.926 -31.148  1.00  0.00     0.041 C 
ATOM     16  O   UNL     1     -28.006  90.053 -30.549  1.00  0.00    -0.550 OA
ATOM     17  O   UNL     1     -26.971  90.732 -32.478  1.00  0.00    -0.550 OA
ENDBRANCH  14  15
ENDBRANCH  13  14
ENDBRANCH  12  13
ENDBRANCH  11  12
ENDBRANCH  10  11
ENDBRANCH   9  10
ENDBRANCH   8   9
ENDBRANCH   7   8
ENDBRANCH   6   7
ENDBRANCH   5   6
ENDBRANCH   4   5
ENDBRANCH   3   4
ENDBRANCH   2   3
ENDBRANCH   1   2
BRANCH   1  18
ATOM     18  C   UNL     1     -23.569  88.905 -28.482  1.00  0.00     0.000 C 
BRANCH  18  19
ATOM     19  C   UNL     1     -25.031  88.647 -28.883  1.00  0.00     0.000 C 
BRANCH  19  20
ATOM     20  C   UNL     1     -25.880  88.111 -27.721  1.00  0.00     0.000 C 
BRANCH  20  21
ATOM     21  C   UNL     1     -27.008  89.090 -27.362  1.00  0.00     0.000 C 
BRANCH  21  22
ATOM     22  C   UNL     1     -26.836  89.709 -25.965  1.00  0.00     0.000 C 
BRANCH  22  23
ATOM     23  C   UNL     1     -25.578  89.206 -25.240  1.00  0.00     0.000 C 
BRANCH  23  24
ATOM     24  C   UNL     1     -25.872  87.918 -24.456  1.00  0.00    -0.000 C 
BRANCH  24  25
ATOM     25  C   UNL     1     -24.647  86.992 -24.344  1.00  0.00    -0.000 C 
BRANCH  25  26
ATOM     26  C   UNL     1     -23.310  87.633 -24.759  1.00  0.00    -0.000 C 
BRANCH  26  27
ATOM     27  C   UNL     1     -22.092  86.849 -24.239  1.00  0.00    -0.000 C 
BRANCH  27  28
ATOM     28  C   UNL     1     -22.485  85.592 -23.445  1.00  0.00    -0.000 C 
BRANCH  28  29
ATOM     29  C   UNL     1     -21.354  84.565 -23.238  1.00  0.00    -0.000 C 
BRANCH  29  30
ATOM     30  C   UNL     1     -21.640  83.533 -22.126  1.00  0.00    -0.000 C 
BRANCH  30  31
ATOM     31  C   UNL     1     -22.479  84.126 -20.984  1.00  0.00    -0.003 C 
ATOM     32  C   UNL     1     -21.784  83.944 -19.638  1.00  0.00     0.004 C 
ENDBRANCH  30  31
ENDBRANCH  29  30
ENDBRANCH  28  29
ENDBRANCH  27  28
ENDBRANCH  26  27
ENDBRANCH  25  26
ENDBRANCH  24  25
ENDBRANCH  23  24
ENDBRANCH  22  23
ENDBRANCH  21  22
ENDBRANCH  20  21
ENDBRANCH  19  20
ENDBRANCH  18  19
ENDBRANCH   1  18
TORSDOF 28
ENDMDL
MODEL 7
REMARK VINA RESULT:    -3.806     10.346     15.145
REMARK INTER + INTRA:         -15.653
REMARK INTER:                 -10.004
REMARK INTRA:                  -5.649
REMARK UNBOUND:                -5.617
REMARK SMILES CCCCCCCCCCCCCCCCCCCCCCCCCCCCCC(=O)[O-]
REMARK SMILES IDX 16 1 17 2 18 3 19 4 20 5 21 6 22 7 23 8 24 9 25 10 26 11
REMARK SMILES IDX 27 12 28 13 29 14 30 15 31 16 32 17 15 18 14 19 13 20 12 21
REMARK SMILES IDX 11 22 10 23 9 24 8 25 7 26 6 27 5 28 4 29 3 30 2 31 1 32
REMARK H PARENT
REMARK Flexibility Score: inf
ROOT
ATOM      1  C   UNL     1     -24.061  92.580 -28.516  1.00  0.00     0.000 C 
ENDROOT
BRANCH   1   2
ATOM      2  C   UNL     1     -23.441  91.357 -27.808  1.00  0.00     0.000 C 
BRANCH   2   3
ATOM      3  C   UNL     1     -22.896  90.309 -28.797  1.00  0.00     0.000 C 
BRANCH   3   4
ATOM      4  C   UNL     1     -23.790  89.061 -28.890  1.00  0.00     0.000 C 
BRANCH   4   5
ATOM      5  C   UNL     1     -24.867  89.181 -29.979  1.00  0.00     0.000 C 
BRANCH   5   6
ATOM      6  C   UNL     1     -26.254  88.834 -29.418  1.00  0.00     0.000 C 
BRANCH   6   7
ATOM      7  C   UNL     1     -26.737  89.836 -28.354  1.00  0.00     0.000 C 
BRANCH   7   8
ATOM      8  C   UNL     1     -27.694  89.255 -27.292  1.00  0.00     0.000 C 
BRANCH   8   9
ATOM      9  C   UNL     1     -27.355  89.617 -25.832  1.00  0.00     0.000 C 
BRANCH   9  10
ATOM     10  C   UNL     1     -25.862  89.876 -25.561  1.00  0.00     0.000 C 
BRANCH  10  11
ATOM     11  C   UNL     1     -25.073  88.583 -25.292  1.00  0.00     0.000 C 
BRANCH  11  12
ATOM     12  C   UNL     1     -23.560  88.848 -25.124  1.00  0.00     0.000 C 
BRANCH  12  13
ATOM     13  C   UNL     1     -22.688  87.600 -25.341  1.00  0.00     0.006 C 
BRANCH  13  14
ATOM     14  C   UNL     1     -22.045  87.091 -24.046  1.00  0.00     0.053 C 
BRANCH  14  15
ATOM     15  C   UNL     1     -22.540  85.716 -23.723  1.00  0.00     0.041 C 
ATOM     16  O   UNL     1     -23.778  85.482 -23.689  1.00  0.00    -0.550 OA
ATOM     17  O   UNL     1     -21.637  84.677 -23.536  1.00  0.00    -0.550 OA
ENDBRANCH  14  15
ENDBRANCH  13  14
ENDBRANCH  12  13
ENDBRANCH  11  12
ENDBRANCH  10  11
ENDBRANCH   9  10
ENDBRANCH   8   9
ENDBRANCH   7   8
ENDBRANCH   6   7
ENDBRANCH   5   6
ENDBRANCH   4   5
ENDBRANCH   3   4
ENDBRANCH   2   3
ENDBRANCH   1   2
BRANCH   1  18
ATOM     18  C   UNL     1     -25.220  93.235 -27.740  1.00  0.00     0.000 C 
BRANCH  18  19
ATOM     19  C   UNL     1     -25.411  94.739 -27.999  1.00  0.00     0.000 C 
BRANCH  19  20
ATOM     20  C   UNL     1     -25.384  95.093 -29.494  1.00  0.00     0.000 C 
BRANCH  20  21
ATOM     21  C   UNL     1     -24.316  96.155 -29.793  1.00  0.00     0.000 C 
BRANCH  21  22
ATOM     22  C   UNL     1     -23.542  95.870 -31.090  1.00  0.00     0.000 C 
BRANCH  22  23
ATOM     23  C   UNL     1     -24.439  95.329 -32.215  1.00  0.00     0.000 C 
BRANCH  23  24
ATOM     24  C   UNL     1     -23.856  94.039 -32.812  1.00  0.00    -0.000 C 
BRANCH  24  25
ATOM     25  C   UNL     1     -23.126  93.174 -31.769  1.00  0.00    -0.000 C 
BRANCH  25  26
ATOM     26  C   UNL     1     -22.960  91.693 -32.157  1.00  0.00    -0.000 C 
BRANCH  26  27
ATOM     27  C   UNL     1     -23.617  91.358 -33.507  1.00  0.00    -0.000 C 
BRANCH  27  28
ATOM     28  C   UNL     1     -24.459  90.072 -33.459  1.00  0.00    -0.000 C 
BRANCH  28  29
ATOM     29  C   UNL     1     -25.904  90.212 -33.979  1.00  0.00    -0.000 C 
BRANCH  29  30
ATOM     30  C   UNL     1     -26.565  91.564 -33.637  1.00  0.00    -0.000 C 
BRANCH  30  31
ATOM     31  C   UNL     1     -27.403  91.494 -32.352  1.00  0.00    -0.003 C 
ATOM     32  C   UNL     1     -26.686  92.172 -31.188  1.00  0.00     0.004 C 
ENDBRANCH  30  31
ENDBRANCH  29  30
ENDBRANCH  28  29
ENDBRANCH  27  28
ENDBRANCH  26  27
ENDBRANCH  25  26
ENDBRANCH  24  25
ENDBRANCH  23  24
ENDBRANCH  22  23
ENDBRANCH  21  22
ENDBRANCH  20  21
ENDBRANCH  19  20
ENDBRANCH  18  19
ENDBRANCH   1  18
TORSDOF 28
ENDMDL
MODEL 8
REMARK VINA RESULT:    -3.806     11.073     15.156
REMARK INTER + INTRA:         -15.653
REMARK INTER:                 -11.687
REMARK INTRA:                  -3.966
REMARK UNBOUND:                -5.617
REMARK SMILES CCCCCCCCCCCCCCCCCCCCCCCCCCCCCC(=O)[O-]
REMARK SMILES IDX 16 1 17 2 18 3 19 4 20 5 21 6 22 7 23 8 24 9 25 10 26 11
REMARK SMILES IDX 27 12 28 13 29 14 30 15 31 16 32 17 15 18 14 19 13 20 12 21
REMARK SMILES IDX 11 22 10 23 9 24 8 25 7 26 6 27 5 28 4 29 3 30 2 31 1 32
REMARK H PARENT
REMARK Flexibility Score: inf
ROOT
ATOM      1  C   UNL     1     -23.769  92.281 -28.256  1.00  0.00     0.000 C 
ENDROOT
BRANCH   1   2
ATOM      2  C   UNL     1     -23.592  91.425 -29.528  1.00  0.00     0.000 C 
BRANCH   2   3
ATOM      3  C   UNL     1     -22.886  90.084 -29.250  1.00  0.00     0.000 C 
BRANCH   3   4
ATOM      4  C   UNL     1     -23.840  89.020 -28.682  1.00  0.00     0.000 C 
BRANCH   4   5
ATOM      5  C   UNL     1     -23.333  88.406 -27.368  1.00  0.00     0.000 C 
BRANCH   5   6
ATOM      6  C   UNL     1     -23.756  89.262 -26.165  1.00  0.00     0.000 C 
BRANCH   6   7
ATOM      7  C   UNL     1     -23.029  88.871 -24.866  1.00  0.00     0.000 C 
BRANCH   7   8
ATOM      8  C   UNL     1     -22.385  87.469 -24.871  1.00  0.00     0.000 C 
BRANCH   8   9
ATOM      9  C   UNL     1     -23.056  86.432 -23.949  1.00  0.00     0.000 C 
BRANCH   9  10
ATOM     10  C   UNL     1     -22.323  85.080 -23.857  1.00  0.00     0.000 C 
BRANCH  10  11
ATOM     11  C   UNL     1     -23.203  83.896 -24.293  1.00  0.00     0.000 C 
BRANCH  11  12
ATOM     12  C   UNL     1     -22.609  82.538 -23.857  1.00  0.00     0.000 C 
BRANCH  12  13
ATOM     13  C   UNL     1     -21.465  82.665 -22.838  1.00  0.00     0.006 C 
BRANCH  13  14
ATOM     14  C   UNL     1     -21.762  81.947 -21.516  1.00  0.00     0.053 C 
BRANCH  14  15
ATOM     15  C   UNL     1     -22.022  82.941 -20.428  1.00  0.00     0.041 C 
ATOM     16  O   UNL     1     -22.928  83.807 -20.565  1.00  0.00    -0.550 OA
ATOM     17  O   UNL     1     -21.318  82.864 -19.233  1.00  0.00    -0.550 OA
ENDBRANCH  14  15
ENDBRANCH  13  14
ENDBRANCH  12  13
ENDBRANCH  11  12
ENDBRANCH  10  11
ENDBRANCH   9  10
ENDBRANCH   8   9
ENDBRANCH   7   8
ENDBRANCH   6   7
ENDBRANCH   5   6
ENDBRANCH   4   5
ENDBRANCH   3   4
ENDBRANCH   2   3
ENDBRANCH   1   2
BRANCH   1  18
ATOM     18  C   UNL     1     -25.228  92.686 -27.968  1.00  0.00     0.000 C 
BRANCH  18  19
ATOM     19  C   UNL     1     -25.516  94.194 -28.060  1.00  0.00     0.000 C 
BRANCH  19  20
ATOM     20  C   UNL     1     -25.397  94.736 -29.492  1.00  0.00     0.000 C 
BRANCH  20  21
ATOM     21  C   UNL     1     -24.481  95.968 -29.544  1.00  0.00     0.000 C 
BRANCH  21  22
ATOM     22  C   UNL     1     -23.594  95.996 -30.799  1.00  0.00     0.000 C 
BRANCH  22  23
ATOM     23  C   UNL     1     -23.531  94.637 -31.516  1.00  0.00     0.000 C 
BRANCH  23  24
ATOM     24  C   UNL     1     -23.637  94.813 -33.038  1.00  0.00    -0.000 C 
BRANCH  24  25
ATOM     25  C   UNL     1     -24.547  95.987 -33.443  1.00  0.00    -0.000 C 
BRANCH  25  26
ATOM     26  C   UNL     1     -26.051  95.659 -33.480  1.00  0.00    -0.000 C 
BRANCH  26  27
ATOM     27  C   UNL     1     -26.335  94.244 -34.012  1.00  0.00    -0.000 C 
BRANCH  27  28
ATOM     28  C   UNL     1     -27.080  93.362 -32.996  1.00  0.00    -0.000 C 
BRANCH  28  29
ATOM     29  C   UNL     1     -26.240  92.232 -32.366  1.00  0.00    -0.000 C 
BRANCH  29  30
ATOM     30  C   UNL     1     -26.910  91.557 -31.150  1.00  0.00    -0.000 C 
BRANCH  30  31
ATOM     31  C   UNL     1     -28.075  92.389 -30.591  1.00  0.00    -0.003 C 
ATOM     32  C   UNL     1     -28.617  91.780 -29.300  1.00  0.00     0.004 C 
ENDBRANCH  30  31
ENDBRANCH  29  30
ENDBRANCH  28  29
ENDBRANCH  27  28
ENDBRANCH  26  27
ENDBRANCH  25  26
ENDBRANCH  24  25
ENDBRANCH  23  24
ENDBRANCH  22  23
ENDBRANCH  21  22
ENDBRANCH  20  21
ENDBRANCH  19  20
ENDBRANCH  18  19
ENDBRANCH   1  18
TORSDOF 28
ENDMDL
MODEL 9
REMARK VINA RESULT:    -3.770      9.862     14.569
REMARK INTER + INTRA:         -15.558
REMARK INTER:                 -10.768
REMARK INTRA:                  -4.790
REMARK UNBOUND:                -5.617
REMARK SMILES CCCCCCCCCCCCCCCCCCCCCCCCCCCCCC(=O)[O-]
REMARK SMILES IDX 16 1 17 2 18 3 19 4 20 5 21 6 22 7 23 8 24 9 25 10 26 11
REMARK SMILES IDX 27 12 28 13 29 14 30 15 31 16 32 17 15 18 14 19 13 20 12 21
REMARK SMILES IDX 11 22 10 23 9 24 8 25 7 26 6 27 5 28 4 29 3 30 2 31 1 32
REMARK H PARENT
REMARK Flexibility Score: inf
ROOT
ATOM      1  C   UNL     1     -23.609  89.106 -29.233  1.00  0.00     0.000 C 
ENDROOT
BRANCH   1   2
ATOM      2  C   UNL     1     -24.498  88.694 -28.039  1.00  0.00     0.000 C 
BRANCH   2   3
ATOM      3  C   UNL     1     -24.377  89.661 -26.846  1.00  0.00     0.000 C 
BRANCH   3   4
ATOM      4  C   UNL     1     -25.561  89.547 -25.870  1.00  0.00     0.000 C 
BRANCH   4   5
ATOM      5  C   UNL     1     -26.089  88.110 -25.741  1.00  0.00     0.000 C 
BRANCH   5   6
ATOM      6  C   UNL     1     -25.881  87.576 -24.316  1.00  0.00     0.000 C 
BRANCH   6   7
ATOM      7  C   UNL     1     -25.077  86.265 -24.278  1.00  0.00     0.000 C 
BRANCH   7   8
ATOM      8  C   UNL     1     -24.035  86.100 -25.404  1.00  0.00     0.000 C 
BRANCH   8   9
ATOM      9  C   UNL     1     -22.669  86.763 -25.139  1.00  0.00     0.000 C 
BRANCH   9  10
ATOM     10  C   UNL     1     -22.260  86.829 -23.656  1.00  0.00     0.000 C 
BRANCH  10  11
ATOM     11  C   UNL     1     -21.471  85.590 -23.200  1.00  0.00     0.000 C 
BRANCH  11  12
ATOM     12  C   UNL     1     -22.208  84.806 -22.091  1.00  0.00     0.000 C 
BRANCH  12  13
ATOM     13  C   UNL     1     -23.074  83.652 -22.624  1.00  0.00     0.006 C 
BRANCH  13  14
ATOM     14  C   UNL     1     -23.422  82.620 -21.545  1.00  0.00     0.053 C 
BRANCH  14  15
ATOM     15  C   UNL     1     -22.698  81.336 -21.798  1.00  0.00     0.041 C 
ATOM     16  O   UNL     1     -23.218  80.239 -21.459  1.00  0.00    -0.550 OA
ATOM     17  O   UNL     1     -21.486  81.342 -22.477  1.00  0.00    -0.550 OA
ENDBRANCH  14  15
ENDBRANCH  13  14
ENDBRANCH  12  13
ENDBRANCH  11  12
ENDBRANCH  10  11
ENDBRANCH   9  10
ENDBRANCH   8   9
ENDBRANCH   7   8
ENDBRANCH   6   7
ENDBRANCH   5   6
ENDBRANCH   4   5
ENDBRANCH   3   4
ENDBRANCH   2   3
ENDBRANCH   1   2
BRANCH   1  18
ATOM     18  C   UNL     1     -22.851  90.431 -29.023  1.00  0.00     0.000 C 
BRANCH  18  19
ATOM     19  C   UNL     1     -22.885  91.398 -30.219  1.00  0.00     0.000 C 
BRANCH  19  20
ATOM     20  C   UNL     1     -23.279  90.705 -31.532  1.00  0.00     0.000 C 
BRANCH  20  21
ATOM     21  C   UNL     1     -23.712  91.731 -32.591  1.00  0.00     0.000 C 
BRANCH  21  22
ATOM     22  C   UNL     1     -24.062  93.099 -31.985  1.00  0.00     0.000 C 
BRANCH  22  23
ATOM     23  C   UNL     1     -23.167  94.233 -32.513  1.00  0.00     0.000 C 
BRANCH  23  24
ATOM     24  C   UNL     1     -23.536  95.573 -31.861  1.00  0.00    -0.000 C 
BRANCH  24  25
ATOM     25  C   UNL     1     -24.652  95.441 -30.809  1.00  0.00    -0.000 C 
BRANCH  25  26
ATOM     26  C   UNL     1     -24.306  96.010 -29.422  1.00  0.00    -0.000 C 
BRANCH  26  27
ATOM     27  C   UNL     1     -25.041  95.282 -28.283  1.00  0.00    -0.000 C 
BRANCH  27  28
ATOM     28  C   UNL     1     -24.654  93.797 -28.176  1.00  0.00    -0.000 C 
BRANCH  28  29
ATOM     29  C   UNL     1     -25.818  92.836 -27.863  1.00  0.00    -0.000 C 
BRANCH  29  30
ATOM     30  C   UNL     1     -26.788  92.619 -29.044  1.00  0.00    -0.000 C 
BRANCH  30  31
ATOM     31  C   UNL     1     -26.530  91.290 -29.772  1.00  0.00    -0.003 C 
ATOM     32  C   UNL     1     -27.223  91.263 -31.131  1.00  0.00     0.004 C 
ENDBRANCH  30  31
ENDBRANCH  29  30
ENDBRANCH  28  29
ENDBRANCH  27  28
ENDBRANCH  26  27
ENDBRANCH  25  26
ENDBRANCH  24  25
ENDBRANCH  23  24
ENDBRANCH  22  23
ENDBRANCH  21  22
ENDBRANCH  20  21
ENDBRANCH  19  20
ENDBRANCH  18  19
ENDBRANCH   1  18
TORSDOF 28
ENDMDL
