MODEL 1
REMARK VINA RESULT:    -4.995      0.000      0.000
REMARK INTER + INTRA:          -5.706
REMARK INTER:                  -5.287
REMARK INTRA:                  -0.419
REMARK UNBOUND:                -0.419
REMARK SMILES CC1=CC[C@H]2[C@@H]3[C@@H](C(C)C)CC[C@@]2(C)[C@H]13
REMARK SMILES IDX 1 1 2 2 3 3 4 4 5 5 6 6 15 7 13 8 12 9 11 10 7 11 14 12 8 13
REMARK SMILES IDX 9 14 10 15
REMARK H PARENT
REMARK Flexibility Score: inf
ROOT
ATOM      1  C   UNL     1     139.680 136.420 131.949  1.00  0.00     0.039 C 
ATOM      2  C   UNL     1     138.988 135.181 131.467  1.00  0.00    -0.073 C 
ATOM      3  C   UNL     1     139.663 134.216 130.789  1.00  0.00    -0.027 C 
ATOM      4  C   UNL     1     138.897 132.980 130.300  1.00  0.00     0.031 C 
ATOM      5  C   UNL     1     137.398 133.061 130.738  1.00  0.00     0.003 C 
ATOM      6  C   UNL     1     137.369 133.478 132.228  1.00  0.00     0.004 C 
ATOM      7  C   UNL     1     137.498 134.938 131.728  1.00  0.00     0.024 C 
ATOM      8  C   UNL     1     136.797 134.453 130.433  1.00  0.00    -0.022 C 
ATOM      9  C   UNL     1     135.255 134.380 130.628  1.00  0.00     0.008 C 
ATOM     10  C   UNL     1     134.860 134.001 132.077  1.00  0.00     0.005 C 
ATOM     11  C   UNL     1     135.960 133.189 132.839  1.00  0.00    -0.005 C 
ATOM     12  C   UNL     1     137.150 135.138 129.091  1.00  0.00     0.012 C 
ENDROOT
BRANCH  11  13
ATOM     13  C   UNL     1     135.905 133.460 134.377  1.00  0.00    -0.014 C 
ATOM     14  C   UNL     1     135.162 134.766 134.719  1.00  0.00     0.007 C 
ATOM     15  C   UNL     1     137.321 133.527 134.982  1.00  0.00     0.007 C 
ENDBRANCH  11  13
TORSDOF 1
ENDMDL
MODEL 2
REMARK VINA RESULT:    -4.982      1.878      3.856
REMARK INTER + INTRA:          -5.693
REMARK INTER:                  -5.269
REMARK INTRA:                  -0.424
REMARK UNBOUND:                -0.419
REMARK SMILES CC1=CC[C@H]2[C@@H]3[C@@H](C(C)C)CC[C@@]2(C)[C@H]13
REMARK SMILES IDX 1 1 2 2 3 3 4 4 5 5 6 6 15 7 13 8 12 9 11 10 7 11 14 12 8 13
REMARK SMILES IDX 9 14 10 15
REMARK H PARENT
REMARK Flexibility Score: inf
ROOT
ATOM      1  C   UNL     1     136.346 137.551 129.578  1.00  0.00     0.039 C 
ATOM      2  C   UNL     1     135.333 136.549 130.043  1.00  0.00    -0.073 C 
ATOM      3  C   UNL     1     134.307 136.161 129.240  1.00  0.00    -0.027 C 
ATOM      4  C   UNL     1     133.288 135.148 129.779  1.00  0.00     0.031 C 
ATOM      5  C   UNL     1     133.675 134.705 131.228  1.00  0.00     0.003 C 
ATOM      6  C   UNL     1     135.189 134.388 131.230  1.00  0.00     0.004 C 
ATOM      7  C   UNL     1     135.415 135.907 131.431  1.00  0.00     0.024 C 
ATOM      8  C   UNL     1     134.023 135.924 132.115  1.00  0.00    -0.022 C 
ATOM      9  C   UNL     1     134.123 135.448 133.592  1.00  0.00     0.008 C 
ATOM     10  C   UNL     1     135.227 134.382 133.797  1.00  0.00     0.005 C 
ATOM     11  C   UNL     1     135.563 133.566 132.505  1.00  0.00    -0.005 C 
ATOM     12  C   UNL     1     133.152 137.197 132.004  1.00  0.00     0.012 C 
ENDROOT
BRANCH  11  13
ATOM     13  C   UNL     1     137.054 133.094 132.500  1.00  0.00    -0.014 C 
ATOM     14  C   UNL     1     137.987 134.087 133.220  1.00  0.00     0.007 C 
ATOM     15  C   UNL     1     137.568 132.888 131.063  1.00  0.00     0.007 C 
ENDBRANCH  11  13
TORSDOF 1
ENDMDL
MODEL 3
REMARK VINA RESULT:    -4.982      2.977      4.572
REMARK INTER + INTRA:          -5.693
REMARK INTER:                  -5.266
REMARK INTRA:                  -0.426
REMARK UNBOUND:                -0.419
REMARK SMILES CC1=CC[C@H]2[C@@H]3[C@@H](C(C)C)CC[C@@]2(C)[C@H]13
REMARK SMILES IDX 1 1 2 2 3 3 4 4 5 5 6 6 15 7 13 8 12 9 11 10 7 11 14 12 8 13
REMARK SMILES IDX 9 14 10 15
REMARK H PARENT
REMARK Flexibility Score: inf
ROOT
ATOM      1  C   UNL     1     136.343 133.982 132.015  1.00  0.00     0.039 C 
ATOM      2  C   UNL     1     135.120 134.711 131.546  1.00  0.00    -0.073 C 
ATOM      3  C   UNL     1     134.138 134.070 130.859  1.00  0.00    -0.027 C 
ATOM      4  C   UNL     1     132.920 134.873 130.385  1.00  0.00     0.031 C 
ATOM      5  C   UNL     1     133.038 136.363 130.847  1.00  0.00     0.003 C 
ATOM      6  C   UNL     1     133.457 136.357 132.336  1.00  0.00     0.004 C 
ATOM      7  C   UNL     1     134.912 136.202 131.832  1.00  0.00     0.024 C 
ATOM      8  C   UNL     1     134.443 136.935 130.549  1.00  0.00    -0.022 C 
ATOM      9  C   UNL     1     134.407 138.475 130.770  1.00  0.00     0.008 C 
ATOM     10  C   UNL     1     134.039 138.855 132.226  1.00  0.00     0.005 C 
ATOM     11  C   UNL     1     133.203 137.763 132.971  1.00  0.00    -0.005 C 
ATOM     12  C   UNL     1     135.117 136.589 129.201  1.00  0.00     0.012 C 
ENDROOT
BRANCH  11  13
ATOM     13  C   UNL     1     133.477 137.786 134.510  1.00  0.00    -0.014 C 
ATOM     14  C   UNL     1     134.820 138.456 134.858  1.00  0.00     0.007 C 
ATOM     15  C   UNL     1     133.470 136.362 135.099  1.00  0.00     0.007 C 
ENDBRANCH  11  13
TORSDOF 1
ENDMDL
MODEL 4
REMARK VINA RESULT:    -4.973      2.919      4.682
REMARK INTER + INTRA:          -5.683
REMARK INTER:                  -5.379
REMARK INTRA:                  -0.304
REMARK UNBOUND:                -0.419
REMARK SMILES CC1=CC[C@H]2[C@@H]3[C@@H](C(C)C)CC[C@@]2(C)[C@H]13
REMARK SMILES IDX 1 1 2 2 3 3 4 4 5 5 6 6 15 7 13 8 12 9 11 10 7 11 14 12 8 13
REMARK SMILES IDX 9 14 10 15
REMARK H PARENT
REMARK Flexibility Score: inf
ROOT
ATOM      1  C   UNL     1     138.010 140.175 132.190  1.00  0.00     0.039 C 
ATOM      2  C   UNL     1     139.003 139.092 131.894  1.00  0.00    -0.073 C 
ATOM      3  C   UNL     1     140.027 139.294 131.023  1.00  0.00    -0.027 C 
ATOM      4  C   UNL     1     141.000 138.142 130.743  1.00  0.00     0.031 C 
ATOM      5  C   UNL     1     140.619 136.889 131.598  1.00  0.00     0.003 C 
ATOM      6  C   UNL     1     140.355 137.374 133.043  1.00  0.00     0.004 C 
ATOM      7  C   UNL     1     138.922 137.720 132.569  1.00  0.00     0.024 C 
ATOM      8  C   UNL     1     139.104 136.593 131.519  1.00  0.00    -0.022 C 
ATOM      9  C   UNL     1     138.839 135.196 132.150  1.00  0.00     0.008 C 
ATOM     10  C   UNL     1     139.256 135.131 133.640  1.00  0.00     0.005 C 
ATOM     11  C   UNL     1     140.370 136.160 134.028  1.00  0.00    -0.005 C 
ATOM     12  C   UNL     1     138.391 136.723 130.152  1.00  0.00     0.012 C 
ENDROOT
BRANCH  11  13
ATOM     13  C   UNL     1     140.245 136.598 135.524  1.00  0.00    -0.014 C 
ATOM     14  C   UNL     1     140.692 138.055 135.749  1.00  0.00     0.007 C 
ATOM     15  C   UNL     1     141.074 135.681 136.444  1.00  0.00     0.007 C 
ENDBRANCH  11  13
TORSDOF 1
ENDMDL
MODEL 5
REMARK VINA RESULT:    -4.971      3.862      5.414
REMARK INTER + INTRA:          -5.680
REMARK INTER:                  -5.271
REMARK INTRA:                  -0.409
REMARK UNBOUND:                -0.419
REMARK SMILES CC1=CC[C@H]2[C@@H]3[C@@H](C(C)C)CC[C@@]2(C)[C@H]13
REMARK SMILES IDX 1 1 2 2 3 3 4 4 5 5 6 6 15 7 13 8 12 9 11 10 7 11 14 12 8 13
REMARK SMILES IDX 9 14 10 15
REMARK H PARENT
REMARK Flexibility Score: inf
ROOT
ATOM      1  C   UNL     1     137.929 138.084 130.243  1.00  0.00     0.039 C 
ATOM      2  C   UNL     1     136.562 138.599 130.577  1.00  0.00    -0.073 C 
ATOM      3  C   UNL     1     136.096 139.759 130.044  1.00  0.00    -0.027 C 
ATOM      4  C   UNL     1     134.697 140.248 130.441  1.00  0.00     0.031 C 
ATOM      5  C   UNL     1     134.021 139.229 131.416  1.00  0.00     0.003 C 
ATOM      6  C   UNL     1     134.234 137.813 130.832  1.00  0.00     0.004 C 
ATOM      7  C   UNL     1     135.622 137.837 131.517  1.00  0.00     0.024 C 
ATOM      8  C   UNL     1     134.988 138.807 132.547  1.00  0.00    -0.022 C 
ATOM      9  C   UNL     1     134.180 138.026 133.623  1.00  0.00     0.008 C 
ATOM     10  C   UNL     1     133.526 136.743 133.056  1.00  0.00     0.005 C 
ATOM     11  C   UNL     1     133.260 136.799 131.515  1.00  0.00    -0.005 C 
ATOM     12  C   UNL     1     135.880 139.886 133.204  1.00  0.00     0.012 C 
ENDROOT
BRANCH  11  13
ATOM     13  C   UNL     1     133.328 135.375 130.873  1.00  0.00    -0.014 C 
ATOM     14  C   UNL     1     134.378 134.473 131.550  1.00  0.00     0.007 C 
ATOM     15  C   UNL     1     133.647 135.457 129.368  1.00  0.00     0.007 C 
ENDBRANCH  11  13
TORSDOF 1
ENDMDL
MODEL 6
REMARK VINA RESULT:    -4.965      4.638      6.471
REMARK INTER + INTRA:          -5.675
REMARK INTER:                  -5.270
REMARK INTRA:                  -0.405
REMARK UNBOUND:                -0.419
REMARK SMILES CC1=CC[C@H]2[C@@H]3[C@@H](C(C)C)CC[C@@]2(C)[C@H]13
REMARK SMILES IDX 1 1 2 2 3 3 4 4 5 5 6 6 15 7 13 8 12 9 11 10 7 11 14 12 8 13
REMARK SMILES IDX 9 14 10 15
REMARK H PARENT
REMARK Flexibility Score: inf
ROOT
ATOM      1  C   UNL     1     133.892 137.463 132.187  1.00  0.00     0.039 C 
ATOM      2  C   UNL     1     134.647 138.644 131.657  1.00  0.00    -0.073 C 
ATOM      3  C   UNL     1     134.027 139.606 130.924  1.00  0.00    -0.027 C 
ATOM      4  C   UNL     1     134.857 140.780 130.389  1.00  0.00     0.031 C 
ATOM      5  C   UNL     1     136.345 140.651 130.854  1.00  0.00     0.003 C 
ATOM      6  C   UNL     1     136.334 140.305 132.362  1.00  0.00     0.004 C 
ATOM      7  C   UNL     1     136.143 138.831 131.930  1.00  0.00     0.024 C 
ATOM      8  C   UNL     1     136.884 139.220 130.625  1.00  0.00    -0.022 C 
ATOM      9  C   UNL     1     138.424 139.231 130.841  1.00  0.00     0.008 C 
ATOM     10  C   UNL     1     138.817 139.660 132.276  1.00  0.00     0.005 C 
ATOM     11  C   UNL     1     137.746 140.557 132.981  1.00  0.00    -0.005 C 
ATOM     12  C   UNL     1     136.518 138.489 129.312  1.00  0.00     0.012 C 
ENDROOT
BRANCH  11  13
ATOM     13  C   UNL     1     137.768 140.358 134.532  1.00  0.00    -0.014 C 
ATOM     14  C   UNL     1     138.503 139.070 134.949  1.00  0.00     0.007 C 
ATOM     15  C   UNL     1     136.339 140.319 135.108  1.00  0.00     0.007 C 
ENDBRANCH  11  13
TORSDOF 1
ENDMDL
MODEL 7
REMARK VINA RESULT:    -4.955      1.773      4.959
REMARK INTER + INTRA:          -5.664
REMARK INTER:                  -5.247
REMARK INTRA:                  -0.416
REMARK UNBOUND:                -0.419
REMARK SMILES CC1=CC[C@H]2[C@@H]3[C@@H](C(C)C)CC[C@@]2(C)[C@H]13
REMARK SMILES IDX 1 1 2 2 3 3 4 4 5 5 6 6 15 7 13 8 12 9 11 10 7 11 14 12 8 13
REMARK SMILES IDX 9 14 10 15
REMARK H PARENT
REMARK Flexibility Score: inf
ROOT
ATOM      1  C   UNL     1     135.885 135.696 130.379  1.00  0.00     0.039 C 
ATOM      2  C   UNL     1     137.279 135.247 130.697  1.00  0.00    -0.073 C 
ATOM      3  C   UNL     1     137.770 134.076 130.214  1.00  0.00    -0.027 C 
ATOM      4  C   UNL     1     139.197 133.658 130.591  1.00  0.00     0.031 C 
ATOM      5  C   UNL     1     139.865 134.752 131.488  1.00  0.00     0.003 C 
ATOM      6  C   UNL     1     139.584 136.126 130.834  1.00  0.00     0.004 C 
ATOM      7  C   UNL     1     138.219 136.092 131.563  1.00  0.00     0.024 C 
ATOM      8  C   UNL     1     138.918 135.203 132.624  1.00  0.00    -0.022 C 
ATOM      9  C   UNL     1     139.729 136.069 133.630  1.00  0.00     0.008 C 
ATOM     10  C   UNL     1     140.320 137.341 132.973  1.00  0.00     0.005 C 
ATOM     11  C   UNL     1     140.541 137.209 131.429  1.00  0.00    -0.005 C 
ATOM     12  C   UNL     1     138.085 134.132 133.367  1.00  0.00     0.012 C 
ENDROOT
BRANCH  11  13
ATOM     13  C   UNL     1     140.403 138.592 130.713  1.00  0.00    -0.014 C 
ATOM     14  C   UNL     1     139.362 139.503 131.390  1.00  0.00     0.007 C 
ATOM     15  C   UNL     1     140.015 138.416 129.232  1.00  0.00     0.007 C 
ENDBRANCH  11  13
TORSDOF 1
ENDMDL
MODEL 8
REMARK VINA RESULT:    -4.925      3.363      5.630
REMARK INTER + INTRA:          -5.632
REMARK INTER:                  -5.200
REMARK INTRA:                  -0.432
REMARK UNBOUND:                -0.419
REMARK SMILES CC1=CC[C@H]2[C@@H]3[C@@H](C(C)C)CC[C@@]2(C)[C@H]13
REMARK SMILES IDX 1 1 2 2 3 3 4 4 5 5 6 6 15 7 13 8 12 9 11 10 7 11 14 12 8 13
REMARK SMILES IDX 9 14 10 15
REMARK H PARENT
REMARK Flexibility Score: inf
ROOT
ATOM      1  C   UNL     1     135.405 137.726 132.751  1.00  0.00     0.039 C 
ATOM      2  C   UNL     1     136.615 138.560 132.453  1.00  0.00    -0.073 C 
ATOM      3  C   UNL     1     136.716 139.839 132.901  1.00  0.00    -0.027 C 
ATOM      4  C   UNL     1     137.968 140.652 132.546  1.00  0.00     0.031 C 
ATOM      5  C   UNL     1     138.964 139.779 131.714  1.00  0.00     0.003 C 
ATOM      6  C   UNL     1     139.079 138.406 132.416  1.00  0.00     0.004 C 
ATOM      7  C   UNL     1     137.795 138.007 131.649  1.00  0.00     0.024 C 
ATOM      8  C   UNL     1     138.239 139.031 130.572  1.00  0.00    -0.022 C 
ATOM      9  C   UNL     1     139.309 138.414 129.626  1.00  0.00     0.008 C 
ATOM     10  C   UNL     1     140.225 137.398 130.352  1.00  0.00     0.005 C 
ATOM     11  C   UNL     1     140.337 137.639 131.894  1.00  0.00    -0.005 C 
ATOM     12  C   UNL     1     137.155 139.780 129.762  1.00  0.00     0.012 C 
ENDROOT
BRANCH  11  13
ATOM     13  C   UNL     1     140.588 136.301 132.663  1.00  0.00    -0.014 C 
ATOM     14  C   UNL     1     139.977 135.085 131.942  1.00  0.00     0.007 C 
ATOM     15  C   UNL     1     140.017 136.365 134.092  1.00  0.00     0.007 C 
ENDBRANCH  11  13
TORSDOF 1
ENDMDL
MODEL 9
REMARK VINA RESULT:    -4.918      3.739      5.951
REMARK INTER + INTRA:          -5.624
REMARK INTER:                  -5.205
REMARK INTRA:                  -0.420
REMARK UNBOUND:                -0.419
REMARK SMILES CC1=CC[C@H]2[C@@H]3[C@@H](C(C)C)CC[C@@]2(C)[C@H]13
REMARK SMILES IDX 1 1 2 2 3 3 4 4 5 5 6 6 15 7 13 8 12 9 11 10 7 11 14 12 8 13
REMARK SMILES IDX 9 14 10 15
REMARK H PARENT
REMARK Flexibility Score: inf
ROOT
ATOM      1  C   UNL     1     138.185 135.792 130.161  1.00  0.00     0.039 C 
ATOM      2  C   UNL     1     138.717 137.148 130.513  1.00  0.00    -0.073 C 
ATOM      3  C   UNL     1     139.892 137.599 129.999  1.00  0.00    -0.027 C 
ATOM      4  C   UNL     1     140.397 138.987 130.413  1.00  0.00     0.031 C 
ATOM      5  C   UNL     1     139.376 139.672 131.379  1.00  0.00     0.003 C 
ATOM      6  C   UNL     1     137.964 139.486 130.774  1.00  0.00     0.004 C 
ATOM      7  C   UNL     1     137.957 138.093 131.449  1.00  0.00     0.024 C 
ATOM      8  C   UNL     1     138.922 138.704 132.497  1.00  0.00    -0.022 C 
ATOM      9  C   UNL     1     138.140 139.517 133.568  1.00  0.00     0.008 C 
ATOM     10  C   UNL     1     136.875 140.196 132.987  1.00  0.00     0.005 C 
ATOM     11  C   UNL     1     136.956 140.471 131.449  1.00  0.00    -0.005 C 
ATOM     12  C   UNL     1     139.978 137.790 133.162  1.00  0.00     0.012 C 
ENDROOT
BRANCH  11  13
ATOM     13  C   UNL     1     135.541 140.431 130.787  1.00  0.00    -0.014 C 
ATOM     14  C   UNL     1     134.600 139.421 131.471  1.00  0.00     0.007 C 
ATOM     15  C   UNL     1     135.636 140.080 129.290  1.00  0.00     0.007 C 
ENDBRANCH  11  13
TORSDOF 1
ENDMDL
