MODEL 1
REMARK VINA RESULT:    -7.462      0.000      0.000
REMARK INTER + INTRA:         -10.932
REMARK INTER:                  -9.861
REMARK INTRA:                  -1.071
REMARK UNBOUND:                -1.071
REMARK SMILES C=C(CC[C@@H](C)[C@@H]1CC[C@@]2(C)[C@@H]3CC[C@@H]4C(C)(C)[C@@H](O)CC[C@@]45C[C@@]35CC[C@@]12C)C(C)C
REMARK SMILES IDX 4 1 3 2 2 3 1 4 30 5 31 6 32 7 5 8 6 9 7 10 8 11 28 12 9 13
REMARK SMILES IDX 10 14 27 15 29 16 11 17 12 18 26 19 25 20 13 21 23 22 24 23
REMARK SMILES IDX 14 24 15 25 22 26 16 27 21 28 19 29 17 30 18 31 20 32
REMARK H PARENT 20 33
REMARK Flexibility Score: inf
ROOT
ATOM      1  C   UNL     1     120.276 129.183 130.248  1.00  0.00     0.008 C 
ENDROOT
BRANCH   1   2
ATOM      2  C   UNL     1     120.452 129.761 128.827  1.00  0.00     0.031 C 
BRANCH   2   3
ATOM      3  C   UNL     1     120.504 131.279 128.790  1.00  0.00    -0.075 C 
ATOM      4  C   UNL     1     119.421 131.970 128.386  1.00  0.00     0.008 C 
BRANCH   3   5
ATOM      5  C   UNL     1     121.744 132.005 129.295  1.00  0.00     0.008 C 
ATOM      6  C   UNL     1     121.479 133.506 129.462  1.00  0.00     0.012 C 
ATOM      7  C   UNL     1     122.953 131.761 128.381  1.00  0.00     0.012 C 
ENDBRANCH   3   5
ENDBRANCH   2   3
ENDBRANCH   1   2
BRANCH   1   8
ATOM      8  C   UNL     1     119.055 128.246 130.460  1.00  0.00    -0.010 C 
ATOM      9  C   UNL     1     117.752 129.079 130.463  1.00  0.00     0.008 C 
BRANCH   8  10
ATOM     10  C   UNL     1     118.974 127.115 129.360  1.00  0.00    -0.002 C 
ATOM     11  C   UNL     1     117.695 127.238 128.535  1.00  0.00     0.005 C 
ATOM     12  C   UNL     1     119.001 125.603 129.791  1.00  0.00    -0.024 C 
ATOM     13  C   UNL     1     117.487 125.914 127.831  1.00  0.00     0.008 C 
ATOM     14  C   UNL     1     118.394 124.847 128.515  1.00  0.00    -0.024 C 
ATOM     15  C   UNL     1     120.461 125.148 130.131  1.00  0.00     0.008 C 
ATOM     16  C   UNL     1     118.123 125.397 131.060  1.00  0.00     0.012 C 
ATOM     17  C   UNL     1     117.507 123.611 128.866  1.00  0.00     0.012 C 
ATOM     18  C   UNL     1     119.538 124.403 127.508  1.00  0.00     0.002 C 
ATOM     19  C   UNL     1     120.767 123.710 129.738  1.00  0.00     0.008 C 
ATOM     20  C   UNL     1     120.646 123.549 128.211  1.00  0.00    -0.020 C 
ATOM     21  C   UNL     1     119.004 123.765 126.186  1.00  0.00     0.005 C 
ATOM     22  C   UNL     1     121.244 122.283 127.531  1.00  0.00    -0.020 C 
ATOM     23  C   UNL     1     122.007 123.613 127.498  1.00  0.00     0.015 C 
ATOM     24  C   UNL     1     119.146 122.243 126.126  1.00  0.00     0.005 C 
ATOM     25  C   UNL     1     120.630 121.853 126.167  1.00  0.00     0.004 C 
ATOM     26  C   UNL     1     121.826 121.198 128.475  1.00  0.00     0.010 C 
ATOM     27  C   UNL     1     120.902 120.347 125.802  1.00  0.00    -0.006 C 
ATOM     28  C   UNL     1     122.535 120.028 127.763  1.00  0.00     0.033 C 
ATOM     29  C   UNL     1     122.353 119.979 126.237  1.00  0.00     0.120 C 
ATOM     30  C   UNL     1     120.791 120.143 124.268  1.00  0.00     0.014 C 
ATOM     31  C   UNL     1     119.887 119.379 126.468  1.00  0.00     0.014 C 
BRANCH  29  32
ATOM     32  O   UNL     1     123.282 120.860 125.648  1.00  0.00    -0.393 OA
ATOM     33  H   UNL     1     124.175 120.428 125.697  1.00  0.00     0.210 HD
ENDBRANCH  29  32
ENDBRANCH   8  10
ENDBRANCH   1   8
TORSDOF 6
ENDMDL
MODEL 2
REMARK VINA RESULT:    -7.435      2.688      4.100
REMARK INTER + INTRA:         -10.897
REMARK INTER:                  -8.582
REMARK INTRA:                  -2.315
REMARK UNBOUND:                -1.071
REMARK SMILES C=C(CC[C@@H](C)[C@@H]1CC[C@@]2(C)[C@@H]3CC[C@@H]4C(C)(C)[C@@H](O)CC[C@@]45C[C@@]35CC[C@@]12C)C(C)C
REMARK SMILES IDX 4 1 3 2 2 3 1 4 30 5 31 6 32 7 5 8 6 9 7 10 8 11 28 12 9 13
REMARK SMILES IDX 10 14 27 15 29 16 11 17 12 18 26 19 25 20 13 21 23 22 24 23
REMARK SMILES IDX 14 24 15 25 22 26 16 27 21 28 19 29 17 30 18 31 20 32
REMARK H PARENT 20 33
REMARK Flexibility Score: inf
ROOT
ATOM      1  C   UNL     1     119.491 126.618 130.195  1.00  0.00     0.008 C 
ENDROOT
BRANCH   1   2
ATOM      2  C   UNL     1     118.751 127.283 129.014  1.00  0.00     0.031 C 
BRANCH   2   3
ATOM      3  C   UNL     1     118.750 126.444 127.747  1.00  0.00    -0.075 C 
ATOM      4  C   UNL     1     119.921 126.049 127.213  1.00  0.00     0.008 C 
BRANCH   3   5
ATOM      5  C   UNL     1     117.429 125.981 127.148  1.00  0.00     0.008 C 
ATOM      6  C   UNL     1     116.248 126.349 128.053  1.00  0.00     0.012 C 
ATOM      7  C   UNL     1     117.441 124.475 126.850  1.00  0.00     0.012 C 
ENDBRANCH   3   5
ENDBRANCH   2   3
ENDBRANCH   1   2
BRANCH   1   8
ATOM      8  C   UNL     1     118.656 125.635 131.060  1.00  0.00    -0.010 C 
ATOM      9  C   UNL     1     117.330 126.310 131.486  1.00  0.00     0.008 C 
BRANCH   8  10
ATOM     10  C   UNL     1     118.356 124.282 130.303  1.00  0.00    -0.002 C 
ATOM     11  C   UNL     1     117.114 123.595 130.867  1.00  0.00     0.005 C 
ATOM     12  C   UNL     1     119.440 123.142 130.282  1.00  0.00    -0.024 C 
ATOM     13  C   UNL     1     117.153 122.153 130.408  1.00  0.00     0.008 C 
ATOM     14  C   UNL     1     118.593 121.836 129.904  1.00  0.00    -0.024 C 
ATOM     15  C   UNL     1     120.564 123.463 129.238  1.00  0.00     0.008 C 
ATOM     16  C   UNL     1     120.107 123.017 131.684  1.00  0.00     0.012 C 
ATOM     17  C   UNL     1     119.078 120.532 130.612  1.00  0.00     0.012 C 
ATOM     18  C   UNL     1     118.563 121.601 128.334  1.00  0.00     0.002 C 
ATOM     19  C   UNL     1     121.117 122.235 128.529  1.00  0.00     0.008 C 
ATOM     20  C   UNL     1     120.000 121.554 127.715  1.00  0.00    -0.020 C 
ATOM     21  C   UNL     1     117.654 120.410 127.891  1.00  0.00     0.005 C 
ATOM     22  C   UNL     1     120.382 120.500 126.636  1.00  0.00    -0.020 C 
ATOM     23  C   UNL     1     120.034 121.936 126.226  1.00  0.00     0.015 C 
ATOM     24  C   UNL     1     118.426 119.151 127.492  1.00  0.00     0.005 C 
ATOM     25  C   UNL     1     119.304 119.440 126.266  1.00  0.00     0.004 C 
ATOM     26  C   UNL     1     121.882 120.119 126.539  1.00  0.00     0.010 C 
ATOM     27  C   UNL     1     119.897 118.150 125.590  1.00  0.00    -0.006 C 
ATOM     28  C   UNL     1     122.242 119.181 125.368  1.00  0.00     0.033 C 
ATOM     29  C   UNL     1     121.043 118.572 124.622  1.00  0.00     0.120 C 
ATOM     30  C   UNL     1     118.800 117.434 124.757  1.00  0.00     0.014 C 
ATOM     31  C   UNL     1     120.428 117.123 126.626  1.00  0.00     0.014 C 
BRANCH  29  32
ATOM     32  O   UNL     1     120.575 119.513 123.684  1.00  0.00    -0.393 OA
ATOM     33  H   UNL     1     121.066 119.358 122.835  1.00  0.00     0.210 HD
ENDBRANCH  29  32
ENDBRANCH   8  10
ENDBRANCH   1   8
TORSDOF 6
ENDMDL
MODEL 3
REMARK VINA RESULT:    -7.230      3.208      4.927
REMARK INTER + INTRA:         -10.626
REMARK INTER:                  -8.329
REMARK INTRA:                  -2.296
REMARK UNBOUND:                -1.071
REMARK SMILES C=C(CC[C@@H](C)[C@@H]1CC[C@@]2(C)[C@@H]3CC[C@@H]4C(C)(C)[C@@H](O)CC[C@@]45C[C@@]35CC[C@@]12C)C(C)C
REMARK SMILES IDX 4 1 3 2 2 3 1 4 30 5 31 6 32 7 5 8 6 9 7 10 8 11 28 12 9 13
REMARK SMILES IDX 10 14 27 15 29 16 11 17 12 18 26 19 25 20 13 21 23 22 24 23
REMARK SMILES IDX 14 24 15 25 22 26 16 27 21 28 19 29 17 30 18 31 20 32
REMARK H PARENT 20 33
REMARK Flexibility Score: inf
ROOT
ATOM      1  C   UNL     1     117.824 127.009 129.141  1.00  0.00     0.008 C 
ENDROOT
BRANCH   1   2
ATOM      2  C   UNL     1     117.237 126.069 128.067  1.00  0.00     0.031 C 
BRANCH   2   3
ATOM      3  C   UNL     1     118.280 125.495 127.124  1.00  0.00    -0.075 C 
ATOM      4  C   UNL     1     119.496 126.069 127.052  1.00  0.00     0.008 C 
BRANCH   3   5
ATOM      5  C   UNL     1     117.974 124.225 126.339  1.00  0.00     0.008 C 
ATOM      6  C   UNL     1     117.029 123.304 127.119  1.00  0.00     0.012 C 
ATOM      7  C   UNL     1     119.258 123.483 125.943  1.00  0.00     0.012 C 
ENDBRANCH   3   5
ENDBRANCH   2   3
ENDBRANCH   1   2
BRANCH   1   8
ATOM      8  C   UNL     1     118.204 126.349 130.496  1.00  0.00    -0.010 C 
ATOM      9  C   UNL     1     117.392 127.002 131.640  1.00  0.00     0.008 C 
BRANCH   8  10
ATOM     10  C   UNL     1     117.965 124.788 130.485  1.00  0.00    -0.002 C 
ATOM     11  C   UNL     1     116.810 124.398 131.405  1.00  0.00     0.005 C 
ATOM     12  C   UNL     1     119.128 123.817 130.909  1.00  0.00    -0.024 C 
ATOM     13  C   UNL     1     116.931 122.913 131.670  1.00  0.00     0.008 C 
ATOM     14  C   UNL     1     118.361 122.454 131.256  1.00  0.00    -0.024 C 
ATOM     15  C   UNL     1     120.167 123.654 129.747  1.00  0.00     0.008 C 
ATOM     16  C   UNL     1     119.877 124.394 132.147  1.00  0.00     0.012 C 
ATOM     17  C   UNL     1     118.979 121.658 132.447  1.00  0.00     0.012 C 
ATOM     18  C   UNL     1     118.264 121.506 129.986  1.00  0.00     0.002 C 
ATOM     19  C   UNL     1     120.771 122.260 129.650  1.00  0.00     0.008 C 
ATOM     20  C   UNL     1     119.666 121.232 129.343  1.00  0.00    -0.020 C 
ATOM     21  C   UNL     1     117.424 120.211 130.226  1.00  0.00     0.005 C 
ATOM     22  C   UNL     1     120.066 119.810 128.854  1.00  0.00    -0.020 C 
ATOM     23  C   UNL     1     119.591 120.869 127.851  1.00  0.00     0.015 C 
ATOM     24  C   UNL     1     118.265 118.945 130.398  1.00  0.00     0.005 C 
ATOM     25  C   UNL     1     119.051 118.658 129.112  1.00  0.00     0.004 C 
ATOM     26  C   UNL     1     121.583 119.489 128.822  1.00  0.00     0.010 C 
ATOM     27  C   UNL     1     119.701 117.227 129.069  1.00  0.00    -0.006 C 
ATOM     28  C   UNL     1     121.948 118.126 128.199  1.00  0.00     0.033 C 
ATOM     29  C   UNL     1     120.759 117.189 127.926  1.00  0.00     0.120 C 
ATOM     30  C   UNL     1     118.618 116.160 128.761  1.00  0.00     0.014 C 
ATOM     31  C   UNL     1     120.362 116.831 130.417  1.00  0.00     0.014 C 
BRANCH  29  32
ATOM     32  O   UNL     1     120.173 117.558 126.699  1.00  0.00    -0.393 OA
ATOM     33  H   UNL     1     120.466 116.898 126.017  1.00  0.00     0.210 HD
ENDBRANCH  29  32
ENDBRANCH   8  10
ENDBRANCH   1   8
TORSDOF 6
ENDMDL
MODEL 4
REMARK VINA RESULT:    -7.179      3.112      8.833
REMARK INTER + INTRA:         -10.558
REMARK INTER:                  -8.310
REMARK INTRA:                  -2.248
REMARK UNBOUND:                -1.071
REMARK SMILES C=C(CC[C@@H](C)[C@@H]1CC[C@@]2(C)[C@@H]3CC[C@@H]4C(C)(C)[C@@H](O)CC[C@@]45C[C@@]35CC[C@@]12C)C(C)C
REMARK SMILES IDX 4 1 3 2 2 3 1 4 30 5 31 6 32 7 5 8 6 9 7 10 8 11 28 12 9 13
REMARK SMILES IDX 10 14 27 15 29 16 11 17 12 18 26 19 25 20 13 21 23 22 24 23
REMARK SMILES IDX 14 24 15 25 22 26 16 27 21 28 19 29 17 30 18 31 20 32
REMARK H PARENT 20 33
REMARK Flexibility Score: inf
ROOT
ATOM      1  C   UNL     1     119.580 116.539 126.785  1.00  0.00     0.008 C 
ENDROOT
BRANCH   1   2
ATOM      2  C   UNL     1     120.511 117.702 126.378  1.00  0.00     0.031 C 
BRANCH   2   3
ATOM      3  C   UNL     1     119.959 118.559 125.252  1.00  0.00    -0.075 C 
ATOM      4  C   UNL     1     119.131 118.008 124.345  1.00  0.00     0.008 C 
BRANCH   3   5
ATOM      5  C   UNL     1     120.272 120.049 125.213  1.00  0.00     0.008 C 
ATOM      6  C   UNL     1     120.622 120.506 123.793  1.00  0.00     0.012 C 
ATOM      7  C   UNL     1     121.391 120.417 126.197  1.00  0.00     0.012 C 
ENDBRANCH   3   5
ENDBRANCH   2   3
ENDBRANCH   1   2
BRANCH   1   8
ATOM      8  C   UNL     1     118.862 116.683 128.155  1.00  0.00    -0.010 C 
ATOM      9  C   UNL     1     119.324 115.556 129.108  1.00  0.00     0.008 C 
BRANCH   8  10
ATOM     10  C   UNL     1     119.120 118.093 128.817  1.00  0.00    -0.002 C 
ATOM     11  C   UNL     1     119.717 117.947 130.215  1.00  0.00     0.005 C 
ATOM     12  C   UNL     1     117.922 119.092 129.022  1.00  0.00    -0.024 C 
ATOM     13  C   UNL     1     119.527 119.271 130.925  1.00  0.00     0.008 C 
ATOM     14  C   UNL     1     118.474 120.104 130.135  1.00  0.00    -0.024 C 
ATOM     15  C   UNL     1     117.557 119.806 127.676  1.00  0.00     0.008 C 
ATOM     16  C   UNL     1     116.664 118.317 129.514  1.00  0.00     0.012 C 
ATOM     17  C   UNL     1     117.390 120.596 131.145  1.00  0.00     0.012 C 
ATOM     18  C   UNL     1     119.183 121.360 129.473  1.00  0.00     0.002 C 
ATOM     19  C   UNL     1     117.108 121.250 127.845  1.00  0.00     0.008 C 
ATOM     20  C   UNL     1     118.256 122.087 128.441  1.00  0.00    -0.020 C 
ATOM     21  C   UNL     1     119.847 122.328 130.504  1.00  0.00     0.005 C 
ATOM     22  C   UNL     1     118.173 123.640 128.383  1.00  0.00    -0.020 C 
ATOM     23  C   UNL     1     119.034 122.873 127.372  1.00  0.00     0.015 C 
ATOM     24  C   UNL     1     119.059 123.616 130.747  1.00  0.00     0.005 C 
ATOM     25  C   UNL     1     118.979 124.435 129.452  1.00  0.00     0.004 C 
ATOM     26  C   UNL     1     116.859 124.244 127.822  1.00  0.00     0.010 C 
ATOM     27  C   UNL     1     118.465 125.907 129.660  1.00  0.00    -0.006 C 
ATOM     28  C   UNL     1     116.867 125.776 127.648  1.00  0.00     0.033 C 
ATOM     29  C   UNL     1     118.071 126.502 128.274  1.00  0.00     0.120 C 
ATOM     30  C   UNL     1     119.595 126.785 130.259  1.00  0.00     0.014 C 
ATOM     31  C   UNL     1     117.259 125.986 130.634  1.00  0.00     0.014 C 
BRANCH  29  32
ATOM     32  O   UNL     1     119.155 126.424 127.377  1.00  0.00    -0.393 OA
ATOM     33  H   UNL     1     119.495 127.347 127.240  1.00  0.00     0.210 HD
ENDBRANCH  29  32
ENDBRANCH   8  10
ENDBRANCH   1   8
TORSDOF 6
ENDMDL
MODEL 5
REMARK VINA RESULT:    -7.076      4.335      6.990
REMARK INTER + INTRA:         -10.422
REMARK INTER:                  -8.129
REMARK INTRA:                  -2.293
REMARK UNBOUND:                -1.071
REMARK SMILES C=C(CC[C@@H](C)[C@@H]1CC[C@@]2(C)[C@@H]3CC[C@@H]4C(C)(C)[C@@H](O)CC[C@@]45C[C@@]35CC[C@@]12C)C(C)C
REMARK SMILES IDX 4 1 3 2 2 3 1 4 30 5 31 6 32 7 5 8 6 9 7 10 8 11 28 12 9 13
REMARK SMILES IDX 10 14 27 15 29 16 11 17 12 18 26 19 25 20 13 21 23 22 24 23
REMARK SMILES IDX 14 24 15 25 22 26 16 27 21 28 19 29 17 30 18 31 20 32
REMARK H PARENT 20 33
REMARK Flexibility Score: inf
ROOT
ATOM      1  C   UNL     1     115.108 123.607 127.624  1.00  0.00     0.008 C 
ENDROOT
BRANCH   1   2
ATOM      2  C   UNL     1     116.403 123.357 126.821  1.00  0.00     0.031 C 
BRANCH   2   3
ATOM      3  C   UNL     1     117.558 124.252 127.236  1.00  0.00    -0.075 C 
ATOM      4  C   UNL     1     117.353 125.575 127.381  1.00  0.00     0.008 C 
BRANCH   3   5
ATOM      5  C   UNL     1     118.910 123.635 127.571  1.00  0.00     0.008 C 
ATOM      6  C   UNL     1     120.034 124.280 126.753  1.00  0.00     0.012 C 
ATOM      7  C   UNL     1     118.899 122.112 127.380  1.00  0.00     0.012 C 
ENDBRANCH   3   5
ENDBRANCH   2   3
ENDBRANCH   1   2
BRANCH   1   8
ATOM      8  C   UNL     1     114.500 122.372 128.346  1.00  0.00    -0.010 C 
ATOM      9  C   UNL     1     113.729 121.500 127.328  1.00  0.00     0.008 C 
BRANCH   8  10
ATOM     10  C   UNL     1     115.602 121.508 129.076  1.00  0.00    -0.002 C 
ATOM     11  C   UNL     1     115.206 120.034 129.124  1.00  0.00     0.005 C 
ATOM     12  C   UNL     1     115.997 121.840 130.562  1.00  0.00    -0.024 C 
ATOM     13  C   UNL     1     116.063 119.374 130.184  1.00  0.00     0.008 C 
ATOM     14  C   UNL     1     116.698 120.490 131.066  1.00  0.00    -0.024 C 
ATOM     15  C   UNL     1     116.952 123.081 130.620  1.00  0.00     0.008 C 
ATOM     16  C   UNL     1     114.720 122.175 131.389  1.00  0.00     0.012 C 
ATOM     17  C   UNL     1     116.417 120.144 132.562  1.00  0.00     0.012 C 
ATOM     18  C   UNL     1     118.266 120.527 130.822  1.00  0.00     0.002 C 
ATOM     19  C   UNL     1     118.007 122.998 131.713  1.00  0.00     0.008 C 
ATOM     20  C   UNL     1     118.934 121.795 131.454  1.00  0.00    -0.020 C 
ATOM     21  C   UNL     1     118.995 119.193 131.183  1.00  0.00     0.005 C 
ATOM     22  C   UNL     1     120.286 121.700 132.218  1.00  0.00    -0.020 C 
ATOM     23  C   UNL     1     120.250 122.197 130.768  1.00  0.00     0.015 C 
ATOM     24  C   UNL     1     119.772 119.244 132.499  1.00  0.00     0.005 C 
ATOM     25  C   UNL     1     120.899 120.281 132.404  1.00  0.00     0.004 C 
ATOM     26  C   UNL     1     120.553 122.786 133.293  1.00  0.00     0.010 C 
ATOM     27  C   UNL     1     121.943 120.196 133.577  1.00  0.00    -0.006 C 
ATOM     28  C   UNL     1     121.959 122.744 133.927  1.00  0.00     0.033 C 
ATOM     29  C   UNL     1     122.796 121.500 133.585  1.00  0.00     0.120 C 
ATOM     30  C   UNL     1     122.898 118.994 133.353  1.00  0.00     0.014 C 
ATOM     31  C   UNL     1     121.270 119.994 134.961  1.00  0.00     0.014 C 
BRANCH  29  32
ATOM     32  O   UNL     1     123.403 121.701 132.329  1.00  0.00    -0.393 OA
ATOM     33  H   UNL     1     123.040 122.545 131.954  1.00  0.00     0.210 HD
ENDBRANCH  29  32
ENDBRANCH   8  10
ENDBRANCH   1   8
TORSDOF 6
ENDMDL
MODEL 6
REMARK VINA RESULT:    -7.023      1.566      2.627
REMARK INTER + INTRA:         -10.352
REMARK INTER:                  -9.381
REMARK INTRA:                  -0.970
REMARK UNBOUND:                -1.071
REMARK SMILES C=C(CC[C@@H](C)[C@@H]1CC[C@@]2(C)[C@@H]3CC[C@@H]4C(C)(C)[C@@H](O)CC[C@@]45C[C@@]35CC[C@@]12C)C(C)C
REMARK SMILES IDX 4 1 3 2 2 3 1 4 30 5 31 6 32 7 5 8 6 9 7 10 8 11 28 12 9 13
REMARK SMILES IDX 10 14 27 15 29 16 11 17 12 18 26 19 25 20 13 21 23 22 24 23
REMARK SMILES IDX 14 24 15 25 22 26 16 27 21 28 19 29 17 30 18 31 20 32
REMARK H PARENT 20 33
REMARK Flexibility Score: inf
ROOT
ATOM      1  C   UNL     1     118.332 127.583 129.310  1.00  0.00     0.008 C 
ENDROOT
BRANCH   1   2
ATOM      2  C   UNL     1     119.695 128.156 128.867  1.00  0.00     0.031 C 
BRANCH   2   3
ATOM      3  C   UNL     1     119.938 129.579 129.340  1.00  0.00    -0.075 C 
ATOM      4  C   UNL     1     119.709 129.899 130.627  1.00  0.00     0.008 C 
BRANCH   3   5
ATOM      5  C   UNL     1     120.525 130.605 128.379  1.00  0.00     0.008 C 
ATOM      6  C   UNL     1     121.977 130.937 128.737  1.00  0.00     0.012 C 
ATOM      7  C   UNL     1     119.670 131.880 128.323  1.00  0.00     0.012 C 
ENDBRANCH   3   5
ENDBRANCH   2   3
ENDBRANCH   1   2
BRANCH   1   8
ATOM      8  C   UNL     1     118.372 126.514 130.438  1.00  0.00    -0.010 C 
ATOM      9  C   UNL     1     117.282 126.826 131.491  1.00  0.00     0.008 C 
BRANCH   8  10
ATOM     10  C   UNL     1     118.181 125.050 129.878  1.00  0.00    -0.002 C 
ATOM     11  C   UNL     1     117.103 124.297 130.655  1.00  0.00     0.005 C 
ATOM     12  C   UNL     1     119.399 124.055 129.863  1.00  0.00    -0.024 C 
ATOM     13  C   UNL     1     117.287 122.823 130.361  1.00  0.00     0.008 C 
ATOM     14  C   UNL     1     118.699 122.619 129.735  1.00  0.00    -0.024 C 
ATOM     15  C   UNL     1     120.362 124.373 128.668  1.00  0.00     0.008 C 
ATOM     16  C   UNL     1     120.212 124.190 131.185  1.00  0.00     0.012 C 
ATOM     17  C   UNL     1     119.421 121.483 130.526  1.00  0.00     0.012 C 
ATOM     18  C   UNL     1     118.546 122.185 128.216  1.00  0.00     0.002 C 
ATOM     19  C   UNL     1     121.000 123.140 128.044  1.00  0.00     0.008 C 
ATOM     20  C   UNL     1     119.909 122.233 127.446  1.00  0.00    -0.020 C 
ATOM     21  C   UNL     1     117.764 120.847 128.017  1.00  0.00     0.005 C 
ATOM     22  C   UNL     1     120.318 121.103 126.457  1.00  0.00    -0.020 C 
ATOM     23  C   UNL     1     119.744 122.423 125.929  1.00  0.00     0.015 C 
ATOM     24  C   UNL     1     118.653 119.649 127.678  1.00  0.00     0.005 C 
ATOM     25  C   UNL     1     119.359 119.883 126.335  1.00  0.00     0.004 C 
ATOM     26  C   UNL     1     121.839 120.895 126.232  1.00  0.00     0.010 C 
ATOM     27  C   UNL     1     120.048 118.598 125.746  1.00  0.00    -0.006 C 
ATOM     28  C   UNL     1     122.202 119.866 125.143  1.00  0.00     0.033 C 
ATOM     29  C   UNL     1     121.027 119.028 124.612  1.00  0.00     0.120 C 
ATOM     30  C   UNL     1     118.979 117.656 125.131  1.00  0.00     0.014 C 
ATOM     31  C   UNL     1     120.811 117.782 126.825  1.00  0.00     0.014 C 
BRANCH  29  32
ATOM     32  O   UNL     1     120.348 119.779 123.633  1.00  0.00    -0.393 OA
ATOM     33  H   UNL     1     119.757 120.422 124.106  1.00  0.00     0.210 HD
ENDBRANCH  29  32
ENDBRANCH   8  10
ENDBRANCH   1   8
TORSDOF 6
ENDMDL
MODEL 7
REMARK VINA RESULT:    -7.004      5.625      7.584
REMARK INTER + INTRA:         -10.326
REMARK INTER:                  -8.204
REMARK INTRA:                  -2.123
REMARK UNBOUND:                -1.071
REMARK SMILES C=C(CC[C@@H](C)[C@@H]1CC[C@@]2(C)[C@@H]3CC[C@@H]4C(C)(C)[C@@H](O)CC[C@@]45C[C@@]35CC[C@@]12C)C(C)C
REMARK SMILES IDX 4 1 3 2 2 3 1 4 30 5 31 6 32 7 5 8 6 9 7 10 8 11 28 12 9 13
REMARK SMILES IDX 10 14 27 15 29 16 11 17 12 18 26 19 25 20 13 21 23 22 24 23
REMARK SMILES IDX 14 24 15 25 22 26 16 27 21 28 19 29 17 30 18 31 20 32
REMARK H PARENT 20 33
REMARK Flexibility Score: inf
ROOT
ATOM      1  C   UNL     1     115.764 121.031 133.215  1.00  0.00     0.008 C 
ENDROOT
BRANCH   1   2
ATOM      2  C   UNL     1     115.362 120.121 132.035  1.00  0.00     0.031 C 
BRANCH   2   3
ATOM      3  C   UNL     1     115.137 120.874 130.735  1.00  0.00    -0.075 C 
ATOM      4  C   UNL     1     114.665 122.135 130.773  1.00  0.00     0.008 C 
BRANCH   3   5
ATOM      5  C   UNL     1     115.533 120.233 129.411  1.00  0.00     0.008 C 
ATOM      6  C   UNL     1     114.612 120.690 128.275  1.00  0.00     0.012 C 
ATOM      7  C   UNL     1     115.559 118.701 129.511  1.00  0.00     0.012 C 
ENDBRANCH   3   5
ENDBRANCH   2   3
ENDBRANCH   1   2
BRANCH   1   8
ATOM      8  C   UNL     1     117.289 121.235 133.435  1.00  0.00    -0.010 C 
ATOM      9  C   UNL     1     117.656 120.891 134.899  1.00  0.00     0.008 C 
BRANCH   8  10
ATOM     10  C   UNL     1     118.155 120.367 132.441  1.00  0.00    -0.002 C 
ATOM     11  C   UNL     1     119.010 119.350 133.194  1.00  0.00     0.005 C 
ATOM     12  C   UNL     1     119.175 121.073 131.473  1.00  0.00    -0.024 C 
ATOM     13  C   UNL     1     120.093 118.884 132.245  1.00  0.00     0.008 C 
ATOM     14  C   UNL     1     120.165 119.884 131.052  1.00  0.00    -0.024 C 
ATOM     15  C   UNL     1     118.431 121.709 130.249  1.00  0.00     0.008 C 
ATOM     16  C   UNL     1     119.923 122.211 132.228  1.00  0.00     0.012 C 
ATOM     17  C   UNL     1     121.652 120.324 130.877  1.00  0.00     0.012 C 
ATOM     18  C   UNL     1     119.670 119.163 129.727  1.00  0.00     0.002 C 
ATOM     19  C   UNL     1     119.216 121.643 128.948  1.00  0.00     0.008 C 
ATOM     20  C   UNL     1     119.448 120.173 128.551  1.00  0.00    -0.020 C 
ATOM     21  C   UNL     1     120.526 117.919 129.328  1.00  0.00     0.005 C 
ATOM     22  C   UNL     1     119.911 119.840 127.103  1.00  0.00    -0.020 C 
ATOM     23  C   UNL     1     118.439 119.674 127.503  1.00  0.00     0.015 C 
ATOM     24  C   UNL     1     121.480 118.168 128.158  1.00  0.00     0.005 C 
ATOM     25  C   UNL     1     120.681 118.504 126.892  1.00  0.00     0.004 C 
ATOM     26  C   UNL     1     120.222 121.048 126.180  1.00  0.00     0.010 C 
ATOM     27  C   UNL     1     121.537 118.474 125.573  1.00  0.00    -0.006 C 
ATOM     28  C   UNL     1     120.539 120.684 124.715  1.00  0.00     0.033 C 
ATOM     29  C   UNL     1     120.737 119.184 124.439  1.00  0.00     0.120 C 
ATOM     30  C   UNL     1     121.792 117.006 125.138  1.00  0.00     0.014 C 
ATOM     31  C   UNL     1     122.924 119.148 125.746  1.00  0.00     0.014 C 
BRANCH  29  32
ATOM     32  O   UNL     1     119.470 118.587 124.281  1.00  0.00    -0.393 OA
ATOM     33  H   UNL     1     119.568 117.848 123.626  1.00  0.00     0.210 HD
ENDBRANCH  29  32
ENDBRANCH   8  10
ENDBRANCH   1   8
TORSDOF 6
ENDMDL
MODEL 8
REMARK VINA RESULT:    -6.963      3.213      4.434
REMARK INTER + INTRA:         -10.272
REMARK INTER:                  -7.884
REMARK INTRA:                  -2.388
REMARK UNBOUND:                -1.071
REMARK SMILES C=C(CC[C@@H](C)[C@@H]1CC[C@@]2(C)[C@@H]3CC[C@@H]4C(C)(C)[C@@H](O)CC[C@@]45C[C@@]35CC[C@@]12C)C(C)C
REMARK SMILES IDX 4 1 3 2 2 3 1 4 30 5 31 6 32 7 5 8 6 9 7 10 8 11 28 12 9 13
REMARK SMILES IDX 10 14 27 15 29 16 11 17 12 18 26 19 25 20 13 21 23 22 24 23
REMARK SMILES IDX 14 24 15 25 22 26 16 27 21 28 19 29 17 30 18 31 20 32
REMARK H PARENT 20 33
REMARK Flexibility Score: inf
ROOT
ATOM      1  C   UNL     1     117.347 125.527 130.625  1.00  0.00     0.008 C 
ENDROOT
BRANCH   1   2
ATOM      2  C   UNL     1     118.262 125.990 129.471  1.00  0.00     0.031 C 
BRANCH   2   3
ATOM      3  C   UNL     1     117.596 125.933 128.107  1.00  0.00    -0.075 C 
ATOM      4  C   UNL     1     116.312 126.317 127.979  1.00  0.00     0.008 C 
BRANCH   3   5
ATOM      5  C   UNL     1     118.410 125.530 126.884  1.00  0.00     0.008 C 
ATOM      6  C   UNL     1     117.896 124.218 126.281  1.00  0.00     0.012 C 
ATOM      7  C   UNL     1     119.907 125.432 127.210  1.00  0.00     0.012 C 
ENDBRANCH   3   5
ENDBRANCH   2   3
ENDBRANCH   1   2
BRANCH   1   8
ATOM      8  C   UNL     1     117.427 124.022 131.001  1.00  0.00    -0.010 C 
ATOM      9  C   UNL     1     116.023 123.508 131.401  1.00  0.00     0.008 C 
BRANCH   8  10
ATOM     10  C   UNL     1     118.010 123.144 129.825  1.00  0.00    -0.002 C 
ATOM     11  C   UNL     1     116.912 122.326 129.149  1.00  0.00     0.005 C 
ATOM     12  C   UNL     1     119.137 122.089 130.123  1.00  0.00    -0.024 C 
ATOM     13  C   UNL     1     117.594 121.226 128.362  1.00  0.00     0.008 C 
ATOM     14  C   UNL     1     119.066 121.108 128.857  1.00  0.00    -0.024 C 
ATOM     15  C   UNL     1     120.531 122.791 130.272  1.00  0.00     0.008 C 
ATOM     16  C   UNL     1     118.828 121.342 131.454  1.00  0.00     0.012 C 
ATOM     17  C   UNL     1     119.346 119.610 129.193  1.00  0.00     0.012 C 
ATOM     18  C   UNL     1     120.050 121.580 127.704  1.00  0.00     0.002 C 
ATOM     19  C   UNL     1     121.695 121.974 129.731  1.00  0.00     0.008 C 
ATOM     20  C   UNL     1     121.520 121.755 128.216  1.00  0.00    -0.020 C 
ATOM     21  C   UNL     1     119.942 120.734 126.395  1.00  0.00     0.005 C 
ATOM     22  C   UNL     1     122.732 121.262 127.375  1.00  0.00    -0.020 C 
ATOM     23  C   UNL     1     122.343 122.745 127.375  1.00  0.00     0.015 C 
ATOM     24  C   UNL     1     121.093 119.747 126.194  1.00  0.00     0.005 C 
ATOM     25  C   UNL     1     122.418 120.508 126.050  1.00  0.00     0.004 C 
ATOM     26  C   UNL     1     124.023 120.907 128.159  1.00  0.00     0.010 C 
ATOM     27  C   UNL     1     123.609 119.619 125.534  1.00  0.00    -0.006 C 
ATOM     28  C   UNL     1     125.244 120.559 127.284  1.00  0.00     0.033 C 
ATOM     29  C   UNL     1     124.947 120.378 125.785  1.00  0.00     0.120 C 
ATOM     30  C   UNL     1     123.470 119.377 124.008  1.00  0.00     0.014 C 
ATOM     31  C   UNL     1     123.654 118.226 126.217  1.00  0.00     0.014 C 
BRANCH  29  32
ATOM     32  O   UNL     1     124.914 121.650 125.180  1.00  0.00    -0.393 OA
ATOM     33  H   UNL     1     125.474 121.606 124.361  1.00  0.00     0.210 HD
ENDBRANCH  29  32
ENDBRANCH   8  10
ENDBRANCH   1   8
TORSDOF 6
ENDMDL
MODEL 9
REMARK VINA RESULT:    -6.892      3.610      6.486
REMARK INTER + INTRA:         -10.179
REMARK INTER:                  -8.835
REMARK INTRA:                  -1.344
REMARK UNBOUND:                -1.071
REMARK SMILES C=C(CC[C@@H](C)[C@@H]1CC[C@@]2(C)[C@@H]3CC[C@@H]4C(C)(C)[C@@H](O)CC[C@@]45C[C@@]35CC[C@@]12C)C(C)C
REMARK SMILES IDX 4 1 3 2 2 3 1 4 30 5 31 6 32 7 5 8 6 9 7 10 8 11 28 12 9 13
REMARK SMILES IDX 10 14 27 15 29 16 11 17 12 18 26 19 25 20 13 21 23 22 24 23
REMARK SMILES IDX 14 24 15 25 22 26 16 27 21 28 19 29 17 30 18 31 20 32
REMARK H PARENT 20 33
REMARK Flexibility Score: inf
ROOT
ATOM      1  C   UNL     1     116.568 123.652 131.744  1.00  0.00     0.008 C 
ENDROOT
BRANCH   1   2
ATOM      2  C   UNL     1     115.394 122.681 131.493  1.00  0.00     0.031 C 
BRANCH   2   3
ATOM      3  C   UNL     1     115.587 121.315 132.128  1.00  0.00    -0.075 C 
ATOM      4  C   UNL     1     115.183 120.214 131.468  1.00  0.00     0.008 C 
BRANCH   3   5
ATOM      5  C   UNL     1     116.318 121.197 133.460  1.00  0.00     0.008 C 
ATOM      6  C   UNL     1     117.622 120.406 133.310  1.00  0.00     0.012 C 
ATOM      7  C   UNL     1     115.422 120.577 134.541  1.00  0.00     0.012 C 
ENDBRANCH   3   5
ENDBRANCH   2   3
ENDBRANCH   1   2
BRANCH   1   8
ATOM      8  C   UNL     1     116.989 124.543 130.543  1.00  0.00    -0.010 C 
ATOM      9  C   UNL     1     117.419 125.939 131.054  1.00  0.00     0.008 C 
BRANCH   8  10
ATOM     10  C   UNL     1     118.154 123.892 129.698  1.00  0.00    -0.002 C 
ATOM     11  C   UNL     1     119.179 124.941 129.270  1.00  0.00     0.005 C 
ATOM     12  C   UNL     1     117.819 123.127 128.366  1.00  0.00    -0.024 C 
ATOM     13  C   UNL     1     119.987 124.340 128.139  1.00  0.00     0.008 C 
ATOM     14  C   UNL     1     119.224 123.095 127.597  1.00  0.00    -0.024 C 
ATOM     15  C   UNL     1     117.259 121.695 128.672  1.00  0.00     0.008 C 
ATOM     16  C   UNL     1     116.735 123.906 127.564  1.00  0.00     0.012 C 
ATOM     17  C   UNL     1     119.108 123.236 126.046  1.00  0.00     0.012 C 
ATOM     18  C   UNL     1     120.044 121.781 127.944  1.00  0.00     0.002 C 
ATOM     19  C   UNL     1     117.681 120.638 127.663  1.00  0.00     0.008 C 
ATOM     20  C   UNL     1     119.213 120.479 127.682  1.00  0.00    -0.020 C 
ATOM     21  C   UNL     1     121.475 121.744 127.319  1.00  0.00     0.005 C 
ATOM     22  C   UNL     1     119.856 119.233 127.007  1.00  0.00    -0.020 C 
ATOM     23  C   UNL     1     119.675 119.282 128.529  1.00  0.00     0.015 C 
ATOM     24  C   UNL     1     121.602 120.819 126.107  1.00  0.00     0.005 C 
ATOM     25  C   UNL     1     121.330 119.367 126.524  1.00  0.00     0.004 C 
ATOM     26  C   UNL     1     118.894 118.282 126.248  1.00  0.00     0.010 C 
ATOM     27  C   UNL     1     121.734 118.307 125.435  1.00  0.00    -0.006 C 
ATOM     28  C   UNL     1     119.543 116.988 125.714  1.00  0.00     0.033 C 
ATOM     29  C   UNL     1     121.078 116.940 125.798  1.00  0.00     0.120 C 
ATOM     30  C   UNL     1     123.273 118.116 125.424  1.00  0.00     0.014 C 
ATOM     31  C   UNL     1     121.314 118.732 124.002  1.00  0.00     0.014 C 
BRANCH  29  32
ATOM     32  O   UNL     1     121.442 116.549 127.102  1.00  0.00    -0.393 OA
ATOM     33  H   UNL     1     122.190 117.134 127.391  1.00  0.00     0.210 HD
ENDBRANCH  29  32
ENDBRANCH   8  10
ENDBRANCH   1   8
TORSDOF 6
ENDMDL
