MODEL 1
REMARK VINA RESULT:    -0.932      0.000      0.000
REMARK INTER + INTRA:          -1.418
REMARK INTER:                  -1.150
REMARK INTRA:                  -0.268
REMARK UNBOUND:                -0.268
REMARK SMILES O=c1c(O)c(-c2cc(O)c(O)c(O)c2)oc2cc(O)cc(O)c12
REMARK SMILES IDX 5 1 3 2 2 3 1 4 23 5 21 6 20 7 18 8 17 9 16 10 15 11 6 12
REMARK SMILES IDX 7 13 8 14 14 15 10 16 12 17 9 18 11 20 13 22 4 24 22 26
REMARK SMILES IDX 19 28
REMARK H PARENT 9 19 11 21 13 23 4 25 22 27 19 29
REMARK Flexibility Score: inf
ROOT
ATOM      1  C   UNL     1      -5.230 -11.923  33.604  1.00  0.00     0.180 A 
ATOM      2  C   UNL     1      -5.183 -13.303  33.341  1.00  0.00     0.208 A 
ATOM      3  C   UNL     1      -4.506 -13.755  32.197  1.00  0.00     0.238 A 
ATOM      4  O   UNL     1      -4.421 -14.994  31.996  1.00  0.00    -0.285 OA
ATOM      5  C   UNL     1      -3.898 -12.822  31.322  1.00  0.00     0.111 A 
ATOM      6  C   UNL     1      -3.221 -13.165  30.114  1.00  0.00     0.134 A 
ATOM      7  C   UNL     1      -2.545 -12.172  29.395  1.00  0.00     0.093 A 
ATOM      8  C   UNL     1      -2.576 -10.840  29.804  1.00  0.00     0.123 A 
ATOM      9  C   UNL     1      -3.286 -10.483  30.952  1.00  0.00     0.094 A 
ATOM     10  C   UNL     1      -3.939 -11.457  31.710  1.00  0.00     0.146 A 
ATOM     11  O   UNL     1      -4.594 -11.077  32.801  1.00  0.00    -0.452 OA
ENDROOT
BRANCH   1  12
ATOM     12  C   UNL     1      -5.945 -11.369  34.777  1.00  0.00     0.029 A 
ATOM     13  C   UNL     1      -7.347 -11.391  34.805  1.00  0.00     0.062 A 
ATOM     14  C   UNL     1      -8.048 -10.892  35.912  1.00  0.00     0.162 A 
ATOM     15  C   UNL     1      -5.246 -10.872  35.891  1.00  0.00     0.062 A 
ATOM     16  C   UNL     1      -7.342 -10.379  37.013  1.00  0.00     0.200 A 
ATOM     17  C   UNL     1      -5.942 -10.374  37.001  1.00  0.00     0.162 A 
BRANCH  14  18
ATOM     18  O   UNL     1      -9.442 -10.908  35.922  1.00  0.00    -0.504 OA
ATOM     19  H   UNL     1      -9.974 -11.353  35.184  1.00  0.00     0.293 HD
ENDBRANCH  14  18
BRANCH  16  20
ATOM     20  O   UNL     1      -8.017  -9.875  38.125  1.00  0.00    -0.502 OA
ATOM     21  H   UNL     1      -8.828 -10.336  38.518  1.00  0.00     0.293 HD
ENDBRANCH  16  20
BRANCH  17  22
ATOM     22  O   UNL     1      -5.246  -9.876  38.102  1.00  0.00    -0.504 OA
ATOM     23  H   UNL     1      -4.480 -10.390  38.521  1.00  0.00     0.293 HD
ENDBRANCH  17  22
ENDBRANCH   1  12
BRANCH   2  24
ATOM     24  O   UNL     1      -5.771 -14.208  34.228  1.00  0.00    -0.502 OA
ATOM     25  H   UNL     1      -6.012 -13.958  35.179  1.00  0.00     0.293 HD
ENDBRANCH   2  24
BRANCH   6  26
ATOM     26  O   UNL     1      -3.206 -14.452  29.567  1.00  0.00    -0.507 OA
ATOM     27  H   UNL     1      -3.233 -15.305  30.104  1.00  0.00     0.293 HD
ENDBRANCH   6  26
BRANCH   8  28
ATOM     28  O   UNL     1      -1.905  -9.875  29.055  1.00  0.00    -0.508 OA
ATOM     29  H   UNL     1      -2.391  -9.079  28.659  1.00  0.00     0.293 HD
ENDBRANCH   8  28
TORSDOF 7
ENDMDL
MODEL 2
REMARK VINA RESULT:    -0.693      0.191      1.759
REMARK INTER + INTRA:          -1.124
REMARK INTER:                  -0.894
REMARK INTRA:                  -0.230
REMARK UNBOUND:                -0.268
REMARK SMILES O=c1c(O)c(-c2cc(O)c(O)c(O)c2)oc2cc(O)cc(O)c12
REMARK SMILES IDX 5 1 3 2 2 3 1 4 23 5 21 6 20 7 18 8 17 9 16 10 15 11 6 12
REMARK SMILES IDX 7 13 8 14 14 15 10 16 12 17 9 18 11 20 13 22 4 24 22 26
REMARK SMILES IDX 19 28
REMARK H PARENT 9 19 11 21 13 23 4 25 22 27 19 29
REMARK Flexibility Score: inf
ROOT
ATOM      1  C   UNL     1      -5.260 -12.029  33.614  1.00  0.00     0.180 A 
ATOM      2  C   UNL     1      -5.284 -13.387  33.250  1.00  0.00     0.208 A 
ATOM      3  C   UNL     1      -4.578 -13.798  32.108  1.00  0.00     0.238 A 
ATOM      4  O   UNL     1      -4.559 -15.022  31.818  1.00  0.00    -0.285 OA
ATOM      5  C   UNL     1      -3.871 -12.845  31.335  1.00  0.00     0.111 A 
ATOM      6  C   UNL     1      -3.154 -13.143  30.137  1.00  0.00     0.134 A 
ATOM      7  C   UNL     1      -2.383 -12.147  29.528  1.00  0.00     0.093 A 
ATOM      8  C   UNL     1      -2.354 -10.848  30.034  1.00  0.00     0.123 A 
ATOM      9  C   UNL     1      -3.098 -10.530  31.172  1.00  0.00     0.094 A 
ATOM     10  C   UNL     1      -3.848 -11.512  31.822  1.00  0.00     0.146 A 
ATOM     11  O   UNL     1      -4.533 -11.170  32.907  1.00  0.00    -0.452 OA
ENDROOT
BRANCH   1  12
ATOM     12  C   UNL     1      -5.999 -11.516  34.790  1.00  0.00     0.029 A 
ATOM     13  C   UNL     1      -5.289 -10.942  35.856  1.00  0.00     0.062 A 
ATOM     14  C   UNL     1      -5.966 -10.430  36.972  1.00  0.00     0.162 A 
ATOM     15  C   UNL     1      -7.404 -11.538  34.837  1.00  0.00     0.062 A 
ATOM     16  C   UNL     1      -7.370 -10.475  37.020  1.00  0.00     0.200 A 
ATOM     17  C   UNL     1      -8.086 -11.025  35.949  1.00  0.00     0.162 A 
BRANCH  14  18
ATOM     18  O   UNL     1      -5.249  -9.875  38.031  1.00  0.00    -0.504 OA
ATOM     19  H   UNL     1      -4.550  -9.156  37.881  1.00  0.00     0.293 HD
ENDBRANCH  14  18
BRANCH  16  20
ATOM     20  O   UNL     1      -8.066  -9.973  38.119  1.00  0.00    -0.502 OA
ATOM     21  H   UNL     1      -8.107 -10.468  39.002  1.00  0.00     0.293 HD
ENDBRANCH  16  20
BRANCH  17  22
ATOM     22  O   UNL     1      -9.479 -11.054  35.995  1.00  0.00    -0.504 OA
ATOM     23  H   UNL     1      -9.976 -11.708  36.589  1.00  0.00     0.293 HD
ENDBRANCH  17  22
ENDBRANCH   1  12
BRANCH   2  24
ATOM     24  O   UNL     1      -5.971 -14.313  34.038  1.00  0.00    -0.502 OA
ATOM     25  H   UNL     1      -5.626 -15.252  34.199  1.00  0.00     0.293 HD
ENDBRANCH   2  24
BRANCH   6  26
ATOM     26  O   UNL     1      -3.190 -14.385  29.497  1.00  0.00    -0.507 OA
ATOM     27  H   UNL     1      -2.976 -14.536  28.522  1.00  0.00     0.293 HD
ENDBRANCH   6  26
BRANCH   8  28
ATOM     28  O   UNL     1      -1.587  -9.877  29.393  1.00  0.00    -0.508 OA
ATOM     29  H   UNL     1      -1.187  -9.096  29.900  1.00  0.00     0.293 HD
ENDBRANCH   8  28
TORSDOF 7
ENDMDL
MODEL 3
REMARK VINA RESULT:    -0.627      1.915      7.166
REMARK INTER + INTRA:          -1.042
REMARK INTER:                  -1.016
REMARK INTRA:                  -0.026
REMARK UNBOUND:                -0.268
REMARK SMILES O=c1c(O)c(-c2cc(O)c(O)c(O)c2)oc2cc(O)cc(O)c12
REMARK SMILES IDX 5 1 3 2 2 3 1 4 23 5 21 6 20 7 18 8 17 9 16 10 15 11 6 12
REMARK SMILES IDX 7 13 8 14 14 15 10 16 12 17 9 18 11 20 13 22 4 24 22 26
REMARK SMILES IDX 19 28
REMARK H PARENT 9 19 11 21 13 23 4 25 22 27 19 29
REMARK Flexibility Score: inf
ROOT
ATOM      1  C   UNL     1      -4.021 -13.209  32.247  1.00  0.00     0.180 A 
ATOM      2  C   UNL     1      -4.865 -14.332  32.286  1.00  0.00     0.208 A 
ATOM      3  C   UNL     1      -5.891 -14.380  33.243  1.00  0.00     0.238 A 
ATOM      4  O   UNL     1      -6.677 -15.363  33.237  1.00  0.00    -0.285 OA
ATOM      5  C   UNL     1      -6.051 -13.313  34.160  1.00  0.00     0.111 A 
ATOM      6  C   UNL     1      -7.031 -13.274  35.196  1.00  0.00     0.134 A 
ATOM      7  C   UNL     1      -7.182 -12.111  35.960  1.00  0.00     0.093 A 
ATOM      8  C   UNL     1      -6.347 -11.011  35.770  1.00  0.00     0.123 A 
ATOM      9  C   UNL     1      -5.346 -11.059  34.799  1.00  0.00     0.094 A 
ATOM     10  C   UNL     1      -5.195 -12.192  33.997  1.00  0.00     0.146 A 
ATOM     11  O   UNL     1      -4.237 -12.194  33.077  1.00  0.00    -0.452 OA
ENDROOT
BRANCH   1  12
ATOM     12  C   UNL     1      -2.902 -13.097  31.283  1.00  0.00     0.029 A 
ATOM     13  C   UNL     1      -1.606 -12.839  31.756  1.00  0.00     0.062 A 
ATOM     14  C   UNL     1      -0.526 -12.750  30.866  1.00  0.00     0.162 A 
ATOM     15  C   UNL     1      -3.101 -13.300  29.907  1.00  0.00     0.062 A 
ATOM     16  C   UNL     1      -0.736 -12.934  29.489  1.00  0.00     0.200 A 
ATOM     17  C   UNL     1      -2.024 -13.214  29.013  1.00  0.00     0.162 A 
BRANCH  14  18
ATOM     18  O   UNL     1       0.755 -12.480  31.346  1.00  0.00    -0.504 OA
ATOM     19  H   UNL     1       0.918 -11.786  32.067  1.00  0.00     0.293 HD
ENDBRANCH  14  18
BRANCH  16  20
ATOM     20  O   UNL     1       0.321 -12.848  28.584  1.00  0.00    -0.502 OA
ATOM     21  H   UNL     1       0.541 -13.598  27.940  1.00  0.00     0.293 HD
ENDBRANCH  16  20
BRANCH  17  22
ATOM     22  O   UNL     1      -2.226 -13.410  27.648  1.00  0.00    -0.504 OA
ATOM     23  H   UNL     1      -1.728 -12.863  26.954  1.00  0.00     0.293 HD
ENDBRANCH  17  22
ENDBRANCH   1  12
BRANCH   2  24
ATOM     24  O   UNL     1      -4.703 -15.365  31.358  1.00  0.00    -0.502 OA
ATOM     25  H   UNL     1      -3.807 -15.587  30.943  1.00  0.00     0.293 HD
ENDBRANCH   2  24
BRANCH   6  26
ATOM     26  O   UNL     1      -7.855 -14.353  35.531  1.00  0.00    -0.507 OA
ATOM     27  H   UNL     1      -8.622 -14.687  34.967  1.00  0.00     0.293 HD
ENDBRANCH   6  26
BRANCH   8  28
ATOM     28  O   UNL     1      -6.516  -9.875  36.560  1.00  0.00    -0.508 OA
ATOM     29  H   UNL     1      -7.048  -9.076  36.233  1.00  0.00     0.293 HD
ENDBRANCH   8  28
TORSDOF 7
ENDMDL
MODEL 4
REMARK VINA RESULT:    -0.392      2.250      3.804
REMARK INTER + INTRA:          -0.751
REMARK INTER:                  -0.728
REMARK INTRA:                  -0.023
REMARK UNBOUND:                -0.268
REMARK SMILES O=c1c(O)c(-c2cc(O)c(O)c(O)c2)oc2cc(O)cc(O)c12
REMARK SMILES IDX 5 1 3 2 2 3 1 4 23 5 21 6 20 7 18 8 17 9 16 10 15 11 6 12
REMARK SMILES IDX 7 13 8 14 14 15 10 16 12 17 9 18 11 20 13 22 4 24 22 26
REMARK SMILES IDX 19 28
REMARK H PARENT 9 19 11 21 13 23 4 25 22 27 19 29
REMARK Flexibility Score: inf
ROOT
ATOM      1  C   UNL     1      -4.107 -12.946  31.609  1.00  0.00     0.180 A 
ATOM      2  C   UNL     1      -2.720 -12.780  31.452  1.00  0.00     0.208 A 
ATOM      3  C   UNL     1      -2.133 -13.088  30.214  1.00  0.00     0.238 A 
ATOM      4  O   UNL     1      -0.900 -12.886  30.063  1.00  0.00    -0.285 OA
ATOM      5  C   UNL     1      -2.937 -13.574  29.155  1.00  0.00     0.111 A 
ATOM      6  C   UNL     1      -2.443 -13.956  27.871  1.00  0.00     0.134 A 
ATOM      7  C   UNL     1      -3.345 -14.298  26.858  1.00  0.00     0.093 A 
ATOM      8  C   UNL     1      -4.718 -14.335  27.098  1.00  0.00     0.123 A 
ATOM      9  C   UNL     1      -5.209 -14.021  28.366  1.00  0.00     0.094 A 
ATOM     10  C   UNL     1      -4.335 -13.641  29.388  1.00  0.00     0.146 A 
ATOM     11  O   UNL     1      -4.844 -13.340  30.577  1.00  0.00    -0.452 OA
ENDROOT
BRANCH   1  12
ATOM     12  C   UNL     1      -4.793 -12.665  32.891  1.00  0.00     0.029 A 
ATOM     13  C   UNL     1      -4.625 -11.415  33.505  1.00  0.00     0.062 A 
ATOM     14  C   UNL     1      -5.281 -11.116  34.708  1.00  0.00     0.162 A 
ATOM     15  C   UNL     1      -5.658 -13.606  33.478  1.00  0.00     0.062 A 
ATOM     16  C   UNL     1      -6.128 -12.069  35.299  1.00  0.00     0.200 A 
ATOM     17  C   UNL     1      -6.318 -13.311  34.680  1.00  0.00     0.162 A 
BRANCH  14  18
ATOM     18  O   UNL     1      -5.096  -9.875  35.316  1.00  0.00    -0.504 OA
ATOM     19  H   UNL     1      -4.668  -9.100  34.822  1.00  0.00     0.293 HD
ENDBRANCH  14  18
BRANCH  16  20
ATOM     20  O   UNL     1      -6.789 -11.796  36.496  1.00  0.00    -0.502 OA
ATOM     21  H   UNL     1      -6.303 -11.756  37.383  1.00  0.00     0.293 HD
ENDBRANCH  16  20
BRANCH  17  22
ATOM     22  O   UNL     1      -7.169 -14.248  35.262  1.00  0.00    -0.504 OA
ATOM     23  H   UNL     1      -7.783 -14.002  36.030  1.00  0.00     0.293 HD
ENDBRANCH  17  22
ENDBRANCH   1  12
BRANCH   2  24
ATOM     24  O   UNL     1      -1.948 -12.279  32.504  1.00  0.00    -0.502 OA
ATOM     25  H   UNL     1      -1.731 -12.826  33.328  1.00  0.00     0.293 HD
ENDBRANCH   2  24
BRANCH   6  26
ATOM     26  O   UNL     1      -1.084 -14.041  27.553  1.00  0.00    -0.507 OA
ATOM     27  H   UNL     1      -0.366 -14.376  28.178  1.00  0.00     0.293 HD
ENDBRANCH   6  26
BRANCH   8  28
ATOM     28  O   UNL     1      -5.586 -14.695  26.070  1.00  0.00    -0.508 OA
ATOM     29  H   UNL     1      -6.351 -14.094  25.786  1.00  0.00     0.293 HD
ENDBRANCH   8  28
TORSDOF 7
ENDMDL
MODEL 5
REMARK VINA RESULT:    -0.290      2.099      3.176
REMARK INTER + INTRA:          -0.626
REMARK INTER:                  -0.295
REMARK INTRA:                  -0.331
REMARK UNBOUND:                -0.268
REMARK SMILES O=c1c(O)c(-c2cc(O)c(O)c(O)c2)oc2cc(O)cc(O)c12
REMARK SMILES IDX 5 1 3 2 2 3 1 4 23 5 21 6 20 7 18 8 17 9 16 10 15 11 6 12
REMARK SMILES IDX 7 13 8 14 14 15 10 16 12 17 9 18 11 20 13 22 4 24 22 26
REMARK SMILES IDX 19 28
REMARK H PARENT 9 19 11 21 13 23 4 25 22 27 19 29
REMARK Flexibility Score: inf
ROOT
ATOM      1  C   UNL     1      -3.728 -12.578  31.542  1.00  0.00     0.180 A 
ATOM      2  C   UNL     1      -2.498 -13.257  31.559  1.00  0.00     0.208 A 
ATOM      3  C   UNL     1      -1.788 -13.409  30.357  1.00  0.00     0.238 A 
ATOM      4  O   UNL     1      -0.662 -13.971  30.387  1.00  0.00    -0.285 OA
ATOM      5  C   UNL     1      -2.324 -12.895  29.151  1.00  0.00     0.111 A 
ATOM      6  C   UNL     1      -1.711 -13.027  27.869  1.00  0.00     0.134 A 
ATOM      7  C   UNL     1      -2.265 -12.365  26.767  1.00  0.00     0.093 A 
ATOM      8  C   UNL     1      -3.444 -11.631  26.886  1.00  0.00     0.123 A 
ATOM      9  C   UNL     1      -4.085 -11.545  28.123  1.00  0.00     0.094 A 
ATOM     10  C   UNL     1      -3.537 -12.164  29.248  1.00  0.00     0.146 A 
ATOM     11  O   UNL     1      -4.173 -12.048  30.408  1.00  0.00    -0.452 OA
ENDROOT
BRANCH   1  12
ATOM     12  C   UNL     1      -4.545 -12.398  32.764  1.00  0.00     0.029 A 
ATOM     13  C   UNL     1      -5.339 -13.459  33.226  1.00  0.00     0.062 A 
ATOM     14  C   UNL     1      -6.106 -13.323  34.392  1.00  0.00     0.162 A 
ATOM     15  C   UNL     1      -4.499 -11.205  33.506  1.00  0.00     0.062 A 
ATOM     16  C   UNL     1      -6.069 -12.120  35.117  1.00  0.00     0.200 A 
ATOM     17  C   UNL     1      -5.262 -11.065  34.674  1.00  0.00     0.162 A 
BRANCH  14  18
ATOM     18  O   UNL     1      -6.901 -14.379  34.834  1.00  0.00    -0.504 OA
ATOM     19  H   UNL     1      -6.621 -14.967  35.611  1.00  0.00     0.293 HD
ENDBRANCH  14  18
BRANCH  16  20
ATOM     20  O   UNL     1      -6.824 -11.959  36.278  1.00  0.00    -0.502 OA
ATOM     21  H   UNL     1      -7.815 -12.164  36.309  1.00  0.00     0.293 HD
ENDBRANCH  16  20
BRANCH  17  22
ATOM     22  O   UNL     1      -5.218  -9.878  35.404  1.00  0.00    -0.504 OA
ATOM     23  H   UNL     1      -4.691  -9.804  36.266  1.00  0.00     0.293 HD
ENDBRANCH  17  22
ENDBRANCH   1  12
BRANCH   2  24
ATOM     24  O   UNL     1      -1.977 -13.739  32.763  1.00  0.00    -0.502 OA
ATOM     25  H   UNL     1      -1.426 -14.587  32.816  1.00  0.00     0.293 HD
ENDBRANCH   2  24
BRANCH   6  26
ATOM     26  O   UNL     1      -0.580 -13.812  27.623  1.00  0.00    -0.507 OA
ATOM     27  H   UNL     1       0.237 -13.502  27.119  1.00  0.00     0.293 HD
ENDBRANCH   6  26
BRANCH   8  28
ATOM     28  O   UNL     1      -3.976 -10.999  25.764  1.00  0.00    -0.508 OA
ATOM     29  H   UNL     1      -3.675 -11.240  24.827  1.00  0.00     0.293 HD
ENDBRANCH   8  28
TORSDOF 7
ENDMDL
MODEL 6
REMARK VINA RESULT:    -0.191      1.717      3.220
REMARK INTER + INTRA:          -0.504
REMARK INTER:                  -0.202
REMARK INTRA:                  -0.302
REMARK UNBOUND:                -0.268
REMARK SMILES O=c1c(O)c(-c2cc(O)c(O)c(O)c2)oc2cc(O)cc(O)c12
REMARK SMILES IDX 5 1 3 2 2 3 1 4 23 5 21 6 20 7 18 8 17 9 16 10 15 11 6 12
REMARK SMILES IDX 7 13 8 14 14 15 10 16 12 17 9 18 11 20 13 22 4 24 22 26
REMARK SMILES IDX 19 28
REMARK H PARENT 9 19 11 21 13 23 4 25 22 27 19 29
REMARK Flexibility Score: inf
ROOT
ATOM      1  C   UNL     1      -4.563 -11.709  32.779  1.00  0.00     0.180 A 
ATOM      2  C   UNL     1      -4.906 -10.760  31.801  1.00  0.00     0.208 A 
ATOM      3  C   UNL     1      -4.193 -10.743  30.591  1.00  0.00     0.238 A 
ATOM      4  O   UNL     1      -4.540  -9.927  29.698  1.00  0.00    -0.285 OA
ATOM      5  C   UNL     1      -3.138 -11.663  30.381  1.00  0.00     0.111 A 
ATOM      6  C   UNL     1      -2.323 -11.709  29.210  1.00  0.00     0.134 A 
ATOM      7  C   UNL     1      -1.395 -12.745  29.055  1.00  0.00     0.093 A 
ATOM      8  C   UNL     1      -1.205 -13.698  30.055  1.00  0.00     0.123 A 
ATOM      9  C   UNL     1      -1.954 -13.628  31.231  1.00  0.00     0.094 A 
ATOM     10  C   UNL     1      -2.914 -12.627  31.398  1.00  0.00     0.146 A 
ATOM     11  O   UNL     1      -3.613 -12.602  32.527  1.00  0.00    -0.452 OA
ENDROOT
BRANCH   1  12
ATOM     12  C   UNL     1      -5.252 -11.774  34.089  1.00  0.00     0.029 A 
ATOM     13  C   UNL     1      -4.970 -10.807  35.066  1.00  0.00     0.062 A 
ATOM     14  C   UNL     1      -5.624 -10.833  36.306  1.00  0.00     0.162 A 
ATOM     15  C   UNL     1      -6.228 -12.750  34.354  1.00  0.00     0.062 A 
ATOM     16  C   UNL     1      -6.583 -11.825  36.571  1.00  0.00     0.200 A 
ATOM     17  C   UNL     1      -6.886 -12.779  35.592  1.00  0.00     0.162 A 
BRANCH  14  18
ATOM     18  O   UNL     1      -5.326  -9.875  37.275  1.00  0.00    -0.504 OA
ATOM     19  H   UNL     1      -4.527  -9.974  37.891  1.00  0.00     0.293 HD
ENDBRANCH  14  18
BRANCH  16  20
ATOM     20  O   UNL     1      -7.246 -11.873  37.797  1.00  0.00    -0.502 OA
ATOM     21  H   UNL     1      -8.028 -12.494  37.963  1.00  0.00     0.293 HD
ENDBRANCH  16  20
BRANCH  17  22
ATOM     22  O   UNL     1      -7.849 -13.753  35.854  1.00  0.00    -0.504 OA
ATOM     23  H   UNL     1      -8.677 -13.848  35.278  1.00  0.00     0.293 HD
ENDBRANCH  17  22
ENDBRANCH   1  12
BRANCH   2  24
ATOM     24  O   UNL     1      -5.965  -9.875  32.020  1.00  0.00    -0.502 OA
ATOM     25  H   UNL     1      -6.413  -9.367  31.267  1.00  0.00     0.293 HD
ENDBRANCH   2  24
BRANCH   6  26
ATOM     26  O   UNL     1      -2.368 -10.753  28.191  1.00  0.00    -0.507 OA
ATOM     27  H   UNL     1      -3.071 -10.716  27.468  1.00  0.00     0.293 HD
ENDBRANCH   6  26
BRANCH   8  28
ATOM     28  O   UNL     1      -0.261 -14.706  29.874  1.00  0.00    -0.508 OA
ATOM     29  H   UNL     1      -0.281 -15.557  30.424  1.00  0.00     0.293 HD
ENDBRANCH   8  28
TORSDOF 7
ENDMDL
MODEL 7
REMARK VINA RESULT:    -0.183      2.040      2.948
REMARK INTER + INTRA:          -0.494
REMARK INTER:                  -0.692
REMARK INTRA:                   0.198
REMARK UNBOUND:                -0.268
REMARK SMILES O=c1c(O)c(-c2cc(O)c(O)c(O)c2)oc2cc(O)cc(O)c12
REMARK SMILES IDX 5 1 3 2 2 3 1 4 23 5 21 6 20 7 18 8 17 9 16 10 15 11 6 12
REMARK SMILES IDX 7 13 8 14 14 15 10 16 12 17 9 18 11 20 13 22 4 24 22 26
REMARK SMILES IDX 19 28
REMARK H PARENT 9 19 11 21 13 23 4 25 22 27 19 29
REMARK Flexibility Score: inf
ROOT
ATOM      1  C   UNL     1      -4.406 -13.208  32.458  1.00  0.00     0.180 A 
ATOM      2  C   UNL     1      -4.921 -13.871  31.330  1.00  0.00     0.208 A 
ATOM      3  C   UNL     1      -4.076 -14.106  30.234  1.00  0.00     0.238 A 
ATOM      4  O   UNL     1      -4.527 -14.747  29.250  1.00  0.00    -0.285 OA
ATOM      5  C   UNL     1      -2.732 -13.662  30.272  1.00  0.00     0.111 A 
ATOM      6  C   UNL     1      -1.798 -13.811  29.203  1.00  0.00     0.134 A 
ATOM      7  C   UNL     1      -0.460 -13.452  29.400  1.00  0.00     0.093 A 
ATOM      8  C   UNL     1      -0.035 -12.889  30.603  1.00  0.00     0.123 A 
ATOM      9  C   UNL     1      -0.952 -12.684  31.635  1.00  0.00     0.094 A 
ATOM     10  C   UNL     1      -2.286 -13.066  31.480  1.00  0.00     0.146 A 
ATOM     11  O   UNL     1      -3.124 -12.863  32.491  1.00  0.00    -0.452 OA
ENDROOT
BRANCH   1  12
ATOM     12  C   UNL     1      -5.242 -12.903  33.642  1.00  0.00     0.029 A 
ATOM     13  C   UNL     1      -5.054 -11.693  34.327  1.00  0.00     0.062 A 
ATOM     14  C   UNL     1      -5.846 -11.371  35.438  1.00  0.00     0.162 A 
ATOM     15  C   UNL     1      -6.262 -13.776  34.061  1.00  0.00     0.062 A 
ATOM     16  C   UNL     1      -6.850 -12.258  35.863  1.00  0.00     0.200 A 
ATOM     17  C   UNL     1      -7.058 -13.457  35.170  1.00  0.00     0.162 A 
BRANCH  14  18
ATOM     18  O   UNL     1      -5.641 -10.172  36.119  1.00  0.00    -0.504 OA
ATOM     19  H   UNL     1      -6.340  -9.791  36.747  1.00  0.00     0.293 HD
ENDBRANCH  14  18
BRANCH  16  20
ATOM     20  O   UNL     1      -7.650 -11.960  36.966  1.00  0.00    -0.502 OA
ATOM     21  H   UNL     1      -7.838 -11.008  37.254  1.00  0.00     0.293 HD
ENDBRANCH  16  20
BRANCH  17  22
ATOM     22  O   UNL     1      -8.064 -14.328  35.587  1.00  0.00    -0.504 OA
ATOM     23  H   UNL     1      -8.588 -14.888  34.925  1.00  0.00     0.293 HD
ENDBRANCH  17  22
ENDBRANCH   1  12
BRANCH   2  24
ATOM     24  O   UNL     1      -6.244 -14.320  31.322  1.00  0.00    -0.502 OA
ATOM     25  H   UNL     1      -6.967 -13.872  30.771  1.00  0.00     0.293 HD
ENDBRANCH   2  24
BRANCH   6  26
ATOM     26  O   UNL     1      -2.139 -14.277  27.930  1.00  0.00    -0.507 OA
ATOM     27  H   UNL     1      -3.037 -14.144  27.490  1.00  0.00     0.293 HD
ENDBRANCH   6  26
BRANCH   8  28
ATOM     28  O   UNL     1       1.302 -12.529  30.759  1.00  0.00    -0.508 OA
ATOM     29  H   UNL     1       1.992 -12.728  30.043  1.00  0.00     0.293 HD
ENDBRANCH   8  28
TORSDOF 7
ENDMDL
MODEL 8
REMARK VINA RESULT:    -0.029      2.309      4.579
REMARK INTER + INTRA:          -0.304
REMARK INTER:                  -0.669
REMARK INTRA:                   0.365
REMARK UNBOUND:                -0.268
REMARK SMILES O=c1c(O)c(-c2cc(O)c(O)c(O)c2)oc2cc(O)cc(O)c12
REMARK SMILES IDX 5 1 3 2 2 3 1 4 23 5 21 6 20 7 18 8 17 9 16 10 15 11 6 12
REMARK SMILES IDX 7 13 8 14 14 15 10 16 12 17 9 18 11 20 13 22 4 24 22 26
REMARK SMILES IDX 19 28
REMARK H PARENT 9 19 11 21 13 23 4 25 22 27 19 29
REMARK Flexibility Score: inf
ROOT
ATOM      1  C   UNL     1      -4.151 -11.969  30.610  1.00  0.00     0.180 A 
ATOM      2  C   UNL     1      -3.373 -10.901  30.131  1.00  0.00     0.208 A 
ATOM      3  C   UNL     1      -3.036 -10.862  28.769  1.00  0.00     0.238 A 
ATOM      4  O   UNL     1      -2.386  -9.875  28.336  1.00  0.00    -0.285 OA
ATOM      5  C   UNL     1      -3.466 -11.899  27.906  1.00  0.00     0.111 A 
ATOM      6  C   UNL     1      -3.149 -11.982  26.517  1.00  0.00     0.134 A 
ATOM      7  C   UNL     1      -3.737 -12.981  25.733  1.00  0.00     0.093 A 
ATOM      8  C   UNL     1      -4.579 -13.938  26.298  1.00  0.00     0.123 A 
ATOM      9  C   UNL     1      -4.849 -13.903  27.667  1.00  0.00     0.094 A 
ATOM     10  C   UNL     1      -4.305 -12.896  28.468  1.00  0.00     0.146 A 
ATOM     11  O   UNL     1      -4.596 -12.891  29.764  1.00  0.00    -0.452 OA
ENDROOT
BRANCH   1  12
ATOM     12  C   UNL     1      -4.527 -12.092  32.038  1.00  0.00     0.029 A 
ATOM     13  C   UNL     1      -4.597 -10.939  32.835  1.00  0.00     0.062 A 
ATOM     14  C   UNL     1      -4.970 -11.025  34.184  1.00  0.00     0.162 A 
ATOM     15  C   UNL     1      -4.871 -13.334  32.598  1.00  0.00     0.062 A 
ATOM     16  C   UNL     1      -5.293 -12.274  34.742  1.00  0.00     0.200 A 
ATOM     17  C   UNL     1      -5.247 -13.425  33.946  1.00  0.00     0.162 A 
BRANCH  14  18
ATOM     18  O   UNL     1      -5.024  -9.875  34.970  1.00  0.00    -0.504 OA
ATOM     19  H   UNL     1      -5.289  -9.911  35.948  1.00  0.00     0.293 HD
ENDBRANCH  14  18
BRANCH  16  20
ATOM     20  O   UNL     1      -5.665 -12.386  36.081  1.00  0.00    -0.502 OA
ATOM     21  H   UNL     1      -5.136 -12.940  36.743  1.00  0.00     0.293 HD
ENDBRANCH  16  20
BRANCH  17  22
ATOM     22  O   UNL     1      -5.581 -14.660  34.501  1.00  0.00    -0.504 OA
ATOM     23  H   UNL     1      -4.954 -15.453  34.446  1.00  0.00     0.293 HD
ENDBRANCH  17  22
ENDBRANCH   1  12
BRANCH   2  24
ATOM     24  O   UNL     1      -2.977  -9.877  30.995  1.00  0.00    -0.502 OA
ATOM     25  H   UNL     1      -3.047  -9.957  32.002  1.00  0.00     0.293 HD
ENDBRANCH   2  24
BRANCH   6  26
ATOM     26  O   UNL     1      -2.248 -11.130  25.871  1.00  0.00    -0.507 OA
ATOM     27  H   UNL     1      -1.583 -10.534  26.340  1.00  0.00     0.293 HD
ENDBRANCH   6  26
BRANCH   8  28
ATOM     28  O   UNL     1      -5.134 -14.928  25.491  1.00  0.00    -0.508 OA
ATOM     29  H   UNL     1      -4.754 -15.142  24.576  1.00  0.00     0.293 HD
ENDBRANCH   8  28
TORSDOF 7
ENDMDL
MODEL 9
REMARK VINA RESULT:     0.481      5.206      6.628
REMARK INTER + INTRA:           0.326
REMARK INTER:                  -0.186
REMARK INTRA:                   0.512
REMARK UNBOUND:                -0.268
REMARK SMILES O=c1c(O)c(-c2cc(O)c(O)c(O)c2)oc2cc(O)cc(O)c12
REMARK SMILES IDX 5 1 3 2 2 3 1 4 23 5 21 6 20 7 18 8 17 9 16 10 15 11 6 12
REMARK SMILES IDX 7 13 8 14 14 15 10 16 12 17 9 18 11 20 13 22 4 24 22 26
REMARK SMILES IDX 19 28
REMARK H PARENT 9 19 11 21 13 23 4 25 22 27 19 29
REMARK Flexibility Score: inf
ROOT
ATOM      1  C   UNL     1      -4.517 -13.764  29.733  1.00  0.00     0.180 A 
ATOM      2  C   UNL     1      -4.439 -12.592  28.961  1.00  0.00     0.208 A 
ATOM      3  C   UNL     1      -3.365 -11.712  29.166  1.00  0.00     0.238 A 
ATOM      4  O   UNL     1      -3.272 -10.692  28.435  1.00  0.00    -0.285 OA
ATOM      5  C   UNL     1      -2.391 -12.006  30.151  1.00  0.00     0.111 A 
ATOM      6  C   UNL     1      -1.283 -11.166  30.472  1.00  0.00     0.134 A 
ATOM      7  C   UNL     1      -0.311 -11.618  31.372  1.00  0.00     0.093 A 
ATOM      8  C   UNL     1      -0.439 -12.850  32.011  1.00  0.00     0.123 A 
ATOM      9  C   UNL     1      -1.550 -13.654  31.750  1.00  0.00     0.094 A 
ATOM     10  C   UNL     1      -2.518 -13.246  30.830  1.00  0.00     0.146 A 
ATOM     11  O   UNL     1      -3.553 -14.045  30.603  1.00  0.00    -0.452 OA
ENDROOT
BRANCH   1  12
ATOM     12  C   UNL     1      -5.632 -14.728  29.591  1.00  0.00     0.029 A 
ATOM     13  C   UNL     1      -6.581 -14.543  28.574  1.00  0.00     0.062 A 
ATOM     14  C   UNL     1      -7.635 -15.452  28.405  1.00  0.00     0.162 A 
ATOM     15  C   UNL     1      -5.729 -15.861  30.419  1.00  0.00     0.062 A 
ATOM     16  C   UNL     1      -7.736 -16.570  29.249  1.00  0.00     0.200 A 
ATOM     17  C   UNL     1      -6.780 -16.775  30.252  1.00  0.00     0.162 A 
BRANCH  14  18
ATOM     18  O   UNL     1      -8.579 -15.250  27.399  1.00  0.00    -0.504 OA
ATOM     19  H   UNL     1      -8.400 -14.627  26.620  1.00  0.00     0.293 HD
ENDBRANCH  14  18
BRANCH  16  20
ATOM     20  O   UNL     1      -8.775 -17.488  29.102  1.00  0.00    -0.502 OA
ATOM     21  H   UNL     1      -8.895 -18.037  28.259  1.00  0.00     0.293 HD
ENDBRANCH  16  20
BRANCH  17  22
ATOM     22  O   UNL     1      -6.876 -17.893  31.079  1.00  0.00    -0.504 OA
ATOM     23  H   UNL     1      -6.424 -18.768  30.842  1.00  0.00     0.293 HD
ENDBRANCH  17  22
ENDBRANCH   1  12
BRANCH   2  24
ATOM     24  O   UNL     1      -5.399 -12.332  27.979  1.00  0.00    -0.502 OA
ATOM     25  H   UNL     1      -5.409 -11.474  27.443  1.00  0.00     0.293 HD
ENDBRANCH   2  24
BRANCH   6  26
ATOM     26  O   UNL     1      -1.107  -9.877  29.958  1.00  0.00    -0.507 OA
ATOM     27  H   UNL     1      -0.311  -9.286  30.146  1.00  0.00     0.293 HD
ENDBRANCH   6  26
BRANCH   8  28
ATOM     28  O   UNL     1       0.540 -13.262  32.913  1.00  0.00    -0.508 OA
ATOM     29  H   UNL     1       1.526 -13.120  32.727  1.00  0.00     0.293 HD
ENDBRANCH   8  28
TORSDOF 7
ENDMDL
