MODEL 1
REMARK VINA RESULT:    -2.469      0.000      0.000
REMARK INTER + INTRA:          -4.676
REMARK INTER:                  -3.624
REMARK INTRA:                  -1.052
REMARK UNBOUND:                -1.052
REMARK SMILES CCCCCCCCCC=O
REMARK SMILES IDX 6 1 5 2 4 3 3 4 2 5 1 6 7 7 8 8 9 9 10 10 11 11
REMARK H PARENT
REMARK Flexibility Score: inf
ROOT
ATOM      1  C   UNL     1     139.702 147.306 138.420  1.00  0.00     0.000 C 
ENDROOT
BRANCH   1   2
ATOM      2  C   UNL     1     140.176 145.849 138.409  1.00  0.00     0.000 C 
BRANCH   2   3
ATOM      3  C   UNL     1     139.118 144.928 137.788  1.00  0.00    -0.000 C 
BRANCH   3   4
ATOM      4  C   UNL     1     138.393 144.116 138.871  1.00  0.00    -0.000 C 
BRANCH   4   5
ATOM      5  C   UNL     1     136.904 144.477 138.983  1.00  0.00    -0.003 C 
ATOM      6  C   UNL     1     136.492 144.854 140.405  1.00  0.00     0.004 C 
ENDBRANCH   4   5
ENDBRANCH   3   4
ENDBRANCH   2   3
ENDBRANCH   1   2
BRANCH   1   7
ATOM      7  C   UNL     1     139.145 147.694 139.795  1.00  0.00     0.000 C 
BRANCH   7   8
ATOM      8  C   UNL     1     137.735 148.283 139.673  1.00  0.00     0.008 C 
BRANCH   8   9
ATOM      9  C   UNL     1     137.213 148.163 138.237  1.00  0.00     0.072 C 
BRANCH   9  10
ATOM     10  C   UNL     1     135.717 148.086 138.231  1.00  0.00     0.224 C 
ATOM     11  O   UNL     1     135.066 148.731 137.424  1.00  0.00    -0.303 OA
ENDBRANCH   9  10
ENDBRANCH   8   9
ENDBRANCH   7   8
ENDBRANCH   1   7
TORSDOF 8
ENDMDL
MODEL 2
REMARK VINA RESULT:    -2.453     12.567     14.590
REMARK INTER + INTRA:          -4.652
REMARK INTER:                  -3.800
REMARK INTRA:                  -0.853
REMARK UNBOUND:                -1.052
REMARK SMILES CCCCCCCCCC=O
REMARK SMILES IDX 6 1 5 2 4 3 3 4 2 5 1 6 7 7 8 8 9 9 10 10 11 11
REMARK H PARENT
REMARK Flexibility Score: inf
ROOT
ATOM      1  C   UNL     1     145.158 136.129 139.292  1.00  0.00     0.000 C 
ENDROOT
BRANCH   1   2
ATOM      2  C   UNL     1     143.645 135.929 139.427  1.00  0.00     0.000 C 
BRANCH   2   3
ATOM      3  C   UNL     1     142.893 136.624 138.285  1.00  0.00    -0.000 C 
BRANCH   3   4
ATOM      4  C   UNL     1     142.080 135.612 137.465  1.00  0.00    -0.000 C 
BRANCH   4   5
ATOM      5  C   UNL     1     141.772 134.327 138.250  1.00  0.00    -0.003 C 
ATOM      6  C   UNL     1     141.728 133.086 137.360  1.00  0.00     0.004 C 
ENDBRANCH   4   5
ENDBRANCH   3   4
ENDBRANCH   2   3
ENDBRANCH   1   2
BRANCH   1   7
ATOM      7  C   UNL     1     145.906 134.799 139.438  1.00  0.00     0.000 C 
BRANCH   7   8
ATOM      8  C   UNL     1     145.499 133.814 138.336  1.00  0.00     0.008 C 
BRANCH   8   9
ATOM      9  C   UNL     1     145.106 132.457 138.930  1.00  0.00     0.072 C 
BRANCH   9  10
ATOM     10  C   UNL     1     145.882 131.356 138.274  1.00  0.00     0.224 C 
ATOM     11  O   UNL     1     146.414 131.533 137.189  1.00  0.00    -0.303 OA
ENDBRANCH   9  10
ENDBRANCH   8   9
ENDBRANCH   7   8
ENDBRANCH   1   7
TORSDOF 8
ENDMDL
MODEL 3
REMARK VINA RESULT:    -2.445     11.709     13.942
REMARK INTER + INTRA:          -4.640
REMARK INTER:                  -3.984
REMARK INTRA:                  -0.656
REMARK UNBOUND:                -1.052
REMARK SMILES CCCCCCCCCC=O
REMARK SMILES IDX 6 1 5 2 4 3 3 4 2 5 1 6 7 7 8 8 9 9 10 10 11 11
REMARK H PARENT
REMARK Flexibility Score: inf
ROOT
ATOM      1  C   UNL     1     141.882 135.182 138.059  1.00  0.00     0.000 C 
ENDROOT
BRANCH   1   2
ATOM      2  C   UNL     1     142.048 136.432 137.190  1.00  0.00     0.000 C 
BRANCH   2   3
ATOM      3  C   UNL     1     142.715 137.567 137.978  1.00  0.00    -0.000 C 
BRANCH   3   4
ATOM      4  C   UNL     1     143.280 137.054 139.310  1.00  0.00    -0.000 C 
BRANCH   4   5
ATOM      5  C   UNL     1     144.810 137.173 139.387  1.00  0.00    -0.003 C 
ATOM      6  C   UNL     1     145.513 135.817 139.330  1.00  0.00     0.004 C 
ENDBRANCH   4   5
ENDBRANCH   3   4
ENDBRANCH   2   3
ENDBRANCH   1   2
BRANCH   1   7
ATOM      7  C   UNL     1     141.432 133.981 137.218  1.00  0.00     0.000 C 
BRANCH   7   8
ATOM      8  C   UNL     1     142.156 132.702 137.651  1.00  0.00     0.008 C 
BRANCH   8   9
ATOM      9  C   UNL     1     143.458 133.031 138.389  1.00  0.00     0.072 C 
BRANCH   9  10
ATOM     10  C   UNL     1     144.465 131.942 138.182  1.00  0.00     0.224 C 
ATOM     11  O   UNL     1     144.165 130.928 137.572  1.00  0.00    -0.303 OA
ENDBRANCH   9  10
ENDBRANCH   8   9
ENDBRANCH   7   8
ENDBRANCH   1   7
TORSDOF 8
ENDMDL
MODEL 4
REMARK VINA RESULT:    -2.419      8.532     10.627
REMARK INTER + INTRA:          -4.602
REMARK INTER:                  -3.885
REMARK INTRA:                  -0.717
REMARK UNBOUND:                -1.052
REMARK SMILES CCCCCCCCCC=O
REMARK SMILES IDX 6 1 5 2 4 3 3 4 2 5 1 6 7 7 8 8 9 9 10 10 11 11
REMARK H PARENT
REMARK Flexibility Score: inf
ROOT
ATOM      1  C   UNL     1     146.424 141.635 138.022  1.00  0.00     0.000 C 
ENDROOT
BRANCH   1   2
ATOM      2  C   UNL     1     145.224 142.001 137.143  1.00  0.00     0.000 C 
BRANCH   2   3
ATOM      3  C   UNL     1     144.143 142.722 137.958  1.00  0.00    -0.000 C 
BRANCH   3   4
ATOM      4  C   UNL     1     144.703 143.218 139.298  1.00  0.00    -0.000 C 
BRANCH   4   5
ATOM      5  C   UNL     1     144.552 144.737 139.476  1.00  0.00    -0.003 C 
ATOM      6  C   UNL     1     145.834 145.502 139.148  1.00  0.00     0.004 C 
ENDBRANCH   4   5
ENDBRANCH   3   4
ENDBRANCH   2   3
ENDBRANCH   1   2
BRANCH   1   7
ATOM      7  C   UNL     1     147.641 141.260 137.167  1.00  0.00     0.000 C 
BRANCH   7   8
ATOM      8  C   UNL     1     148.909 141.952 137.679  1.00  0.00     0.008 C 
BRANCH   8   9
ATOM      9  C   UNL     1     148.560 143.130 138.595  1.00  0.00     0.072 C 
BRANCH   9  10
ATOM     10  C   UNL     1     149.437 144.306 138.290  1.00  0.00     0.224 C 
ATOM     11  O   UNL     1     150.456 144.165 137.633  1.00  0.00    -0.303 OA
ENDBRANCH   9  10
ENDBRANCH   8   9
ENDBRANCH   7   8
ENDBRANCH   1   7
TORSDOF 8
ENDMDL
MODEL 5
REMARK VINA RESULT:    -2.416      8.790     10.615
REMARK INTER + INTRA:          -4.598
REMARK INTER:                  -3.775
REMARK INTRA:                  -0.823
REMARK UNBOUND:                -1.052
REMARK SMILES CCCCCCCCCC=O
REMARK SMILES IDX 6 1 5 2 4 3 3 4 2 5 1 6 7 7 8 8 9 9 10 10 11 11
REMARK H PARENT
REMARK Flexibility Score: inf
ROOT
ATOM      1  C   UNL     1     148.808 141.787 137.893  1.00  0.00     0.000 C 
ENDROOT
BRANCH   1   2
ATOM      2  C   UNL     1     147.474 141.645 137.153  1.00  0.00     0.000 C 
BRANCH   2   3
ATOM      3  C   UNL     1     146.321 141.400 138.134  1.00  0.00    -0.000 C 
BRANCH   3   4
ATOM      4  C   UNL     1     145.263 142.507 138.026  1.00  0.00    -0.000 C 
BRANCH   4   5
ATOM      5  C   UNL     1     145.162 143.355 139.303  1.00  0.00    -0.003 C 
ATOM      6  C   UNL     1     144.460 144.693 139.072  1.00  0.00     0.004 C 
ENDBRANCH   4   5
ENDBRANCH   3   4
ENDBRANCH   2   3
ENDBRANCH   1   2
BRANCH   1   7
ATOM      7  C   UNL     1     149.401 143.188 137.697  1.00  0.00     0.000 C 
BRANCH   7   8
ATOM      8  C   UNL     1     148.844 144.172 138.732  1.00  0.00     0.008 C 
BRANCH   8   9
ATOM      9  C   UNL     1     148.063 145.301 138.051  1.00  0.00     0.072 C 
BRANCH   9  10
ATOM     10  C   UNL     1     148.984 146.424 137.684  1.00  0.00     0.224 C 
ATOM     11  O   UNL     1     149.975 146.659 138.357  1.00  0.00    -0.303 OA
ENDBRANCH   9  10
ENDBRANCH   8   9
ENDBRANCH   7   8
ENDBRANCH   1   7
TORSDOF 8
ENDMDL
MODEL 6
REMARK VINA RESULT:    -2.406      1.631      3.365
REMARK INTER + INTRA:          -4.584
REMARK INTER:                  -3.473
REMARK INTRA:                  -1.111
REMARK UNBOUND:                -1.052
REMARK SMILES CCCCCCCCCC=O
REMARK SMILES IDX 6 1 5 2 4 3 3 4 2 5 1 6 7 7 8 8 9 9 10 10 11 11
REMARK H PARENT
REMARK Flexibility Score: inf
ROOT
ATOM      1  C   UNL     1     138.274 144.649 138.350  1.00  0.00     0.000 C 
ENDROOT
BRANCH   1   2
ATOM      2  C   UNL     1     137.240 144.018 139.289  1.00  0.00     0.000 C 
BRANCH   2   3
ATOM      3  C   UNL     1     136.439 145.095 140.032  1.00  0.00    -0.000 C 
BRANCH   3   4
ATOM      4  C   UNL     1     136.078 146.257 139.095  1.00  0.00    -0.000 C 
BRANCH   4   5
ATOM      5  C   UNL     1     136.323 147.631 139.737  1.00  0.00    -0.003 C 
ATOM      6  C   UNL     1     137.573 147.659 140.616  1.00  0.00     0.004 C 
ENDBRANCH   4   5
ENDBRANCH   3   4
ENDBRANCH   2   3
ENDBRANCH   1   2
BRANCH   1   7
ATOM      7  C   UNL     1     139.601 144.897 139.078  1.00  0.00     0.000 C 
BRANCH   7   8
ATOM      8  C   UNL     1     140.296 146.154 138.544  1.00  0.00     0.008 C 
BRANCH   8   9
ATOM      9  C   UNL     1     139.447 146.835 137.465  1.00  0.00     0.072 C 
BRANCH   9  10
ATOM     10  C   UNL     1     139.781 148.293 137.381  1.00  0.00     0.224 C 
ATOM     11  O   UNL     1     138.918 149.138 137.560  1.00  0.00    -0.303 OA
ENDBRANCH   9  10
ENDBRANCH   8   9
ENDBRANCH   7   8
ENDBRANCH   1   7
TORSDOF 8
ENDMDL
MODEL 7
REMARK VINA RESULT:    -2.401      8.817     10.644
REMARK INTER + INTRA:          -4.575
REMARK INTER:                  -3.548
REMARK INTRA:                  -1.027
REMARK UNBOUND:                -1.052
REMARK SMILES CCCCCCCCCC=O
REMARK SMILES IDX 6 1 5 2 4 3 3 4 2 5 1 6 7 7 8 8 9 9 10 10 11 11
REMARK H PARENT
REMARK Flexibility Score: inf
ROOT
ATOM      1  C   UNL     1     145.519 145.142 139.085  1.00  0.00     0.000 C 
ENDROOT
BRANCH   1   2
ATOM      2  C   UNL     1     145.352 143.675 139.493  1.00  0.00     0.000 C 
BRANCH   2   3
ATOM      3  C   UNL     1     145.096 142.787 138.268  1.00  0.00    -0.000 C 
BRANCH   3   4
ATOM      4  C   UNL     1     146.213 141.748 138.099  1.00  0.00    -0.000 C 
BRANCH   4   5
ATOM      5  C   UNL     1     147.306 142.208 137.122  1.00  0.00    -0.003 C 
ATOM      6  C   UNL     1     148.677 141.619 137.447  1.00  0.00     0.004 C 
ENDBRANCH   4   5
ENDBRANCH   3   4
ENDBRANCH   2   3
ENDBRANCH   1   2
BRANCH   1   7
ATOM      7  C   UNL     1     146.987 145.575 139.169  1.00  0.00     0.000 C 
BRANCH   7   8
ATOM      8  C   UNL     1     147.784 144.647 140.093  1.00  0.00     0.008 C 
BRANCH   8   9
ATOM      9  C   UNL     1     149.253 144.573 139.663  1.00  0.00     0.072 C 
BRANCH   9  10
ATOM     10  C   UNL     1     149.449 145.270 138.352  1.00  0.00     0.224 C 
ATOM     11  O   UNL     1     150.224 144.822 137.522  1.00  0.00    -0.303 OA
ENDBRANCH   9  10
ENDBRANCH   8   9
ENDBRANCH   7   8
ENDBRANCH   1   7
TORSDOF 8
ENDMDL
MODEL 8
REMARK VINA RESULT:    -2.362      7.501      8.974
REMARK INTER + INTRA:          -4.519
REMARK INTER:                  -3.589
REMARK INTRA:                  -0.930
REMARK UNBOUND:                -1.052
REMARK SMILES CCCCCCCCCC=O
REMARK SMILES IDX 6 1 5 2 4 3 3 4 2 5 1 6 7 7 8 8 9 9 10 10 11 11
REMARK H PARENT
REMARK Flexibility Score: inf
ROOT
ATOM      1  C   UNL     1     136.055 140.182 138.503  1.00  0.00     0.000 C 
ENDROOT
BRANCH   1   2
ATOM      2  C   UNL     1     137.202 139.416 139.170  1.00  0.00     0.000 C 
BRANCH   2   3
ATOM      3  C   UNL     1     137.603 138.190 138.341  1.00  0.00    -0.000 C 
BRANCH   3   4
ATOM      4  C   UNL     1     137.431 136.898 139.153  1.00  0.00    -0.000 C 
BRANCH   4   5
ATOM      5  C   UNL     1     135.980 136.394 139.162  1.00  0.00    -0.003 C 
ATOM      6  C   UNL     1     135.396 136.294 140.570  1.00  0.00     0.004 C 
ENDBRANCH   4   5
ENDBRANCH   3   4
ENDBRANCH   2   3
ENDBRANCH   1   2
BRANCH   1   7
ATOM      7  C   UNL     1     135.679 139.550 137.157  1.00  0.00     0.000 C 
BRANCH   7   8
ATOM      8  C   UNL     1     134.159 139.539 136.958  1.00  0.00     0.008 C 
BRANCH   8   9
ATOM      9  C   UNL     1     133.436 139.217 138.269  1.00  0.00     0.072 C 
BRANCH   9  10
ATOM     10  C   UNL     1     132.519 138.047 138.086  1.00  0.00     0.224 C 
ATOM     11  O   UNL     1     132.360 137.236 138.984  1.00  0.00    -0.303 OA
ENDBRANCH   9  10
ENDBRANCH   8   9
ENDBRANCH   7   8
ENDBRANCH   1   7
TORSDOF 8
ENDMDL
MODEL 9
REMARK VINA RESULT:    -2.361      8.289     10.144
REMARK INTER + INTRA:          -4.517
REMARK INTER:                  -3.661
REMARK INTRA:                  -0.856
REMARK UNBOUND:                -1.052
REMARK SMILES CCCCCCCCCC=O
REMARK SMILES IDX 6 1 5 2 4 3 3 4 2 5 1 6 7 7 8 8 9 9 10 10 11 11
REMARK H PARENT
REMARK Flexibility Score: inf
ROOT
ATOM      1  C   UNL     1     137.078 136.863 139.517  1.00  0.00     0.000 C 
ENDROOT
BRANCH   1   2
ATOM      2  C   UNL     1     137.357 137.960 138.483  1.00  0.00     0.000 C 
BRANCH   2   3
ATOM      3  C   UNL     1     136.615 139.254 138.838  1.00  0.00    -0.000 C 
BRANCH   3   4
ATOM      4  C   UNL     1     135.643 139.655 137.719  1.00  0.00    -0.000 C 
BRANCH   4   5
ATOM      5  C   UNL     1     134.212 139.880 138.232  1.00  0.00    -0.003 C 
ATOM      6  C   UNL     1     133.159 139.722 137.137  1.00  0.00     0.004 C 
ENDBRANCH   4   5
ENDBRANCH   3   4
ENDBRANCH   2   3
ENDBRANCH   1   2
BRANCH   1   7
ATOM      7  C   UNL     1     135.830 136.055 139.140  1.00  0.00     0.000 C 
BRANCH   7   8
ATOM      8  C   UNL     1     134.691 136.306 140.135  1.00  0.00     0.008 C 
BRANCH   8   9
ATOM      9  C   UNL     1     133.344 136.412 139.412  1.00  0.00     0.072 C 
BRANCH   9  10
ATOM     10  C   UNL     1     133.473 135.940 137.996  1.00  0.00     0.224 C 
ATOM     11  O   UNL     1     132.745 135.059 137.567  1.00  0.00    -0.303 OA
ENDBRANCH   9  10
ENDBRANCH   8   9
ENDBRANCH   7   8
ENDBRANCH   1   7
TORSDOF 8
ENDMDL
