MODEL 1
REMARK VINA RESULT:    -4.091      0.000      0.000
REMARK INTER + INTRA:          -9.617
REMARK INTER:                  -7.679
REMARK INTRA:                  -1.938
REMARK UNBOUND:                -1.938
REMARK SMILES O=C([O-])CCCCCCCCCCCCCCC(=O)[O-]
REMARK SMILES IDX 10 1 9 2 8 3 7 4 6 5 5 6 4 7 2 8 1 9 3 10 11 11 12 12 13 13
REMARK SMILES IDX 14 14 15 15 16 16 17 17 18 18 19 19 20 20
REMARK H PARENT
REMARK Flexibility Score: inf
ROOT
ATOM      1  C   UNL     1       2.253  -9.226   3.869  1.00  0.00     0.000 C 
ENDROOT
BRANCH   1   2
ATOM      2  C   UNL     1       3.453 -10.027   3.326  1.00  0.00     0.000 C 
BRANCH   2   3
ATOM      3  C   UNL     1       4.779  -9.246   3.248  1.00  0.00     0.000 C 
BRANCH   3   4
ATOM      4  C   UNL     1       5.623  -9.375   4.527  1.00  0.00     0.000 C 
BRANCH   4   5
ATOM      5  C   UNL     1       6.382  -8.082   4.864  1.00  0.00     0.000 C 
BRANCH   5   6
ATOM      6  C   UNL     1       6.314  -7.041   3.731  1.00  0.00     0.006 C 
BRANCH   6   7
ATOM      7  C   UNL     1       6.988  -5.719   4.119  1.00  0.00     0.053 C 
BRANCH   7   8
ATOM      8  C   UNL     1       7.922  -5.238   3.052  1.00  0.00     0.041 C 
ATOM      9  O   UNL     1       8.668  -4.245   3.263  1.00  0.00    -0.550 OA
ATOM     10  O   UNL     1       7.945  -5.863   1.812  1.00  0.00    -0.550 OA
ENDBRANCH   7   8
ENDBRANCH   6   7
ENDBRANCH   5   6
ENDBRANCH   4   5
ENDBRANCH   3   4
ENDBRANCH   2   3
ENDBRANCH   1   2
BRANCH   1  11
ATOM     11  C   UNL     1       2.605  -7.865   4.504  1.00  0.00     0.000 C 
BRANCH  11  12
ATOM     12  C   UNL     1       2.472  -7.808   6.037  1.00  0.00     0.000 C 
BRANCH  12  13
ATOM     13  C   UNL     1       3.370  -6.737   6.674  1.00  0.00     0.000 C 
BRANCH  13  14
ATOM     14  C   UNL     1       3.557  -5.545   5.725  1.00  0.00     0.000 C 
BRANCH  14  15
ATOM     15  C   UNL     1       2.527  -4.429   5.963  1.00  0.00     0.000 C 
BRANCH  15  16
ATOM     16  C   UNL     1       3.123  -3.023   5.780  1.00  0.00     0.006 C 
BRANCH  16  17
ATOM     17  C   UNL     1       4.655  -3.028   5.864  1.00  0.00     0.053 C 
BRANCH  17  18
ATOM     18  C   UNL     1       5.277  -2.260   4.738  1.00  0.00     0.041 C 
ATOM     19  O   UNL     1       6.529  -2.168   4.649  1.00  0.00    -0.550 OA
ATOM     20  O   UNL     1       4.471  -1.622   3.805  1.00  0.00    -0.550 OA
ENDBRANCH  17  18
ENDBRANCH  16  17
ENDBRANCH  15  16
ENDBRANCH  14  15
ENDBRANCH  13  14
ENDBRANCH  12  13
ENDBRANCH  11  12
ENDBRANCH   1  11
TORSDOF 15
ENDMDL
MODEL 2
REMARK VINA RESULT:    -3.938      0.830      4.423
REMARK INTER + INTRA:          -9.330
REMARK INTER:                  -7.545
REMARK INTRA:                  -1.785
REMARK UNBOUND:                -1.938
REMARK SMILES O=C([O-])CCCCCCCCCCCCCCC(=O)[O-]
REMARK SMILES IDX 10 1 9 2 8 3 7 4 6 5 5 6 4 7 2 8 1 9 3 10 11 11 12 12 13 13
REMARK SMILES IDX 14 14 15 15 16 16 17 17 18 18 19 19 20 20
REMARK H PARENT
REMARK Flexibility Score: inf
ROOT
ATOM      1  C   UNL     1       1.801  -8.269   4.367  1.00  0.00     0.000 C 
ENDROOT
BRANCH   1   2
ATOM      2  C   UNL     1       1.980  -6.927   5.105  1.00  0.00     0.000 C 
BRANCH   2   3
ATOM      3  C   UNL     1       2.818  -6.998   6.396  1.00  0.00     0.000 C 
BRANCH   3   4
ATOM      4  C   UNL     1       3.839  -5.853   6.506  1.00  0.00     0.000 C 
BRANCH   4   5
ATOM      5  C   UNL     1       3.352  -4.563   5.825  1.00  0.00     0.000 C 
BRANCH   5   6
ATOM      6  C   UNL     1       4.127  -3.317   6.290  1.00  0.00     0.006 C 
BRANCH   6   7
ATOM      7  C   UNL     1       5.326  -3.009   5.383  1.00  0.00     0.053 C 
BRANCH   7   8
ATOM      8  C   UNL     1       5.124  -1.746   4.605  1.00  0.00     0.041 C 
ATOM      9  O   UNL     1       6.012  -0.854   4.603  1.00  0.00    -0.550 OA
ATOM     10  O   UNL     1       3.939  -1.538   3.910  1.00  0.00    -0.550 OA
ENDBRANCH   7   8
ENDBRANCH   6   7
ENDBRANCH   5   6
ENDBRANCH   4   5
ENDBRANCH   3   4
ENDBRANCH   2   3
ENDBRANCH   1   2
BRANCH   1  11
ATOM     11  C   UNL     1       2.973  -9.261   4.515  1.00  0.00     0.000 C 
BRANCH  11  12
ATOM     12  C   UNL     1       3.685  -9.627   3.200  1.00  0.00     0.000 C 
BRANCH  12  13
ATOM     13  C   UNL     1       5.176  -9.260   3.207  1.00  0.00     0.000 C 
BRANCH  13  14
ATOM     14  C   UNL     1       5.408  -7.923   3.926  1.00  0.00     0.000 C 
BRANCH  14  15
ATOM     15  C   UNL     1       6.572  -7.983   4.928  1.00  0.00     0.000 C 
BRANCH  15  16
ATOM     16  C   UNL     1       7.286  -6.629   5.087  1.00  0.00     0.006 C 
BRANCH  16  17
ATOM     17  C   UNL     1       6.902  -5.639   3.979  1.00  0.00     0.053 C 
BRANCH  17  18
ATOM     18  C   UNL     1       8.020  -5.436   3.002  1.00  0.00     0.041 C 
ATOM     19  O   UNL     1       9.070  -4.836   3.354  1.00  0.00    -0.550 OA
ATOM     20  O   UNL     1       7.889  -5.885   1.694  1.00  0.00    -0.550 OA
ENDBRANCH  17  18
ENDBRANCH  16  17
ENDBRANCH  15  16
ENDBRANCH  14  15
ENDBRANCH  13  14
ENDBRANCH  12  13
ENDBRANCH  11  12
ENDBRANCH   1  11
TORSDOF 15
ENDMDL
MODEL 3
REMARK VINA RESULT:    -3.934      3.395      5.925
REMARK INTER + INTRA:          -9.321
REMARK INTER:                  -8.274
REMARK INTRA:                  -1.047
REMARK UNBOUND:                -1.938
REMARK SMILES O=C([O-])CCCCCCCCCCCCCCC(=O)[O-]
REMARK SMILES IDX 10 1 9 2 8 3 7 4 6 5 5 6 4 7 2 8 1 9 3 10 11 11 12 12 13 13
REMARK SMILES IDX 14 14 15 15 16 16 17 17 18 18 19 19 20 20
REMARK H PARENT
REMARK Flexibility Score: inf
ROOT
ATOM      1  C   UNL     1       6.466  -6.740   4.266  1.00  0.00     0.000 C 
ENDROOT
BRANCH   1   2
ATOM      2  C   UNL     1       7.158  -6.426   2.925  1.00  0.00     0.000 C 
BRANCH   2   3
ATOM      3  C   UNL     1       8.233  -5.324   2.986  1.00  0.00     0.000 C 
BRANCH   3   4
ATOM      4  C   UNL     1       8.599  -4.928   4.427  1.00  0.00     0.000 C 
BRANCH   4   5
ATOM      5  C   UNL     1       8.363  -3.435   4.704  1.00  0.00     0.000 C 
BRANCH   5   6
ATOM      6  C   UNL     1       7.105  -3.180   5.554  1.00  0.00     0.006 C 
BRANCH   6   7
ATOM      7  C   UNL     1       5.824  -3.194   4.710  1.00  0.00     0.053 C 
BRANCH   7   8
ATOM      8  C   UNL     1       5.249  -1.821   4.550  1.00  0.00     0.041 C 
ATOM      9  O   UNL     1       4.024  -1.672   4.300  1.00  0.00    -0.550 OA
ATOM     10  O   UNL     1       6.072  -0.705   4.642  1.00  0.00    -0.550 OA
ENDBRANCH   7   8
ENDBRANCH   6   7
ENDBRANCH   5   6
ENDBRANCH   4   5
ENDBRANCH   3   4
ENDBRANCH   2   3
ENDBRANCH   1   2
BRANCH   1  11
ATOM     11  C   UNL     1       6.063  -8.215   4.467  1.00  0.00     0.000 C 
BRANCH  11  12
ATOM     12  C   UNL     1       5.284  -8.841   3.297  1.00  0.00     0.000 C 
BRANCH  12  13
ATOM     13  C   UNL     1       3.803  -9.080   3.626  1.00  0.00     0.000 C 
BRANCH  13  14
ATOM     14  C   UNL     1       3.383  -8.280   4.868  1.00  0.00     0.000 C 
BRANCH  14  15
ATOM     15  C   UNL     1       1.988  -7.651   4.725  1.00  0.00     0.000 C 
BRANCH  15  16
ATOM     16  C   UNL     1       0.954  -8.627   4.138  1.00  0.00     0.006 C 
BRANCH  16  17
ATOM     17  C   UNL     1      -0.124  -9.012   5.159  1.00  0.00     0.053 C 
BRANCH  17  18
ATOM     18  C   UNL     1      -1.490  -8.586   4.714  1.00  0.00     0.041 C 
ATOM     19  O   UNL     1      -1.629  -7.888   3.675  1.00  0.00    -0.550 OA
ATOM     20  O   UNL     1      -2.606  -8.936   5.462  1.00  0.00    -0.550 OA
ENDBRANCH  17  18
ENDBRANCH  16  17
ENDBRANCH  15  16
ENDBRANCH  14  15
ENDBRANCH  13  14
ENDBRANCH  12  13
ENDBRANCH  11  12
ENDBRANCH   1  11
TORSDOF 15
ENDMDL
MODEL 4
REMARK VINA RESULT:    -3.850      2.886      5.620
REMARK INTER + INTRA:          -9.165
REMARK INTER:                  -7.475
REMARK INTRA:                  -1.690
REMARK UNBOUND:                -1.938
REMARK SMILES O=C([O-])CCCCCCCCCCCCCCC(=O)[O-]
REMARK SMILES IDX 10 1 9 2 8 3 7 4 6 5 5 6 4 7 2 8 1 9 3 10 11 11 12 12 13 13
REMARK SMILES IDX 14 14 15 15 16 16 17 17 18 18 19 19 20 20
REMARK H PARENT
REMARK Flexibility Score: inf
ROOT
ATOM      1  C   UNL     1       6.126  -6.006   4.777  1.00  0.00     0.000 C 
ENDROOT
BRANCH   1   2
ATOM      2  C   UNL     1       5.808  -6.348   6.246  1.00  0.00     0.000 C 
BRANCH   2   3
ATOM      3  C   UNL     1       4.367  -6.037   6.694  1.00  0.00     0.000 C 
BRANCH   3   4
ATOM      4  C   UNL     1       3.508  -5.445   5.564  1.00  0.00     0.000 C 
BRANCH   4   5
ATOM      5  C   UNL     1       2.639  -4.269   6.040  1.00  0.00     0.000 C 
BRANCH   5   6
ATOM      6  C   UNL     1       3.186  -2.905   5.584  1.00  0.00     0.006 C 
BRANCH   6   7
ATOM      7  C   UNL     1       4.660  -2.715   5.966  1.00  0.00     0.053 C 
BRANCH   7   8
ATOM      8  C   UNL     1       5.490  -2.302   4.789  1.00  0.00     0.041 C 
ATOM      9  O   UNL     1       6.730  -2.522   4.780  1.00  0.00    -0.550 OA
ATOM     10  O   UNL     1       4.901  -1.642   3.718  1.00  0.00    -0.550 OA
ENDBRANCH   7   8
ENDBRANCH   6   7
ENDBRANCH   5   6
ENDBRANCH   4   5
ENDBRANCH   3   4
ENDBRANCH   2   3
ENDBRANCH   1   2
BRANCH   1  11
ATOM     11  C   UNL     1       6.334  -7.220   3.850  1.00  0.00     0.000 C 
BRANCH  11  12
ATOM     12  C   UNL     1       5.552  -8.485   4.249  1.00  0.00     0.000 C 
BRANCH  12  13
ATOM     13  C   UNL     1       5.018  -9.263   3.037  1.00  0.00     0.000 C 
BRANCH  13  14
ATOM     14  C   UNL     1       3.572  -9.723   3.275  1.00  0.00     0.000 C 
BRANCH  14  15
ATOM     15  C   UNL     1       2.873  -8.930   4.391  1.00  0.00     0.000 C 
BRANCH  15  16
ATOM     16  C   UNL     1       1.416  -8.580   4.045  1.00  0.00     0.006 C 
BRANCH  16  17
ATOM     17  C   UNL     1       0.654  -8.014   5.251  1.00  0.00     0.053 C 
BRANCH  17  18
ATOM     18  C   UNL     1      -0.733  -7.586   4.882  1.00  0.00     0.041 C 
ATOM     19  O   UNL     1      -1.393  -6.841   5.654  1.00  0.00    -0.550 OA
ATOM     20  O   UNL     1      -1.307  -8.034   3.700  1.00  0.00    -0.550 OA
ENDBRANCH  17  18
ENDBRANCH  16  17
ENDBRANCH  15  16
ENDBRANCH  14  15
ENDBRANCH  13  14
ENDBRANCH  12  13
ENDBRANCH  11  12
ENDBRANCH   1  11
TORSDOF 15
ENDMDL
MODEL 5
REMARK VINA RESULT:    -3.726      3.559      6.740
REMARK INTER + INTRA:          -8.931
REMARK INTER:                  -7.741
REMARK INTRA:                  -1.190
REMARK UNBOUND:                -1.938
REMARK SMILES O=C([O-])CCCCCCCCCCCCCCC(=O)[O-]
REMARK SMILES IDX 10 1 9 2 8 3 7 4 6 5 5 6 4 7 2 8 1 9 3 10 11 11 12 12 13 13
REMARK SMILES IDX 14 14 15 15 16 16 17 17 18 18 19 19 20 20
REMARK H PARENT
REMARK Flexibility Score: inf
ROOT
ATOM      1  C   UNL     1       0.906  -8.729   5.430  1.00  0.00     0.000 C 
ENDROOT
BRANCH   1   2
ATOM      2  C   UNL     1       1.066  -7.436   6.255  1.00  0.00     0.000 C 
BRANCH   2   3
ATOM      3  C   UNL     1       0.984  -6.129   5.445  1.00  0.00     0.000 C 
BRANCH   3   4
ATOM      4  C   UNL     1       1.265  -4.881   6.298  1.00  0.00     0.000 C 
BRANCH   4   5
ATOM      5  C   UNL     1       0.245  -3.758   6.051  1.00  0.00     0.000 C 
BRANCH   5   6
ATOM      6  C   UNL     1      -0.835  -3.685   7.146  1.00  0.00     0.006 C 
BRANCH   6   7
ATOM      7  C   UNL     1      -2.144  -3.075   6.628  1.00  0.00     0.053 C 
BRANCH   7   8
ATOM      8  C   UNL     1      -3.064  -4.120   6.076  1.00  0.00     0.041 C 
ATOM      9  O   UNL     1      -3.094  -5.271   6.586  1.00  0.00    -0.550 OA
ATOM     10  O   UNL     1      -3.862  -3.835   4.975  1.00  0.00    -0.550 OA
ENDBRANCH   7   8
ENDBRANCH   6   7
ENDBRANCH   5   6
ENDBRANCH   4   5
ENDBRANCH   3   4
ENDBRANCH   2   3
ENDBRANCH   1   2
BRANCH   1  11
ATOM     11  C   UNL     1       1.577  -8.708   4.042  1.00  0.00     0.000 C 
BRANCH  11  12
ATOM     12  C   UNL     1       2.704  -9.739   3.849  1.00  0.00     0.000 C 
BRANCH  12  13
ATOM     13  C   UNL     1       4.065  -9.087   3.559  1.00  0.00     0.000 C 
BRANCH  13  14
ATOM     14  C   UNL     1       4.617  -8.393   4.812  1.00  0.00     0.000 C 
BRANCH  14  15
ATOM     15  C   UNL     1       4.558  -6.860   4.716  1.00  0.00     0.000 C 
BRANCH  15  16
ATOM     16  C   UNL     1       5.925  -6.198   4.964  1.00  0.00     0.006 C 
BRANCH  16  17
ATOM     17  C   UNL     1       6.996  -6.696   3.984  1.00  0.00     0.053 C 
BRANCH  17  18
ATOM     18  C   UNL     1       7.515  -5.589   3.117  1.00  0.00     0.041 C 
ATOM     19  O   UNL     1       7.631  -4.423   3.579  1.00  0.00    -0.550 OA
ATOM     20  O   UNL     1       7.844  -5.841   1.792  1.00  0.00    -0.550 OA
ENDBRANCH  17  18
ENDBRANCH  16  17
ENDBRANCH  15  16
ENDBRANCH  14  15
ENDBRANCH  13  14
ENDBRANCH  12  13
ENDBRANCH  11  12
ENDBRANCH   1  11
TORSDOF 15
ENDMDL
MODEL 6
REMARK VINA RESULT:    -3.686      3.177      5.836
REMARK INTER + INTRA:          -8.857
REMARK INTER:                  -7.418
REMARK INTRA:                  -1.439
REMARK UNBOUND:                -1.938
REMARK SMILES O=C([O-])CCCCCCCCCCCCCCC(=O)[O-]
REMARK SMILES IDX 10 1 9 2 8 3 7 4 6 5 5 6 4 7 2 8 1 9 3 10 11 11 12 12 13 13
REMARK SMILES IDX 14 14 15 15 16 16 17 17 18 18 19 19 20 20
REMARK H PARENT
REMARK Flexibility Score: inf
ROOT
ATOM      1  C   UNL     1       2.145  -4.909   5.861  1.00  0.00     0.000 C 
ENDROOT
BRANCH   1   2
ATOM      2  C   UNL     1       3.388  -5.763   6.180  1.00  0.00     0.000 C 
BRANCH   2   3
ATOM      3  C   UNL     1       3.824  -6.729   5.063  1.00  0.00     0.000 C 
BRANCH   3   4
ATOM      4  C   UNL     1       3.284  -8.155   5.266  1.00  0.00     0.000 C 
BRANCH   4   5
ATOM      5  C   UNL     1       2.781  -8.785   3.957  1.00  0.00     0.000 C 
BRANCH   5   6
ATOM      6  C   UNL     1       1.263  -9.042   3.966  1.00  0.00     0.006 C 
BRANCH   6   7
ATOM      7  C   UNL     1       0.475  -7.832   4.483  1.00  0.00     0.053 C 
BRANCH   7   8
ATOM      8  C   UNL     1      -0.761  -8.247   5.219  1.00  0.00     0.041 C 
ATOM      9  O   UNL     1      -0.707  -8.516   6.448  1.00  0.00    -0.550 OA
ATOM     10  O   UNL     1      -1.967  -8.372   4.541  1.00  0.00    -0.550 OA
ENDBRANCH   7   8
ENDBRANCH   6   7
ENDBRANCH   5   6
ENDBRANCH   4   5
ENDBRANCH   3   4
ENDBRANCH   2   3
ENDBRANCH   1   2
BRANCH   1  11
ATOM     11  C   UNL     1       2.259  -3.418   6.237  1.00  0.00     0.000 C 
BRANCH  11  12
ATOM     12  C   UNL     1       3.695  -2.867   6.285  1.00  0.00     0.000 C 
BRANCH  12  13
ATOM     13  C   UNL     1       4.069  -2.064   5.030  1.00  0.00     0.000 C 
BRANCH  13  14
ATOM     14  C   UNL     1       5.547  -2.271   4.668  1.00  0.00     0.000 C 
BRANCH  14  15
ATOM     15  C   UNL     1       5.914  -3.753   4.494  1.00  0.00     0.000 C 
BRANCH  15  16
ATOM     16  C   UNL     1       7.245  -4.118   5.173  1.00  0.00     0.006 C 
BRANCH  16  17
ATOM     17  C   UNL     1       7.939  -5.303   4.488  1.00  0.00     0.053 C 
BRANCH  17  18
ATOM     18  C   UNL     1       8.455  -4.936   3.130  1.00  0.00     0.041 C 
ATOM     19  O   UNL     1       9.200  -3.932   2.986  1.00  0.00    -0.550 OA
ATOM     20  O   UNL     1       8.089  -5.688   2.021  1.00  0.00    -0.550 OA
ENDBRANCH  17  18
ENDBRANCH  16  17
ENDBRANCH  15  16
ENDBRANCH  14  15
ENDBRANCH  13  14
ENDBRANCH  12  13
ENDBRANCH  11  12
ENDBRANCH   1  11
TORSDOF 15
ENDMDL
MODEL 7
REMARK VINA RESULT:    -3.667      8.041     11.168
REMARK INTER + INTRA:          -8.820
REMARK INTER:                  -7.872
REMARK INTRA:                  -0.948
REMARK UNBOUND:                -1.938
REMARK SMILES O=C([O-])CCCCCCCCCCCCCCC(=O)[O-]
REMARK SMILES IDX 10 1 9 2 8 3 7 4 6 5 5 6 4 7 2 8 1 9 3 10 11 11 12 12 13 13
REMARK SMILES IDX 14 14 15 15 16 16 17 17 18 18 19 19 20 20
REMARK H PARENT
REMARK Flexibility Score: inf
ROOT
ATOM      1  C   UNL     1       3.584   3.190   5.800  1.00  0.00     0.000 C 
ENDROOT
BRANCH   1   2
ATOM      2  C   UNL     1       4.136   3.266   7.238  1.00  0.00     0.000 C 
BRANCH   2   3
ATOM      3  C   UNL     1       4.054   1.953   8.040  1.00  0.00     0.000 C 
BRANCH   3   4
ATOM      4  C   UNL     1       2.823   1.107   7.673  1.00  0.00     0.000 C 
BRANCH   4   5
ATOM      5  C   UNL     1       3.167  -0.379   7.483  1.00  0.00     0.000 C 
BRANCH   5   6
ATOM      6  C   UNL     1       4.498  -0.591   6.738  1.00  0.00     0.006 C 
BRANCH   6   7
ATOM      7  C   UNL     1       4.647  -2.025   6.217  1.00  0.00     0.053 C 
BRANCH   7   8
ATOM      8  C   UNL     1       4.805  -2.062   4.728  1.00  0.00     0.041 C 
ATOM      9  O   UNL     1       5.806  -2.622   4.210  1.00  0.00    -0.550 OA
ATOM     10  O   UNL     1       3.864  -1.445   3.912  1.00  0.00    -0.550 OA
ENDBRANCH   7   8
ENDBRANCH   6   7
ENDBRANCH   5   6
ENDBRANCH   4   5
ENDBRANCH   3   4
ENDBRANCH   2   3
ENDBRANCH   1   2
BRANCH   1  11
ATOM     11  C   UNL     1       3.667   4.503   4.996  1.00  0.00     0.000 C 
BRANCH  11  12
ATOM     12  C   UNL     1       4.490   5.622   5.660  1.00  0.00     0.000 C 
BRANCH  12  13
ATOM     13  C   UNL     1       3.711   6.939   5.790  1.00  0.00     0.000 C 
BRANCH  13  14
ATOM     14  C   UNL     1       2.695   6.863   6.939  1.00  0.00     0.000 C 
BRANCH  14  15
ATOM     15  C   UNL     1       2.361   8.243   7.528  1.00  0.00     0.000 C 
BRANCH  15  16
ATOM     16  C   UNL     1       0.996   8.774   7.055  1.00  0.00     0.006 C 
BRANCH  16  17
ATOM     17  C   UNL     1      -0.138   7.775   7.323  1.00  0.00     0.053 C 
BRANCH  17  18
ATOM     18  C   UNL     1      -1.452   8.273   6.803  1.00  0.00     0.041 C 
ATOM     19  O   UNL     1      -1.771   9.483   6.941  1.00  0.00    -0.550 OA
ATOM     20  O   UNL     1      -2.335   7.394   6.190  1.00  0.00    -0.550 OA
ENDBRANCH  17  18
ENDBRANCH  16  17
ENDBRANCH  15  16
ENDBRANCH  14  15
ENDBRANCH  13  14
ENDBRANCH  12  13
ENDBRANCH  11  12
ENDBRANCH   1  11
TORSDOF 15
ENDMDL
MODEL 8
REMARK VINA RESULT:    -3.646      3.489      6.075
REMARK INTER + INTRA:          -8.780
REMARK INTER:                  -7.009
REMARK INTRA:                  -1.771
REMARK UNBOUND:                -1.938
REMARK SMILES O=C([O-])CCCCCCCCCCCCCCC(=O)[O-]
REMARK SMILES IDX 10 1 9 2 8 3 7 4 6 5 5 6 4 7 2 8 1 9 3 10 11 11 12 12 13 13
REMARK SMILES IDX 14 14 15 15 16 16 17 17 18 18 19 19 20 20
REMARK H PARENT
REMARK Flexibility Score: inf
ROOT
ATOM      1  C   UNL     1       2.037  -8.645   3.996  1.00  0.00     0.000 C 
ENDROOT
BRANCH   1   2
ATOM      2  C   UNL     1       0.553  -8.435   4.359  1.00  0.00     0.000 C 
BRANCH   2   3
ATOM      3  C   UNL     1       0.079  -9.169   5.627  1.00  0.00     0.000 C 
BRANCH   3   4
ATOM      4  C   UNL     1      -0.706  -8.258   6.585  1.00  0.00     0.000 C 
BRANCH   4   5
ATOM      5  C   UNL     1      -1.014  -6.883   5.969  1.00  0.00     0.000 C 
BRANCH   5   6
ATOM      6  C   UNL     1      -1.198  -5.784   7.031  1.00  0.00     0.006 C 
BRANCH   6   7
ATOM      7  C   UNL     1      -2.641  -5.266   7.084  1.00  0.00     0.053 C 
BRANCH   7   8
ATOM      8  C   UNL     1      -2.823  -4.043   6.239  1.00  0.00     0.041 C 
ATOM      9  O   UNL     1      -3.686  -4.028   5.322  1.00  0.00    -0.550 OA
ATOM     10  O   UNL     1      -2.015  -2.930   6.440  1.00  0.00    -0.550 OA
ENDBRANCH   7   8
ENDBRANCH   6   7
ENDBRANCH   5   6
ENDBRANCH   4   5
ENDBRANCH   3   4
ENDBRANCH   2   3
ENDBRANCH   1   2
BRANCH   1  11
ATOM     11  C   UNL     1       3.046  -7.961   4.941  1.00  0.00     0.000 C 
BRANCH  11  12
ATOM     12  C   UNL     1       2.693  -6.515   5.334  1.00  0.00     0.000 C 
BRANCH  12  13
ATOM     13  C   UNL     1       2.674  -6.299   6.854  1.00  0.00     0.000 C 
BRANCH  13  14
ATOM     14  C   UNL     1       2.207  -4.877   7.199  1.00  0.00     0.000 C 
BRANCH  14  15
ATOM     15  C   UNL     1       2.397  -3.891   6.036  1.00  0.00     0.000 C 
BRANCH  15  16
ATOM     16  C   UNL     1       3.504  -2.858   6.308  1.00  0.00     0.006 C 
BRANCH  16  17
ATOM     17  C   UNL     1       4.700  -3.028   5.361  1.00  0.00     0.053 C 
BRANCH  17  18
ATOM     18  C   UNL     1       4.836  -1.867   4.424  1.00  0.00     0.041 C 
ATOM     19  O   UNL     1       5.873  -1.153   4.445  1.00  0.00    -0.550 OA
ATOM     20  O   UNL     1       3.804  -1.556   3.548  1.00  0.00    -0.550 OA
ENDBRANCH  17  18
ENDBRANCH  16  17
ENDBRANCH  15  16
ENDBRANCH  14  15
ENDBRANCH  13  14
ENDBRANCH  12  13
ENDBRANCH  11  12
ENDBRANCH   1  11
TORSDOF 15
ENDMDL
MODEL 9
REMARK VINA RESULT:    -3.617      4.112      5.375
REMARK INTER + INTRA:          -8.726
REMARK INTER:                  -7.507
REMARK INTRA:                  -1.220
REMARK UNBOUND:                -1.938
REMARK SMILES O=C([O-])CCCCCCCCCCCCCCC(=O)[O-]
REMARK SMILES IDX 10 1 9 2 8 3 7 4 6 5 5 6 4 7 2 8 1 9 3 10 11 11 12 12 13 13
REMARK SMILES IDX 14 14 15 15 16 16 17 17 18 18 19 19 20 20
REMARK H PARENT
REMARK Flexibility Score: inf
ROOT
ATOM      1  C   UNL     1       1.376  -8.625   4.763  1.00  0.00     0.000 C 
ENDROOT
BRANCH   1   2
ATOM      2  C   UNL     1       2.714  -8.328   4.058  1.00  0.00     0.000 C 
BRANCH   2   3
ATOM      3  C   UNL     1       3.950  -8.320   4.977  1.00  0.00     0.000 C 
BRANCH   3   4
ATOM      4  C   UNL     1       4.782  -7.033   4.844  1.00  0.00     0.000 C 
BRANCH   4   5
ATOM      5  C   UNL     1       4.268  -5.904   5.753  1.00  0.00     0.000 C 
BRANCH   5   6
ATOM      6  C   UNL     1       5.109  -4.620   5.639  1.00  0.00     0.006 C 
BRANCH   6   7
ATOM      7  C   UNL     1       4.236  -3.361   5.560  1.00  0.00     0.053 C 
BRANCH   7   8
ATOM      8  C   UNL     1       4.835  -2.325   4.660  1.00  0.00     0.041 C 
ATOM      9  O   UNL     1       4.095  -1.494   4.070  1.00  0.00    -0.550 OA
ATOM     10  O   UNL     1       6.207  -2.298   4.444  1.00  0.00    -0.550 OA
ENDBRANCH   7   8
ENDBRANCH   6   7
ENDBRANCH   5   6
ENDBRANCH   4   5
ENDBRANCH   3   4
ENDBRANCH   2   3
ENDBRANCH   1   2
BRANCH   1  11
ATOM     11  C   UNL     1       0.361  -7.464   4.761  1.00  0.00     0.000 C 
BRANCH  11  12
ATOM     12  C   UNL     1       0.469  -6.505   5.961  1.00  0.00     0.000 C 
BRANCH  12  13
ATOM     13  C   UNL     1       0.896  -5.087   5.553  1.00  0.00     0.000 C 
BRANCH  13  14
ATOM     14  C   UNL     1      -0.004  -4.032   6.214  1.00  0.00     0.000 C 
BRANCH  14  15
ATOM     15  C   UNL     1      -1.380  -4.591   6.611  1.00  0.00     0.000 C 
BRANCH  15  16
ATOM     16  C   UNL     1      -2.280  -3.534   7.273  1.00  0.00     0.006 C 
BRANCH  16  17
ATOM     17  C   UNL     1      -2.882  -2.562   6.249  1.00  0.00     0.053 C 
BRANCH  17  18
ATOM     18  C   UNL     1      -4.160  -3.087   5.669  1.00  0.00     0.041 C 
ATOM     19  O   UNL     1      -4.158  -3.668   4.552  1.00  0.00    -0.550 OA
ATOM     20  O   UNL     1      -5.357  -2.908   6.350  1.00  0.00    -0.550 OA
ENDBRANCH  17  18
ENDBRANCH  16  17
ENDBRANCH  15  16
ENDBRANCH  14  15
ENDBRANCH  13  14
ENDBRANCH  12  13
ENDBRANCH  11  12
ENDBRANCH   1  11
TORSDOF 15
ENDMDL
