MODEL 1
REMARK VINA RESULT:    -4.061      0.000      0.000
REMARK INTER + INTRA:          -5.705
REMARK INTER:                  -5.723
REMARK INTRA:                   0.019
REMARK UNBOUND:                 0.019
REMARK SMILES CC1=CCC(=C(C)C)C(=O)CC(C)=CCC1
REMARK SMILES IDX 12 1 14 2 13 3 15 4 16 5 2 6 1 7 3 8 11 10 9 11 10 12 5 13
REMARK SMILES IDX 6 14 7 15 8 16 4 17
REMARK H PARENT
REMARK Flexibility Score: 60.00
ROOT
ATOM      1  C   UNL     1      11.118  22.692  55.148  1.00  0.00    -0.070 C 
ATOM      2  C   UNL     1      10.138  22.155  55.910  1.00  0.00    -0.027 C 
ATOM      3  C   UNL     1      11.050  22.490  53.657  1.00  0.00     0.039 C 
ENDROOT
BRANCH   2   4
ATOM      4  C   UNL     1       9.971  22.382  57.390  1.00  0.00     0.032 C 
BRANCH   4   5
ATOM      5  C   UNL     1      10.900  21.443  58.168  1.00  0.00     0.034 C 
BRANCH   5   6
ATOM      6  C   UNL     1      11.659  22.158  59.268  1.00  0.00    -0.077 C 
ATOM      7  C   UNL     1      10.878  22.790  60.393  1.00  0.00     0.039 C 
ATOM      8  C   UNL     1      13.006  22.325  59.264  1.00  0.00    -0.023 CG0
ATOM      9  G   UNL     1      14.005  21.741  58.281  1.00  0.00     0.000 G0
ENDBRANCH   5   6
ENDBRANCH   4   5
ENDBRANCH   2   4
BRANCH   1  10
ATOM     10  C   UNL     1      12.287  23.469  55.721  1.00  0.00     0.111 C 
BRANCH  10  11
ATOM     11  C   UNL     1      13.518  22.607  55.869  1.00  0.00     0.163 C 
ATOM     12  O   UNL     1      13.784  21.820  54.921  1.00  0.00    -0.294 OA
BRANCH  11  13
ATOM     13  C   UNL     1      14.407  22.623  57.078  1.00  0.00    -0.002 C 
ATOM     14  C   UNL     1      15.609  23.279  57.047  1.00  0.00    -0.069 C 
ATOM     15  C   UNL     1      16.632  23.128  58.150  1.00  0.00     0.039 C 
ATOM     16  C   UNL     1      15.960  24.233  55.928  1.00  0.00     0.039 C 
BRANCH  13  17
ATOM     17  C   UNL     1      14.018  21.745  58.261  1.00  0.00     0.066 CG0
ATOM     18  G   UNL     1      13.033  22.341  59.252  1.00  0.00     0.000 G0
ENDBRANCH  13  17
ENDBRANCH  11  13
ENDBRANCH  10  11
ENDBRANCH   1  10
TORSDOF 0
ENDMDL
MODEL 2
REMARK VINA RESULT:    -4.038      2.634      4.540
REMARK INTER + INTRA:          -5.672
REMARK INTER:                  -5.501
REMARK INTRA:                  -0.171
REMARK UNBOUND:                 0.019
REMARK SMILES CC1=CCC(=C(C)C)C(=O)CC(C)=CCC1
REMARK SMILES IDX 12 1 14 2 13 3 15 4 16 5 2 6 1 7 3 8 11 10 9 11 10 12 5 13
REMARK SMILES IDX 6 14 7 15 8 16 4 17
REMARK H PARENT
REMARK Flexibility Score: 60.00
ROOT
ATOM      1  C   UNL     1      13.174  21.595  59.136  1.00  0.00    -0.070 C 
ATOM      2  C   UNL     1      12.196  22.403  58.664  1.00  0.00    -0.027 C 
ATOM      3  C   UNL     1      13.870  21.994  60.411  1.00  0.00     0.039 C 
ENDROOT
BRANCH   2   4
ATOM      4  C   UNL     1      11.304  22.085  57.492  1.00  0.00     0.032 C 
BRANCH   4   5
ATOM      5  C   UNL     1      11.816  22.803  56.239  1.00  0.00     0.034 C 
BRANCH   5   6
ATOM      6  C   UNL     1      11.716  21.944  54.995  1.00  0.00    -0.077 C 
ATOM      7  C   UNL     1      10.379  21.820  54.308  1.00  0.00     0.039 C 
ATOM      8  C   UNL     1      12.748  21.216  54.500  1.00  0.00    -0.023 CG0
ATOM      9  G   UNL     1      14.190  21.218  54.977  1.00  0.00     0.000 G0
ENDBRANCH   5   6
ENDBRANCH   4   5
ENDBRANCH   2   4
BRANCH   1  10
ATOM     10  C   UNL     1      13.615  20.325  58.437  1.00  0.00     0.111 C 
BRANCH  10  11
ATOM     11  C   UNL     1      14.697  20.589  57.418  1.00  0.00     0.163 C 
ATOM     12  O   UNL     1      15.715  21.219  57.813  1.00  0.00    -0.294 OA
BRANCH  11  13
ATOM     13  C   UNL     1      14.610  20.168  55.980  1.00  0.00    -0.002 C 
ATOM     14  C   UNL     1      15.041  18.927  55.592  1.00  0.00    -0.069 C 
ATOM     15  C   UNL     1      15.187  18.549  54.136  1.00  0.00     0.039 C 
ATOM     16  C   UNL     1      15.346  17.846  56.604  1.00  0.00     0.039 C 
BRANCH  13  17
ATOM     17  C   UNL     1      14.204  21.218  54.953  1.00  0.00     0.066 CG0
ATOM     18  G   UNL     1      12.751  21.206  54.510  1.00  0.00     0.000 G0
ENDBRANCH  13  17
ENDBRANCH  11  13
ENDBRANCH  10  11
ENDBRANCH   1  10
TORSDOF 0
ENDMDL
MODEL 3
REMARK VINA RESULT:    -3.965      1.974      4.253
REMARK INTER + INTRA:          -5.568
REMARK INTER:                  -5.429
REMARK INTRA:                  -0.140
REMARK UNBOUND:                 0.019
REMARK SMILES CC1=CCC(=C(C)C)C(=O)CC(C)=CCC1
REMARK SMILES IDX 12 1 14 2 13 3 15 4 16 5 2 6 1 7 3 8 11 10 9 11 10 12 5 13
REMARK SMILES IDX 6 14 7 15 8 16 4 17
REMARK H PARENT
REMARK Flexibility Score: 60.00
ROOT
ATOM      1  C   UNL     1      16.125  22.359  59.642  1.00  0.00    -0.070 C 
ATOM      2  C   UNL     1      15.056  22.602  60.435  1.00  0.00    -0.027 C 
ATOM      3  C   UNL     1      17.470  22.872  60.086  1.00  0.00     0.039 C 
ENDROOT
BRANCH   2   4
ATOM      4  C   UNL     1      13.675  22.041  60.220  1.00  0.00     0.032 C 
BRANCH   4   5
ATOM      5  C   UNL     1      12.818  23.051  59.449  1.00  0.00     0.034 C 
BRANCH   5   6
ATOM      6  C   UNL     1      11.933  22.390  58.411  1.00  0.00    -0.077 C 
ATOM      7  C   UNL     1      10.714  21.634  58.876  1.00  0.00     0.039 C 
ATOM      8  C   UNL     1      12.215  22.376  57.084  1.00  0.00    -0.023 CG0
ATOM      9  G   UNL     1      13.342  23.104  56.372  1.00  0.00     0.000 G0
ENDBRANCH   5   6
ENDBRANCH   4   5
ENDBRANCH   2   4
BRANCH   1  10
ATOM     10  C   UNL     1      16.033  21.617  58.324  1.00  0.00     0.111 C 
BRANCH  10  11
ATOM     11  C   UNL     1      15.736  22.548  57.172  1.00  0.00     0.163 C 
ATOM     12  O   UNL     1      16.453  23.580  57.071  1.00  0.00    -0.294 OA
BRANCH  11  13
ATOM     13  C   UNL     1      14.636  22.319  56.178  1.00  0.00    -0.002 C 
ATOM     14  C   UNL     1      14.858  21.562  55.058  1.00  0.00    -0.069 C 
ATOM     15  C   UNL     1      13.860  21.499  53.924  1.00  0.00     0.039 C 
ATOM     16  C   UNL     1      16.095  20.705  54.917  1.00  0.00     0.039 C 
BRANCH  13  17
ATOM     17  C   UNL     1      13.339  23.098  56.359  1.00  0.00     0.066 CG0
ATOM     18  G   UNL     1      12.216  22.384  57.091  1.00  0.00     0.000 G0
ENDBRANCH  13  17
ENDBRANCH  11  13
ENDBRANCH  10  11
ENDBRANCH   1  10
TORSDOF 0
ENDMDL
MODEL 4
REMARK VINA RESULT:    -3.957     10.672     12.587
REMARK INTER + INTRA:          -5.558
REMARK INTER:                  -5.706
REMARK INTRA:                   0.148
REMARK UNBOUND:                 0.019
REMARK SMILES CC1=CCC(=C(C)C)C(=O)CC(C)=CCC1
REMARK SMILES IDX 12 1 14 2 13 3 15 4 16 5 2 6 1 7 3 8 11 10 9 11 10 12 5 13
REMARK SMILES IDX 6 14 7 15 8 16 4 17
REMARK H PARENT
REMARK Flexibility Score: 60.00
ROOT
ATOM      1  C   UNL     1       7.048  29.809  53.121  1.00  0.00    -0.070 C 
ATOM      2  C   UNL     1       6.835  28.487  52.927  1.00  0.00    -0.027 C 
ATOM      3  C   UNL     1       8.019  30.513  52.210  1.00  0.00     0.039 C 
ENDROOT
BRANCH   2   4
ATOM      4  C   UNL     1       5.797  27.664  53.645  1.00  0.00     0.032 C 
BRANCH   4   5
ATOM      5  C   UNL     1       4.467  27.729  52.887  1.00  0.00     0.034 C 
BRANCH   5   6
ATOM      6  C   UNL     1       4.649  28.077  51.423  1.00  0.00    -0.077 C 
ATOM      7  C   UNL     1       5.224  27.033  50.498  1.00  0.00     0.039 C 
ATOM      8  C   UNL     1       4.390  29.304  50.905  1.00  0.00    -0.023 CG0
ATOM      9  G   UNL     1       3.759  30.490  51.614  1.00  0.00     0.000 G0
ENDBRANCH   5   6
ENDBRANCH   4   5
ENDBRANCH   2   4
BRANCH   1  10
ATOM     10  C   UNL     1       6.375  30.609  54.219  1.00  0.00     0.111 C 
BRANCH  10  11
ATOM     11  C   UNL     1       5.020  31.121  53.793  1.00  0.00     0.163 C 
ATOM     12  O   UNL     1       4.147  31.252  54.693  1.00  0.00    -0.294 OA
BRANCH  11  13
ATOM     13  C   UNL     1       4.663  31.453  52.373  1.00  0.00    -0.002 C 
ATOM     14  C   UNL     1       5.020  32.659  51.831  1.00  0.00    -0.069 C 
ATOM     15  C   UNL     1       4.485  33.126  50.496  1.00  0.00     0.039 C 
ATOM     16  C   UNL     1       6.012  33.571  52.516  1.00  0.00     0.039 C 
BRANCH  13  17
ATOM     17  C   UNL     1       3.744  30.493  51.627  1.00  0.00     0.066 CG0
ATOM     18  G   UNL     1       4.413  29.331  50.914  1.00  0.00     0.000 G0
ENDBRANCH  13  17
ENDBRANCH  11  13
ENDBRANCH  10  11
ENDBRANCH   1  10
TORSDOF 0
ENDMDL
MODEL 5
REMARK VINA RESULT:    -3.784      1.644      4.774
REMARK INTER + INTRA:          -5.314
REMARK INTER:                  -5.454
REMARK INTRA:                   0.140
REMARK UNBOUND:                 0.019
REMARK SMILES CC1=CCC(=C(C)C)C(=O)CC(C)=CCC1
REMARK SMILES IDX 12 1 14 2 13 3 15 4 16 5 2 6 1 7 3 8 11 10 9 11 10 12 5 13
REMARK SMILES IDX 6 14 7 15 8 16 4 17
REMARK H PARENT
REMARK Flexibility Score: 60.00
ROOT
ATOM      1  C   UNL     1      13.209  22.079  59.566  1.00  0.00    -0.070 C 
ATOM      2  C   UNL     1      14.434  22.403  60.040  1.00  0.00    -0.027 C 
ATOM      3  C   UNL     1      12.040  22.937  59.974  1.00  0.00     0.039 C 
ENDROOT
BRANCH   2   4
ATOM      4  C   UNL     1      15.725  21.748  59.620  1.00  0.00     0.032 C 
BRANCH   4   5
ATOM      5  C   UNL     1      16.503  22.683  58.688  1.00  0.00     0.034 C 
BRANCH   5   6
ATOM      6  C   UNL     1      16.544  22.177  57.260  1.00  0.00    -0.077 C 
ATOM      7  C   UNL     1      17.678  21.273  56.845  1.00  0.00     0.039 C 
ATOM      8  C   UNL     1      15.654  22.550  56.306  1.00  0.00    -0.023 CG0
ATOM      9  G   UNL     1      14.407  23.397  56.488  1.00  0.00     0.000 G0
ENDBRANCH   5   6
ENDBRANCH   4   5
ENDBRANCH   2   4
BRANCH   1  10
ATOM     10  C   UNL     1      12.953  20.888  58.664  1.00  0.00     0.111 C 
BRANCH  10  11
ATOM     11  C   UNL     1      13.166  21.228  57.208  1.00  0.00     0.163 C 
ATOM     12  O   UNL     1      13.437  20.273  56.430  1.00  0.00    -0.294 OA
BRANCH  11  13
ATOM     13  C   UNL     1      13.095  22.622  56.658  1.00  0.00    -0.002 C 
ATOM     14  C   UNL     1      11.913  23.121  56.180  1.00  0.00    -0.069 C 
ATOM     15  C   UNL     1      11.845  24.421  55.411  1.00  0.00     0.039 C 
ATOM     16  C   UNL     1      10.598  22.421  56.439  1.00  0.00     0.039 C 
BRANCH  13  17
ATOM     17  C   UNL     1      14.402  23.387  56.483  1.00  0.00     0.066 CG0
ATOM     18  G   UNL     1      15.657  22.550  56.303  1.00  0.00     0.000 G0
ENDBRANCH  13  17
ENDBRANCH  11  13
ENDBRANCH  10  11
ENDBRANCH   1  10
TORSDOF 0
ENDMDL
MODEL 6
REMARK VINA RESULT:    -3.771      1.359      2.547
REMARK INTER + INTRA:          -5.296
REMARK INTER:                  -5.395
REMARK INTRA:                   0.099
REMARK UNBOUND:                 0.019
REMARK SMILES CC1=CCC(=C(C)C)C(=O)CC(C)=CCC1
REMARK SMILES IDX 12 1 14 2 13 3 15 4 16 5 2 6 1 7 3 8 11 10 9 11 10 12 5 13
REMARK SMILES IDX 6 14 7 15 8 16 4 17
REMARK H PARENT
REMARK Flexibility Score: 60.00
ROOT
ATOM      1  C   UNL     1      10.500  22.386  57.160  1.00  0.00    -0.070 C 
ATOM      2  C   UNL     1      10.875  22.005  58.403  1.00  0.00    -0.027 C 
ATOM      3  C   UNL     1       9.195  21.862  56.620  1.00  0.00     0.039 C 
ENDROOT
BRANCH   2   4
ATOM      4  C   UNL     1      12.067  22.545  59.150  1.00  0.00     0.032 C 
BRANCH   4   5
ATOM      5  C   UNL     1      13.194  21.506  59.151  1.00  0.00     0.034 C 
BRANCH   5   6
ATOM      6  C   UNL     1      14.569  22.142  59.180  1.00  0.00    -0.077 C 
ATOM      7  C   UNL     1      15.163  22.520  60.513  1.00  0.00     0.039 C 
ATOM      8  C   UNL     1      15.274  22.458  58.064  1.00  0.00    -0.023 CG0
ATOM      9  G   UNL     1      14.918  22.131  56.624  1.00  0.00     0.000 G0
ENDBRANCH   5   6
ENDBRANCH   4   5
ENDBRANCH   2   4
BRANCH   1  10
ATOM     10  C   UNL     1      11.335  23.294  56.280  1.00  0.00     0.111 C 
BRANCH  10  11
ATOM     11  C   UNL     1      12.541  22.580  55.717  1.00  0.00     0.163 C 
ATOM     12  O   UNL     1      12.329  21.515  55.076  1.00  0.00    -0.294 OA
BRANCH  11  13
ATOM     13  C   UNL     1      13.952  23.055  55.900  1.00  0.00    -0.002 C 
ATOM     14  C   UNL     1      14.379  24.213  55.307  1.00  0.00    -0.069 C 
ATOM     15  C   UNL     1      15.839  24.605  55.272  1.00  0.00     0.039 C 
ATOM     16  C   UNL     1      13.403  25.192  54.695  1.00  0.00     0.039 C 
BRANCH  13  17
ATOM     17  C   UNL     1      14.931  22.124  56.607  1.00  0.00     0.066 CG0
ATOM     18  G   UNL     1      15.264  22.461  58.050  1.00  0.00     0.000 G0
ENDBRANCH  13  17
ENDBRANCH  11  13
ENDBRANCH  10  11
ENDBRANCH   1  10
TORSDOF 0
ENDMDL
MODEL 7
REMARK VINA RESULT:    -3.716      2.085      3.743
REMARK INTER + INTRA:          -5.218
REMARK INTER:                  -5.090
REMARK INTRA:                  -0.128
REMARK UNBOUND:                 0.019
REMARK SMILES CC1=CCC(=C(C)C)C(=O)CC(C)=CCC1
REMARK SMILES IDX 12 1 14 2 13 3 15 4 16 5 2 6 1 7 3 8 11 10 9 11 10 12 5 13
REMARK SMILES IDX 6 14 7 15 8 16 4 17
REMARK H PARENT
REMARK Flexibility Score: 60.00
ROOT
ATOM      1  C   UNL     1      12.304  22.427  58.503  1.00  0.00    -0.070 C 
ATOM      2  C   UNL     1      12.822  22.247  59.740  1.00  0.00    -0.027 C 
ATOM      3  C   UNL     1      10.881  21.995  58.260  1.00  0.00     0.039 C 
ENDROOT
BRANCH   2   4
ATOM      4  C   UNL     1      14.167  22.750  60.196  1.00  0.00     0.032 C 
BRANCH   4   5
ATOM      5  C   UNL     1      15.240  21.693  59.914  1.00  0.00     0.034 C 
BRANCH   5   6
ATOM      6  C   UNL     1      16.535  22.299  59.410  1.00  0.00    -0.077 C 
ATOM      7  C   UNL     1      17.373  23.111  60.365  1.00  0.00     0.039 C 
ATOM      8  C   UNL     1      16.952  22.214  58.122  1.00  0.00    -0.023 CG0
ATOM      9  G   UNL     1      16.318  21.414  56.997  1.00  0.00     0.000 G0
ENDBRANCH   5   6
ENDBRANCH   4   5
ENDBRANCH   2   4
BRANCH   1  10
ATOM     10  C   UNL     1      13.088  23.020  57.350  1.00  0.00     0.111 C 
BRANCH  10  11
ATOM     11  C   UNL     1      13.831  21.961  56.570  1.00  0.00     0.163 C 
ATOM     12  O   UNL     1      13.200  20.906  56.292  1.00  0.00    -0.294 OA
BRANCH  11  13
ATOM     13  C   UNL     1      15.262  22.094  56.138  1.00  0.00    -0.002 C 
ATOM     14  C   UNL     1      15.575  22.676  54.939  1.00  0.00    -0.069 C 
ATOM     15  C   UNL     1      16.972  22.621  54.363  1.00  0.00     0.039 C 
ATOM     16  C   UNL     1      14.549  23.452  54.146  1.00  0.00     0.039 C 
BRANCH  13  17
ATOM     17  C   UNL     1      16.327  21.403  56.982  1.00  0.00     0.066 CG0
ATOM     18  G   UNL     1      16.938  22.222  58.106  1.00  0.00     0.000 G0
ENDBRANCH  13  17
ENDBRANCH  11  13
ENDBRANCH  10  11
ENDBRANCH   1  10
TORSDOF 0
ENDMDL
MODEL 8
REMARK VINA RESULT:    -3.640      1.923      3.818
REMARK INTER + INTRA:          -5.112
REMARK INTER:                  -5.367
REMARK INTRA:                   0.255
REMARK UNBOUND:                 0.019
REMARK SMILES CC1=CCC(=C(C)C)C(=O)CC(C)=CCC1
REMARK SMILES IDX 12 1 14 2 13 3 15 4 16 5 2 6 1 7 3 8 11 10 9 11 10 12 5 13
REMARK SMILES IDX 6 14 7 15 8 16 4 17
REMARK H PARENT
REMARK Flexibility Score: 60.00
ROOT
ATOM      1  C   UNL     1      11.520  23.005  56.519  1.00  0.00    -0.070 C 
ATOM      2  C   UNL     1      11.663  23.897  55.512  1.00  0.00    -0.027 C 
ATOM      3  C   UNL     1      10.465  21.938  56.378  1.00  0.00     0.039 C 
ENDROOT
BRANCH   2   4
ATOM      4  C   UNL     1      12.756  24.930  55.421  1.00  0.00     0.032 C 
BRANCH   4   5
ATOM      5  C   UNL     1      14.003  24.313  54.780  1.00  0.00     0.034 C 
BRANCH   5   6
ATOM      6  C   UNL     1      15.279  24.700  55.501  1.00  0.00    -0.077 C 
ATOM      7  C   UNL     1      15.817  26.097  55.318  1.00  0.00     0.039 C 
ATOM      8  C   UNL     1      16.010  23.836  56.250  1.00  0.00    -0.023 CG0
ATOM      9  G   UNL     1      15.651  22.409  56.624  1.00  0.00     0.000 G0
ENDBRANCH   5   6
ENDBRANCH   4   5
ENDBRANCH   2   4
BRANCH   1  10
ATOM     10  C   UNL     1      12.352  23.038  57.786  1.00  0.00     0.111 C 
BRANCH  10  11
ATOM     11  C   UNL     1      13.395  21.946  57.803  1.00  0.00     0.163 C 
ATOM     12  O   UNL     1      12.983  20.757  57.733  1.00  0.00    -0.294 OA
BRANCH  11  13
ATOM     13  C   UNL     1      14.869  22.204  57.921  1.00  0.00    -0.002 C 
ATOM     14  C   UNL     1      15.440  22.421  59.146  1.00  0.00    -0.069 C 
ATOM     15  C   UNL     1      16.864  22.911  59.290  1.00  0.00     0.039 C 
ATOM     16  C   UNL     1      14.693  22.134  60.428  1.00  0.00     0.039 C 
BRANCH  13  17
ATOM     17  C   UNL     1      15.664  22.396  56.634  1.00  0.00     0.066 CG0
ATOM     18  G   UNL     1      16.013  23.826  56.261  1.00  0.00     0.000 G0
ENDBRANCH  13  17
ENDBRANCH  11  13
ENDBRANCH  10  11
ENDBRANCH   1  10
TORSDOF 0
ENDMDL
MODEL 9
REMARK VINA RESULT:    -3.634      2.212      4.259
REMARK INTER + INTRA:          -5.103
REMARK INTER:                  -5.409
REMARK INTRA:                   0.306
REMARK UNBOUND:                 0.019
REMARK SMILES CC1=CCC(=C(C)C)C(=O)CC(C)=CCC1
REMARK SMILES IDX 12 1 14 2 13 3 15 4 16 5 2 6 1 7 3 8 11 10 9 11 10 12 5 13
REMARK SMILES IDX 6 14 7 15 8 16 4 17
REMARK H PARENT
REMARK Flexibility Score: 60.00
ROOT
ATOM      1  C   UNL     1      13.040  21.715  58.815  1.00  0.00    -0.070 C 
ATOM      2  C   UNL     1      13.695  20.551  59.032  1.00  0.00    -0.027 C 
ATOM      3  C   UNL     1      13.094  22.771  59.888  1.00  0.00     0.039 C 
ENDROOT
BRANCH   2   4
ATOM      4  C   UNL     1      13.867  19.453  58.014  1.00  0.00     0.032 C 
BRANCH   4   5
ATOM      5  C   UNL     1      15.358  19.225  57.743  1.00  0.00     0.034 C 
BRANCH   5   6
ATOM      6  C   UNL     1      15.744  19.543  56.312  1.00  0.00    -0.077 C 
ATOM      7  C   UNL     1      16.004  18.400  55.363  1.00  0.00     0.039 C 
ATOM      8  C   UNL     1      15.939  20.803  55.849  1.00  0.00    -0.023 CG0
ATOM      9  G   UNL     1      15.688  22.106  56.587  1.00  0.00     0.000 G0
ENDBRANCH   5   6
ENDBRANCH   4   5
ENDBRANCH   2   4
BRANCH   1  10
ATOM     10  C   UNL     1      12.241  22.000  57.558  1.00  0.00     0.111 C 
BRANCH  10  11
ATOM     11  C   UNL     1      13.122  22.070  56.334  1.00  0.00     0.163 C 
ATOM     12  O   UNL     1      12.757  21.407  55.326  1.00  0.00    -0.294 OA
BRANCH  11  13
ATOM     13  C   UNL     1      14.400  22.855  56.270  1.00  0.00    -0.002 C 
ATOM     14  C   UNL     1      14.404  24.136  55.787  1.00  0.00    -0.069 C 
ATOM     15  C   UNL     1      15.689  24.875  55.489  1.00  0.00     0.039 C 
ATOM     16  C   UNL     1      13.120  24.903  55.572  1.00  0.00     0.039 C 
BRANCH  13  17
ATOM     17  C   UNL     1      15.701  22.125  56.583  1.00  0.00     0.066 CG0
ATOM     18  G   UNL     1      15.925  20.804  55.869  1.00  0.00     0.000 G0
ENDBRANCH  13  17
ENDBRANCH  11  13
ENDBRANCH  10  11
ENDBRANCH   1  10
TORSDOF 0
ENDMDL
