MODEL 1
REMARK VINA RESULT:    -6.190      0.000      0.000
REMARK INTER + INTRA:          -7.638
REMARK INTER:                  -7.457
REMARK INTRA:                  -0.181
REMARK UNBOUND:                -0.181
REMARK SMILES O=c1c(O)c(-c2ccc(O)c(O)c2)oc2cc(O)cc(O)c12
REMARK SMILES IDX 5 1 3 2 2 3 1 4 22 5 20 6 19 7 17 8 16 9 15 10 14 11 6 12
REMARK SMILES IDX 7 13 8 14 9 15 13 16 11 17 10 18 12 20 4 22 21 24 18 26
REMARK H PARENT 10 19 12 21 4 23 21 25 18 27
REMARK Flexibility Score: inf
ROOT
ATOM      1  C   UNL     1      -5.847  -6.322 148.717  1.00  0.00     0.180 A 
ATOM      2  C   UNL     1      -6.766  -5.277 148.515  1.00  0.00     0.208 A 
ATOM      3  C   UNL     1      -6.383  -3.963 148.826  1.00  0.00     0.238 A 
ATOM      4  O   UNL     1      -7.229  -3.040 148.693  1.00  0.00    -0.285 OA
ATOM      5  C   UNL     1      -5.082  -3.707 149.322  1.00  0.00     0.111 A 
ATOM      6  C   UNL     1      -4.575  -2.410 149.633  1.00  0.00     0.134 A 
ATOM      7  C   UNL     1      -3.319  -2.287 150.241  1.00  0.00     0.093 A 
ATOM      8  C   UNL     1      -2.526  -3.411 150.488  1.00  0.00     0.123 A 
ATOM      9  C   UNL     1      -2.988  -4.675 150.133  1.00  0.00     0.094 A 
ATOM     10  C   UNL     1      -4.252  -4.833 149.559  1.00  0.00     0.146 A 
ATOM     11  O   UNL     1      -4.658  -6.057 149.246  1.00  0.00    -0.452 OA
ENDROOT
BRANCH   1  12
ATOM     12  C   UNL     1      -6.169  -7.729 148.389  1.00  0.00     0.025 A 
ATOM     13  C   UNL     1      -6.380  -8.095 147.050  1.00  0.00     0.016 A 
ATOM     14  C   UNL     1      -6.705  -9.414 146.720  1.00  0.00     0.051 A 
ATOM     15  C   UNL     1      -6.839 -10.381 147.721  1.00  0.00     0.157 A 
ATOM     16  C   UNL     1      -6.324  -8.698 149.396  1.00  0.00     0.062 A 
ATOM     17  C   UNL     1      -6.653 -10.022 149.067  1.00  0.00     0.158 A 
BRANCH  15  18
ATOM     18  O   UNL     1      -7.162 -11.689 147.362  1.00  0.00    -0.504 OA
ATOM     19  H   UNL     1      -7.098 -12.016 146.406  1.00  0.00     0.293 HD
ENDBRANCH  15  18
BRANCH  17  20
ATOM     20  O   UNL     1      -6.798 -10.978 150.071  1.00  0.00    -0.504 OA
ATOM     21  H   UNL     1      -6.292 -10.910 150.946  1.00  0.00     0.293 HD
ENDBRANCH  17  20
ENDBRANCH   1  12
BRANCH   2  22
ATOM     22  O   UNL     1      -8.052  -5.555 148.044  1.00  0.00    -0.502 OA
ATOM     23  H   UNL     1      -8.326  -6.476 147.721  1.00  0.00     0.293 HD
ENDBRANCH   2  22
BRANCH   6  24
ATOM     24  O   UNL     1      -5.247  -1.218 149.343  1.00  0.00    -0.507 OA
ATOM     25  H   UNL     1      -5.237  -0.396 149.927  1.00  0.00     0.293 HD
ENDBRANCH   6  24
BRANCH   8  26
ATOM     26  O   UNL     1      -1.271  -3.278 151.078  1.00  0.00    -0.508 OA
ATOM     27  H   UNL     1      -0.568  -4.004 150.997  1.00  0.00     0.293 HD
ENDBRANCH   8  26
TORSDOF 6
ENDMDL
MODEL 2
REMARK VINA RESULT:    -6.051      7.959      9.086
REMARK INTER + INTRA:          -7.471
REMARK INTER:                  -7.222
REMARK INTRA:                  -0.248
REMARK UNBOUND:                -0.181
REMARK SMILES O=c1c(O)c(-c2ccc(O)c(O)c2)oc2cc(O)cc(O)c12
REMARK SMILES IDX 5 1 3 2 2 3 1 4 22 5 20 6 19 7 17 8 16 9 15 10 14 11 6 12
REMARK SMILES IDX 7 13 8 14 9 15 13 16 11 17 10 18 12 20 4 22 21 24 18 26
REMARK H PARENT 10 19 12 21 4 23 21 25 18 27
REMARK Flexibility Score: inf
ROOT
ATOM      1  C   UNL     1     -14.276  -6.421 148.192  1.00  0.00     0.180 A 
ATOM      2  C   UNL     1     -13.632  -6.008 147.012  1.00  0.00     0.208 A 
ATOM      3  C   UNL     1     -13.019  -4.746 146.976  1.00  0.00     0.238 A 
ATOM      4  O   UNL     1     -12.492  -4.361 145.900  1.00  0.00    -0.285 OA
ATOM      5  C   UNL     1     -13.044  -3.917 148.125  1.00  0.00     0.111 A 
ATOM      6  C   UNL     1     -12.422  -2.637 148.213  1.00  0.00     0.134 A 
ATOM      7  C   UNL     1     -12.621  -1.848 149.353  1.00  0.00     0.093 A 
ATOM      8  C   UNL     1     -13.367  -2.324 150.435  1.00  0.00     0.123 A 
ATOM      9  C   UNL     1     -13.929  -3.597 150.382  1.00  0.00     0.094 A 
ATOM     10  C   UNL     1     -13.778  -4.392 149.243  1.00  0.00     0.146 A 
ATOM     11  O   UNL     1     -14.339  -5.595 149.230  1.00  0.00    -0.452 OA
ENDROOT
BRANCH   1  12
ATOM     12  C   UNL     1     -14.922  -7.748 148.315  1.00  0.00     0.025 A 
ATOM     13  C   UNL     1     -14.124  -8.899 148.412  1.00  0.00     0.016 A 
ATOM     14  C   UNL     1     -14.714 -10.162 148.508  1.00  0.00     0.051 A 
ATOM     15  C   UNL     1     -16.105 -10.296 148.492  1.00  0.00     0.157 A 
ATOM     16  C   UNL     1     -16.321  -7.886 148.279  1.00  0.00     0.062 A 
ATOM     17  C   UNL     1     -16.915  -9.154 148.373  1.00  0.00     0.158 A 
BRANCH  15  18
ATOM     18  O   UNL     1     -16.665 -11.570 148.591  1.00  0.00    -0.504 OA
ATOM     19  H   UNL     1     -17.352 -11.801 149.298  1.00  0.00     0.293 HD
ENDBRANCH  15  18
BRANCH  17  20
ATOM     20  O   UNL     1     -18.303  -9.282 148.343  1.00  0.00    -0.504 OA
ATOM     21  H   UNL     1     -18.809  -9.743 149.089  1.00  0.00     0.293 HD
ENDBRANCH  17  20
ENDBRANCH   1  12
BRANCH   2  22
ATOM     22  O   UNL     1     -13.639  -6.833 145.884  1.00  0.00    -0.502 OA
ATOM     23  H   UNL     1     -13.305  -7.790 145.908  1.00  0.00     0.293 HD
ENDBRANCH   2  22
BRANCH   6  24
ATOM     24  O   UNL     1     -11.582  -2.107 147.227  1.00  0.00    -0.507 OA
ATOM     25  H   UNL     1     -11.183  -2.637 146.467  1.00  0.00     0.293 HD
ENDBRANCH   6  24
BRANCH   8  26
ATOM     26  O   UNL     1     -13.547  -1.540 151.572  1.00  0.00    -0.508 OA
ATOM     27  H   UNL     1     -13.994  -1.908 152.404  1.00  0.00     0.293 HD
ENDBRANCH   8  26
TORSDOF 6
ENDMDL
MODEL 3
REMARK VINA RESULT:    -6.020     10.690     13.231
REMARK INTER + INTRA:          -7.433
REMARK INTER:                  -7.100
REMARK INTRA:                  -0.333
REMARK UNBOUND:                -0.181
REMARK SMILES O=c1c(O)c(-c2ccc(O)c(O)c2)oc2cc(O)cc(O)c12
REMARK SMILES IDX 5 1 3 2 2 3 1 4 22 5 20 6 19 7 17 8 16 9 15 10 14 11 6 12
REMARK SMILES IDX 7 13 8 14 9 15 13 16 11 17 10 18 12 20 4 22 21 24 18 26
REMARK H PARENT 10 19 12 21 4 23 21 25 18 27
REMARK Flexibility Score: inf
ROOT
ATOM      1  C   UNL     1     -17.772  -7.277 147.492  1.00  0.00     0.180 A 
ATOM      2  C   UNL     1     -18.257  -8.594 147.423  1.00  0.00     0.208 A 
ATOM      3  C   UNL     1     -17.353  -9.661 147.558  1.00  0.00     0.238 A 
ATOM      4  O   UNL     1     -17.786 -10.837 147.441  1.00  0.00    -0.285 OA
ATOM      5  C   UNL     1     -15.979  -9.397 147.776  1.00  0.00     0.111 A 
ATOM      6  C   UNL     1     -14.983 -10.400 147.967  1.00  0.00     0.134 A 
ATOM      7  C   UNL     1     -13.635 -10.028 148.044  1.00  0.00     0.093 A 
ATOM      8  C   UNL     1     -13.255  -8.684 148.002  1.00  0.00     0.123 A 
ATOM      9  C   UNL     1     -14.226  -7.695 147.876  1.00  0.00     0.094 A 
ATOM     10  C   UNL     1     -15.576  -8.037 147.760  1.00  0.00     0.146 A 
ATOM     11  O   UNL     1     -16.469  -7.062 147.631  1.00  0.00    -0.452 OA
ENDROOT
BRANCH   1  12
ATOM     12  C   UNL     1     -18.665  -6.101 147.383  1.00  0.00     0.025 A 
ATOM     13  C   UNL     1     -18.841  -5.480 146.137  1.00  0.00     0.016 A 
ATOM     14  C   UNL     1     -19.663  -4.356 146.015  1.00  0.00     0.051 A 
ATOM     15  C   UNL     1     -20.309  -3.828 147.138  1.00  0.00     0.157 A 
ATOM     16  C   UNL     1     -19.299  -5.556 148.515  1.00  0.00     0.062 A 
ATOM     17  C   UNL     1     -20.123  -4.427 148.395  1.00  0.00     0.158 A 
BRANCH  15  18
ATOM     18  O   UNL     1     -21.125  -2.707 146.986  1.00  0.00    -0.504 OA
ATOM     19  H   UNL     1     -20.770  -1.765 147.092  1.00  0.00     0.293 HD
ENDBRANCH  15  18
BRANCH  17  20
ATOM     20  O   UNL     1     -20.753  -3.897 149.520  1.00  0.00    -0.504 OA
ATOM     21  H   UNL     1     -21.066  -2.934 149.549  1.00  0.00     0.293 HD
ENDBRANCH  17  20
ENDBRANCH   1  12
BRANCH   2  22
ATOM     22  O   UNL     1     -19.613  -8.832 147.185  1.00  0.00    -0.502 OA
ATOM     23  H   UNL     1     -19.969  -9.746 146.932  1.00  0.00     0.293 HD
ENDBRANCH   2  22
BRANCH   6  24
ATOM     24  O   UNL     1     -15.264 -11.762 148.114  1.00  0.00    -0.507 OA
ATOM     25  H   UNL     1     -14.570 -12.494 148.131  1.00  0.00     0.293 HD
ENDBRANCH   6  24
BRANCH   8  26
ATOM     26  O   UNL     1     -11.913  -8.322 148.096  1.00  0.00    -0.508 OA
ATOM     27  H   UNL     1     -11.617  -7.357 148.005  1.00  0.00     0.293 HD
ENDBRANCH   8  26
TORSDOF 6
ENDMDL
MODEL 4
REMARK VINA RESULT:    -5.929     15.012     15.860
REMARK INTER + INTRA:          -7.324
REMARK INTER:                  -7.006
REMARK INTRA:                  -0.318
REMARK UNBOUND:                -0.181
REMARK SMILES O=c1c(O)c(-c2ccc(O)c(O)c2)oc2cc(O)cc(O)c12
REMARK SMILES IDX 5 1 3 2 2 3 1 4 22 5 20 6 19 7 17 8 16 9 15 10 14 11 6 12
REMARK SMILES IDX 7 13 8 14 9 15 13 16 11 17 10 18 12 20 4 22 21 24 18 26
REMARK H PARENT 10 19 12 21 4 23 21 25 18 27
REMARK Flexibility Score: inf
ROOT
ATOM      1  C   UNL     1      -5.542 -11.491 163.379  1.00  0.00     0.180 A 
ATOM      2  C   UNL     1      -6.800 -11.902 162.901  1.00  0.00     0.208 A 
ATOM      3  C   UNL     1      -7.885 -11.016 162.992  1.00  0.00     0.238 A 
ATOM      4  O   UNL     1      -9.019 -11.409 162.612  1.00  0.00    -0.285 OA
ATOM      5  C   UNL     1      -7.698  -9.726 163.546  1.00  0.00     0.111 A 
ATOM      6  C   UNL     1      -8.718  -8.734 163.651  1.00  0.00     0.134 A 
ATOM      7  C   UNL     1      -8.453  -7.541 164.336  1.00  0.00     0.093 A 
ATOM      8  C   UNL     1      -7.185  -7.278 164.861  1.00  0.00     0.123 A 
ATOM      9  C   UNL     1      -6.166  -8.216 164.710  1.00  0.00     0.094 A 
ATOM     10  C   UNL     1      -6.410  -9.431 164.065  1.00  0.00     0.146 A 
ATOM     11  O   UNL     1      -5.414 -10.301 163.953  1.00  0.00    -0.452 OA
ENDROOT
BRANCH   1  12
ATOM     12  C   UNL     1      -4.346 -12.359 163.295  1.00  0.00     0.025 A 
ATOM     13  C   UNL     1      -4.083 -13.276 164.325  1.00  0.00     0.016 A 
ATOM     14  C   UNL     1      -2.948 -14.090 164.275  1.00  0.00     0.051 A 
ATOM     15  C   UNL     1      -2.052 -13.990 163.207  1.00  0.00     0.157 A 
ATOM     16  C   UNL     1      -3.432 -12.245 162.231  1.00  0.00     0.062 A 
ATOM     17  C   UNL     1      -2.291 -13.060 162.181  1.00  0.00     0.158 A 
BRANCH  15  18
ATOM     18  O   UNL     1      -0.929 -14.816 163.184  1.00  0.00    -0.504 OA
ATOM     19  H   UNL     1      -0.950 -15.762 163.545  1.00  0.00     0.293 HD
ENDBRANCH  15  18
BRANCH  17  20
ATOM     20  O   UNL     1      -1.394 -12.945 161.120  1.00  0.00    -0.504 OA
ATOM     21  H   UNL     1      -0.815 -13.723 160.829  1.00  0.00     0.293 HD
ENDBRANCH  17  20
ENDBRANCH   1  12
BRANCH   2  22
ATOM     22  O   UNL     1      -6.967 -13.186 162.378  1.00  0.00    -0.502 OA
ATOM     23  H   UNL     1      -6.305 -13.601 161.731  1.00  0.00     0.293 HD
ENDBRANCH   2  22
BRANCH   6  24
ATOM     24  O   UNL     1      -9.989  -8.858 163.082  1.00  0.00    -0.507 OA
ATOM     25  H   UNL     1     -10.227  -8.582 162.142  1.00  0.00     0.293 HD
ENDBRANCH   6  24
BRANCH   8  26
ATOM     26  O   UNL     1      -6.925  -6.082 165.525  1.00  0.00    -0.508 OA
ATOM     27  H   UNL     1      -6.020  -5.891 165.939  1.00  0.00     0.293 HD
ENDBRANCH   8  26
TORSDOF 6
ENDMDL
MODEL 5
REMARK VINA RESULT:    -5.901     14.688     15.775
REMARK INTER + INTRA:          -7.289
REMARK INTER:                  -6.967
REMARK INTRA:                  -0.323
REMARK UNBOUND:                -0.181
REMARK SMILES O=c1c(O)c(-c2ccc(O)c(O)c2)oc2cc(O)cc(O)c12
REMARK SMILES IDX 5 1 3 2 2 3 1 4 22 5 20 6 19 7 17 8 16 9 15 10 14 11 6 12
REMARK SMILES IDX 7 13 8 14 9 15 13 16 11 17 10 18 12 20 4 22 21 24 18 26
REMARK H PARENT 10 19 12 21 4 23 21 25 18 27
REMARK Flexibility Score: inf
ROOT
ATOM      1  C   UNL     1      -3.948  -9.840 163.709  1.00  0.00     0.180 A 
ATOM      2  C   UNL     1      -3.251  -8.620 163.646  1.00  0.00     0.208 A 
ATOM      3  C   UNL     1      -3.945  -7.427 163.902  1.00  0.00     0.238 A 
ATOM      4  O   UNL     1      -3.328  -6.335 163.791  1.00  0.00    -0.285 OA
ATOM      5  C   UNL     1      -5.321  -7.467 164.231  1.00  0.00     0.111 A 
ATOM      6  C   UNL     1      -6.112  -6.323 164.548  1.00  0.00     0.134 A 
ATOM      7  C   UNL     1      -7.493  -6.467 164.730  1.00  0.00     0.093 A 
ATOM      8  C   UNL     1      -8.100  -7.725 164.672  1.00  0.00     0.123 A 
ATOM      9  C   UNL     1      -7.326  -8.855 164.423  1.00  0.00     0.094 A 
ATOM     10  C   UNL     1      -5.951  -8.738 164.200  1.00  0.00     0.146 A 
ATOM     11  O   UNL     1      -5.252  -9.840 163.955  1.00  0.00    -0.452 OA
ENDROOT
BRANCH   1  12
ATOM     12  C   UNL     1      -3.280 -11.142 163.477  1.00  0.00     0.025 A 
ATOM     13  C   UNL     1      -2.700 -11.823 164.559  1.00  0.00     0.016 A 
ATOM     14  C   UNL     1      -2.047 -13.043 164.359  1.00  0.00     0.051 A 
ATOM     15  C   UNL     1      -1.950 -13.590 163.076  1.00  0.00     0.157 A 
ATOM     16  C   UNL     1      -3.164 -11.684 162.185  1.00  0.00     0.062 A 
ATOM     17  C   UNL     1      -2.507 -12.907 161.982  1.00  0.00     0.158 A 
BRANCH  15  18
ATOM     18  O   UNL     1      -1.295 -14.810 162.907  1.00  0.00    -0.504 OA
ATOM     19  H   UNL     1      -0.287 -14.873 162.837  1.00  0.00     0.293 HD
ENDBRANCH  15  18
BRANCH  17  20
ATOM     20  O   UNL     1      -2.402 -13.441 160.698  1.00  0.00    -0.504 OA
ATOM     21  H   UNL     1      -3.220 -13.602 160.122  1.00  0.00     0.293 HD
ENDBRANCH  17  20
ENDBRANCH   1  12
BRANCH   2  22
ATOM     22  O   UNL     1      -1.898  -8.602 163.298  1.00  0.00    -0.502 OA
ATOM     23  H   UNL     1      -1.456  -9.360 162.792  1.00  0.00     0.293 HD
ENDBRANCH   2  22
BRANCH   6  24
ATOM     24  O   UNL     1      -5.591  -5.037 164.720  1.00  0.00    -0.507 OA
ATOM     25  H   UNL     1      -5.352  -4.408 163.968  1.00  0.00     0.293 HD
ENDBRANCH   6  24
BRANCH   8  26
ATOM     26  O   UNL     1      -9.472  -7.862 164.871  1.00  0.00    -0.508 OA
ATOM     27  H   UNL     1     -10.138  -7.254 164.409  1.00  0.00     0.293 HD
ENDBRANCH   8  26
TORSDOF 6
ENDMDL
MODEL 6
REMARK VINA RESULT:    -5.802     14.801     16.063
REMARK INTER + INTRA:          -7.171
REMARK INTER:                  -6.945
REMARK INTRA:                  -0.226
REMARK UNBOUND:                -0.181
REMARK SMILES O=c1c(O)c(-c2ccc(O)c(O)c2)oc2cc(O)cc(O)c12
REMARK SMILES IDX 5 1 3 2 2 3 1 4 22 5 20 6 19 7 17 8 16 9 15 10 14 11 6 12
REMARK SMILES IDX 7 13 8 14 9 15 13 16 11 17 10 18 12 20 4 22 21 24 18 26
REMARK H PARENT 10 19 12 21 4 23 21 25 18 27
REMARK Flexibility Score: inf
ROOT
ATOM      1  C   UNL     1      -5.944 -10.940 163.656  1.00  0.00     0.180 A 
ATOM      2  C   UNL     1      -5.264  -9.728 163.867  1.00  0.00     0.208 A 
ATOM      3  C   UNL     1      -3.861  -9.718 163.825  1.00  0.00     0.238 A 
ATOM      4  O   UNL     1      -3.257  -8.640 164.068  1.00  0.00    -0.285 OA
ATOM      5  C   UNL     1      -3.155 -10.916 163.558  1.00  0.00     0.111 A 
ATOM      6  C   UNL     1      -1.735 -11.013 163.453  1.00  0.00     0.134 A 
ATOM      7  C   UNL     1      -1.137 -12.272 163.316  1.00  0.00     0.093 A 
ATOM      8  C   UNL     1      -1.913 -13.430 163.214  1.00  0.00     0.123 A 
ATOM      9  C   UNL     1      -3.302 -13.338 163.255  1.00  0.00     0.094 A 
ATOM     10  C   UNL     1      -3.926 -12.100 163.429  1.00  0.00     0.146 A 
ATOM     11  O   UNL     1      -5.252 -12.058 163.474  1.00  0.00    -0.452 OA
ENDROOT
BRANCH   1  12
ATOM     12  C   UNL     1      -7.422 -11.026 163.660  1.00  0.00     0.025 A 
ATOM     13  C   UNL     1      -8.068 -11.765 164.664  1.00  0.00     0.016 A 
ATOM     14  C   UNL     1      -9.462 -11.876 164.675  1.00  0.00     0.051 A 
ATOM     15  C   UNL     1     -10.227 -11.266 163.676  1.00  0.00     0.157 A 
ATOM     16  C   UNL     1      -8.193 -10.430 162.645  1.00  0.00     0.062 A 
ATOM     17  C   UNL     1      -9.592 -10.544 162.653  1.00  0.00     0.158 A 
BRANCH  15  18
ATOM     18  O   UNL     1     -11.616 -11.393 163.714  1.00  0.00    -0.504 OA
ATOM     19  H   UNL     1     -12.225 -10.595 163.844  1.00  0.00     0.293 HD
ENDBRANCH  15  18
BRANCH  17  20
ATOM     20  O   UNL     1     -10.348  -9.944 161.647  1.00  0.00    -0.504 OA
ATOM     21  H   UNL     1     -10.793  -9.044 161.783  1.00  0.00     0.293 HD
ENDBRANCH  17  20
ENDBRANCH   1  12
BRANCH   2  22
ATOM     22  O   UNL     1      -5.980  -8.562 164.151  1.00  0.00    -0.502 OA
ATOM     23  H   UNL     1      -5.972  -7.756 163.536  1.00  0.00     0.293 HD
ENDBRANCH   2  22
BRANCH   6  24
ATOM     24  O   UNL     1      -0.875  -9.910 163.450  1.00  0.00    -0.507 OA
ATOM     25  H   UNL     1      -1.117  -8.992 163.791  1.00  0.00     0.293 HD
ENDBRANCH   6  24
BRANCH   8  26
ATOM     26  O   UNL     1      -1.311 -14.677 163.061  1.00  0.00    -0.508 OA
ATOM     27  H   UNL     1      -0.789 -15.110 163.814  1.00  0.00     0.293 HD
ENDBRANCH   8  26
TORSDOF 6
ENDMDL
MODEL 7
REMARK VINA RESULT:    -5.796     14.145     16.405
REMARK INTER + INTRA:          -7.163
REMARK INTER:                  -7.004
REMARK INTRA:                  -0.159
REMARK UNBOUND:                -0.181
REMARK SMILES O=c1c(O)c(-c2ccc(O)c(O)c2)oc2cc(O)cc(O)c12
REMARK SMILES IDX 5 1 3 2 2 3 1 4 22 5 20 6 19 7 17 8 16 9 15 10 14 11 6 12
REMARK SMILES IDX 7 13 8 14 9 15 13 16 11 17 10 18 12 20 4 22 21 24 18 26
REMARK H PARENT 10 19 12 21 4 23 21 25 18 27
REMARK Flexibility Score: inf
ROOT
ATOM      1  C   UNL     1      -4.278  -7.597 163.685  1.00  0.00     0.180 A 
ATOM      2  C   UNL     1      -3.365  -8.623 163.384  1.00  0.00     0.208 A 
ATOM      3  C   UNL     1      -3.854  -9.908 163.097  1.00  0.00     0.238 A 
ATOM      4  O   UNL     1      -3.029 -10.834 162.883  1.00  0.00    -0.285 OA
ATOM      5  C   UNL     1      -5.249 -10.148 163.100  1.00  0.00     0.111 A 
ATOM      6  C   UNL     1      -5.856 -11.400 162.785  1.00  0.00     0.134 A 
ATOM      7  C   UNL     1      -7.238 -11.557 162.947  1.00  0.00     0.093 A 
ATOM      8  C   UNL     1      -8.043 -10.488 163.349  1.00  0.00     0.123 A 
ATOM      9  C   UNL     1      -7.466  -9.245 163.601  1.00  0.00     0.094 A 
ATOM     10  C   UNL     1      -6.085  -9.068 163.484  1.00  0.00     0.146 A 
ATOM     11  O   UNL     1      -5.576  -7.870 163.744  1.00  0.00    -0.452 OA
ENDROOT
BRANCH   1  12
ATOM     12  C   UNL     1      -3.840  -6.212 163.973  1.00  0.00     0.025 A 
ATOM     13  C   UNL     1      -4.165  -5.628 165.208  1.00  0.00     0.016 A 
ATOM     14  C   UNL     1      -3.779  -4.315 165.492  1.00  0.00     0.051 A 
ATOM     15  C   UNL     1      -3.081  -3.562 164.544  1.00  0.00     0.157 A 
ATOM     16  C   UNL     1      -3.155  -5.447 163.012  1.00  0.00     0.062 A 
ATOM     17  C   UNL     1      -2.770  -4.127 163.296  1.00  0.00     0.158 A 
BRANCH  15  18
ATOM     18  O   UNL     1      -2.708  -2.255 164.857  1.00  0.00    -0.504 OA
ATOM     19  H   UNL     1      -2.910  -1.476 164.242  1.00  0.00     0.293 HD
ENDBRANCH  15  18
BRANCH  17  20
ATOM     20  O   UNL     1      -2.086  -3.377 162.341  1.00  0.00    -0.504 OA
ATOM     21  H   UNL     1      -2.577  -2.809 161.660  1.00  0.00     0.293 HD
ENDBRANCH  17  20
ENDBRANCH   1  12
BRANCH   2  22
ATOM     22  O   UNL     1      -1.991  -8.370 163.409  1.00  0.00    -0.502 OA
ATOM     23  H   UNL     1      -1.608  -7.435 163.324  1.00  0.00     0.293 HD
ENDBRANCH   2  22
BRANCH   6  24
ATOM     24  O   UNL     1      -5.156 -12.504 162.288  1.00  0.00    -0.507 OA
ATOM     25  H   UNL     1      -5.225 -13.440 162.655  1.00  0.00     0.293 HD
ENDBRANCH   6  24
BRANCH   8  26
ATOM     26  O   UNL     1      -9.419 -10.648 163.491  1.00  0.00    -0.508 OA
ATOM     27  H   UNL     1      -9.813 -11.462 163.949  1.00  0.00     0.293 HD
ENDBRANCH   8  26
TORSDOF 6
ENDMDL
MODEL 8
REMARK VINA RESULT:    -5.677      8.122     11.620
REMARK INTER + INTRA:          -7.019
REMARK INTER:                  -6.749
REMARK INTRA:                  -0.270
REMARK UNBOUND:                -0.181
REMARK SMILES O=c1c(O)c(-c2ccc(O)c(O)c2)oc2cc(O)cc(O)c12
REMARK SMILES IDX 5 1 3 2 2 3 1 4 22 5 20 6 19 7 17 8 16 9 15 10 14 11 6 12
REMARK SMILES IDX 7 13 8 14 9 15 13 16 11 17 10 18 12 20 4 22 21 24 18 26
REMARK H PARENT 10 19 12 21 4 23 21 25 18 27
REMARK Flexibility Score: inf
ROOT
ATOM      1  C   UNL     1     -14.284  -5.783 148.463  1.00  0.00     0.180 A 
ATOM      2  C   UNL     1     -13.337  -6.778 148.161  1.00  0.00     0.208 A 
ATOM      3  C   UNL     1     -13.778  -8.091 147.932  1.00  0.00     0.238 A 
ATOM      4  O   UNL     1     -12.921  -8.986 147.715  1.00  0.00    -0.285 OA
ATOM      5  C   UNL     1     -15.161  -8.391 147.992  1.00  0.00     0.111 A 
ATOM      6  C   UNL     1     -15.722  -9.678 147.737  1.00  0.00     0.134 A 
ATOM      7  C   UNL     1     -17.089  -9.890 147.953  1.00  0.00     0.093 A 
ATOM      8  C   UNL     1     -17.926  -8.844 148.352  1.00  0.00     0.123 A 
ATOM      9  C   UNL     1     -17.397  -7.571 148.544  1.00  0.00     0.094 A 
ATOM     10  C   UNL     1     -16.030  -7.337 148.372  1.00  0.00     0.146 A 
ATOM     11  O   UNL     1     -15.566  -6.110 148.577  1.00  0.00    -0.452 OA
ENDROOT
BRANCH   1  12
ATOM     12  C   UNL     1     -13.900  -4.372 148.692  1.00  0.00     0.025 A 
ATOM     13  C   UNL     1     -13.551  -3.564 147.598  1.00  0.00     0.016 A 
ATOM     14  C   UNL     1     -13.165  -2.235 147.795  1.00  0.00     0.051 A 
ATOM     15  C   UNL     1     -13.105  -1.699 149.085  1.00  0.00     0.157 A 
ATOM     16  C   UNL     1     -13.820  -3.837 149.991  1.00  0.00     0.062 A 
ATOM     17  C   UNL     1     -13.429  -2.504 150.190  1.00  0.00     0.158 A 
BRANCH  15  18
ATOM     18  O   UNL     1     -12.718  -0.370 149.250  1.00  0.00    -0.504 OA
ATOM     19  H   UNL     1     -12.313   0.170 148.495  1.00  0.00     0.293 HD
ENDBRANCH  15  18
BRANCH  17  20
ATOM     20  O   UNL     1     -13.359  -1.980 151.480  1.00  0.00    -0.504 OA
ATOM     21  H   UNL     1     -13.471  -2.567 152.298  1.00  0.00     0.293 HD
ENDBRANCH  17  20
ENDBRANCH   1  12
BRANCH   2  22
ATOM     22  O   UNL     1     -11.976  -6.464 148.128  1.00  0.00    -0.502 OA
ATOM     23  H   UNL     1     -11.261  -7.111 148.441  1.00  0.00     0.293 HD
ENDBRANCH   2  22
BRANCH   6  24
ATOM     24  O   UNL     1     -14.991 -10.766 147.249  1.00  0.00    -0.507 OA
ATOM     25  H   UNL     1     -14.715 -11.566 147.798  1.00  0.00     0.293 HD
ENDBRANCH   6  24
BRANCH   8  26
ATOM     26  O   UNL     1     -19.288  -9.060 148.548  1.00  0.00    -0.508 OA
ATOM     27  H   UNL     1     -19.680  -9.162 149.477  1.00  0.00     0.293 HD
ENDBRANCH   8  26
TORSDOF 6
ENDMDL
MODEL 9
REMARK VINA RESULT:    -5.677     10.741     12.359
REMARK INTER + INTRA:          -7.019
REMARK INTER:                  -6.708
REMARK INTRA:                  -0.312
REMARK UNBOUND:                -0.181
REMARK SMILES O=c1c(O)c(-c2ccc(O)c(O)c2)oc2cc(O)cc(O)c12
REMARK SMILES IDX 5 1 3 2 2 3 1 4 22 5 20 6 19 7 17 8 16 9 15 10 14 11 6 12
REMARK SMILES IDX 7 13 8 14 9 15 13 16 11 17 10 18 12 20 4 22 21 24 18 26
REMARK H PARENT 10 19 12 21 4 23 21 25 18 27
REMARK Flexibility Score: inf
ROOT
ATOM      1  C   UNL     1     -17.493  -6.998 147.914  1.00  0.00     0.180 A 
ATOM      2  C   UNL     1     -18.720  -6.789 148.570  1.00  0.00     0.208 A 
ATOM      3  C   UNL     1     -19.311  -5.517 148.520  1.00  0.00     0.238 A 
ATOM      4  O   UNL     1     -20.381  -5.323 149.154  1.00  0.00    -0.285 OA
ATOM      5  C   UNL     1     -18.677  -4.473 147.804  1.00  0.00     0.111 A 
ATOM      6  C   UNL     1     -19.206  -3.156 147.654  1.00  0.00     0.134 A 
ATOM      7  C   UNL     1     -18.431  -2.166 147.036  1.00  0.00     0.093 A 
ATOM      8  C   UNL     1     -17.174  -2.465 146.503  1.00  0.00     0.123 A 
ATOM      9  C   UNL     1     -16.675  -3.762 146.592  1.00  0.00     0.094 A 
ATOM     10  C   UNL     1     -17.409  -4.761 147.236  1.00  0.00     0.146 A 
ATOM     11  O   UNL     1     -16.892  -5.982 147.308  1.00  0.00    -0.452 OA
ENDROOT
BRANCH   1  12
ATOM     12  C   UNL     1     -16.821  -8.317 147.901  1.00  0.00     0.025 A 
ATOM     13  C   UNL     1     -17.220  -9.286 146.967  1.00  0.00     0.016 A 
ATOM     14  C   UNL     1     -16.613 -10.545 146.950  1.00  0.00     0.051 A 
ATOM     15  C   UNL     1     -15.613 -10.860 147.875  1.00  0.00     0.157 A 
ATOM     16  C   UNL     1     -15.829  -8.642 148.843  1.00  0.00     0.062 A 
ATOM     17  C   UNL     1     -15.220  -9.907 148.830  1.00  0.00     0.158 A 
BRANCH  15  18
ATOM     18  O   UNL     1     -15.024 -12.123 147.833  1.00  0.00    -0.504 OA
ATOM     19  H   UNL     1     -15.497 -12.949 148.178  1.00  0.00     0.293 HD
ENDBRANCH  15  18
BRANCH  17  20
ATOM     20  O   UNL     1     -14.233 -10.219 149.763  1.00  0.00    -0.504 OA
ATOM     21  H   UNL     1     -14.408 -10.862 150.525  1.00  0.00     0.293 HD
ENDBRANCH  17  20
ENDBRANCH   1  12
BRANCH   2  22
ATOM     22  O   UNL     1     -19.317  -7.828 149.289  1.00  0.00    -0.502 OA
ATOM     23  H   UNL     1     -18.800  -8.644 149.597  1.00  0.00     0.293 HD
ENDBRANCH   2  22
BRANCH   6  24
ATOM     24  O   UNL     1     -20.487  -2.778 148.068  1.00  0.00    -0.507 OA
ATOM     25  H   UNL     1     -21.270  -3.406 148.160  1.00  0.00     0.293 HD
ENDBRANCH   6  24
BRANCH   8  26
ATOM     26  O   UNL     1     -16.417  -1.479 145.875  1.00  0.00    -0.508 OA
ATOM     27  H   UNL     1     -15.991  -0.722 146.399  1.00  0.00     0.293 HD
ENDBRANCH   8  26
TORSDOF 6
ENDMDL
