MODEL 1
REMARK VINA RESULT:    -3.400      0.000      0.000
REMARK INTER + INTRA:          -4.337
REMARK INTER:                  -4.195
REMARK INTRA:                  -0.142
REMARK UNBOUND:                -0.142
REMARK SMILES CCCCCC(=O)[O-]
REMARK SMILES IDX 4 1 5 2 6 3 7 4 8 5 3 6 2 7 1 8
REMARK H PARENT
REMARK Flexibility Score: inf
ROOT
ATOM      1  C   UNL     1       1.588   4.147  29.045  1.00  0.00     0.006 C 
ENDROOT
BRANCH   1   2
ATOM      2  C   UNL     1       2.553   3.394  28.125  1.00  0.00     0.053 C 
BRANCH   2   3
ATOM      3  C   UNL     1       3.844   4.139  27.995  1.00  0.00     0.041 C 
ATOM      4  O   UNL     1       3.903   5.185  27.297  1.00  0.00    -0.550 OA
ATOM      5  O   UNL     1       4.993   3.651  28.605  1.00  0.00    -0.550 OA
ENDBRANCH   2   3
ENDBRANCH   1   2
BRANCH   1   6
ATOM      6  C   UNL     1       2.006   4.004  30.516  1.00  0.00     0.000 C 
BRANCH   6   7
ATOM      7  C   UNL     1       2.346   5.353  31.166  1.00  0.00    -0.003 C 
ATOM      8  C   UNL     1       1.297   5.801  32.184  1.00  0.00     0.004 C 
ENDBRANCH   6   7
ENDBRANCH   1   6
TORSDOF 4
ENDMDL
MODEL 2
REMARK VINA RESULT:    -3.388      1.476      2.140
REMARK INTER + INTRA:          -4.323
REMARK INTER:                  -4.232
REMARK INTRA:                  -0.091
REMARK UNBOUND:                -0.142
REMARK SMILES CCCCCC(=O)[O-]
REMARK SMILES IDX 4 1 5 2 6 3 7 4 8 5 3 6 2 7 1 8
REMARK H PARENT
REMARK Flexibility Score: inf
ROOT
ATOM      1  C   UNL     1       2.016   4.019  30.537  1.00  0.00     0.006 C 
ENDROOT
BRANCH   1   2
ATOM      2  C   UNL     1       1.469   4.336  29.142  1.00  0.00     0.053 C 
BRANCH   2   3
ATOM      3  C   UNL     1       2.130   3.478  28.111  1.00  0.00     0.041 C 
ATOM      4  O   UNL     1       3.378   3.312  28.129  1.00  0.00    -0.550 OA
ATOM      5  O   UNL     1       1.374   2.899  27.098  1.00  0.00    -0.550 OA
ENDBRANCH   2   3
ENDBRANCH   1   2
BRANCH   1   6
ATOM      6  C   UNL     1       2.426   5.304  31.271  1.00  0.00     0.000 C 
BRANCH   6   7
ATOM      7  C   UNL     1       1.293   5.876  32.137  1.00  0.00    -0.003 C 
ATOM      8  C   UNL     1       1.497   7.352  32.478  1.00  0.00     0.004 C 
ENDBRANCH   6   7
ENDBRANCH   1   6
TORSDOF 4
ENDMDL
MODEL 3
REMARK VINA RESULT:    -3.346      1.495      1.822
REMARK INTER + INTRA:          -4.270
REMARK INTER:                  -4.133
REMARK INTRA:                  -0.137
REMARK UNBOUND:                -0.142
REMARK SMILES CCCCCC(=O)[O-]
REMARK SMILES IDX 4 1 5 2 6 3 7 4 8 5 3 6 2 7 1 8
REMARK H PARENT
REMARK Flexibility Score: inf
ROOT
ATOM      1  C   UNL     1       3.825   5.229  29.382  1.00  0.00     0.006 C 
ENDROOT
BRANCH   1   2
ATOM      2  C   UNL     1       4.458   4.109  28.550  1.00  0.00     0.053 C 
BRANCH   2   3
ATOM      3  C   UNL     1       3.522   3.664  27.472  1.00  0.00     0.041 C 
ATOM      4  O   UNL     1       3.828   3.825  26.261  1.00  0.00    -0.550 OA
ATOM      5  O   UNL     1       2.289   3.116  27.803  1.00  0.00    -0.550 OA
ENDBRANCH   2   3
ENDBRANCH   1   2
BRANCH   1   6
ATOM      6  C   UNL     1       3.560   4.762  30.821  1.00  0.00     0.000 C 
BRANCH   6   7
ATOM      7  C   UNL     1       2.080   4.441  31.074  1.00  0.00    -0.003 C 
ATOM      8  C   UNL     1       1.391   5.481  31.958  1.00  0.00     0.004 C 
ENDBRANCH   6   7
ENDBRANCH   1   6
TORSDOF 4
ENDMDL
MODEL 4
REMARK VINA RESULT:    -3.322      2.016      2.878
REMARK INTER + INTRA:          -4.241
REMARK INTER:                  -4.132
REMARK INTRA:                  -0.109
REMARK UNBOUND:                -0.142
REMARK SMILES CCCCCC(=O)[O-]
REMARK SMILES IDX 4 1 5 2 6 3 7 4 8 5 3 6 2 7 1 8
REMARK H PARENT
REMARK Flexibility Score: inf
ROOT
ATOM      1  C   UNL     1       2.408   5.590  31.229  1.00  0.00     0.006 C 
ENDROOT
BRANCH   1   2
ATOM      2  C   UNL     1       2.104   4.139  30.845  1.00  0.00     0.053 C 
BRANCH   2   3
ATOM      3  C   UNL     1       1.710   4.049  29.405  1.00  0.00     0.041 C 
ATOM      4  O   UNL     1       0.583   4.468  29.030  1.00  0.00    -0.550 OA
ATOM      5  O   UNL     1       2.565   3.456  28.484  1.00  0.00    -0.550 OA
ENDBRANCH   2   3
ENDBRANCH   1   2
BRANCH   1   6
ATOM      6  C   UNL     1       1.384   6.115  32.246  1.00  0.00     0.000 C 
BRANCH   6   7
ATOM      7  C   UNL     1       1.511   7.627  32.486  1.00  0.00    -0.003 C 
ATOM      8  C   UNL     1       2.545   8.286  31.573  1.00  0.00     0.004 C 
ENDBRANCH   6   7
ENDBRANCH   1   6
TORSDOF 4
ENDMDL
MODEL 5
REMARK VINA RESULT:    -3.304     10.286     11.441
REMARK INTER + INTRA:          -4.219
REMARK INTER:                  -4.025
REMARK INTRA:                  -0.194
REMARK UNBOUND:                -0.142
REMARK SMILES CCCCCC(=O)[O-]
REMARK SMILES IDX 4 1 5 2 6 3 7 4 8 5 3 6 2 7 1 8
REMARK H PARENT
REMARK Flexibility Score: inf
ROOT
ATOM      1  C   UNL     1      -6.637   3.842  23.068  1.00  0.00     0.006 C 
ENDROOT
BRANCH   1   2
ATOM      2  C   UNL     1      -6.005   2.662  23.812  1.00  0.00     0.053 C 
BRANCH   2   3
ATOM      3  C   UNL     1      -4.523   2.648  23.611  1.00  0.00     0.041 C 
ATOM      4  O   UNL     1      -3.764   2.224  24.522  1.00  0.00    -0.550 OA
ATOM      5  O   UNL     1      -3.975   3.149  22.436  1.00  0.00    -0.550 OA
ENDBRANCH   2   3
ENDBRANCH   1   2
BRANCH   1   6
ATOM      6  C   UNL     1      -7.650   3.352  22.022  1.00  0.00     0.000 C 
BRANCH   6   7
ATOM      7  C   UNL     1      -7.426   3.987  20.642  1.00  0.00    -0.003 C 
ATOM      8  C   UNL     1      -6.357   5.080  20.659  1.00  0.00     0.004 C 
ENDBRANCH   6   7
ENDBRANCH   1   6
TORSDOF 4
ENDMDL
MODEL 6
REMARK VINA RESULT:    -3.287      1.441      2.194
REMARK INTER + INTRA:          -4.198
REMARK INTER:                  -4.065
REMARK INTRA:                  -0.134
REMARK UNBOUND:                -0.142
REMARK SMILES CCCCCC(=O)[O-]
REMARK SMILES IDX 4 1 5 2 6 3 7 4 8 5 3 6 2 7 1 8
REMARK H PARENT
REMARK Flexibility Score: inf
ROOT
ATOM      1  C   UNL     1       2.216   4.333  30.784  1.00  0.00     0.006 C 
ENDROOT
BRANCH   1   2
ATOM      2  C   UNL     1       3.675   4.798  30.843  1.00  0.00     0.053 C 
BRANCH   2   3
ATOM      3  C   UNL     1       4.331   4.638  29.509  1.00  0.00     0.041 C 
ATOM      4  O   UNL     1       5.438   4.046  29.414  1.00  0.00    -0.550 OA
ATOM      5  O   UNL     1       3.745   5.188  28.375  1.00  0.00    -0.550 OA
ENDBRANCH   2   3
ENDBRANCH   1   2
BRANCH   1   6
ATOM      6  C   UNL     1       1.254   5.518  30.953  1.00  0.00     0.000 C 
BRANCH   6   7
ATOM      7  C   UNL     1       1.258   6.082  32.382  1.00  0.00    -0.003 C 
ATOM      8  C   UNL     1       1.536   7.585  32.425  1.00  0.00     0.004 C 
ENDBRANCH   6   7
ENDBRANCH   1   6
TORSDOF 4
ENDMDL
MODEL 7
REMARK VINA RESULT:    -3.287     10.024     11.288
REMARK INTER + INTRA:          -4.198
REMARK INTER:                  -4.077
REMARK INTRA:                  -0.121
REMARK UNBOUND:                -0.142
REMARK SMILES CCCCCC(=O)[O-]
REMARK SMILES IDX 4 1 5 2 6 3 7 4 8 5 3 6 2 7 1 8
REMARK H PARENT
REMARK Flexibility Score: inf
ROOT
ATOM      1  C   UNL     1      -5.858   3.755  22.022  1.00  0.00     0.006 C 
ENDROOT
BRANCH   1   2
ATOM      2  C   UNL     1      -4.499   3.318  22.577  1.00  0.00     0.053 C 
BRANCH   2   3
ATOM      3  C   UNL     1      -4.667   2.629  23.894  1.00  0.00     0.041 C 
ATOM      4  O   UNL     1      -3.672   2.119  24.474  1.00  0.00    -0.550 OA
ATOM      5  O   UNL     1      -5.931   2.505  24.458  1.00  0.00    -0.550 OA
ENDBRANCH   2   3
ENDBRANCH   1   2
BRANCH   1   6
ATOM      6  C   UNL     1      -5.740   4.180  20.551  1.00  0.00     0.000 C 
BRANCH   6   7
ATOM      7  C   UNL     1      -4.369   3.842  19.947  1.00  0.00    -0.003 C 
ATOM      8  C   UNL     1      -3.788   4.989  19.119  1.00  0.00     0.004 C 
ENDBRANCH   6   7
ENDBRANCH   1   6
TORSDOF 4
ENDMDL
MODEL 8
REMARK VINA RESULT:    -3.269      2.800      4.230
REMARK INTER + INTRA:          -4.176
REMARK INTER:                  -4.016
REMARK INTRA:                  -0.160
REMARK UNBOUND:                -0.142
REMARK SMILES CCCCCC(=O)[O-]
REMARK SMILES IDX 4 1 5 2 6 3 7 4 8 5 3 6 2 7 1 8
REMARK H PARENT
REMARK Flexibility Score: inf
ROOT
ATOM      1  C   UNL     1       2.314   4.435  31.018  1.00  0.00     0.006 C 
ENDROOT
BRANCH   1   2
ATOM      2  C   UNL     1       1.418   5.332  31.878  1.00  0.00     0.053 C 
BRANCH   2   3
ATOM      3  C   UNL     1       1.930   6.737  31.881  1.00  0.00     0.041 C 
ATOM      4  O   UNL     1       1.462   7.580  32.692  1.00  0.00    -0.550 OA
ATOM      5  O   UNL     1       2.887   7.131  30.954  1.00  0.00    -0.550 OA
ENDBRANCH   2   3
ENDBRANCH   1   2
BRANCH   1   6
ATOM      6  C   UNL     1       1.636   4.103  29.680  1.00  0.00     0.000 C 
BRANCH   6   7
ATOM      7  C   UNL     1       2.645   3.730  28.584  1.00  0.00    -0.003 C 
ATOM      8  C   UNL     1       4.028   4.336  28.822  1.00  0.00     0.004 C 
ENDBRANCH   6   7
ENDBRANCH   1   6
TORSDOF 4
ENDMDL
MODEL 9
REMARK VINA RESULT:    -3.257      2.659      4.222
REMARK INTER + INTRA:          -4.161
REMARK INTER:                  -3.994
REMARK INTRA:                  -0.168
REMARK UNBOUND:                -0.142
REMARK SMILES CCCCCC(=O)[O-]
REMARK SMILES IDX 4 1 5 2 6 3 7 4 8 5 3 6 2 7 1 8
REMARK H PARENT
REMARK Flexibility Score: inf
ROOT
ATOM      1  C   UNL     1       4.606   4.885  30.892  1.00  0.00     0.006 C 
ENDROOT
BRANCH   1   2
ATOM      2  C   UNL     1       3.311   5.660  30.633  1.00  0.00     0.053 C 
BRANCH   2   3
ATOM      3  C   UNL     1       2.134   4.911  31.172  1.00  0.00     0.041 C 
ATOM      4  O   UNL     1       1.768   3.833  30.633  1.00  0.00    -0.550 OA
ATOM      5  O   UNL     1       1.409   5.428  32.239  1.00  0.00    -0.550 OA
ENDBRANCH   2   3
ENDBRANCH   1   2
BRANCH   1   6
ATOM      6  C   UNL     1       5.224   4.391  29.576  1.00  0.00     0.000 C 
BRANCH   6   7
ATOM      7  C   UNL     1       4.300   4.616  28.370  1.00  0.00    -0.003 C 
ATOM      8  C   UNL     1       3.928   3.314  27.658  1.00  0.00     0.004 C 
ENDBRANCH   6   7
ENDBRANCH   1   6
TORSDOF 4
ENDMDL
