MODEL 1
REMARK VINA RESULT:    -3.492      0.000      0.000
REMARK INTER + INTRA:          -9.557
REMARK INTER:                  -7.575
REMARK INTRA:                  -1.982
REMARK UNBOUND:                -1.982
REMARK SMILES CCCCCCCCCCCCCCCCCCCCCC(=O)[O-]
REMARK SMILES IDX 12 1 11 2 10 3 9 4 8 5 7 6 6 7 5 8 4 9 3 10 2 11 1 12 13 13
REMARK SMILES IDX 14 14 15 15 16 16 17 17 18 18 19 19 20 20 21 21 22 22 23 23
REMARK SMILES IDX 24 24
REMARK H PARENT
REMARK Flexibility Score: inf
ROOT
ATOM      1  C   UNL     1       9.223  -6.298   3.059  1.00  0.00     0.000 C 
ENDROOT
BRANCH   1   2
ATOM      2  C   UNL     1      10.154  -5.693   4.121  1.00  0.00     0.000 C 
BRANCH   2   3
ATOM      3  C   UNL     1      11.583  -5.545   3.579  1.00  0.00     0.000 C 
BRANCH   3   4
ATOM      4  C   UNL     1      12.638  -6.193   4.494  1.00  0.00    -0.000 C 
BRANCH   4   5
ATOM      5  C   UNL     1      14.047  -5.570   4.406  1.00  0.00    -0.000 C 
BRANCH   5   6
ATOM      6  C   UNL     1      14.685  -5.201   5.760  1.00  0.00    -0.000 C 
BRANCH   6   7
ATOM      7  C   UNL     1      16.185  -5.528   5.879  1.00  0.00    -0.000 C 
BRANCH   7   8
ATOM      8  C   UNL     1      16.722  -6.307   4.665  1.00  0.00    -0.000 C 
BRANCH   8   9
ATOM      9  C   UNL     1      17.439  -7.609   5.077  1.00  0.00    -0.000 C 
BRANCH   9  10
ATOM     10  C   UNL     1      17.002  -8.847   4.270  1.00  0.00    -0.000 C 
BRANCH  10  11
ATOM     11  C   UNL     1      15.934  -8.558   3.198  1.00  0.00    -0.003 C 
ATOM     12  C   UNL     1      14.600  -9.243   3.494  1.00  0.00     0.004 C 
ENDBRANCH  10  11
ENDBRANCH   9  10
ENDBRANCH   8   9
ENDBRANCH   7   8
ENDBRANCH   6   7
ENDBRANCH   5   6
ENDBRANCH   4   5
ENDBRANCH   3   4
ENDBRANCH   2   3
ENDBRANCH   1   2
BRANCH   1  13
ATOM     13  C   UNL     1       7.740  -6.023   3.347  1.00  0.00     0.000 C 
BRANCH  13  14
ATOM     14  C   UNL     1       7.343  -6.362   4.795  1.00  0.00     0.000 C 
BRANCH  14  15
ATOM     15  C   UNL     1       6.657  -7.732   4.915  1.00  0.00     0.000 C 
BRANCH  15  16
ATOM     16  C   UNL     1       5.887  -7.895   6.234  1.00  0.00     0.000 C 
BRANCH  16  17
ATOM     17  C   UNL     1       4.534  -8.577   6.000  1.00  0.00     0.000 C 
BRANCH  17  18
ATOM     18  C   UNL     1       4.153  -8.547   4.512  1.00  0.00     0.000 C 
BRANCH  18  19
ATOM     19  C   UNL     1       2.699  -8.110   4.274  1.00  0.00     0.000 C 
BRANCH  19  20
ATOM     20  C   UNL     1       2.527  -6.700   3.674  1.00  0.00     0.006 C 
BRANCH  20  21
ATOM     21  C   UNL     1       3.810  -5.849   3.691  1.00  0.00     0.053 C 
BRANCH  21  22
ATOM     22  C   UNL     1       3.699  -4.656   4.594  1.00  0.00     0.041 C 
ATOM     23  O   UNL     1       2.963  -3.685   4.275  1.00  0.00    -0.550 OA
ATOM     24  O   UNL     1       4.374  -4.636   5.808  1.00  0.00    -0.550 OA
ENDBRANCH  21  22
ENDBRANCH  20  21
ENDBRANCH  19  20
ENDBRANCH  18  19
ENDBRANCH  17  18
ENDBRANCH  16  17
ENDBRANCH  15  16
ENDBRANCH  14  15
ENDBRANCH  13  14
ENDBRANCH   1  13
TORSDOF 20
ENDMDL
MODEL 2
REMARK VINA RESULT:    -3.032      3.638     10.624
REMARK INTER + INTRA:          -8.558
REMARK INTER:                  -6.806
REMARK INTRA:                  -1.752
REMARK UNBOUND:                -1.982
REMARK SMILES CCCCCCCCCCCCCCCCCCCCCC(=O)[O-]
REMARK SMILES IDX 12 1 11 2 10 3 9 4 8 5 7 6 6 7 5 8 4 9 3 10 2 11 1 12 13 13
REMARK SMILES IDX 14 14 15 15 16 16 17 17 18 18 19 19 20 20 21 21 22 22 23 23
REMARK SMILES IDX 24 24
REMARK H PARENT
REMARK Flexibility Score: inf
ROOT
ATOM      1  C   UNL     1      12.955  -7.028   3.946  1.00  0.00     0.000 C 
ENDROOT
BRANCH   1   2
ATOM      2  C   UNL     1      12.927  -5.676   3.217  1.00  0.00     0.000 C 
BRANCH   2   3
ATOM      3  C   UNL     1      11.487  -5.265   2.875  1.00  0.00     0.000 C 
BRANCH   3   4
ATOM      4  C   UNL     1      10.485  -5.619   3.989  1.00  0.00    -0.000 C 
BRANCH   4   5
ATOM      5  C   UNL     1       9.021  -5.229   3.696  1.00  0.00    -0.000 C 
BRANCH   5   6
ATOM      6  C   UNL     1       8.009  -6.390   3.762  1.00  0.00    -0.000 C 
BRANCH   6   7
ATOM      7  C   UNL     1       6.540  -5.958   3.922  1.00  0.00    -0.000 C 
BRANCH   7   8
ATOM      8  C   UNL     1       5.838  -6.661   5.098  1.00  0.00    -0.000 C 
BRANCH   8   9
ATOM      9  C   UNL     1       4.428  -7.160   4.723  1.00  0.00    -0.000 C 
BRANCH   9  10
ATOM     10  C   UNL     1       3.588  -6.136   3.936  1.00  0.00    -0.000 C 
BRANCH  10  11
ATOM     11  C   UNL     1       3.463  -4.762   4.622  1.00  0.00    -0.003 C 
ATOM     12  C   UNL     1       3.030  -3.658   3.656  1.00  0.00     0.004 C 
ENDBRANCH  10  11
ENDBRANCH   9  10
ENDBRANCH   8   9
ENDBRANCH   7   8
ENDBRANCH   6   7
ENDBRANCH   5   6
ENDBRANCH   4   5
ENDBRANCH   3   4
ENDBRANCH   2   3
ENDBRANCH   1   2
BRANCH   1  13
ATOM     13  C   UNL     1      13.008  -8.220   2.978  1.00  0.00     0.000 C 
BRANCH  13  14
ATOM     14  C   UNL     1      13.512  -9.509   3.652  1.00  0.00     0.000 C 
BRANCH  14  15
ATOM     15  C   UNL     1      14.993  -9.791   3.354  1.00  0.00     0.000 C 
BRANCH  15  16
ATOM     16  C   UNL     1      15.811 -10.059   4.626  1.00  0.00     0.000 C 
BRANCH  16  17
ATOM     17  C   UNL     1      17.232  -9.500   4.495  1.00  0.00     0.000 C 
BRANCH  17  18
ATOM     18  C   UNL     1      17.476  -8.945   3.084  1.00  0.00     0.000 C 
BRANCH  18  19
ATOM     19  C   UNL     1      17.822  -7.447   3.079  1.00  0.00     0.000 C 
BRANCH  19  20
ATOM     20  C   UNL     1      16.618  -6.495   3.221  1.00  0.00     0.006 C 
BRANCH  20  21
ATOM     21  C   UNL     1      16.836  -5.354   4.232  1.00  0.00     0.053 C 
BRANCH  21  22
ATOM     22  C   UNL     1      16.366  -5.708   5.612  1.00  0.00     0.041 C 
ATOM     23  O   UNL     1      15.258  -5.284   6.033  1.00  0.00    -0.550 OA
ATOM     24  O   UNL     1      17.132  -6.542   6.416  1.00  0.00    -0.550 OA
ENDBRANCH  21  22
ENDBRANCH  20  21
ENDBRANCH  19  20
ENDBRANCH  18  19
ENDBRANCH  17  18
ENDBRANCH  16  17
ENDBRANCH  15  16
ENDBRANCH  14  15
ENDBRANCH  13  14
ENDBRANCH   1  13
TORSDOF 20
ENDMDL
MODEL 3
REMARK VINA RESULT:    -2.883      3.491     10.528
REMARK INTER + INTRA:          -8.236
REMARK INTER:                  -6.456
REMARK INTRA:                  -1.780
REMARK UNBOUND:                -1.982
REMARK SMILES CCCCCCCCCCCCCCCCCCCCCC(=O)[O-]
REMARK SMILES IDX 12 1 11 2 10 3 9 4 8 5 7 6 6 7 5 8 4 9 3 10 2 11 1 12 13 13
REMARK SMILES IDX 14 14 15 15 16 16 17 17 18 18 19 19 20 20 21 21 22 22 23 23
REMARK SMILES IDX 24 24
REMARK H PARENT
REMARK Flexibility Score: inf
ROOT
ATOM      1  C   UNL     1      10.539  -6.366   4.210  1.00  0.00     0.000 C 
ENDROOT
BRANCH   1   2
ATOM      2  C   UNL     1       9.276  -5.509   4.379  1.00  0.00     0.000 C 
BRANCH   2   3
ATOM      3  C   UNL     1       8.036  -6.248   3.855  1.00  0.00     0.000 C 
BRANCH   3   4
ATOM      4  C   UNL     1       7.027  -6.582   4.968  1.00  0.00    -0.000 C 
BRANCH   4   5
ATOM      5  C   UNL     1       6.769  -8.089   5.181  1.00  0.00    -0.000 C 
BRANCH   5   6
ATOM      6  C   UNL     1       5.734  -8.428   6.273  1.00  0.00    -0.000 C 
BRANCH   6   7
ATOM      7  C   UNL     1       4.279  -8.073   5.918  1.00  0.00    -0.000 C 
BRANCH   7   8
ATOM      8  C   UNL     1       3.799  -8.753   4.624  1.00  0.00    -0.000 C 
BRANCH   8   9
ATOM      9  C   UNL     1       3.611  -7.748   3.470  1.00  0.00    -0.000 C 
BRANCH   9  10
ATOM     10  C   UNL     1       2.943  -6.425   3.892  1.00  0.00    -0.000 C 
BRANCH  10  11
ATOM     11  C   UNL     1       3.840  -5.183   3.724  1.00  0.00    -0.003 C 
ATOM     12  C   UNL     1       3.844  -4.286   4.962  1.00  0.00     0.004 C 
ENDBRANCH  10  11
ENDBRANCH   9  10
ENDBRANCH   8   9
ENDBRANCH   7   8
ENDBRANCH   6   7
ENDBRANCH   5   6
ENDBRANCH   4   5
ENDBRANCH   3   4
ENDBRANCH   2   3
ENDBRANCH   1   2
BRANCH   1  13
ATOM     13  C   UNL     1      11.707  -5.584   3.591  1.00  0.00     0.000 C 
BRANCH  13  14
ATOM     14  C   UNL     1      12.988  -6.428   3.466  1.00  0.00     0.000 C 
BRANCH  14  15
ATOM     15  C   UNL     1      12.722  -7.822   2.875  1.00  0.00     0.000 C 
BRANCH  15  16
ATOM     16  C   UNL     1      13.336  -8.949   3.719  1.00  0.00     0.000 C 
BRANCH  16  17
ATOM     17  C   UNL     1      14.572  -9.541   3.030  1.00  0.00     0.000 C 
BRANCH  17  18
ATOM     18  C   UNL     1      15.678  -8.486   2.883  1.00  0.00     0.000 C 
BRANCH  18  19
ATOM     19  C   UNL     1      16.376  -8.160   4.214  1.00  0.00     0.000 C 
BRANCH  19  20
ATOM     20  C   UNL     1      17.348  -6.964   4.169  1.00  0.00     0.006 C 
BRANCH  20  21
ATOM     21  C   UNL     1      16.659  -5.590   4.263  1.00  0.00     0.053 C 
BRANCH  21  22
ATOM     22  C   UNL     1      16.186  -5.275   5.651  1.00  0.00     0.041 C 
ATOM     23  O   UNL     1      14.955  -5.282   5.918  1.00  0.00    -0.550 OA
ATOM     24  O   UNL     1      17.105  -5.018   6.659  1.00  0.00    -0.550 OA
ENDBRANCH  21  22
ENDBRANCH  20  21
ENDBRANCH  19  20
ENDBRANCH  18  19
ENDBRANCH  17  18
ENDBRANCH  16  17
ENDBRANCH  15  16
ENDBRANCH  14  15
ENDBRANCH  13  14
ENDBRANCH   1  13
TORSDOF 20
ENDMDL
MODEL 4
REMARK VINA RESULT:    -2.839      1.962      3.479
REMARK INTER + INTRA:          -8.139
REMARK INTER:                  -6.455
REMARK INTRA:                  -1.685
REMARK UNBOUND:                -1.982
REMARK SMILES CCCCCCCCCCCCCCCCCCCCCC(=O)[O-]
REMARK SMILES IDX 12 1 11 2 10 3 9 4 8 5 7 6 6 7 5 8 4 9 3 10 2 11 1 12 13 13
REMARK SMILES IDX 14 14 15 15 16 16 17 17 18 18 19 19 20 20 21 21 22 22 23 23
REMARK SMILES IDX 24 24
REMARK H PARENT
REMARK Flexibility Score: inf
ROOT
ATOM      1  C   UNL     1       6.750  -7.082   3.860  1.00  0.00     0.000 C 
ENDROOT
BRANCH   1   2
ATOM      2  C   UNL     1       7.038  -5.652   3.377  1.00  0.00     0.000 C 
BRANCH   2   3
ATOM      3  C   UNL     1       8.483  -5.521   2.877  1.00  0.00     0.000 C 
BRANCH   3   4
ATOM      4  C   UNL     1       9.520  -5.963   3.926  1.00  0.00    -0.000 C 
BRANCH   4   5
ATOM      5  C   UNL     1      10.952  -5.441   3.686  1.00  0.00    -0.000 C 
BRANCH   5   6
ATOM      6  C   UNL     1      12.074  -6.297   4.306  1.00  0.00    -0.000 C 
BRANCH   6   7
ATOM      7  C   UNL     1      13.484  -6.011   3.760  1.00  0.00    -0.000 C 
BRANCH   7   8
ATOM      8  C   UNL     1      14.371  -5.257   4.766  1.00  0.00    -0.000 C 
BRANCH   8   9
ATOM      9  C   UNL     1      15.864  -5.606   4.606  1.00  0.00    -0.000 C 
BRANCH   9  10
ATOM     10  C   UNL     1      16.121  -6.974   3.943  1.00  0.00    -0.000 C 
BRANCH  10  11
ATOM     11  C   UNL     1      17.490  -7.594   4.284  1.00  0.00    -0.003 C 
ATOM     12  C   UNL     1      17.651  -7.882   5.777  1.00  0.00     0.004 C 
ENDBRANCH  10  11
ENDBRANCH   9  10
ENDBRANCH   8   9
ENDBRANCH   7   8
ENDBRANCH   6   7
ENDBRANCH   5   6
ENDBRANCH   4   5
ENDBRANCH   3   4
ENDBRANCH   2   3
ENDBRANCH   1   2
BRANCH   1  13
ATOM     13  C   UNL     1       6.637  -7.179   5.389  1.00  0.00     0.000 C 
BRANCH  13  14
ATOM     14  C   UNL     1       5.268  -6.712   5.913  1.00  0.00     0.000 C 
BRANCH  14  15
ATOM     15  C   UNL     1       5.290  -5.259   6.414  1.00  0.00     0.000 C 
BRANCH  15  16
ATOM     16  C   UNL     1       4.095  -4.440   5.903  1.00  0.00     0.000 C 
BRANCH  16  17
ATOM     17  C   UNL     1       4.164  -4.255   4.383  1.00  0.00     0.000 C 
BRANCH  17  18
ATOM     18  C   UNL     1       2.863  -4.721   3.713  1.00  0.00     0.000 C 
BRANCH  18  19
ATOM     19  C   UNL     1       2.965  -6.139   3.126  1.00  0.00     0.000 C 
BRANCH  19  20
ATOM     20  C   UNL     1       2.267  -7.241   3.946  1.00  0.00     0.006 C 
BRANCH  20  21
ATOM     21  C   UNL     1       2.514  -8.667   3.419  1.00  0.00     0.053 C 
BRANCH  21  22
ATOM     22  C   UNL     1       3.490  -9.433   4.263  1.00  0.00     0.041 C 
ATOM     23  O   UNL     1       4.467 -10.019   3.727  1.00  0.00    -0.550 OA
ATOM     24  O   UNL     1       3.344  -9.463   5.643  1.00  0.00    -0.550 OA
ENDBRANCH  21  22
ENDBRANCH  20  21
ENDBRANCH  19  20
ENDBRANCH  18  19
ENDBRANCH  17  18
ENDBRANCH  16  17
ENDBRANCH  15  16
ENDBRANCH  14  15
ENDBRANCH  13  14
ENDBRANCH   1  13
TORSDOF 20
ENDMDL
MODEL 5
REMARK VINA RESULT:    -2.821      1.953      3.976
REMARK INTER + INTRA:          -8.102
REMARK INTER:                  -6.618
REMARK INTRA:                  -1.484
REMARK UNBOUND:                -1.982
REMARK SMILES CCCCCCCCCCCCCCCCCCCCCC(=O)[O-]
REMARK SMILES IDX 12 1 11 2 10 3 9 4 8 5 7 6 6 7 5 8 4 9 3 10 2 11 1 12 13 13
REMARK SMILES IDX 14 14 15 15 16 16 17 17 18 18 19 19 20 20 21 21 22 22 23 23
REMARK SMILES IDX 24 24
REMARK H PARENT
REMARK Flexibility Score: inf
ROOT
ATOM      1  C   UNL     1      12.736  -5.875   4.318  1.00  0.00     0.000 C 
ENDROOT
BRANCH   1   2
ATOM      2  C   UNL     1      13.343  -6.901   3.350  1.00  0.00     0.000 C 
BRANCH   2   3
ATOM      3  C   UNL     1      12.782  -8.305   3.613  1.00  0.00     0.000 C 
BRANCH   3   4
ATOM      4  C   UNL     1      13.861  -9.401   3.552  1.00  0.00    -0.000 C 
BRANCH   4   5
ATOM      5  C   UNL     1      15.248  -8.923   3.073  1.00  0.00    -0.000 C 
BRANCH   5   6
ATOM      6  C   UNL     1      16.403  -9.913   3.320  1.00  0.00    -0.000 C 
BRANCH   6   7
ATOM      7  C   UNL     1      17.769  -9.258   3.596  1.00  0.00    -0.000 C 
BRANCH   7   8
ATOM      8  C   UNL     1      17.647  -7.929   4.362  1.00  0.00    -0.000 C 
BRANCH   8   9
ATOM      9  C   UNL     1      17.571  -6.714   3.416  1.00  0.00    -0.000 C 
BRANCH   9  10
ATOM     10  C   UNL     1      16.793  -5.516   3.995  1.00  0.00    -0.000 C 
BRANCH  10  11
ATOM     11  C   UNL     1      16.093  -5.806   5.336  1.00  0.00    -0.003 C 
ATOM     12  C   UNL     1      16.824  -5.189   6.529  1.00  0.00     0.004 C 
ENDBRANCH  10  11
ENDBRANCH   9  10
ENDBRANCH   8   9
ENDBRANCH   7   8
ENDBRANCH   6   7
ENDBRANCH   5   6
ENDBRANCH   4   5
ENDBRANCH   3   4
ENDBRANCH   2   3
ENDBRANCH   1   2
BRANCH   1  13
ATOM     13  C   UNL     1      11.387  -6.333   4.894  1.00  0.00     0.000 C 
BRANCH  13  14
ATOM     14  C   UNL     1      10.248  -6.269   3.862  1.00  0.00     0.000 C 
BRANCH  14  15
ATOM     15  C   UNL     1       9.385  -5.006   4.010  1.00  0.00     0.000 C 
BRANCH  15  16
ATOM     16  C   UNL     1       8.092  -5.072   3.183  1.00  0.00     0.000 C 
BRANCH  16  17
ATOM     17  C   UNL     1       7.710  -6.524   2.875  1.00  0.00     0.000 C 
BRANCH  17  18
ATOM     18  C   UNL     1       6.244  -6.796   3.246  1.00  0.00     0.000 C 
BRANCH  18  19
ATOM     19  C   UNL     1       5.558  -5.589   3.905  1.00  0.00     0.000 C 
BRANCH  19  20
ATOM     20  C   UNL     1       4.840  -5.888   5.236  1.00  0.00     0.006 C 
BRANCH  20  21
ATOM     21  C   UNL     1       5.613  -6.840   6.167  1.00  0.00     0.053 C 
BRANCH  21  22
ATOM     22  C   UNL     1       4.886  -8.131   6.406  1.00  0.00     0.041 C 
ATOM     23  O   UNL     1       5.225  -8.882   7.358  1.00  0.00    -0.550 OA
ATOM     24  O   UNL     1       3.808  -8.482   5.605  1.00  0.00    -0.550 OA
ENDBRANCH  21  22
ENDBRANCH  20  21
ENDBRANCH  19  20
ENDBRANCH  18  19
ENDBRANCH  17  18
ENDBRANCH  16  17
ENDBRANCH  15  16
ENDBRANCH  14  15
ENDBRANCH  13  14
ENDBRANCH   1  13
TORSDOF 20
ENDMDL
MODEL 6
REMARK VINA RESULT:    -2.763      1.135      2.730
REMARK INTER + INTRA:          -7.975
REMARK INTER:                  -5.944
REMARK INTRA:                  -2.031
REMARK UNBOUND:                -1.982
REMARK SMILES CCCCCCCCCCCCCCCCCCCCCC(=O)[O-]
REMARK SMILES IDX 12 1 11 2 10 3 9 4 8 5 7 6 6 7 5 8 4 9 3 10 2 11 1 12 13 13
REMARK SMILES IDX 14 14 15 15 16 16 17 17 18 18 19 19 20 20 21 21 22 22 23 23
REMARK SMILES IDX 24 24
REMARK H PARENT
REMARK Flexibility Score: inf
ROOT
ATOM      1  C   UNL     1      11.053  -6.389   2.900  1.00  0.00     0.000 C 
ENDROOT
BRANCH   1   2
ATOM      2  C   UNL     1      12.376  -6.495   3.673  1.00  0.00     0.000 C 
BRANCH   2   3
ATOM      3  C   UNL     1      13.385  -7.373   2.918  1.00  0.00     0.000 C 
BRANCH   3   4
ATOM      4  C   UNL     1      13.562  -8.762   3.557  1.00  0.00    -0.000 C 
BRANCH   4   5
ATOM      5  C   UNL     1      14.905  -9.455   3.246  1.00  0.00    -0.000 C 
BRANCH   5   6
ATOM      6  C   UNL     1      15.952  -9.391   4.376  1.00  0.00    -0.000 C 
BRANCH   6   7
ATOM      7  C   UNL     1      17.307  -8.785   3.968  1.00  0.00    -0.000 C 
BRANCH   7   8
ATOM      8  C   UNL     1      17.174  -7.710   2.875  1.00  0.00    -0.000 C 
BRANCH   8   9
ATOM      9  C   UNL     1      17.424  -6.289   3.419  1.00  0.00    -0.000 C 
BRANCH   9  10
ATOM     10  C   UNL     1      16.137  -5.485   3.687  1.00  0.00    -0.000 C 
BRANCH  10  11
ATOM     11  C   UNL     1      15.670  -5.511   5.155  1.00  0.00    -0.003 C 
ATOM     12  C   UNL     1      16.830  -5.654   6.141  1.00  0.00     0.004 C 
ENDBRANCH  10  11
ENDBRANCH   9  10
ENDBRANCH   8   9
ENDBRANCH   7   8
ENDBRANCH   6   7
ENDBRANCH   5   6
ENDBRANCH   4   5
ENDBRANCH   3   4
ENDBRANCH   2   3
ENDBRANCH   1   2
BRANCH   1  13
ATOM     13  C   UNL     1      10.160  -5.246   3.408  1.00  0.00     0.000 C 
BRANCH  13  14
ATOM     14  C   UNL     1       9.104  -5.724   4.421  1.00  0.00     0.000 C 
BRANCH  14  15
ATOM     15  C   UNL     1       7.685  -5.741   3.831  1.00  0.00     0.000 C 
BRANCH  15  16
ATOM     16  C   UNL     1       7.265  -7.136   3.343  1.00  0.00     0.000 C 
BRANCH  16  17
ATOM     17  C   UNL     1       6.295  -7.795   4.331  1.00  0.00     0.000 C 
BRANCH  17  18
ATOM     18  C   UNL     1       5.013  -8.252   3.621  1.00  0.00     0.000 C 
BRANCH  18  19
ATOM     19  C   UNL     1       3.770  -8.183   4.523  1.00  0.00     0.000 C 
BRANCH  19  20
ATOM     20  C   UNL     1       2.655  -7.237   4.034  1.00  0.00     0.006 C 
BRANCH  20  21
ATOM     21  C   UNL     1       3.150  -6.107   3.112  1.00  0.00     0.053 C 
BRANCH  21  22
ATOM     22  C   UNL     1       3.336  -4.808   3.839  1.00  0.00     0.041 C 
ATOM     23  O   UNL     1       2.509  -3.871   3.686  1.00  0.00    -0.550 OA
ATOM     24  O   UNL     1       4.399  -4.648   4.719  1.00  0.00    -0.550 OA
ENDBRANCH  21  22
ENDBRANCH  20  21
ENDBRANCH  19  20
ENDBRANCH  18  19
ENDBRANCH  17  18
ENDBRANCH  16  17
ENDBRANCH  15  16
ENDBRANCH  14  15
ENDBRANCH  13  14
ENDBRANCH   1  13
TORSDOF 20
ENDMDL
MODEL 7
REMARK VINA RESULT:    -2.553      2.094      4.597
REMARK INTER + INTRA:          -7.521
REMARK INTER:                  -5.964
REMARK INTRA:                  -1.556
REMARK UNBOUND:                -1.982
REMARK SMILES CCCCCCCCCCCCCCCCCCCCCC(=O)[O-]
REMARK SMILES IDX 12 1 11 2 10 3 9 4 8 5 7 6 6 7 5 8 4 9 3 10 2 11 1 12 13 13
REMARK SMILES IDX 14 14 15 15 16 16 17 17 18 18 19 19 20 20 21 21 22 22 23 23
REMARK SMILES IDX 24 24
REMARK H PARENT
REMARK Flexibility Score: inf
ROOT
ATOM      1  C   UNL     1      14.533  -5.463   5.934  1.00  0.00     0.000 C 
ENDROOT
BRANCH   1   2
ATOM      2  C   UNL     1      16.005  -5.624   5.526  1.00  0.00     0.000 C 
BRANCH   2   3
ATOM      3  C   UNL     1      16.258  -5.028   4.134  1.00  0.00     0.000 C 
BRANCH   3   4
ATOM      4  C   UNL     1      16.576  -6.100   3.075  1.00  0.00    -0.000 C 
BRANCH   4   5
ATOM      5  C   UNL     1      18.064  -6.495   2.974  1.00  0.00    -0.000 C 
BRANCH   5   6
ATOM      6  C   UNL     1      18.444  -7.803   3.695  1.00  0.00    -0.000 C 
BRANCH   6   7
ATOM      7  C   UNL     1      17.552  -8.163   4.896  1.00  0.00    -0.000 C 
BRANCH   7   8
ATOM      8  C   UNL     1      17.067  -9.623   4.861  1.00  0.00    -0.000 C 
BRANCH   8   9
ATOM      9  C   UNL     1      16.826 -10.125   3.423  1.00  0.00    -0.000 C 
BRANCH   9  10
ATOM     10  C   UNL     1      15.416  -9.820   2.880  1.00  0.00    -0.000 C 
BRANCH  10  11
ATOM     11  C   UNL     1      14.321  -9.761   3.963  1.00  0.00    -0.003 C 
ATOM     12  C   UNL     1      13.031  -9.111   3.464  1.00  0.00     0.004 C 
ENDBRANCH  10  11
ENDBRANCH   9  10
ENDBRANCH   8   9
ENDBRANCH   7   8
ENDBRANCH   6   7
ENDBRANCH   5   6
ENDBRANCH   4   5
ENDBRANCH   3   4
ENDBRANCH   2   3
ENDBRANCH   1   2
BRANCH   1  13
ATOM     13  C   UNL     1      13.658  -4.927   4.791  1.00  0.00     0.000 C 
BRANCH  13  14
ATOM     14  C   UNL     1      12.397  -5.779   4.558  1.00  0.00     0.000 C 
BRANCH  14  15
ATOM     15  C   UNL     1      11.730  -5.488   3.205  1.00  0.00     0.000 C 
BRANCH  15  16
ATOM     16  C   UNL     1      10.456  -6.318   2.983  1.00  0.00     0.000 C 
BRANCH  16  17
ATOM     17  C   UNL     1       9.259  -5.694   3.711  1.00  0.00     0.000 C 
BRANCH  17  18
ATOM     18  C   UNL     1       8.150  -6.732   3.934  1.00  0.00     0.000 C 
BRANCH  18  19
ATOM     19  C   UNL     1       6.766  -6.238   3.481  1.00  0.00     0.000 C 
BRANCH  19  20
ATOM     20  C   UNL     1       5.677  -6.246   4.572  1.00  0.00     0.006 C 
BRANCH  20  21
ATOM     21  C   UNL     1       6.188  -6.647   5.968  1.00  0.00     0.053 C 
BRANCH  21  22
ATOM     22  C   UNL     1       5.777  -8.036   6.357  1.00  0.00     0.041 C 
ATOM     23  O   UNL     1       4.951  -8.216   7.290  1.00  0.00    -0.550 OA
ATOM     24  O   UNL     1       6.273  -9.131   5.660  1.00  0.00    -0.550 OA
ENDBRANCH  21  22
ENDBRANCH  20  21
ENDBRANCH  19  20
ENDBRANCH  18  19
ENDBRANCH  17  18
ENDBRANCH  16  17
ENDBRANCH  15  16
ENDBRANCH  14  15
ENDBRANCH  13  14
ENDBRANCH   1  13
TORSDOF 20
ENDMDL
