MODEL 1
REMARK VINA RESULT:    -4.712      0.000      0.000
REMARK INTER + INTRA:         -16.884
REMARK INTER:                 -12.425
REMARK INTRA:                  -4.459
REMARK UNBOUND:                -4.459
REMARK SMILES CCCCCCCCCCCCCCCCCCCCCCCCCCCCCC(=O)[O-]
REMARK SMILES IDX 16 1 17 2 18 3 19 4 20 5 21 6 22 7 23 8 24 9 25 10 26 11
REMARK SMILES IDX 27 12 28 13 29 14 30 15 31 16 32 17 15 18 14 19 13 20 12 21
REMARK SMILES IDX 11 22 10 23 9 24 8 25 7 26 6 27 5 28 4 29 3 30 2 31 1 32
REMARK H PARENT
REMARK Flexibility Score: inf
ROOT
ATOM      1  C   UNL     1     -10.624   3.971   8.574  1.00  0.00     0.000 C 
ENDROOT
BRANCH   1   2
ATOM      2  C   UNL     1     -12.125   3.744   8.820  1.00  0.00     0.000 C 
BRANCH   2   3
ATOM      3  C   UNL     1     -12.915   5.058   8.914  1.00  0.00     0.000 C 
BRANCH   3   4
ATOM      4  C   UNL     1     -13.964   5.200   7.799  1.00  0.00     0.000 C 
BRANCH   4   5
ATOM      5  C   UNL     1     -14.596   6.600   7.755  1.00  0.00     0.000 C 
BRANCH   5   6
ATOM      6  C   UNL     1     -14.003   7.613   8.751  1.00  0.00     0.000 C 
BRANCH   6   7
ATOM      7  C   UNL     1     -13.321   8.827   8.084  1.00  0.00     0.000 C 
BRANCH   7   8
ATOM      8  C   UNL     1     -12.332   8.420   6.975  1.00  0.00     0.000 C 
BRANCH   8   9
ATOM      9  C   UNL     1     -11.425   9.581   6.530  1.00  0.00     0.000 C 
BRANCH   9  10
ATOM     10  C   UNL     1     -11.499  10.841   7.414  1.00  0.00     0.000 C 
BRANCH  10  11
ATOM     11  C   UNL     1     -10.253  11.744   7.369  1.00  0.00     0.000 C 
BRANCH  11  12
ATOM     12  C   UNL     1      -9.075  11.194   6.542  1.00  0.00     0.000 C 
BRANCH  12  13
ATOM     13  C   UNL     1      -8.011  10.427   7.348  1.00  0.00     0.006 C 
BRANCH  13  14
ATOM     14  C   UNL     1      -7.103   9.560   6.465  1.00  0.00     0.053 C 
BRANCH  14  15
ATOM     15  C   UNL     1      -5.915  10.344   5.999  1.00  0.00     0.041 C 
ATOM     16  O   UNL     1      -5.990  11.047   4.955  1.00  0.00    -0.550 OA
ATOM     17  O   UNL     1      -4.729  10.305   6.722  1.00  0.00    -0.550 OA
ENDBRANCH  14  15
ENDBRANCH  13  14
ENDBRANCH  12  13
ENDBRANCH  11  12
ENDBRANCH  10  11
ENDBRANCH   9  10
ENDBRANCH   8   9
ENDBRANCH   7   8
ENDBRANCH   6   7
ENDBRANCH   5   6
ENDBRANCH   4   5
ENDBRANCH   3   4
ENDBRANCH   2   3
ENDBRANCH   1   2
BRANCH   1  18
ATOM     18  C   UNL     1     -10.325   5.467   8.385  1.00  0.00     0.000 C 
BRANCH  18  19
ATOM     19  C   UNL     1      -9.395   5.745   7.191  1.00  0.00     0.000 C 
BRANCH  19  20
ATOM     20  C   UNL     1     -10.111   5.926   5.837  1.00  0.00     0.000 C 
BRANCH  20  21
ATOM     21  C   UNL     1     -10.283   4.643   5.005  1.00  0.00     0.000 C 
BRANCH  21  22
ATOM     22  C   UNL     1     -11.755   4.221   4.849  1.00  0.00     0.000 C 
BRANCH  22  23
ATOM     23  C   UNL     1     -12.706   5.429   4.804  1.00  0.00     0.000 C 
BRANCH  23  24
ATOM     24  C   UNL     1     -14.011   5.119   4.050  1.00  0.00    -0.000 C 
BRANCH  24  25
ATOM     25  C   UNL     1     -14.746   6.391   3.599  1.00  0.00    -0.000 C 
BRANCH  25  26
ATOM     26  C   UNL     1     -14.421   6.790   2.152  1.00  0.00    -0.000 C 
BRANCH  26  27
ATOM     27  C   UNL     1     -14.033   8.272   2.073  1.00  0.00    -0.000 C 
BRANCH  27  28
ATOM     28  C   UNL     1     -14.243   8.976   3.423  1.00  0.00    -0.000 C 
BRANCH  28  29
ATOM     29  C   UNL     1     -14.117  10.505   3.317  1.00  0.00    -0.000 C 
BRANCH  29  30
ATOM     30  C   UNL     1     -12.660  10.991   3.406  1.00  0.00    -0.000 C 
BRANCH  30  31
ATOM     31  C   UNL     1     -12.235  11.811   2.179  1.00  0.00    -0.003 C 
ATOM     32  C   UNL     1     -12.094  10.963   0.916  1.00  0.00     0.004 C 
ENDBRANCH  30  31
ENDBRANCH  29  30
ENDBRANCH  28  29
ENDBRANCH  27  28
ENDBRANCH  26  27
ENDBRANCH  25  26
ENDBRANCH  24  25
ENDBRANCH  23  24
ENDBRANCH  22  23
ENDBRANCH  21  22
ENDBRANCH  20  21
ENDBRANCH  19  20
ENDBRANCH  18  19
ENDBRANCH   1  18
TORSDOF 28
ENDMDL
MODEL 2
REMARK VINA RESULT:    -3.460      2.466      6.374
REMARK INTER + INTRA:         -13.583
REMARK INTER:                  -8.436
REMARK INTRA:                  -5.147
REMARK UNBOUND:                -4.459
REMARK SMILES CCCCCCCCCCCCCCCCCCCCCCCCCCCCCC(=O)[O-]
REMARK SMILES IDX 16 1 17 2 18 3 19 4 20 5 21 6 22 7 23 8 24 9 25 10 26 11
REMARK SMILES IDX 27 12 28 13 29 14 30 15 31 16 32 17 15 18 14 19 13 20 12 21
REMARK SMILES IDX 11 22 10 23 9 24 8 25 7 26 6 27 5 28 4 29 3 30 2 31 1 32
REMARK H PARENT
REMARK Flexibility Score: inf
ROOT
ATOM      1  C   UNL     1     -11.600   8.339   7.231  1.00  0.00     0.000 C 
ENDROOT
BRANCH   1   2
ATOM      2  C   UNL     1     -10.765   8.494   5.949  1.00  0.00     0.000 C 
BRANCH   2   3
ATOM      3  C   UNL     1      -9.270   8.231   6.180  1.00  0.00     0.000 C 
BRANCH   3   4
ATOM      4  C   UNL     1      -8.403   8.642   4.979  1.00  0.00     0.000 C 
BRANCH   4   5
ATOM      5  C   UNL     1      -7.091   9.323   5.401  1.00  0.00     0.000 C 
BRANCH   5   6
ATOM      6  C   UNL     1      -6.916   9.515   6.919  1.00  0.00     0.000 C 
BRANCH   6   7
ATOM      7  C   UNL     1      -6.387  10.909   7.320  1.00  0.00     0.000 C 
BRANCH   7   8
ATOM      8  C   UNL     1      -7.481  11.994   7.288  1.00  0.00     0.000 C 
BRANCH   8   9
ATOM      9  C   UNL     1      -8.850  11.475   7.760  1.00  0.00     0.000 C 
BRANCH   9  10
ATOM     10  C   UNL     1     -10.066  12.125   7.073  1.00  0.00     0.000 C 
BRANCH  10  11
ATOM     11  C   UNL     1     -10.052  12.074   5.534  1.00  0.00     0.000 C 
BRANCH  11  12
ATOM     12  C   UNL     1     -11.439  12.124   4.864  1.00  0.00     0.000 C 
BRANCH  12  13
ATOM     13  C   UNL     1     -11.715  11.003   3.847  1.00  0.00     0.006 C 
BRANCH  13  14
ATOM     14  C   UNL     1     -13.183  10.951   3.400  1.00  0.00     0.053 C 
BRANCH  14  15
ATOM     15  C   UNL     1     -13.284  10.525   1.968  1.00  0.00     0.041 C 
ATOM     16  O   UNL     1     -12.315  10.711   1.182  1.00  0.00    -0.550 OA
ATOM     17  O   UNL     1     -14.442   9.916   1.502  1.00  0.00    -0.550 OA
ENDBRANCH  14  15
ENDBRANCH  13  14
ENDBRANCH  12  13
ENDBRANCH  11  12
ENDBRANCH  10  11
ENDBRANCH   9  10
ENDBRANCH   8   9
ENDBRANCH   7   8
ENDBRANCH   6   7
ENDBRANCH   5   6
ENDBRANCH   4   5
ENDBRANCH   3   4
ENDBRANCH   2   3
ENDBRANCH   1   2
BRANCH   1  18
ATOM     18  C   UNL     1     -12.479   9.578   7.460  1.00  0.00     0.000 C 
BRANCH  18  19
ATOM     19  C   UNL     1     -13.962   9.327   7.136  1.00  0.00     0.000 C 
BRANCH  19  20
ATOM     20  C   UNL     1     -14.469   7.907   7.462  1.00  0.00     0.000 C 
BRANCH  20  21
ATOM     21  C   UNL     1     -15.124   7.155   6.290  1.00  0.00     0.000 C 
BRANCH  21  22
ATOM     22  C   UNL     1     -14.865   7.823   4.928  1.00  0.00     0.000 C 
BRANCH  22  23
ATOM     23  C   UNL     1     -13.643   7.226   4.210  1.00  0.00     0.000 C 
BRANCH  23  24
ATOM     24  C   UNL     1     -13.777   5.709   3.988  1.00  0.00    -0.000 C 
BRANCH  24  25
ATOM     25  C   UNL     1     -13.523   4.902   5.271  1.00  0.00    -0.000 C 
BRANCH  25  26
ATOM     26  C   UNL     1     -12.175   4.167   5.259  1.00  0.00    -0.000 C 
BRANCH  26  27
ATOM     27  C   UNL     1     -11.015   5.156   5.432  1.00  0.00    -0.000 C 
BRANCH  27  28
ATOM     28  C   UNL     1      -9.927   4.584   6.354  1.00  0.00    -0.000 C 
BRANCH  28  29
ATOM     29  C   UNL     1     -10.243   4.802   7.843  1.00  0.00    -0.000 C 
BRANCH  29  30
ATOM     30  C   UNL     1     -11.027   3.632   8.463  1.00  0.00    -0.000 C 
BRANCH  30  31
ATOM     31  C   UNL     1     -12.414   4.054   8.971  1.00  0.00    -0.003 C 
ATOM     32  C   UNL     1     -12.555   5.568   9.125  1.00  0.00     0.004 C 
ENDBRANCH  30  31
ENDBRANCH  29  30
ENDBRANCH  28  29
ENDBRANCH  27  28
ENDBRANCH  26  27
ENDBRANCH  25  26
ENDBRANCH  24  25
ENDBRANCH  23  24
ENDBRANCH  22  23
ENDBRANCH  21  22
ENDBRANCH  20  21
ENDBRANCH  19  20
ENDBRANCH  18  19
ENDBRANCH   1  18
TORSDOF 28
ENDMDL
MODEL 3
REMARK VINA RESULT:    -3.410      2.305      6.152
REMARK INTER + INTRA:         -13.450
REMARK INTER:                 -10.177
REMARK INTRA:                  -3.272
REMARK UNBOUND:                -4.459
REMARK SMILES CCCCCCCCCCCCCCCCCCCCCCCCCCCCCC(=O)[O-]
REMARK SMILES IDX 16 1 17 2 18 3 19 4 20 5 21 6 22 7 23 8 24 9 25 10 26 11
REMARK SMILES IDX 27 12 28 13 29 14 30 15 31 16 32 17 15 18 14 19 13 20 12 21
REMARK SMILES IDX 11 22 10 23 9 24 8 25 7 26 6 27 5 28 4 29 3 30 2 31 1 32
REMARK H PARENT
REMARK Flexibility Score: inf
ROOT
ATOM      1  C   UNL     1      -9.098   6.017   6.602  1.00  0.00     0.000 C 
ENDROOT
BRANCH   1   2
ATOM      2  C   UNL     1     -10.231   5.700   7.593  1.00  0.00     0.000 C 
BRANCH   2   3
ATOM      3  C   UNL     1     -10.288   4.213   7.971  1.00  0.00     0.000 C 
BRANCH   3   4
ATOM      4  C   UNL     1     -11.728   3.691   8.109  1.00  0.00     0.000 C 
BRANCH   4   5
ATOM      5  C   UNL     1     -12.444   3.565   6.755  1.00  0.00     0.000 C 
BRANCH   5   6
ATOM      6  C   UNL     1     -11.894   4.474   5.640  1.00  0.00     0.000 C 
BRANCH   6   7
ATOM      7  C   UNL     1     -12.837   4.624   4.427  1.00  0.00     0.000 C 
BRANCH   7   8
ATOM      8  C   UNL     1     -14.070   5.495   4.734  1.00  0.00     0.000 C 
BRANCH   8   9
ATOM      9  C   UNL     1     -13.844   6.983   4.414  1.00  0.00     0.000 C 
BRANCH   9  10
ATOM     10  C   UNL     1     -15.125   7.835   4.337  1.00  0.00     0.000 C 
BRANCH  10  11
ATOM     11  C   UNL     1     -14.921   9.344   4.564  1.00  0.00     0.000 C 
BRANCH  11  12
ATOM     12  C   UNL     1     -13.789   9.983   3.736  1.00  0.00     0.000 C 
BRANCH  12  13
ATOM     13  C   UNL     1     -14.180  10.402   2.307  1.00  0.00     0.006 C 
BRANCH  13  14
ATOM     14  C   UNL     1     -13.197   9.890   1.245  1.00  0.00     0.053 C 
BRANCH  14  15
ATOM     15  C   UNL     1     -12.144  10.916   0.962  1.00  0.00     0.041 C 
ATOM     16  O   UNL     1     -11.764  11.702   1.873  1.00  0.00    -0.550 OA
ATOM     17  O   UNL     1     -11.576  11.001  -0.303  1.00  0.00    -0.550 OA
ENDBRANCH  14  15
ENDBRANCH  13  14
ENDBRANCH  12  13
ENDBRANCH  11  12
ENDBRANCH  10  11
ENDBRANCH   9  10
ENDBRANCH   8   9
ENDBRANCH   7   8
ENDBRANCH   6   7
ENDBRANCH   5   6
ENDBRANCH   4   5
ENDBRANCH   3   4
ENDBRANCH   2   3
ENDBRANCH   1   2
BRANCH   1  18
ATOM     18  C   UNL     1      -9.447   7.251   5.756  1.00  0.00     0.000 C 
BRANCH  18  19
ATOM     19  C   UNL     1      -8.744   8.530   6.245  1.00  0.00     0.000 C 
BRANCH  19  20
ATOM     20  C   UNL     1      -7.481   8.922   5.451  1.00  0.00     0.000 C 
BRANCH  20  21
ATOM     21  C   UNL     1      -7.315  10.428   5.180  1.00  0.00     0.000 C 
BRANCH  21  22
ATOM     22  C   UNL     1      -7.478  11.288   6.446  1.00  0.00     0.000 C 
BRANCH  22  23
ATOM     23  C   UNL     1      -8.771  12.119   6.424  1.00  0.00     0.000 C 
BRANCH  23  24
ATOM     24  C   UNL     1      -9.694  11.736   5.254  1.00  0.00    -0.000 C 
BRANCH  24  25
ATOM     25  C   UNL     1     -11.163  12.099   5.519  1.00  0.00    -0.000 C 
BRANCH  25  26
ATOM     26  C   UNL     1     -11.814  11.218   6.595  1.00  0.00    -0.000 C 
BRANCH  26  27
ATOM     27  C   UNL     1     -12.636  12.071   7.570  1.00  0.00    -0.000 C 
BRANCH  27  28
ATOM     28  C   UNL     1     -13.607  11.204   8.386  1.00  0.00    -0.000 C 
BRANCH  28  29
ATOM     29  C   UNL     1     -13.081   9.776   8.606  1.00  0.00    -0.000 C 
BRANCH  29  30
ATOM     30  C   UNL     1     -13.861   8.723   7.801  1.00  0.00    -0.000 C 
BRANCH  30  31
ATOM     31  C   UNL     1     -13.323   7.300   8.014  1.00  0.00    -0.003 C 
ATOM     32  C   UNL     1     -14.422   6.290   8.339  1.00  0.00     0.004 C 
ENDBRANCH  30  31
ENDBRANCH  29  30
ENDBRANCH  28  29
ENDBRANCH  27  28
ENDBRANCH  26  27
ENDBRANCH  25  26
ENDBRANCH  24  25
ENDBRANCH  23  24
ENDBRANCH  22  23
ENDBRANCH  21  22
ENDBRANCH  20  21
ENDBRANCH  19  20
ENDBRANCH  18  19
ENDBRANCH   1  18
TORSDOF 28
ENDMDL
MODEL 4
REMARK VINA RESULT:    -3.339      1.390      3.858
REMARK INTER + INTRA:         -13.263
REMARK INTER:                  -9.742
REMARK INTRA:                  -3.520
REMARK UNBOUND:                -4.459
REMARK SMILES CCCCCCCCCCCCCCCCCCCCCCCCCCCCCC(=O)[O-]
REMARK SMILES IDX 16 1 17 2 18 3 19 4 20 5 21 6 22 7 23 8 24 9 25 10 26 11
REMARK SMILES IDX 27 12 28 13 29 14 30 15 31 16 32 17 15 18 14 19 13 20 12 21
REMARK SMILES IDX 11 22 10 23 9 24 8 25 7 26 6 27 5 28 4 29 3 30 2 31 1 32
REMARK H PARENT
REMARK Flexibility Score: inf
ROOT
ATOM      1  C   UNL     1     -12.498   3.276   6.121  1.00  0.00     0.000 C 
ENDROOT
BRANCH   1   2
ATOM      2  C   UNL     1     -11.061   3.476   6.630  1.00  0.00     0.000 C 
BRANCH   2   3
ATOM      3  C   UNL     1     -10.981   3.561   8.161  1.00  0.00     0.000 C 
BRANCH   3   4
ATOM      4  C   UNL     1     -10.254   4.826   8.648  1.00  0.00     0.000 C 
BRANCH   4   5
ATOM      5  C   UNL     1     -10.922   6.119   8.155  1.00  0.00     0.000 C 
BRANCH   5   6
ATOM      6  C   UNL     1     -10.466   6.599   6.764  1.00  0.00     0.000 C 
BRANCH   6   7
ATOM      7  C   UNL     1      -8.933   6.696   6.603  1.00  0.00     0.000 C 
BRANCH   7   8
ATOM      8  C   UNL     1      -8.481   8.037   5.993  1.00  0.00     0.000 C 
BRANCH   8   9
ATOM      9  C   UNL     1      -9.576   9.116   6.048  1.00  0.00     0.000 C 
BRANCH   9  10
ATOM     10  C   UNL     1      -9.210  10.450   5.371  1.00  0.00     0.000 C 
BRANCH  10  11
ATOM     11  C   UNL     1      -9.472  11.708   6.221  1.00  0.00     0.000 C 
BRANCH  11  12
ATOM     12  C   UNL     1      -8.742  11.744   7.578  1.00  0.00     0.000 C 
BRANCH  12  13
ATOM     13  C   UNL     1      -7.253  12.125   7.510  1.00  0.00     0.006 C 
BRANCH  13  14
ATOM     14  C   UNL     1      -6.446  11.214   6.574  1.00  0.00     0.053 C 
BRANCH  14  15
ATOM     15  C   UNL     1      -4.976  11.438   6.757  1.00  0.00     0.041 C 
ATOM     16  O   UNL     1      -4.162  11.051   5.875  1.00  0.00    -0.550 OA
ATOM     17  O   UNL     1      -4.506  12.081   7.895  1.00  0.00    -0.550 OA
ENDBRANCH  14  15
ENDBRANCH  13  14
ENDBRANCH  12  13
ENDBRANCH  11  12
ENDBRANCH  10  11
ENDBRANCH   9  10
ENDBRANCH   8   9
ENDBRANCH   7   8
ENDBRANCH   6   7
ENDBRANCH   5   6
ENDBRANCH   4   5
ENDBRANCH   3   4
ENDBRANCH   2   3
ENDBRANCH   1   2
BRANCH   1  18
ATOM     18  C   UNL     1     -13.167   4.629   5.836  1.00  0.00     0.000 C 
BRANCH  18  19
ATOM     19  C   UNL     1     -14.032   5.127   7.007  1.00  0.00     0.000 C 
BRANCH  19  20
ATOM     20  C   UNL     1     -14.563   6.567   6.857  1.00  0.00     0.000 C 
BRANCH  20  21
ATOM     21  C   UNL     1     -14.345   7.480   8.077  1.00  0.00     0.000 C 
BRANCH  21  22
ATOM     22  C   UNL     1     -14.283   8.973   7.705  1.00  0.00     0.000 C 
BRANCH  22  23
ATOM     23  C   UNL     1     -12.888   9.393   7.212  1.00  0.00     0.000 C 
BRANCH  23  24
ATOM     24  C   UNL     1     -12.872  10.827   6.652  1.00  0.00    -0.000 C 
BRANCH  24  25
ATOM     25  C   UNL     1     -14.171  11.186   5.914  1.00  0.00    -0.000 C 
BRANCH  25  26
ATOM     26  C   UNL     1     -13.926  11.711   4.492  1.00  0.00    -0.000 C 
BRANCH  26  27
ATOM     27  C   UNL     1     -12.634  11.122   3.911  1.00  0.00    -0.000 C 
BRANCH  27  28
ATOM     28  C   UNL     1     -12.711  11.011   2.380  1.00  0.00    -0.000 C 
BRANCH  28  29
ATOM     29  C   UNL     1     -13.983  10.289   1.904  1.00  0.00    -0.000 C 
BRANCH  29  30
ATOM     30  C   UNL     1     -13.794   8.767   1.782  1.00  0.00    -0.000 C 
BRANCH  30  31
ATOM     31  C   UNL     1     -14.349   8.004   2.994  1.00  0.00    -0.003 C 
ATOM     32  C   UNL     1     -14.432   6.497   2.761  1.00  0.00     0.004 C 
ENDBRANCH  30  31
ENDBRANCH  29  30
ENDBRANCH  28  29
ENDBRANCH  27  28
ENDBRANCH  26  27
ENDBRANCH  25  26
ENDBRANCH  24  25
ENDBRANCH  23  24
ENDBRANCH  22  23
ENDBRANCH  21  22
ENDBRANCH  20  21
ENDBRANCH  19  20
ENDBRANCH  18  19
ENDBRANCH   1  18
TORSDOF 28
ENDMDL
MODEL 5
REMARK VINA RESULT:    -3.145      2.663      5.542
REMARK INTER + INTRA:         -12.752
REMARK INTER:                  -9.516
REMARK INTRA:                  -3.236
REMARK UNBOUND:                -4.459
REMARK SMILES CCCCCCCCCCCCCCCCCCCCCCCCCCCCCC(=O)[O-]
REMARK SMILES IDX 16 1 17 2 18 3 19 4 20 5 21 6 22 7 23 8 24 9 25 10 26 11
REMARK SMILES IDX 27 12 28 13 29 14 30 15 31 16 32 17 15 18 14 19 13 20 12 21
REMARK SMILES IDX 11 22 10 23 9 24 8 25 7 26 6 27 5 28 4 29 3 30 2 31 1 32
REMARK H PARENT
REMARK Flexibility Score: inf
ROOT
ATOM      1  C   UNL     1      -9.268   6.274   6.040  1.00  0.00     0.000 C 
ENDROOT
BRANCH   1   2
ATOM      2  C   UNL     1      -9.236   5.654   7.447  1.00  0.00     0.000 C 
BRANCH   2   3
ATOM      3  C   UNL     1     -10.505   4.849   7.768  1.00  0.00     0.000 C 
BRANCH   3   4
ATOM      4  C   UNL     1     -11.129   5.240   9.118  1.00  0.00     0.000 C 
BRANCH   4   5
ATOM      5  C   UNL     1     -12.486   5.944   8.961  1.00  0.00     0.000 C 
BRANCH   5   6
ATOM      6  C   UNL     1     -13.215   5.664   7.633  1.00  0.00     0.000 C 
BRANCH   6   7
ATOM      7  C   UNL     1     -14.738   5.910   7.687  1.00  0.00     0.000 C 
BRANCH   7   8
ATOM      8  C   UNL     1     -15.097   7.403   7.821  1.00  0.00     0.000 C 
BRANCH   8   9
ATOM      9  C   UNL     1     -14.414   8.278   6.756  1.00  0.00     0.000 C 
BRANCH   9  10
ATOM     10  C   UNL     1     -15.024   8.182   5.345  1.00  0.00     0.000 C 
BRANCH  10  11
ATOM     11  C   UNL     1     -14.108   7.553   4.278  1.00  0.00     0.000 C 
BRANCH  11  12
ATOM     12  C   UNL     1     -14.629   6.241   3.659  1.00  0.00     0.000 C 
BRANCH  12  13
ATOM     13  C   UNL     1     -13.951   4.960   4.178  1.00  0.00     0.006 C 
BRANCH  13  14
ATOM     14  C   UNL     1     -12.549   5.215   4.749  1.00  0.00     0.053 C 
BRANCH  14  15
ATOM     15  C   UNL     1     -11.739   3.956   4.742  1.00  0.00     0.041 C 
ATOM     16  O   UNL     1     -11.822   3.144   5.704  1.00  0.00    -0.550 OA
ATOM     17  O   UNL     1     -10.900   3.673   3.672  1.00  0.00    -0.550 OA
ENDBRANCH  14  15
ENDBRANCH  13  14
ENDBRANCH  12  13
ENDBRANCH  11  12
ENDBRANCH  10  11
ENDBRANCH   9  10
ENDBRANCH   8   9
ENDBRANCH   7   8
ENDBRANCH   6   7
ENDBRANCH   5   6
ENDBRANCH   4   5
ENDBRANCH   3   4
ENDBRANCH   2   3
ENDBRANCH   1   2
BRANCH   1  18
ATOM     18  C   UNL     1      -9.348   7.806   6.125  1.00  0.00     0.000 C 
BRANCH  18  19
ATOM     19  C   UNL     1      -8.356   8.509   5.181  1.00  0.00     0.000 C 
BRANCH  19  20
ATOM     20  C   UNL     1      -7.423   9.531   5.862  1.00  0.00     0.000 C 
BRANCH  20  21
ATOM     21  C   UNL     1      -7.852  11.003   5.736  1.00  0.00     0.000 C 
BRANCH  21  22
ATOM     22  C   UNL     1      -9.315  11.165   5.283  1.00  0.00     0.000 C 
BRANCH  22  23
ATOM     23  C   UNL     1     -10.226  11.658   6.419  1.00  0.00     0.000 C 
BRANCH  23  24
ATOM     24  C   UNL     1     -10.928  10.501   7.152  1.00  0.00    -0.000 C 
BRANCH  24  25
ATOM     25  C   UNL     1     -12.432  10.751   7.343  1.00  0.00    -0.000 C 
BRANCH  25  26
ATOM     26  C   UNL     1     -12.882  12.125   6.823  1.00  0.00    -0.000 C 
BRANCH  26  27
ATOM     27  C   UNL     1     -14.067  11.978   5.860  1.00  0.00    -0.000 C 
BRANCH  27  28
ATOM     28  C   UNL     1     -13.613  12.091   4.397  1.00  0.00    -0.000 C 
BRANCH  28  29
ATOM     29  C   UNL     1     -14.414  11.172   3.458  1.00  0.00    -0.000 C 
BRANCH  29  30
ATOM     30  C   UNL     1     -13.515  10.363   2.507  1.00  0.00    -0.000 C 
BRANCH  30  31
ATOM     31  C   UNL     1     -12.276  11.150   2.054  1.00  0.00    -0.003 C 
ATOM     32  C   UNL     1     -11.941  10.936   0.579  1.00  0.00     0.004 C 
ENDBRANCH  30  31
ENDBRANCH  29  30
ENDBRANCH  28  29
ENDBRANCH  27  28
ENDBRANCH  26  27
ENDBRANCH  25  26
ENDBRANCH  24  25
ENDBRANCH  23  24
ENDBRANCH  22  23
ENDBRANCH  21  22
ENDBRANCH  20  21
ENDBRANCH  19  20
ENDBRANCH  18  19
ENDBRANCH   1  18
TORSDOF 28
ENDMDL
MODEL 6
REMARK VINA RESULT:    -2.822      2.807      6.162
REMARK INTER + INTRA:         -11.899
REMARK INTER:                  -8.656
REMARK INTRA:                  -3.243
REMARK UNBOUND:                -4.459
REMARK SMILES CCCCCCCCCCCCCCCCCCCCCCCCCCCCCC(=O)[O-]
REMARK SMILES IDX 16 1 17 2 18 3 19 4 20 5 21 6 22 7 23 8 24 9 25 10 26 11
REMARK SMILES IDX 27 12 28 13 29 14 30 15 31 16 32 17 15 18 14 19 13 20 12 21
REMARK SMILES IDX 11 22 10 23 9 24 8 25 7 26 6 27 5 28 4 29 3 30 2 31 1 32
REMARK H PARENT
REMARK Flexibility Score: inf
ROOT
ATOM      1  C   UNL     1     -10.767   7.888   7.201  1.00  0.00     0.000 C 
ENDROOT
BRANCH   1   2
ATOM      2  C   UNL     1     -12.133   8.202   6.569  1.00  0.00     0.000 C 
BRANCH   2   3
ATOM      3  C   UNL     1     -12.916   9.268   7.351  1.00  0.00     0.000 C 
BRANCH   3   4
ATOM      4  C   UNL     1     -14.439   9.074   7.256  1.00  0.00     0.000 C 
BRANCH   4   5
ATOM      5  C   UNL     1     -14.919   7.805   7.978  1.00  0.00     0.000 C 
BRANCH   5   6
ATOM      6  C   UNL     1     -13.961   7.265   9.056  1.00  0.00     0.000 C 
BRANCH   6   7
ATOM      7  C   UNL     1     -13.893   5.725   9.125  1.00  0.00     0.000 C 
BRANCH   7   8
ATOM      8  C   UNL     1     -13.137   5.107   7.933  1.00  0.00     0.000 C 
BRANCH   8   9
ATOM      9  C   UNL     1     -12.105   4.051   8.364  1.00  0.00     0.000 C 
BRANCH   9  10
ATOM     10  C   UNL     1     -11.157   3.571   7.249  1.00  0.00     0.000 C 
BRANCH  10  11
ATOM     11  C   UNL     1     -11.096   4.481   6.007  1.00  0.00     0.000 C 
BRANCH  11  12
ATOM     12  C   UNL     1     -12.012   4.060   4.842  1.00  0.00     0.000 C 
BRANCH  12  13
ATOM     13  C   UNL     1     -13.388   4.750   4.809  1.00  0.00     0.006 C 
BRANCH  13  14
ATOM     14  C   UNL     1     -13.824   5.145   3.392  1.00  0.00     0.053 C 
BRANCH  14  15
ATOM     15  C   UNL     1     -14.326   6.556   3.367  1.00  0.00     0.041 C 
ATOM     16  O   UNL     1     -14.260   7.233   2.305  1.00  0.00    -0.550 OA
ATOM     17  O   UNL     1     -14.873   7.120   4.512  1.00  0.00    -0.550 OA
ENDBRANCH  14  15
ENDBRANCH  13  14
ENDBRANCH  12  13
ENDBRANCH  11  12
ENDBRANCH  10  11
ENDBRANCH   9  10
ENDBRANCH   8   9
ENDBRANCH   7   8
ENDBRANCH   6   7
ENDBRANCH   5   6
ENDBRANCH   4   5
ENDBRANCH   3   4
ENDBRANCH   2   3
ENDBRANCH   1   2
BRANCH   1  18
ATOM     18  C   UNL     1      -9.755   7.470   6.123  1.00  0.00     0.000 C 
BRANCH  18  19
ATOM     19  C   UNL     1      -9.016   8.668   5.500  1.00  0.00     0.000 C 
BRANCH  19  20
ATOM     20  C   UNL     1      -7.550   8.834   5.950  1.00  0.00     0.000 C 
BRANCH  20  21
ATOM     21  C   UNL     1      -6.858  10.125   5.477  1.00  0.00     0.000 C 
BRANCH  21  22
ATOM     22  C   UNL     1      -6.704  11.169   6.598  1.00  0.00     0.000 C 
BRANCH  22  23
ATOM     23  C   UNL     1      -7.819  11.061   7.651  1.00  0.00     0.000 C 
BRANCH  23  24
ATOM     24  C   UNL     1      -8.937  12.096   7.429  1.00  0.00    -0.000 C 
BRANCH  24  25
ATOM     25  C   UNL     1     -10.331  11.452   7.364  1.00  0.00    -0.000 C 
BRANCH  25  26
ATOM     26  C   UNL     1     -11.254  12.125   6.336  1.00  0.00    -0.000 C 
BRANCH  26  27
ATOM     27  C   UNL     1     -11.116  11.454   4.964  1.00  0.00    -0.000 C 
BRANCH  27  28
ATOM     28  C   UNL     1     -12.333  11.752   4.074  1.00  0.00    -0.000 C 
BRANCH  28  29
ATOM     29  C   UNL     1     -13.263  10.537   3.919  1.00  0.00    -0.000 C 
BRANCH  29  30
ATOM     30  C   UNL     1     -14.187  10.647   2.693  1.00  0.00    -0.000 C 
BRANCH  30  31
ATOM     31  C   UNL     1     -13.512  11.354   1.508  1.00  0.00    -0.003 C 
ATOM     32  C   UNL     1     -12.131  10.787   1.183  1.00  0.00     0.004 C 
ENDBRANCH  30  31
ENDBRANCH  29  30
ENDBRANCH  28  29
ENDBRANCH  27  28
ENDBRANCH  26  27
ENDBRANCH  25  26
ENDBRANCH  24  25
ENDBRANCH  23  24
ENDBRANCH  22  23
ENDBRANCH  21  22
ENDBRANCH  20  21
ENDBRANCH  19  20
ENDBRANCH  18  19
ENDBRANCH   1  18
TORSDOF 28
ENDMDL
MODEL 7
REMARK VINA RESULT:    -2.770      2.952      7.196
REMARK INTER + INTRA:         -11.763
REMARK INTER:                  -8.285
REMARK INTRA:                  -3.478
REMARK UNBOUND:                -4.459
REMARK SMILES CCCCCCCCCCCCCCCCCCCCCCCCCCCCCC(=O)[O-]
REMARK SMILES IDX 16 1 17 2 18 3 19 4 20 5 21 6 22 7 23 8 24 9 25 10 26 11
REMARK SMILES IDX 27 12 28 13 29 14 30 15 31 16 32 17 15 18 14 19 13 20 12 21
REMARK SMILES IDX 11 22 10 23 9 24 8 25 7 26 6 27 5 28 4 29 3 30 2 31 1 32
REMARK H PARENT
REMARK Flexibility Score: inf
ROOT
ATOM      1  C   UNL     1     -12.859   6.629   7.594  1.00  0.00     0.000 C 
ENDROOT
BRANCH   1   2
ATOM      2  C   UNL     1     -12.847   7.930   6.774  1.00  0.00     0.000 C 
BRANCH   2   3
ATOM      3  C   UNL     1     -13.363   9.137   7.572  1.00  0.00     0.000 C 
BRANCH   3   4
ATOM      4  C   UNL     1     -12.363  10.306   7.592  1.00  0.00     0.000 C 
BRANCH   4   5
ATOM      5  C   UNL     1     -11.831  10.653   6.193  1.00  0.00     0.000 C 
BRANCH   5   6
ATOM      6  C   UNL     1     -12.496  11.871   5.527  1.00  0.00     0.000 C 
BRANCH   6   7
ATOM      7  C   UNL     1     -14.038  11.867   5.604  1.00  0.00     0.000 C 
BRANCH   7   8
ATOM      8  C   UNL     1     -14.705  11.886   4.215  1.00  0.00     0.000 C 
BRANCH   8   9
ATOM      9  C   UNL     1     -13.868  11.168   3.142  1.00  0.00     0.000 C 
BRANCH   9  10
ATOM     10  C   UNL     1     -14.386   9.776   2.735  1.00  0.00     0.000 C 
BRANCH  10  11
ATOM     11  C   UNL     1     -14.624   8.800   3.903  1.00  0.00     0.000 C 
BRANCH  11  12
ATOM     12  C   UNL     1     -14.766   7.319   3.501  1.00  0.00     0.000 C 
BRANCH  12  13
ATOM     13  C   UNL     1     -13.535   6.442   3.792  1.00  0.00     0.006 C 
BRANCH  13  14
ATOM     14  C   UNL     1     -13.901   4.981   4.088  1.00  0.00     0.053 C 
BRANCH  14  15
ATOM     15  C   UNL     1     -12.769   4.283   4.777  1.00  0.00     0.041 C 
ATOM     16  O   UNL     1     -11.596   4.375   4.321  1.00  0.00    -0.550 OA
ATOM     17  O   UNL     1     -13.006   3.539   5.926  1.00  0.00    -0.550 OA
ENDBRANCH  14  15
ENDBRANCH  13  14
ENDBRANCH  12  13
ENDBRANCH  11  12
ENDBRANCH  10  11
ENDBRANCH   9  10
ENDBRANCH   8   9
ENDBRANCH   7   8
ENDBRANCH   6   7
ENDBRANCH   5   6
ENDBRANCH   4   5
ENDBRANCH   3   4
ENDBRANCH   2   3
ENDBRANCH   1   2
BRANCH   1  18
ATOM     18  C   UNL     1     -11.542   6.464   8.368  1.00  0.00     0.000 C 
BRANCH  18  19
ATOM     19  C   UNL     1     -10.723   5.248   7.900  1.00  0.00     0.000 C 
BRANCH  19  20
ATOM     20  C   UNL     1      -9.407   5.590   7.173  1.00  0.00     0.000 C 
BRANCH  20  21
ATOM     21  C   UNL     1      -9.556   6.458   5.911  1.00  0.00     0.000 C 
BRANCH  21  22
ATOM     22  C   UNL     1      -9.300   7.953   6.176  1.00  0.00     0.000 C 
BRANCH  22  23
ATOM     23  C   UNL     1      -8.315   8.564   5.165  1.00  0.00     0.000 C 
BRANCH  23  24
ATOM     24  C   UNL     1      -7.063   9.146   5.845  1.00  0.00    -0.000 C 
BRANCH  24  25
ATOM     25  C   UNL     1      -7.349   9.661   7.264  1.00  0.00    -0.000 C 
BRANCH  25  26
ATOM     26  C   UNL     1      -7.117  11.172   7.411  1.00  0.00    -0.000 C 
BRANCH  26  27
ATOM     27  C   UNL     1      -5.806  11.448   8.160  1.00  0.00    -0.000 C 
BRANCH  27  28
ATOM     28  C   UNL     1      -4.773  12.122   7.244  1.00  0.00    -0.000 C 
BRANCH  28  29
ATOM     29  C   UNL     1      -4.189  11.154   6.201  1.00  0.00    -0.000 C 
BRANCH  29  30
ATOM     30  C   UNL     1      -4.414  11.630   4.755  1.00  0.00    -0.000 C 
BRANCH  30  31
ATOM     31  C   UNL     1      -3.181  11.411   3.865  1.00  0.00    -0.003 C 
ATOM     32  C   UNL     1      -1.870  11.424   4.649  1.00  0.00     0.004 C 
ENDBRANCH  30  31
ENDBRANCH  29  30
ENDBRANCH  28  29
ENDBRANCH  27  28
ENDBRANCH  26  27
ENDBRANCH  25  26
ENDBRANCH  24  25
ENDBRANCH  23  24
ENDBRANCH  22  23
ENDBRANCH  21  22
ENDBRANCH  20  21
ENDBRANCH  19  20
ENDBRANCH  18  19
ENDBRANCH   1  18
TORSDOF 28
ENDMDL
MODEL 8
REMARK VINA RESULT:    -2.619      2.714      6.343
REMARK INTER + INTRA:         -11.365
REMARK INTER:                  -9.406
REMARK INTRA:                  -1.959
REMARK UNBOUND:                -4.459
REMARK SMILES CCCCCCCCCCCCCCCCCCCCCCCCCCCCCC(=O)[O-]
REMARK SMILES IDX 16 1 17 2 18 3 19 4 20 5 21 6 22 7 23 8 24 9 25 10 26 11
REMARK SMILES IDX 27 12 28 13 29 14 30 15 31 16 32 17 15 18 14 19 13 20 12 21
REMARK SMILES IDX 11 22 10 23 9 24 8 25 7 26 6 27 5 28 4 29 3 30 2 31 1 32
REMARK H PARENT
REMARK Flexibility Score: inf
ROOT
ATOM      1  C   UNL     1     -11.022   4.026   4.798  1.00  0.00     0.000 C 
ENDROOT
BRANCH   1   2
ATOM      2  C   UNL     1     -11.279   3.094   5.995  1.00  0.00     0.000 C 
BRANCH   2   3
ATOM      3  C   UNL     1     -12.485   3.533   6.839  1.00  0.00     0.000 C 
BRANCH   3   4
ATOM      4  C   UNL     1     -12.082   4.016   8.242  1.00  0.00     0.000 C 
BRANCH   4   5
ATOM      5  C   UNL     1     -13.087   5.016   8.835  1.00  0.00     0.000 C 
BRANCH   5   6
ATOM      6  C   UNL     1     -14.024   5.683   7.811  1.00  0.00     0.000 C 
BRANCH   6   7
ATOM      7  C   UNL     1     -13.514   7.042   7.284  1.00  0.00     0.000 C 
BRANCH   7   8
ATOM      8  C   UNL     1     -14.083   8.239   8.072  1.00  0.00     0.000 C 
BRANCH   8   9
ATOM      9  C   UNL     1     -13.242   9.516   7.906  1.00  0.00     0.000 C 
BRANCH   9  10
ATOM     10  C   UNL     1     -14.049  10.795   7.617  1.00  0.00     0.000 C 
BRANCH  10  11
ATOM     11  C   UNL     1     -13.910  11.348   6.186  1.00  0.00     0.000 C 
BRANCH  11  12
ATOM     12  C   UNL     1     -12.759  10.741   5.360  1.00  0.00     0.000 C 
BRANCH  12  13
ATOM     13  C   UNL     1     -13.171  10.149   4.000  1.00  0.00     0.006 C 
BRANCH  13  14
ATOM     14  C   UNL     1     -13.043  11.155   2.848  1.00  0.00     0.053 C 
BRANCH  14  15
ATOM     15  C   UNL     1     -12.974  10.444   1.532  1.00  0.00     0.041 C 
ATOM     16  O   UNL     1     -13.814   9.544   1.253  1.00  0.00    -0.550 OA
ATOM     17  O   UNL     1     -11.992  10.780   0.609  1.00  0.00    -0.550 OA
ENDBRANCH  14  15
ENDBRANCH  13  14
ENDBRANCH  12  13
ENDBRANCH  11  12
ENDBRANCH  10  11
ENDBRANCH   9  10
ENDBRANCH   8   9
ENDBRANCH   7   8
ENDBRANCH   6   7
ENDBRANCH   5   6
ENDBRANCH   4   5
ENDBRANCH   3   4
ENDBRANCH   2   3
ENDBRANCH   1   2
BRANCH   1  18
ATOM     18  C   UNL     1     -10.609   5.425   5.280  1.00  0.00     0.000 C 
BRANCH  18  19
ATOM     19  C   UNL     1      -9.855   5.398   6.621  1.00  0.00     0.000 C 
BRANCH  19  20
ATOM     20  C   UNL     1      -8.940   6.612   6.878  1.00  0.00     0.000 C 
BRANCH  20  21
ATOM     21  C   UNL     1      -8.760   7.567   5.685  1.00  0.00     0.000 C 
BRANCH  21  22
ATOM     22  C   UNL     1      -8.172   8.931   6.091  1.00  0.00     0.000 C 
BRANCH  22  23
ATOM     23  C   UNL     1      -7.942   9.850   4.879  1.00  0.00     0.000 C 
BRANCH  23  24
ATOM     24  C   UNL     1      -7.203  11.146   5.259  1.00  0.00    -0.000 C 
BRANCH  24  25
ATOM     25  C   UNL     1      -5.680  11.023   5.102  1.00  0.00    -0.000 C 
BRANCH  25  26
ATOM     26  C   UNL     1      -5.024  10.214   6.231  1.00  0.00    -0.000 C 
BRANCH  26  27
ATOM     27  C   UNL     1      -4.622  11.131   7.393  1.00  0.00    -0.000 C 
BRANCH  27  28
ATOM     28  C   UNL     1      -5.781  12.054   7.801  1.00  0.00    -0.000 C 
BRANCH  28  29
ATOM     29  C   UNL     1      -6.792  11.356   8.726  1.00  0.00    -0.000 C 
BRANCH  29  30
ATOM     30  C   UNL     1      -8.122  12.123   8.840  1.00  0.00    -0.000 C 
BRANCH  30  31
ATOM     31  C   UNL     1      -9.081  11.816   7.680  1.00  0.00    -0.003 C 
ATOM     32  C   UNL     1     -10.549  12.012   8.053  1.00  0.00     0.004 C 
ENDBRANCH  30  31
ENDBRANCH  29  30
ENDBRANCH  28  29
ENDBRANCH  27  28
ENDBRANCH  26  27
ENDBRANCH  25  26
ENDBRANCH  24  25
ENDBRANCH  23  24
ENDBRANCH  22  23
ENDBRANCH  21  22
ENDBRANCH  20  21
ENDBRANCH  19  20
ENDBRANCH  18  19
ENDBRANCH   1  18
TORSDOF 28
ENDMDL
