MODEL 1
REMARK VINA RESULT:    -7.441      0.000      0.000
REMARK INTER + INTRA:          -9.468
REMARK INTER:                  -8.963
REMARK INTRA:                  -0.505
REMARK UNBOUND:                -0.505
REMARK SMILES Oc1cc(O)c2c(c1)O[C@H](c1ccc(O)c(O)c1)[C@@H](O)C2
REMARK SMILES IDX 21 1 19 2 10 3 9 4 7 5 8 6 2 7 3 8 4 9 6 10 20 11 11 13
REMARK SMILES IDX 18 14 12 15 16 16 13 17 14 18 17 19 15 21 5 23 1 25
REMARK H PARENT 20 12 17 20 15 22 5 24 1 26
REMARK Flexibility Score: inf
ROOT
ATOM      1  C   UNL     1       3.339  -0.659 -24.495  1.00  0.00     0.079 C 
ATOM      2  C   UNL     1       4.831  -0.306 -24.641  1.00  0.00     0.164 C 
ATOM      3  C   UNL     1       5.438   0.082 -23.277  1.00  0.00     0.232 C 
ATOM      4  O   UNL     1       5.164  -0.920 -22.291  1.00  0.00    -0.482 OA
ATOM      5  C   UNL     1       4.020  -1.731 -22.314  1.00  0.00     0.131 A 
ATOM      6  C   UNL     1       3.795  -2.625 -21.264  1.00  0.00     0.093 A 
ATOM      7  C   UNL     1       2.654  -3.436 -21.258  1.00  0.00     0.122 A 
ATOM      8  C   UNL     1       1.733  -3.346 -22.305  1.00  0.00     0.092 A 
ATOM      9  C   UNL     1       1.948  -2.455 -23.366  1.00  0.00     0.126 A 
ATOM     10  C   UNL     1       3.106  -1.654 -23.384  1.00  0.00     0.039 A 
ENDROOT
BRANCH   2  11
ATOM     11  O   UNL     1       5.533  -1.408 -25.156  1.00  0.00    -0.389 OA
ATOM     12  H   UNL     1       4.854  -2.053 -25.488  1.00  0.00     0.211 HD
ENDBRANCH   2  11
BRANCH   3  13
ATOM     13  C   UNL     1       4.973   1.455 -22.822  1.00  0.00    -0.001 A 
ATOM     14  C   UNL     1       4.882   2.542 -23.712  1.00  0.00     0.057 A 
ATOM     15  C   UNL     1       4.676   1.661 -21.465  1.00  0.00     0.012 A 
ATOM     16  C   UNL     1       4.483   3.806 -23.253  1.00  0.00     0.157 A 
ATOM     17  C   UNL     1       4.276   2.920 -21.008  1.00  0.00     0.050 A 
ATOM     18  C   UNL     1       4.178   3.995 -21.901  1.00  0.00     0.157 A 
BRANCH  16  19
ATOM     19  O   UNL     1       4.389   4.880 -24.138  1.00  0.00    -0.504 OA
ATOM     20  H   UNL     1       5.200   5.437 -24.383  1.00  0.00     0.293 HD
ENDBRANCH  16  19
BRANCH  18  21
ATOM     21  O   UNL     1       3.780   5.252 -21.450  1.00  0.00    -0.504 OA
ATOM     22  H   UNL     1       4.145   6.103 -21.863  1.00  0.00     0.293 HD
ENDBRANCH  18  21
ENDBRANCH   3  13
BRANCH   9  23
ATOM     23  O   UNL     1       1.013  -2.360 -24.398  1.00  0.00    -0.507 OA
ATOM     24  H   UNL     1       1.218  -2.696 -25.332  1.00  0.00     0.293 HD
ENDBRANCH   9  23
BRANCH   7  25
ATOM     25  O   UNL     1       2.423  -4.328 -20.213  1.00  0.00    -0.508 OA
ATOM     26  H   UNL     1       2.080  -5.266 -20.384  1.00  0.00     0.293 HD
ENDBRANCH   7  25
TORSDOF 6
ENDMDL
MODEL 2
REMARK VINA RESULT:    -7.066      4.472      9.484
REMARK INTER + INTRA:          -9.017
REMARK INTER:                  -8.514
REMARK INTRA:                  -0.503
REMARK UNBOUND:                -0.505
REMARK SMILES Oc1cc(O)c2c(c1)O[C@H](c1ccc(O)c(O)c1)[C@@H](O)C2
REMARK SMILES IDX 21 1 19 2 10 3 9 4 7 5 8 6 2 7 3 8 4 9 6 10 20 11 11 13
REMARK SMILES IDX 18 14 12 15 16 16 13 17 14 18 17 19 15 21 5 23 1 25
REMARK H PARENT 20 12 17 20 15 22 5 24 1 26
REMARK Flexibility Score: inf
ROOT
ATOM      1  C   UNL     1       4.266   7.588 -25.164  1.00  0.00     0.079 C 
ATOM      2  C   UNL     1       3.116   7.262 -24.192  1.00  0.00     0.164 C 
ATOM      3  C   UNL     1       3.660   6.990 -22.774  1.00  0.00     0.232 C 
ATOM      4  O   UNL     1       4.514   8.054 -22.340  1.00  0.00    -0.482 OA
ATOM      5  C   UNL     1       5.281   8.833 -23.217  1.00  0.00     0.131 A 
ATOM      6  C   UNL     1       6.150   9.795 -22.696  1.00  0.00     0.093 A 
ATOM      7  C   UNL     1       6.936  10.576 -23.551  1.00  0.00     0.122 A 
ATOM      8  C   UNL     1       6.855  10.388 -24.933  1.00  0.00     0.092 A 
ATOM      9  C   UNL     1       5.986   9.427 -25.470  1.00  0.00     0.126 A 
ATOM     10  C   UNL     1       5.179   8.656 -24.612  1.00  0.00     0.039 A 
ENDROOT
BRANCH   2  11
ATOM     11  O   UNL     1       2.219   8.341 -24.137  1.00  0.00    -0.389 OA
ATOM     12  H   UNL     1       2.393   8.903 -24.938  1.00  0.00     0.211 HD
ENDBRANCH   2  11
BRANCH   3  13
ATOM     13  C   UNL     1       4.356   5.643 -22.686  1.00  0.00    -0.001 A 
ATOM     14  C   UNL     1       3.806   4.481 -23.260  1.00  0.00     0.057 A 
ATOM     15  C   UNL     1       5.558   5.540 -21.965  1.00  0.00     0.012 A 
ATOM     16  C   UNL     1       4.457   3.245 -23.131  1.00  0.00     0.157 A 
ATOM     17  C   UNL     1       6.208   4.309 -21.838  1.00  0.00     0.050 A 
ATOM     18  C   UNL     1       5.660   3.160 -22.421  1.00  0.00     0.157 A 
BRANCH  16  19
ATOM     19  O   UNL     1       3.912   2.098 -23.705  1.00  0.00    -0.504 OA
ATOM     20  H   UNL     1       3.060   2.133 -24.253  1.00  0.00     0.293 HD
ENDBRANCH  16  19
BRANCH  18  21
ATOM     21  O   UNL     1       6.304   1.930 -22.296  1.00  0.00    -0.504 OA
ATOM     22  H   UNL     1       5.835   1.061 -22.523  1.00  0.00     0.293 HD
ENDBRANCH  18  21
ENDBRANCH   3  13
BRANCH   9  23
ATOM     23  O   UNL     1       5.926   9.235 -26.851  1.00  0.00    -0.507 OA
ATOM     24  H   UNL     1       5.903  10.017 -27.495  1.00  0.00     0.293 HD
ENDBRANCH   9  23
BRANCH   7  25
ATOM     25  O   UNL     1       7.805  11.537 -23.037  1.00  0.00    -0.508 OA
ATOM     26  H   UNL     1       8.753  11.303 -22.769  1.00  0.00     0.293 HD
ENDBRANCH   7  25
TORSDOF 6
ENDMDL
MODEL 3
REMARK VINA RESULT:    -6.926      6.509     10.382
REMARK INTER + INTRA:          -8.848
REMARK INTER:                  -8.346
REMARK INTRA:                  -0.502
REMARK UNBOUND:                -0.505
REMARK SMILES Oc1cc(O)c2c(c1)O[C@H](c1ccc(O)c(O)c1)[C@@H](O)C2
REMARK SMILES IDX 21 1 19 2 10 3 9 4 7 5 8 6 2 7 3 8 4 9 6 10 20 11 11 13
REMARK SMILES IDX 18 14 12 15 16 16 13 17 14 18 17 19 15 21 5 23 1 25
REMARK H PARENT 20 12 17 20 15 22 5 24 1 26
REMARK Flexibility Score: inf
ROOT
ATOM      1  C   UNL     1       4.365   9.876 -22.283  1.00  0.00     0.079 C 
ATOM      2  C   UNL     1       3.484  10.916 -22.999  1.00  0.00     0.164 C 
ATOM      3  C   UNL     1       3.575  10.750 -24.531  1.00  0.00     0.232 C 
ATOM      4  O   UNL     1       3.318   9.395 -24.915  1.00  0.00    -0.482 OA
ATOM      5  C   UNL     1       3.610   8.294 -24.099  1.00  0.00     0.131 A 
ATOM      6  C   UNL     1       3.401   7.003 -24.592  1.00  0.00     0.093 A 
ATOM      7  C   UNL     1       3.698   5.887 -23.800  1.00  0.00     0.122 A 
ATOM      8  C   UNL     1       4.211   6.065 -22.514  1.00  0.00     0.092 A 
ATOM      9  C   UNL     1       4.425   7.355 -22.006  1.00  0.00     0.126 A 
ATOM     10  C   UNL     1       4.106   8.478 -22.792  1.00  0.00     0.039 A 
ENDROOT
BRANCH   2  11
ATOM     11  O   UNL     1       2.145  10.760 -22.603  1.00  0.00    -0.389 OA
ATOM     12  H   UNL     1       1.706  11.643 -22.718  1.00  0.00     0.211 HD
ENDBRANCH   2  11
BRANCH   3  13
ATOM     13  C   UNL     1       4.908  11.240 -25.072  1.00  0.00    -0.001 A 
ATOM     14  C   UNL     1       5.519  12.415 -24.593  1.00  0.00     0.057 A 
ATOM     15  C   UNL     1       5.523  10.533 -26.118  1.00  0.00     0.012 A 
ATOM     16  C   UNL     1       6.733  12.859 -25.138  1.00  0.00     0.157 A 
ATOM     17  C   UNL     1       6.733  10.975 -26.661  1.00  0.00     0.050 A 
ATOM     18  C   UNL     1       7.341  12.137 -26.172  1.00  0.00     0.157 A 
BRANCH  16  19
ATOM     19  O   UNL     1       7.338  14.020 -24.658  1.00  0.00    -0.504 OA
ATOM     20  H   UNL     1       8.258  14.001 -24.232  1.00  0.00     0.293 HD
ENDBRANCH  16  19
BRANCH  18  21
ATOM     21  O   UNL     1       8.547  12.583 -26.710  1.00  0.00    -0.504 OA
ATOM     22  H   UNL     1       8.901  12.220 -27.588  1.00  0.00     0.293 HD
ENDBRANCH  18  21
ENDBRANCH   3  13
BRANCH   9  23
ATOM     23  O   UNL     1       4.956   7.522 -20.726  1.00  0.00    -0.507 OA
ATOM     24  H   UNL     1       5.913   7.822 -20.584  1.00  0.00     0.293 HD
ENDBRANCH   9  23
BRANCH   7  25
ATOM     25  O   UNL     1       3.492   4.597 -24.286  1.00  0.00    -0.508 OA
ATOM     26  H   UNL     1       4.077   4.206 -25.014  1.00  0.00     0.293 HD
ENDBRANCH   7  25
TORSDOF 6
ENDMDL
MODEL 4
REMARK VINA RESULT:    -6.531      2.063      6.444
REMARK INTER + INTRA:          -8.372
REMARK INTER:                  -7.917
REMARK INTRA:                  -0.454
REMARK UNBOUND:                -0.505
REMARK SMILES Oc1cc(O)c2c(c1)O[C@H](c1ccc(O)c(O)c1)[C@@H](O)C2
REMARK SMILES IDX 21 1 19 2 10 3 9 4 7 5 8 6 2 7 3 8 4 9 6 10 20 11 11 13
REMARK SMILES IDX 18 14 12 15 16 16 13 17 14 18 17 19 15 21 5 23 1 25
REMARK H PARENT 20 12 17 20 15 22 5 24 1 26
REMARK Flexibility Score: inf
ROOT
ATOM      1  C   UNL     1       5.088  -0.175 -23.856  1.00  0.00     0.079 C 
ATOM      2  C   UNL     1       5.256  -1.335 -24.854  1.00  0.00     0.164 C 
ATOM      3  C   UNL     1       3.883  -1.902 -25.271  1.00  0.00     0.232 C 
ATOM      4  O   UNL     1       3.014  -0.857 -25.724  1.00  0.00    -0.482 OA
ATOM      5  C   UNL     1       3.085   0.462 -25.253  1.00  0.00     0.131 A 
ATOM      6  C   UNL     1       2.142   1.395 -25.691  1.00  0.00     0.093 A 
ATOM      7  C   UNL     1       2.184   2.715 -25.225  1.00  0.00     0.122 A 
ATOM      8  C   UNL     1       3.171   3.098 -24.314  1.00  0.00     0.092 A 
ATOM      9  C   UNL     1       4.124   2.172 -23.868  1.00  0.00     0.126 A 
ATOM     10  C   UNL     1       4.097   0.850 -24.352  1.00  0.00     0.039 A 
ENDROOT
BRANCH   2  11
ATOM     11  O   UNL     1       5.931  -0.884 -26.000  1.00  0.00    -0.389 OA
ATOM     12  H   UNL     1       5.494  -0.036 -26.277  1.00  0.00     0.211 HD
ENDBRANCH   2  11
BRANCH   3  13
ATOM     13  C   UNL     1       3.245  -2.714 -24.157  1.00  0.00    -0.001 A 
ATOM     14  C   UNL     1       3.866  -3.859 -23.621  1.00  0.00     0.057 A 
ATOM     15  C   UNL     1       1.975  -2.346 -23.682  1.00  0.00     0.012 A 
ATOM     16  C   UNL     1       3.235  -4.607 -22.617  1.00  0.00     0.157 A 
ATOM     17  C   UNL     1       1.347  -3.090 -22.680  1.00  0.00     0.050 A 
ATOM     18  C   UNL     1       1.975  -4.222 -22.145  1.00  0.00     0.157 A 
BRANCH  16  19
ATOM     19  O   UNL     1       3.854  -5.738 -22.086  1.00  0.00    -0.504 OA
ATOM     20  H   UNL     1       3.381  -6.634 -22.048  1.00  0.00     0.293 HD
ENDBRANCH  16  19
BRANCH  18  21
ATOM     21  O   UNL     1       1.353  -4.968 -21.146  1.00  0.00    -0.504 OA
ATOM     22  H   UNL     1       0.521  -5.516 -21.334  1.00  0.00     0.293 HD
ENDBRANCH  18  21
ENDBRANCH   3  13
BRANCH   9  23
ATOM     23  O   UNL     1       5.095   2.560 -22.944  1.00  0.00    -0.507 OA
ATOM     24  H   UNL     1       6.076   2.609 -23.193  1.00  0.00     0.293 HD
ENDBRANCH   9  23
BRANCH   7  25
ATOM     25  O   UNL     1       1.246   3.650 -25.658  1.00  0.00    -0.508 OA
ATOM     26  H   UNL     1       1.519   4.468 -26.188  1.00  0.00     0.293 HD
ENDBRANCH   7  25
TORSDOF 6
ENDMDL
MODEL 5
REMARK VINA RESULT:    -6.379      5.034      8.465
REMARK INTER + INTRA:          -8.189
REMARK INTER:                  -7.735
REMARK INTRA:                  -0.454
REMARK UNBOUND:                -0.505
REMARK SMILES Oc1cc(O)c2c(c1)O[C@H](c1ccc(O)c(O)c1)[C@@H](O)C2
REMARK SMILES IDX 21 1 19 2 10 3 9 4 7 5 8 6 2 7 3 8 4 9 6 10 20 11 11 13
REMARK SMILES IDX 18 14 12 15 16 16 13 17 14 18 17 19 15 21 5 23 1 25
REMARK H PARENT 20 12 17 20 15 22 5 24 1 26
REMARK Flexibility Score: inf
ROOT
ATOM      1  C   UNL     1       5.975   6.861 -21.942  1.00  0.00     0.079 C 
ATOM      2  C   UNL     1       5.202   8.119 -21.506  1.00  0.00     0.164 C 
ATOM      3  C   UNL     1       4.439   8.734 -22.698  1.00  0.00     0.232 C 
ATOM      4  O   UNL     1       3.636   7.748 -23.355  1.00  0.00    -0.482 OA
ATOM      5  C   UNL     1       3.968   6.387 -23.398  1.00  0.00     0.131 A 
ATOM      6  C   UNL     1       3.167   5.510 -24.134  1.00  0.00     0.093 A 
ATOM      7  C   UNL     1       3.486   4.149 -24.203  1.00  0.00     0.122 A 
ATOM      8  C   UNL     1       4.614   3.666 -23.535  1.00  0.00     0.092 A 
ATOM      9  C   UNL     1       5.426   4.534 -22.792  1.00  0.00     0.126 A 
ATOM     10  C   UNL     1       5.094   5.900 -22.704  1.00  0.00     0.039 A 
ENDROOT
BRANCH   2  11
ATOM     11  O   UNL     1       4.281   7.787 -20.498  1.00  0.00    -0.389 OA
ATOM     12  H   UNL     1       3.980   6.858 -20.678  1.00  0.00     0.211 HD
ENDBRANCH   2  11
BRANCH   3  13
ATOM     13  C   UNL     1       5.377   9.429 -23.670  1.00  0.00    -0.001 A 
ATOM     14  C   UNL     1       6.192  10.507 -23.276  1.00  0.00     0.057 A 
ATOM     15  C   UNL     1       5.395   9.020 -25.014  1.00  0.00     0.012 A 
ATOM     16  C   UNL     1       7.022  11.150 -24.206  1.00  0.00     0.157 A 
ATOM     17  C   UNL     1       6.223   9.660 -25.941  1.00  0.00     0.050 A 
ATOM     18  C   UNL     1       7.039  10.724 -25.539  1.00  0.00     0.157 A 
BRANCH  16  19
ATOM     19  O   UNL     1       7.832  12.214 -23.812  1.00  0.00    -0.504 OA
ATOM     20  H   UNL     1       8.292  12.811 -24.490  1.00  0.00     0.293 HD
ENDBRANCH  16  19
BRANCH  18  21
ATOM     21  O   UNL     1       7.866  11.365 -26.460  1.00  0.00    -0.504 OA
ATOM     22  H   UNL     1       7.555  11.563 -27.404  1.00  0.00     0.293 HD
ENDBRANCH  18  21
ENDBRANCH   3  13
BRANCH   9  23
ATOM     23  O   UNL     1       6.561   4.046 -22.144  1.00  0.00    -0.507 OA
ATOM     24  H   UNL     1       7.488   4.163 -22.537  1.00  0.00     0.293 HD
ENDBRANCH   9  23
BRANCH   7  25
ATOM     25  O   UNL     1       2.692   3.269 -24.936  1.00  0.00    -0.508 OA
ATOM     26  H   UNL     1       2.831   3.134 -25.930  1.00  0.00     0.293 HD
ENDBRANCH   7  25
TORSDOF 6
ENDMDL
MODEL 6
REMARK VINA RESULT:    -6.302      2.548      5.714
REMARK INTER + INTRA:          -8.096
REMARK INTER:                  -7.660
REMARK INTRA:                  -0.435
REMARK UNBOUND:                -0.505
REMARK SMILES Oc1cc(O)c2c(c1)O[C@H](c1ccc(O)c(O)c1)[C@@H](O)C2
REMARK SMILES IDX 21 1 19 2 10 3 9 4 7 5 8 6 2 7 3 8 4 9 6 10 20 11 11 13
REMARK SMILES IDX 18 14 12 15 16 16 13 17 14 18 17 19 15 21 5 23 1 25
REMARK H PARENT 20 12 17 20 15 22 5 24 1 26
REMARK Flexibility Score: inf
ROOT
ATOM      1  C   UNL     1       3.238  -2.363 -23.463  1.00  0.00     0.079 C 
ATOM      2  C   UNL     1       3.387  -2.837 -24.921  1.00  0.00     0.164 C 
ATOM      3  C   UNL     1       3.263  -1.650 -25.899  1.00  0.00     0.232 C 
ATOM      4  O   UNL     1       4.151  -0.589 -25.531  1.00  0.00    -0.482 OA
ATOM      5  C   UNL     1       4.543  -0.335 -24.209  1.00  0.00     0.131 A 
ATOM      6  C   UNL     1       5.347   0.775 -23.936  1.00  0.00     0.093 A 
ATOM      7  C   UNL     1       5.740   1.057 -22.621  1.00  0.00     0.122 A 
ATOM      8  C   UNL     1       5.322   0.226 -21.579  1.00  0.00     0.092 A 
ATOM      9  C   UNL     1       4.516  -0.891 -21.839  1.00  0.00     0.126 A 
ATOM     10  C   UNL     1       4.138  -1.188 -23.162  1.00  0.00     0.039 A 
ENDROOT
BRANCH   2  11
ATOM     11  O   UNL     1       4.642  -3.444 -25.098  1.00  0.00    -0.389 OA
ATOM     12  H   UNL     1       4.479  -4.321 -25.535  1.00  0.00     0.211 HD
ENDBRANCH   2  11
BRANCH   3  13
ATOM     13  C   UNL     1       1.829  -1.163 -26.015  1.00  0.00    -0.001 A 
ATOM     14  C   UNL     1       0.732  -2.012 -25.771  1.00  0.00     0.057 A 
ATOM     15  C   UNL     1       1.586   0.157 -26.430  1.00  0.00     0.012 A 
ATOM     16  C   UNL     1      -0.581  -1.541 -25.921  1.00  0.00     0.157 A 
ATOM     17  C   UNL     1       0.278   0.627 -26.578  1.00  0.00     0.050 A 
ATOM     18  C   UNL     1      -0.808  -0.220 -26.323  1.00  0.00     0.157 A 
BRANCH  16  19
ATOM     19  O   UNL     1      -1.664  -2.383 -25.674  1.00  0.00    -0.504 OA
ATOM     20  H   UNL     1      -2.502  -2.047 -25.212  1.00  0.00     0.293 HD
ENDBRANCH  16  19
BRANCH  18  21
ATOM     21  O   UNL     1      -2.114   0.244 -26.470  1.00  0.00    -0.504 OA
ATOM     22  H   UNL     1      -2.863  -0.370 -26.767  1.00  0.00     0.293 HD
ENDBRANCH  18  21
ENDBRANCH   3  13
BRANCH   9  23
ATOM     23  O   UNL     1       4.088  -1.703 -20.789  1.00  0.00    -0.507 OA
ATOM     24  H   UNL     1       4.033  -2.711 -20.885  1.00  0.00     0.293 HD
ENDBRANCH   9  23
BRANCH   7  25
ATOM     25  O   UNL     1       6.541   2.162 -22.342  1.00  0.00    -0.508 OA
ATOM     26  H   UNL     1       6.739   2.864 -23.045  1.00  0.00     0.293 HD
ENDBRANCH   7  25
TORSDOF 6
ENDMDL
MODEL 7
REMARK VINA RESULT:    -6.135      6.246      9.312
REMARK INTER + INTRA:          -7.895
REMARK INTER:                  -7.407
REMARK INTRA:                  -0.487
REMARK UNBOUND:                -0.505
REMARK SMILES Oc1cc(O)c2c(c1)O[C@H](c1ccc(O)c(O)c1)[C@@H](O)C2
REMARK SMILES IDX 21 1 19 2 10 3 9 4 7 5 8 6 2 7 3 8 4 9 6 10 20 11 11 13
REMARK SMILES IDX 18 14 12 15 16 16 13 17 14 18 17 19 15 21 5 23 1 25
REMARK H PARENT 20 12 17 20 15 22 5 24 1 26
REMARK Flexibility Score: inf
ROOT
ATOM      1  C   UNL     1       2.186   9.065 -24.821  1.00  0.00     0.079 C 
ATOM      2  C   UNL     1       2.630   9.917 -26.024  1.00  0.00     0.164 C 
ATOM      3  C   UNL     1       4.075   9.570 -26.438  1.00  0.00     0.232 C 
ATOM      4  O   UNL     1       4.228   8.159 -26.627  1.00  0.00    -0.482 OA
ATOM      5  C   UNL     1       3.479   7.202 -25.929  1.00  0.00     0.131 A 
ATOM      6  C   UNL     1       3.756   5.846 -26.119  1.00  0.00     0.093 A 
ATOM      7  C   UNL     1       3.030   4.871 -25.423  1.00  0.00     0.122 A 
ATOM      8  C   UNL     1       2.028   5.258 -24.531  1.00  0.00     0.092 A 
ATOM      9  C   UNL     1       1.738   6.616 -24.332  1.00  0.00     0.126 A 
ATOM     10  C   UNL     1       2.452   7.596 -25.047  1.00  0.00     0.039 A 
ENDROOT
BRANCH   2  11
ATOM     11  O   UNL     1       1.775   9.683 -27.114  1.00  0.00    -0.389 OA
ATOM     12  H   UNL     1       0.874   9.496 -26.739  1.00  0.00     0.211 HD
ENDBRANCH   2  11
BRANCH   3  13
ATOM     13  C   UNL     1       5.091  10.114 -25.449  1.00  0.00    -0.001 A 
ATOM     14  C   UNL     1       5.115  11.473 -25.078  1.00  0.00     0.057 A 
ATOM     15  C   UNL     1       6.070   9.251 -24.928  1.00  0.00     0.012 A 
ATOM     16  C   UNL     1       6.088  11.951 -24.189  1.00  0.00     0.157 A 
ATOM     17  C   UNL     1       7.038   9.727 -24.040  1.00  0.00     0.050 A 
ATOM     18  C   UNL     1       7.049  11.077 -23.668  1.00  0.00     0.157 A 
BRANCH  16  19
ATOM     19  O   UNL     1       6.107  13.296 -23.820  1.00  0.00    -0.504 OA
ATOM     20  H   UNL     1       5.252  13.801 -23.614  1.00  0.00     0.293 HD
ENDBRANCH  16  19
BRANCH  18  21
ATOM     21  O   UNL     1       8.014  11.557 -22.783  1.00  0.00    -0.504 OA
ATOM     22  H   UNL     1       8.770  12.154 -23.097  1.00  0.00     0.293 HD
ENDBRANCH  18  21
ENDBRANCH   3  13
BRANCH   9  23
ATOM     23  O   UNL     1       0.747   6.993 -23.425  1.00  0.00    -0.507 OA
ATOM     24  H   UNL     1      -0.221   7.094 -23.709  1.00  0.00     0.293 HD
ENDBRANCH   9  23
BRANCH   7  25
ATOM     25  O   UNL     1       3.302   3.517 -25.608  1.00  0.00    -0.508 OA
ATOM     26  H   UNL     1       2.973   2.817 -24.954  1.00  0.00     0.293 HD
ENDBRANCH   7  25
TORSDOF 6
ENDMDL
MODEL 8
REMARK VINA RESULT:    -6.112      2.351      6.059
REMARK INTER + INTRA:          -7.867
REMARK INTER:                  -7.329
REMARK INTRA:                  -0.538
REMARK UNBOUND:                -0.505
REMARK SMILES Oc1cc(O)c2c(c1)O[C@H](c1ccc(O)c(O)c1)[C@@H](O)C2
REMARK SMILES IDX 21 1 19 2 10 3 9 4 7 5 8 6 2 7 3 8 4 9 6 10 20 11 11 13
REMARK SMILES IDX 18 14 12 15 16 16 13 17 14 18 17 19 15 21 5 23 1 25
REMARK H PARENT 20 12 17 20 15 22 5 24 1 26
REMARK Flexibility Score: inf
ROOT
ATOM      1  C   UNL     1       4.520   1.418 -24.014  1.00  0.00     0.079 C 
ATOM      2  C   UNL     1       5.272   0.299 -24.759  1.00  0.00     0.164 C 
ATOM      3  C   UNL     1       4.307  -0.839 -25.154  1.00  0.00     0.232 C 
ATOM      4  O   UNL     1       3.170  -0.325 -25.856  1.00  0.00    -0.482 OA
ATOM      5  C   UNL     1       2.647   0.957 -25.641  1.00  0.00     0.131 A 
ATOM      6  C   UNL     1       1.483   1.342 -26.312  1.00  0.00     0.093 A 
ATOM      7  C   UNL     1       0.934   2.613 -26.105  1.00  0.00     0.122 A 
ATOM      8  C   UNL     1       1.551   3.499 -25.218  1.00  0.00     0.092 A 
ATOM      9  C   UNL     1       2.720   3.126 -24.539  1.00  0.00     0.126 A 
ATOM     10  C   UNL     1       3.285   1.857 -24.763  1.00  0.00     0.039 A 
ENDROOT
BRANCH   2  11
ATOM     11  O   UNL     1       5.867   0.816 -25.921  1.00  0.00    -0.389 OA
ATOM     12  H   UNL     1       6.456   0.104 -26.285  1.00  0.00     0.211 HD
ENDBRANCH   2  11
BRANCH   3  13
ATOM     13  C   UNL     1       3.893  -1.671 -23.952  1.00  0.00    -0.001 A 
ATOM     14  C   UNL     1       2.546  -1.997 -23.701  1.00  0.00     0.057 A 
ATOM     15  C   UNL     1       4.874  -2.083 -23.034  1.00  0.00     0.012 A 
ATOM     16  C   UNL     1       2.193  -2.736 -22.562  1.00  0.00     0.157 A 
ATOM     17  C   UNL     1       4.522  -2.821 -21.901  1.00  0.00     0.050 A 
ATOM     18  C   UNL     1       3.182  -3.151 -21.663  1.00  0.00     0.157 A 
BRANCH  16  19
ATOM     19  O   UNL     1       0.859  -3.062 -22.319  1.00  0.00    -0.504 OA
ATOM     20  H   UNL     1       0.597  -3.946 -21.897  1.00  0.00     0.293 HD
ENDBRANCH  16  19
BRANCH  18  21
ATOM     21  O   UNL     1       2.826  -3.886 -20.534  1.00  0.00    -0.504 OA
ATOM     22  H   UNL     1       2.743  -4.896 -20.564  1.00  0.00     0.293 HD
ENDBRANCH  18  21
ENDBRANCH   3  13
BRANCH   9  23
ATOM     23  O   UNL     1       3.318   4.011 -23.641  1.00  0.00    -0.507 OA
ATOM     24  H   UNL     1       4.301   4.248 -23.705  1.00  0.00     0.293 HD
ENDBRANCH   9  23
BRANCH   7  25
ATOM     25  O   UNL     1      -0.226   3.002 -26.770  1.00  0.00    -0.508 OA
ATOM     26  H   UNL     1      -0.324   2.893 -27.773  1.00  0.00     0.293 HD
ENDBRANCH   7  25
TORSDOF 6
ENDMDL
MODEL 9
REMARK VINA RESULT:    -6.076      2.329      3.392
REMARK INTER + INTRA:          -7.824
REMARK INTER:                  -7.344
REMARK INTRA:                  -0.480
REMARK UNBOUND:                -0.505
REMARK SMILES Oc1cc(O)c2c(c1)O[C@H](c1ccc(O)c(O)c1)[C@@H](O)C2
REMARK SMILES IDX 21 1 19 2 10 3 9 4 7 5 8 6 2 7 3 8 4 9 6 10 20 11 11 13
REMARK SMILES IDX 18 14 12 15 16 16 13 17 14 18 17 19 15 21 5 23 1 25
REMARK H PARENT 20 12 17 20 15 22 5 24 1 26
REMARK Flexibility Score: inf
ROOT
ATOM      1  C   UNL     1       1.872  -2.011 -24.547  1.00  0.00     0.079 C 
ATOM      2  C   UNL     1       1.796  -1.366 -25.944  1.00  0.00     0.164 C 
ATOM      3  C   UNL     1       3.088  -0.583 -26.257  1.00  0.00     0.232 C 
ATOM      4  O   UNL     1       4.245  -1.400 -26.047  1.00  0.00    -0.482 OA
ATOM      5  C   UNL     1       4.297  -2.436 -25.104  1.00  0.00     0.131 A 
ATOM      6  C   UNL     1       5.496  -3.125 -24.911  1.00  0.00     0.093 A 
ATOM      7  C   UNL     1       5.576  -4.155 -23.966  1.00  0.00     0.122 A 
ATOM      8  C   UNL     1       4.451  -4.491 -23.209  1.00  0.00     0.092 A 
ATOM      9  C   UNL     1       3.240  -3.808 -23.393  1.00  0.00     0.126 A 
ATOM     10  C   UNL     1       3.153  -2.787 -24.358  1.00  0.00     0.039 A 
ENDROOT
BRANCH   2  11
ATOM     11  O   UNL     1       1.619  -2.362 -26.919  1.00  0.00    -0.389 OA
ATOM     12  H   UNL     1       2.286  -3.073 -26.729  1.00  0.00     0.211 HD
ENDBRANCH   2  11
BRANCH   3  13
ATOM     13  C   UNL     1       3.168   0.712 -25.466  1.00  0.00    -0.001 A 
ATOM     14  C   UNL     1       4.167   0.932 -24.497  1.00  0.00     0.057 A 
ATOM     15  C   UNL     1       2.188   1.698 -25.667  1.00  0.00     0.012 A 
ATOM     16  C   UNL     1       4.192   2.125 -23.760  1.00  0.00     0.157 A 
ATOM     17  C   UNL     1       2.214   2.887 -24.932  1.00  0.00     0.050 A 
ATOM     18  C   UNL     1       3.216   3.104 -23.979  1.00  0.00     0.157 A 
BRANCH  16  19
ATOM     19  O   UNL     1       5.184   2.342 -22.805  1.00  0.00    -0.504 OA
ATOM     20  H   UNL     1       5.185   3.170 -22.220  1.00  0.00     0.293 HD
ENDBRANCH  16  19
BRANCH  18  21
ATOM     21  O   UNL     1       3.246   4.287 -23.244  1.00  0.00    -0.504 OA
ATOM     22  H   UNL     1       2.418   4.644 -22.780  1.00  0.00     0.293 HD
ENDBRANCH  18  21
ENDBRANCH   3  13
BRANCH   9  23
ATOM     23  O   UNL     1       2.128  -4.138 -22.619  1.00  0.00    -0.507 OA
ATOM     24  H   UNL     1       1.950  -5.092 -22.326  1.00  0.00     0.293 HD
ENDBRANCH   9  23
BRANCH   7  25
ATOM     25  O   UNL     1       6.770  -4.846 -23.768  1.00  0.00    -0.508 OA
ATOM     26  H   UNL     1       6.819  -5.653 -23.157  1.00  0.00     0.293 HD
ENDBRANCH   7  25
TORSDOF 6
ENDMDL
