MODEL 1
REMARK VINA RESULT:    -3.965      0.000      0.000
REMARK INTER + INTRA:         -10.297
REMARK INTER:                  -7.673
REMARK INTRA:                  -2.625
REMARK UNBOUND:                -2.625
REMARK SMILES CCCCCCCCCCCCCCCCCC(=O)[O-]
REMARK SMILES IDX 10 1 11 2 12 3 13 4 14 5 15 6 16 7 17 8 18 9 19 10 20 11
REMARK SMILES IDX 9 12 8 13 7 14 6 15 5 16 4 17 3 18 2 19 1 20
REMARK H PARENT
REMARK Flexibility Score: inf
ROOT
ATOM      1  C   UNL     1      -0.423  17.886  28.523  1.00  0.00     0.000 C 
ENDROOT
BRANCH   1   2
ATOM      2  C   UNL     1      -0.634  16.453  29.038  1.00  0.00     0.000 C 
BRANCH   2   3
ATOM      3  C   UNL     1       0.692  15.713  29.293  1.00  0.00     0.000 C 
BRANCH   3   4
ATOM      4  C   UNL     1       0.957  15.404  30.779  1.00  0.00     0.000 C 
BRANCH   4   5
ATOM      5  C   UNL     1       1.925  14.219  31.000  1.00  0.00     0.000 C 
BRANCH   5   6
ATOM      6  C   UNL     1       2.309  13.485  29.701  1.00  0.00     0.000 C 
BRANCH   6   7
ATOM      7  C   UNL     1       1.751  12.054  29.582  1.00  0.00     0.006 C 
BRANCH   7   8
ATOM      8  C   UNL     1       0.356  11.967  28.942  1.00  0.00     0.053 C 
BRANCH   8   9
ATOM      9  C   UNL     1      -0.736  12.064  29.962  1.00  0.00     0.041 C 
ATOM     10  O   UNL     1      -0.811  11.216  30.891  1.00  0.00    -0.550 OA
ATOM     11  O   UNL     1      -1.646  13.111  29.911  1.00  0.00    -0.550 OA
ENDBRANCH   8   9
ENDBRANCH   7   8
ENDBRANCH   6   7
ENDBRANCH   5   6
ENDBRANCH   4   5
ENDBRANCH   3   4
ENDBRANCH   2   3
ENDBRANCH   1   2
BRANCH   1  12
ATOM     12  C   UNL     1      -1.078  18.907  29.465  1.00  0.00     0.000 C 
BRANCH  12  13
ATOM     13  C   UNL     1      -0.054  19.823  30.154  1.00  0.00    -0.000 C 
BRANCH  13  14
ATOM     14  C   UNL     1       1.000  19.040  30.954  1.00  0.00    -0.000 C 
BRANCH  14  15
ATOM     15  C   UNL     1       2.395  19.699  30.890  1.00  0.00    -0.000 C 
BRANCH  15  16
ATOM     16  C   UNL     1       2.715  20.336  29.524  1.00  0.00    -0.000 C 
BRANCH  16  17
ATOM     17  C   UNL     1       3.671  19.516  28.637  1.00  0.00    -0.000 C 
BRANCH  17  18
ATOM     18  C   UNL     1       2.981  18.564  27.638  1.00  0.00    -0.000 C 
BRANCH  18  19
ATOM     19  C   UNL     1       3.551  17.135  27.599  1.00  0.00    -0.003 C 
ATOM     20  C   UNL     1       4.224  16.724  28.907  1.00  0.00     0.004 C 
ENDBRANCH  18  19
ENDBRANCH  17  18
ENDBRANCH  16  17
ENDBRANCH  15  16
ENDBRANCH  14  15
ENDBRANCH  13  14
ENDBRANCH  12  13
ENDBRANCH   1  12
TORSDOF 16
ENDMDL
MODEL 2
REMARK VINA RESULT:    -3.831      1.286      2.720
REMARK INTER + INTRA:         -10.039
REMARK INTER:                  -7.754
REMARK INTRA:                  -2.285
REMARK UNBOUND:                -2.625
REMARK SMILES CCCCCCCCCCCCCCCCCC(=O)[O-]
REMARK SMILES IDX 10 1 11 2 12 3 13 4 14 5 15 6 16 7 17 8 18 9 19 10 20 11
REMARK SMILES IDX 9 12 8 13 7 14 6 15 5 16 4 17 3 18 2 19 1 20
REMARK H PARENT
REMARK Flexibility Score: inf
ROOT
ATOM      1  C   UNL     1       0.221  19.798  30.368  1.00  0.00     0.000 C 
ENDROOT
BRANCH   1   2
ATOM      2  C   UNL     1      -1.205  19.808  29.797  1.00  0.00     0.000 C 
BRANCH   2   3
ATOM      3  C   UNL     1      -1.554  18.508  29.048  1.00  0.00     0.000 C 
BRANCH   3   4
ATOM      4  C   UNL     1      -0.323  17.713  28.575  1.00  0.00     0.000 C 
BRANCH   4   5
ATOM      5  C   UNL     1      -0.233  16.295  29.183  1.00  0.00     0.000 C 
BRANCH   5   6
ATOM      6  C   UNL     1       0.867  16.150  30.252  1.00  0.00     0.000 C 
BRANCH   6   7
ATOM      7  C   UNL     1       1.455  14.732  30.382  1.00  0.00     0.006 C 
BRANCH   7   8
ATOM      8  C   UNL     1       0.999  13.753  29.288  1.00  0.00     0.053 C 
BRANCH   8   9
ATOM      9  C   UNL     1       0.640  12.412  29.850  1.00  0.00     0.041 C 
ATOM     10  O   UNL     1       1.160  11.367  29.376  1.00  0.00    -0.550 OA
ATOM     11  O   UNL     1      -0.238  12.319  30.921  1.00  0.00    -0.550 OA
ENDBRANCH   8   9
ENDBRANCH   7   8
ENDBRANCH   6   7
ENDBRANCH   5   6
ENDBRANCH   4   5
ENDBRANCH   3   4
ENDBRANCH   2   3
ENDBRANCH   1   2
BRANCH   1  12
ATOM     12  C   UNL     1       0.757  21.229  30.524  1.00  0.00     0.000 C 
BRANCH  12  13
ATOM     13  C   UNL     1       2.252  21.346  30.183  1.00  0.00    -0.000 C 
BRANCH  13  14
ATOM     14  C   UNL     1       2.938  19.977  30.041  1.00  0.00    -0.000 C 
BRANCH  14  15
ATOM     15  C   UNL     1       3.698  19.837  28.704  1.00  0.00    -0.000 C 
BRANCH  15  16
ATOM     16  C   UNL     1       3.056  18.830  27.731  1.00  0.00    -0.000 C 
BRANCH  16  17
ATOM     17  C   UNL     1       3.469  17.363  27.953  1.00  0.00    -0.000 C 
BRANCH  17  18
ATOM     18  C   UNL     1       2.762  16.339  27.040  1.00  0.00    -0.000 C 
BRANCH  18  19
ATOM     19  C   UNL     1       3.492  14.995  26.879  1.00  0.00    -0.003 C 
ATOM     20  C   UNL     1       5.008  15.147  26.773  1.00  0.00     0.004 C 
ENDBRANCH  18  19
ENDBRANCH  17  18
ENDBRANCH  16  17
ENDBRANCH  15  16
ENDBRANCH  14  15
ENDBRANCH  13  14
ENDBRANCH  12  13
ENDBRANCH   1  12
TORSDOF 16
ENDMDL
MODEL 3
REMARK VINA RESULT:    -3.824      1.495      4.006
REMARK INTER + INTRA:         -10.026
REMARK INTER:                  -7.762
REMARK INTRA:                  -2.263
REMARK UNBOUND:                -2.625
REMARK SMILES CCCCCCCCCCCCCCCCCC(=O)[O-]
REMARK SMILES IDX 10 1 11 2 12 3 13 4 14 5 15 6 16 7 17 8 18 9 19 10 20 11
REMARK SMILES IDX 9 12 8 13 7 14 6 15 5 16 4 17 3 18 2 19 1 20
REMARK H PARENT
REMARK Flexibility Score: inf
ROOT
ATOM      1  C   UNL     1       3.422  17.857  28.088  1.00  0.00     0.000 C 
ENDROOT
BRANCH   1   2
ATOM      2  C   UNL     1       3.910  17.520  29.506  1.00  0.00     0.000 C 
BRANCH   2   3
ATOM      3  C   UNL     1       4.043  16.003  29.742  1.00  0.00     0.000 C 
BRANCH   3   4
ATOM      4  C   UNL     1       3.231  15.488  30.946  1.00  0.00     0.000 C 
BRANCH   4   5
ATOM      5  C   UNL     1       1.762  15.970  30.952  1.00  0.00     0.000 C 
BRANCH   5   6
ATOM      6  C   UNL     1       0.738  14.826  31.083  1.00  0.00     0.000 C 
BRANCH   6   7
ATOM      7  C   UNL     1       0.011  14.462  29.774  1.00  0.00     0.006 C 
BRANCH   7   8
ATOM      8  C   UNL     1      -1.257  13.614  29.967  1.00  0.00     0.053 C 
BRANCH   8   9
ATOM      9  C   UNL     1      -0.971  12.148  29.866  1.00  0.00     0.041 C 
ATOM     10  O   UNL     1      -1.668  11.321  30.512  1.00  0.00    -0.550 OA
ATOM     11  O   UNL     1       0.039  11.692  29.029  1.00  0.00    -0.550 OA
ENDBRANCH   8   9
ENDBRANCH   7   8
ENDBRANCH   6   7
ENDBRANCH   5   6
ENDBRANCH   4   5
ENDBRANCH   3   4
ENDBRANCH   2   3
ENDBRANCH   1   2
BRANCH   1  12
ATOM     12  C   UNL     1       3.008  16.584  27.335  1.00  0.00     0.000 C 
BRANCH  12  13
ATOM     13  C   UNL     1       1.483  16.410  27.253  1.00  0.00    -0.000 C 
BRANCH  13  14
ATOM     14  C   UNL     1       0.720  17.721  27.508  1.00  0.00    -0.000 C 
BRANCH  14  15
ATOM     15  C   UNL     1      -0.486  17.525  28.453  1.00  0.00    -0.000 C 
BRANCH  15  16
ATOM     16  C   UNL     1      -0.675  18.676  29.460  1.00  0.00    -0.000 C 
BRANCH  16  17
ATOM     17  C   UNL     1       0.630  19.351  29.922  1.00  0.00    -0.000 C 
BRANCH  17  18
ATOM     18  C   UNL     1       0.443  20.560  30.861  1.00  0.00    -0.000 C 
BRANCH  18  19
ATOM     19  C   UNL     1      -0.014  21.857  30.172  1.00  0.00    -0.003 C 
ATOM     20  C   UNL     1      -1.230  22.494  30.843  1.00  0.00     0.004 C 
ENDBRANCH  18  19
ENDBRANCH  17  18
ENDBRANCH  16  17
ENDBRANCH  15  16
ENDBRANCH  14  15
ENDBRANCH  13  14
ENDBRANCH  12  13
ENDBRANCH   1  12
TORSDOF 16
ENDMDL
MODEL 4
REMARK VINA RESULT:    -3.808      2.019      3.315
REMARK INTER + INTRA:          -9.994
REMARK INTER:                  -8.053
REMARK INTRA:                  -1.941
REMARK UNBOUND:                -2.625
REMARK SMILES CCCCCCCCCCCCCCCCCC(=O)[O-]
REMARK SMILES IDX 10 1 11 2 12 3 13 4 14 5 15 6 16 7 17 8 18 9 19 10 20 11
REMARK SMILES IDX 9 12 8 13 7 14 6 15 5 16 4 17 3 18 2 19 1 20
REMARK H PARENT
REMARK Flexibility Score: inf
ROOT
ATOM      1  C   UNL     1      -2.893  19.500  29.500  1.00  0.00     0.000 C 
ENDROOT
BRANCH   1   2
ATOM      2  C   UNL     1      -1.393  19.168  29.462  1.00  0.00     0.000 C 
BRANCH   2   3
ATOM      3  C   UNL     1      -1.114  17.735  28.970  1.00  0.00     0.000 C 
BRANCH   3   4
ATOM      4  C   UNL     1       0.179  17.601  28.144  1.00  0.00     0.000 C 
BRANCH   4   5
ATOM      5  C   UNL     1       1.203  16.618  28.757  1.00  0.00     0.000 C 
BRANCH   5   6
ATOM      6  C   UNL     1       0.633  15.774  29.913  1.00  0.00     0.000 C 
BRANCH   6   7
ATOM      7  C   UNL     1       0.121  14.381  29.500  1.00  0.00     0.006 C 
BRANCH   7   8
ATOM      8  C   UNL     1       0.115  13.344  30.636  1.00  0.00     0.053 C 
BRANCH   8   9
ATOM      9  C   UNL     1       0.544  11.991  30.160  1.00  0.00     0.041 C 
ATOM     10  O   UNL     1       0.782  11.074  30.991  1.00  0.00    -0.550 OA
ATOM     11  O   UNL     1       0.643  11.730  28.800  1.00  0.00    -0.550 OA
ENDBRANCH   8   9
ENDBRANCH   7   8
ENDBRANCH   6   7
ENDBRANCH   5   6
ENDBRANCH   4   5
ENDBRANCH   3   4
ENDBRANCH   2   3
ENDBRANCH   1   2
BRANCH   1  12
ATOM     12  C   UNL     1      -3.118  20.964  29.908  1.00  0.00     0.000 C 
BRANCH  12  13
ATOM     13  C   UNL     1      -1.911  21.571  30.640  1.00  0.00    -0.000 C 
BRANCH  13  14
ATOM     14  C   UNL     1      -1.657  23.038  30.253  1.00  0.00    -0.000 C 
BRANCH  14  15
ATOM     15  C   UNL     1      -0.155  23.397  30.261  1.00  0.00    -0.000 C 
BRANCH  15  16
ATOM     16  C   UNL     1       0.642  22.692  31.375  1.00  0.00    -0.000 C 
BRANCH  16  17
ATOM     17  C   UNL     1       1.968  22.055  30.917  1.00  0.00    -0.000 C 
BRANCH  17  18
ATOM     18  C   UNL     1       1.818  20.816  30.009  1.00  0.00    -0.000 C 
BRANCH  18  19
ATOM     19  C   UNL     1       2.279  19.489  30.635  1.00  0.00    -0.003 C 
ATOM     20  C   UNL     1       1.373  19.017  31.771  1.00  0.00     0.004 C 
ENDBRANCH  18  19
ENDBRANCH  17  18
ENDBRANCH  16  17
ENDBRANCH  15  16
ENDBRANCH  14  15
ENDBRANCH  13  14
ENDBRANCH  12  13
ENDBRANCH   1  12
TORSDOF 16
ENDMDL
MODEL 5
REMARK VINA RESULT:    -3.792      1.874      4.960
REMARK INTER + INTRA:          -9.963
REMARK INTER:                  -7.682
REMARK INTRA:                  -2.281
REMARK UNBOUND:                -2.625
REMARK SMILES CCCCCCCCCCCCCCCCCC(=O)[O-]
REMARK SMILES IDX 10 1 11 2 12 3 13 4 14 5 15 6 16 7 17 8 18 9 19 10 20 11
REMARK SMILES IDX 9 12 8 13 7 14 6 15 5 16 4 17 3 18 2 19 1 20
REMARK H PARENT
REMARK Flexibility Score: inf
ROOT
ATOM      1  C   UNL     1       0.561  19.570  30.648  1.00  0.00     0.000 C 
ENDROOT
BRANCH   1   2
ATOM      2  C   UNL     1       1.641  20.538  30.141  1.00  0.00     0.000 C 
BRANCH   2   3
ATOM      3  C   UNL     1       2.975  19.832  29.832  1.00  0.00     0.000 C 
BRANCH   3   4
ATOM      4  C   UNL     1       3.059  19.257  28.406  1.00  0.00     0.000 C 
BRANCH   4   5
ATOM      5  C   UNL     1       3.925  17.980  28.305  1.00  0.00     0.000 C 
BRANCH   5   6
ATOM      6  C   UNL     1       3.512  17.043  27.154  1.00  0.00     0.000 C 
BRANCH   6   7
ATOM      7  C   UNL     1       4.170  15.651  27.191  1.00  0.00     0.006 C 
BRANCH   7   8
ATOM      8  C   UNL     1       4.040  14.923  28.539  1.00  0.00     0.053 C 
BRANCH   8   9
ATOM      9  C   UNL     1       3.223  13.673  28.425  1.00  0.00     0.041 C 
ATOM     10  O   UNL     1       2.322  13.584  27.549  1.00  0.00    -0.550 OA
ATOM     11  O   UNL     1       3.481  12.594  29.259  1.00  0.00    -0.550 OA
ENDBRANCH   8   9
ENDBRANCH   7   8
ENDBRANCH   6   7
ENDBRANCH   5   6
ENDBRANCH   4   5
ENDBRANCH   3   4
ENDBRANCH   2   3
ENDBRANCH   1   2
BRANCH   1  12
ATOM     12  C   UNL     1      -0.718  19.689  29.807  1.00  0.00     0.000 C 
BRANCH  12  13
ATOM     13  C   UNL     1      -1.139  18.355  29.170  1.00  0.00    -0.000 C 
BRANCH  13  14
ATOM     14  C   UNL     1      -0.006  17.698  28.364  1.00  0.00    -0.000 C 
BRANCH  14  15
ATOM     15  C   UNL     1       0.228  16.226  28.771  1.00  0.00    -0.000 C 
BRANCH  15  16
ATOM     16  C   UNL     1       0.825  16.063  30.182  1.00  0.00    -0.000 C 
BRANCH  16  17
ATOM     17  C   UNL     1       0.598  14.681  30.823  1.00  0.00    -0.000 C 
BRANCH  17  18
ATOM     18  C   UNL     1      -0.117  13.652  29.922  1.00  0.00    -0.000 C 
BRANCH  18  19
ATOM     19  C   UNL     1      -1.495  13.190  30.427  1.00  0.00    -0.003 C 
ATOM     20  C   UNL     1      -1.609  11.672  30.549  1.00  0.00     0.004 C 
ENDBRANCH  18  19
ENDBRANCH  17  18
ENDBRANCH  16  17
ENDBRANCH  15  16
ENDBRANCH  14  15
ENDBRANCH  13  14
ENDBRANCH  12  13
ENDBRANCH   1  12
TORSDOF 16
ENDMDL
MODEL 6
REMARK VINA RESULT:    -3.763      1.543      3.137
REMARK INTER + INTRA:          -9.907
REMARK INTER:                  -7.680
REMARK INTRA:                  -2.227
REMARK UNBOUND:                -2.625
REMARK SMILES CCCCCCCCCCCCCCCCCC(=O)[O-]
REMARK SMILES IDX 10 1 11 2 12 3 13 4 14 5 15 6 16 7 17 8 18 9 19 10 20 11
REMARK SMILES IDX 9 12 8 13 7 14 6 15 5 16 4 17 3 18 2 19 1 20
REMARK H PARENT
REMARK Flexibility Score: inf
ROOT
ATOM      1  C   UNL     1       0.621  19.801  30.189  1.00  0.00     0.000 C 
ENDROOT
BRANCH   1   2
ATOM      2  C   UNL     1      -0.568  18.887  29.852  1.00  0.00     0.000 C 
BRANCH   2   3
ATOM      3  C   UNL     1      -0.256  17.905  28.706  1.00  0.00     0.000 C 
BRANCH   3   4
ATOM      4  C   UNL     1      -0.516  16.429  29.063  1.00  0.00     0.000 C 
BRANCH   4   5
ATOM      5  C   UNL     1       0.566  15.818  29.983  1.00  0.00     0.000 C 
BRANCH   5   6
ATOM      6  C   UNL     1       0.202  14.420  30.520  1.00  0.00     0.000 C 
BRANCH   6   7
ATOM      7  C   UNL     1      -0.986  13.747  29.805  1.00  0.00     0.006 C 
BRANCH   7   8
ATOM      8  C   UNL     1      -0.910  12.212  29.758  1.00  0.00     0.053 C 
BRANCH   8   9
ATOM      9  C   UNL     1       0.419  11.732  29.260  1.00  0.00     0.041 C 
ATOM     10  O   UNL     1       1.259  11.248  30.065  1.00  0.00    -0.550 OA
ATOM     11  O   UNL     1       0.715  11.784  27.905  1.00  0.00    -0.550 OA
ENDBRANCH   8   9
ENDBRANCH   7   8
ENDBRANCH   6   7
ENDBRANCH   5   6
ENDBRANCH   4   5
ENDBRANCH   3   4
ENDBRANCH   2   3
ENDBRANCH   1   2
BRANCH   1  12
ATOM     12  C   UNL     1       1.952  19.062  29.986  1.00  0.00     0.000 C 
BRANCH  12  13
ATOM     13  C   UNL     1       2.933  19.837  29.092  1.00  0.00    -0.000 C 
BRANCH  13  14
ATOM     14  C   UNL     1       3.513  18.974  27.958  1.00  0.00    -0.000 C 
BRANCH  14  15
ATOM     15  C   UNL     1       3.388  17.462  28.248  1.00  0.00    -0.000 C 
BRANCH  15  16
ATOM     16  C   UNL     1       2.716  16.669  27.110  1.00  0.00    -0.000 C 
BRANCH  16  17
ATOM     17  C   UNL     1       3.117  15.184  27.034  1.00  0.00    -0.000 C 
BRANCH  17  18
ATOM     18  C   UNL     1       4.604  14.893  27.327  1.00  0.00    -0.000 C 
BRANCH  18  19
ATOM     19  C   UNL     1       4.860  13.788  28.367  1.00  0.00    -0.003 C 
ATOM     20  C   UNL     1       3.758  13.693  29.421  1.00  0.00     0.004 C 
ENDBRANCH  18  19
ENDBRANCH  17  18
ENDBRANCH  16  17
ENDBRANCH  15  16
ENDBRANCH  14  15
ENDBRANCH  13  14
ENDBRANCH  12  13
ENDBRANCH   1  12
TORSDOF 16
ENDMDL
MODEL 7
REMARK VINA RESULT:    -3.758      3.606      5.276
REMARK INTER + INTRA:          -9.899
REMARK INTER:                  -8.203
REMARK INTRA:                  -1.696
REMARK UNBOUND:                -2.625
REMARK SMILES CCCCCCCCCCCCCCCCCC(=O)[O-]
REMARK SMILES IDX 10 1 11 2 12 3 13 4 14 5 15 6 16 7 17 8 18 9 19 10 20 11
REMARK SMILES IDX 9 12 8 13 7 14 6 15 5 16 4 17 3 18 2 19 1 20
REMARK H PARENT
REMARK Flexibility Score: inf
ROOT
ATOM      1  C   UNL     1       2.403  20.549  29.518  1.00  0.00     0.000 C 
ENDROOT
BRANCH   1   2
ATOM      2  C   UNL     1       1.324  20.328  30.589  1.00  0.00     0.000 C 
BRANCH   2   3
ATOM      3  C   UNL     1       0.738  18.904  30.557  1.00  0.00     0.000 C 
BRANCH   3   4
ATOM      4  C   UNL     1      -0.405  18.723  29.539  1.00  0.00     0.000 C 
BRANCH   4   5
ATOM      5  C   UNL     1      -0.260  17.454  28.668  1.00  0.00     0.000 C 
BRANCH   5   6
ATOM      6  C   UNL     1       0.743  17.611  27.510  1.00  0.00     0.000 C 
BRANCH   6   7
ATOM      7  C   UNL     1       2.078  16.868  27.711  1.00  0.00     0.006 C 
BRANCH   7   8
ATOM      8  C   UNL     1       2.018  15.719  28.732  1.00  0.00     0.053 C 
BRANCH   8   9
ATOM      9  C   UNL     1       2.209  14.383  28.083  1.00  0.00     0.041 C 
ATOM     10  O   UNL     1       2.556  14.310  26.874  1.00  0.00    -0.550 OA
ATOM     11  O   UNL     1       2.039  13.220  28.822  1.00  0.00    -0.550 OA
ENDBRANCH   8   9
ENDBRANCH   7   8
ENDBRANCH   6   7
ENDBRANCH   5   6
ENDBRANCH   4   5
ENDBRANCH   3   4
ENDBRANCH   2   3
ENDBRANCH   1   2
BRANCH   1  12
ATOM     12  C   UNL     1       3.617  19.642  29.771  1.00  0.00     0.000 C 
BRANCH  12  13
ATOM     13  C   UNL     1       4.573  19.578  28.569  1.00  0.00    -0.000 C 
BRANCH  13  14
ATOM     14  C   UNL     1       5.938  20.226  28.861  1.00  0.00    -0.000 C 
BRANCH  14  15
ATOM     15  C   UNL     1       6.229  21.426  27.933  1.00  0.00    -0.000 C 
BRANCH  15  16
ATOM     16  C   UNL     1       6.813  22.647  28.670  1.00  0.00    -0.000 C 
BRANCH  16  17
ATOM     17  C   UNL     1       8.287  22.954  28.344  1.00  0.00    -0.000 C 
BRANCH  17  18
ATOM     18  C   UNL     1       9.316  22.088  29.100  1.00  0.00    -0.000 C 
BRANCH  18  19
ATOM     19  C   UNL     1       9.998  20.999  28.254  1.00  0.00    -0.003 C 
ATOM     20  C   UNL     1      10.341  21.466  26.841  1.00  0.00     0.004 C 
ENDBRANCH  18  19
ENDBRANCH  17  18
ENDBRANCH  16  17
ENDBRANCH  15  16
ENDBRANCH  14  15
ENDBRANCH  13  14
ENDBRANCH  12  13
ENDBRANCH   1  12
TORSDOF 16
ENDMDL
MODEL 8
REMARK VINA RESULT:    -3.726      1.480      2.077
REMARK INTER + INTRA:          -9.835
REMARK INTER:                  -6.963
REMARK INTRA:                  -2.872
REMARK UNBOUND:                -2.625
REMARK SMILES CCCCCCCCCCCCCCCCCC(=O)[O-]
REMARK SMILES IDX 10 1 11 2 12 3 13 4 14 5 15 6 16 7 17 8 18 9 19 10 20 11
REMARK SMILES IDX 9 12 8 13 7 14 6 15 5 16 4 17 3 18 2 19 1 20
REMARK H PARENT
REMARK Flexibility Score: inf
ROOT
ATOM      1  C   UNL     1       0.943  17.434  27.614  1.00  0.00     0.000 C 
ENDROOT
BRANCH   1   2
ATOM      2  C   UNL     1       1.736  16.117  27.600  1.00  0.00     0.000 C 
BRANCH   2   3
ATOM      3  C   UNL     1       3.052  16.208  28.396  1.00  0.00     0.000 C 
BRANCH   3   4
ATOM      4  C   UNL     1       3.071  15.339  29.667  1.00  0.00     0.000 C 
BRANCH   4   5
ATOM      5  C   UNL     1       2.412  16.019  30.889  1.00  0.00     0.000 C 
BRANCH   5   6
ATOM      6  C   UNL     1       1.071  15.383  31.301  1.00  0.00     0.000 C 
BRANCH   6   7
ATOM      7  C   UNL     1       0.882  13.925  30.839  1.00  0.00     0.006 C 
BRANCH   7   8
ATOM      8  C   UNL     1      -0.282  13.716  29.856  1.00  0.00     0.053 C 
BRANCH   8   9
ATOM      9  C   UNL     1      -0.444  12.276  29.479  1.00  0.00     0.041 C 
ATOM     10  O   UNL     1      -1.380  11.594  29.975  1.00  0.00    -0.550 OA
ATOM     11  O   UNL     1       0.413  11.698  28.552  1.00  0.00    -0.550 OA
ENDBRANCH   8   9
ENDBRANCH   7   8
ENDBRANCH   6   7
ENDBRANCH   5   6
ENDBRANCH   4   5
ENDBRANCH   3   4
ENDBRANCH   2   3
ENDBRANCH   1   2
BRANCH   1  12
ATOM     12  C   UNL     1      -0.255  17.340  28.570  1.00  0.00     0.000 C 
BRANCH  12  13
ATOM     13  C   UNL     1      -0.574  18.676  29.258  1.00  0.00    -0.000 C 
BRANCH  13  14
ATOM     14  C   UNL     1       0.293  18.926  30.504  1.00  0.00    -0.000 C 
BRANCH  14  15
ATOM     15  C   UNL     1       0.841  20.369  30.559  1.00  0.00    -0.000 C 
BRANCH  15  16
ATOM     16  C   UNL     1       2.060  20.601  29.644  1.00  0.00    -0.000 C 
BRANCH  16  17
ATOM     17  C   UNL     1       3.170  19.541  29.765  1.00  0.00    -0.000 C 
BRANCH  17  18
ATOM     18  C   UNL     1       4.357  19.725  28.797  1.00  0.00    -0.000 C 
BRANCH  18  19
ATOM     19  C   UNL     1       5.566  18.812  29.066  1.00  0.00    -0.003 C 
ATOM     20  C   UNL     1       5.571  18.228  30.478  1.00  0.00     0.004 C 
ENDBRANCH  18  19
ENDBRANCH  17  18
ENDBRANCH  16  17
ENDBRANCH  15  16
ENDBRANCH  14  15
ENDBRANCH  13  14
ENDBRANCH  12  13
ENDBRANCH   1  12
TORSDOF 16
ENDMDL
MODEL 9
REMARK VINA RESULT:    -3.719      4.823      7.626
REMARK INTER + INTRA:          -9.823
REMARK INTER:                  -7.875
REMARK INTRA:                  -1.948
REMARK UNBOUND:                -2.625
REMARK SMILES CCCCCCCCCCCCCCCCCC(=O)[O-]
REMARK SMILES IDX 10 1 11 2 12 3 13 4 14 5 15 6 16 7 17 8 18 9 19 10 20 11
REMARK SMILES IDX 9 12 8 13 7 14 6 15 5 16 4 17 3 18 2 19 1 20
REMARK H PARENT
REMARK Flexibility Score: inf
ROOT
ATOM      1  C   UNL     1       1.482  16.611  28.346  1.00  0.00     0.000 C 
ENDROOT
BRANCH   1   2
ATOM      2  C   UNL     1       2.572  16.931  27.311  1.00  0.00     0.000 C 
BRANCH   2   3
ATOM      3  C   UNL     1       3.896  17.377  27.961  1.00  0.00     0.000 C 
BRANCH   3   4
ATOM      4  C   UNL     1       4.005  18.899  28.171  1.00  0.00     0.000 C 
BRANCH   4   5
ATOM      5  C   UNL     1       4.517  19.293  29.576  1.00  0.00     0.000 C 
BRANCH   5   6
ATOM      6  C   UNL     1       4.587  20.815  29.803  1.00  0.00     0.000 C 
BRANCH   6   7
ATOM      7  C   UNL     1       5.987  21.429  29.611  1.00  0.00     0.006 C 
BRANCH   7   8
ATOM      8  C   UNL     1       6.328  21.792  28.157  1.00  0.00     0.053 C 
BRANCH   8   9
ATOM      9  C   UNL     1       7.792  21.652  27.873  1.00  0.00     0.041 C 
ATOM     10  O   UNL     1       8.268  20.535  27.537  1.00  0.00    -0.550 OA
ATOM     11  O   UNL     1       8.623  22.762  27.943  1.00  0.00    -0.550 OA
ENDBRANCH   8   9
ENDBRANCH   7   8
ENDBRANCH   6   7
ENDBRANCH   5   6
ENDBRANCH   4   5
ENDBRANCH   3   4
ENDBRANCH   2   3
ENDBRANCH   1   2
BRANCH   1  12
ATOM     12  C   UNL     1       0.150  17.271  27.960  1.00  0.00     0.000 C 
BRANCH  12  13
ATOM     13  C   UNL     1      -0.468  18.084  29.109  1.00  0.00    -0.000 C 
BRANCH  13  14
ATOM     14  C   UNL     1       0.583  18.581  30.117  1.00  0.00    -0.000 C 
BRANCH  14  15
ATOM     15  C   UNL     1       0.924  20.075  29.921  1.00  0.00    -0.000 C 
BRANCH  15  16
ATOM     16  C   UNL     1       1.048  20.858  31.242  1.00  0.00    -0.000 C 
BRANCH  16  17
ATOM     17  C   UNL     1       0.121  22.082  31.357  1.00  0.00    -0.000 C 
BRANCH  17  18
ATOM     18  C   UNL     1      -0.955  22.192  30.256  1.00  0.00    -0.000 C 
BRANCH  18  19
ATOM     19  C   UNL     1      -2.374  21.785  30.688  1.00  0.00    -0.003 C 
ATOM     20  C   UNL     1      -2.951  20.646  29.849  1.00  0.00     0.004 C 
ENDBRANCH  18  19
ENDBRANCH  17  18
ENDBRANCH  16  17
ENDBRANCH  15  16
ENDBRANCH  14  15
ENDBRANCH  13  14
ENDBRANCH  12  13
ENDBRANCH   1  12
TORSDOF 16
ENDMDL
