MODEL 1
REMARK VINA RESULT:    -3.608      0.000      0.000
REMARK INTER + INTRA:          -5.026
REMARK INTER:                  -4.874
REMARK INTRA:                  -0.152
REMARK UNBOUND:                -0.152
REMARK SMILES CCCCCCCC(=O)[O-]
REMARK SMILES IDX 5 1 6 2 7 3 8 4 9 5 10 6 4 7 3 8 2 9 1 10
REMARK H PARENT
REMARK Flexibility Score: inf
ROOT
ATOM      1  C   UNL     1     -23.625   6.819  22.232  1.00  0.00     0.000 C 
ENDROOT
BRANCH   1   2
ATOM      2  C   UNL     1     -22.195   7.375  22.124  1.00  0.00     0.006 C 
BRANCH   2   3
ATOM      3  C   UNL     1     -21.824   7.748  20.683  1.00  0.00     0.053 C 
BRANCH   3   4
ATOM      4  C   UNL     1     -21.022   6.669  20.022  1.00  0.00     0.041 C 
ATOM      5  O   UNL     1     -20.043   6.149  20.619  1.00  0.00    -0.550 OA
ATOM      6  O   UNL     1     -21.374   6.216  18.757  1.00  0.00    -0.550 OA
ENDBRANCH   3   4
ENDBRANCH   2   3
ENDBRANCH   1   2
BRANCH   1   7
ATOM      7  C   UNL     1     -23.710   5.604  23.180  1.00  0.00     0.000 C 
BRANCH   7   8
ATOM      8  C   UNL     1     -25.050   5.500  23.934  1.00  0.00    -0.000 C 
BRANCH   8   9
ATOM      9  C   UNL     1     -25.104   4.391  24.997  1.00  0.00    -0.003 C 
ATOM     10  C   UNL     1     -24.334   4.750  26.267  1.00  0.00     0.004 C 
ENDBRANCH   8   9
ENDBRANCH   7   8
ENDBRANCH   1   7
TORSDOF 6
ENDMDL
MODEL 2
REMARK VINA RESULT:    -3.585      1.506      2.666
REMARK INTER + INTRA:          -4.995
REMARK INTER:                  -4.489
REMARK INTRA:                  -0.506
REMARK UNBOUND:                -0.152
REMARK SMILES CCCCCCCC(=O)[O-]
REMARK SMILES IDX 5 1 6 2 7 3 8 4 9 5 10 6 4 7 3 8 2 9 1 10
REMARK H PARENT
REMARK Flexibility Score: inf
ROOT
ATOM      1  C   UNL     1     -23.585   6.984  22.234  1.00  0.00     0.000 C 
ENDROOT
BRANCH   1   2
ATOM      2  C   UNL     1     -22.161   7.491  21.949  1.00  0.00     0.006 C 
BRANCH   2   3
ATOM      3  C   UNL     1     -21.926   7.751  20.455  1.00  0.00     0.053 C 
BRANCH   3   4
ATOM      4  C   UNL     1     -21.033   6.713  19.847  1.00  0.00     0.041 C 
ATOM      5  O   UNL     1     -21.355   6.153  18.767  1.00  0.00    -0.550 OA
ATOM      6  O   UNL     1     -19.830   6.387  20.458  1.00  0.00    -0.550 OA
ENDBRANCH   3   4
ENDBRANCH   2   3
ENDBRANCH   1   2
BRANCH   1   7
ATOM      7  C   UNL     1     -23.588   5.710  23.106  1.00  0.00     0.000 C 
BRANCH   7   8
ATOM      8  C   UNL     1     -22.282   4.898  23.020  1.00  0.00    -0.000 C 
BRANCH   8   9
ATOM      9  C   UNL     1     -22.404   3.562  22.269  1.00  0.00    -0.003 C 
ATOM     10  C   UNL     1     -21.231   3.303  21.325  1.00  0.00     0.004 C 
ENDBRANCH   8   9
ENDBRANCH   7   8
ENDBRANCH   1   7
TORSDOF 6
ENDMDL
MODEL 3
REMARK VINA RESULT:    -3.442     24.616     25.542
REMARK INTER + INTRA:          -4.802
REMARK INTER:                  -4.621
REMARK INTRA:                  -0.181
REMARK UNBOUND:                -0.152
REMARK SMILES CCCCCCCC(=O)[O-]
REMARK SMILES IDX 5 1 6 2 7 3 8 4 9 5 10 6 4 7 3 8 2 9 1 10
REMARK H PARENT
REMARK Flexibility Score: inf
ROOT
ATOM      1  C   UNL     1      -5.692  -9.495  33.201  1.00  0.00     0.000 C 
ENDROOT
BRANCH   1   2
ATOM      2  C   UNL     1      -4.879 -10.467  32.328  1.00  0.00     0.006 C 
BRANCH   2   3
ATOM      3  C   UNL     1      -5.778 -11.363  31.466  1.00  0.00     0.053 C 
BRANCH   3   4
ATOM      4  C   UNL     1      -6.843 -10.572  30.771  1.00  0.00     0.041 C 
ATOM      5  O   UNL     1      -8.056 -10.753  31.055  1.00  0.00    -0.550 OA
ATOM      6  O   UNL     1      -6.494  -9.612  29.831  1.00  0.00    -0.550 OA
ENDBRANCH   3   4
ENDBRANCH   2   3
ENDBRANCH   1   2
BRANCH   1   7
ATOM      7  C   UNL     1      -4.945  -9.107  34.495  1.00  0.00     0.000 C 
BRANCH   7   8
ATOM      8  C   UNL     1      -5.879  -8.688  35.646  1.00  0.00    -0.000 C 
BRANCH   8   9
ATOM      9  C   UNL     1      -5.472  -7.391  36.363  1.00  0.00    -0.003 C 
ATOM     10  C   UNL     1      -5.683  -6.146  35.502  1.00  0.00     0.004 C 
ENDBRANCH   8   9
ENDBRANCH   7   8
ENDBRANCH   1   7
TORSDOF 6
ENDMDL
MODEL 4
REMARK VINA RESULT:    -3.401      2.063      2.269
REMARK INTER + INTRA:          -4.746
REMARK INTER:                  -4.398
REMARK INTRA:                  -0.348
REMARK UNBOUND:                -0.152
REMARK SMILES CCCCCCCC(=O)[O-]
REMARK SMILES IDX 5 1 6 2 7 3 8 4 9 5 10 6 4 7 3 8 2 9 1 10
REMARK H PARENT
REMARK Flexibility Score: inf
ROOT
ATOM      1  C   UNL     1     -24.039   6.651  22.484  1.00  0.00     0.000 C 
ENDROOT
BRANCH   1   2
ATOM      2  C   UNL     1     -22.689   5.937  22.668  1.00  0.00     0.006 C 
BRANCH   2   3
ATOM      3  C   UNL     1     -22.110   5.439  21.337  1.00  0.00     0.053 C 
BRANCH   3   4
ATOM      4  C   UNL     1     -21.716   3.995  21.412  1.00  0.00     0.041 C 
ATOM      5  O   UNL     1     -20.647   3.601  20.878  1.00  0.00    -0.550 OA
ATOM      6  O   UNL     1     -22.515   3.091  22.099  1.00  0.00    -0.550 OA
ENDBRANCH   3   4
ENDBRANCH   2   3
ENDBRANCH   1   2
BRANCH   1   7
ATOM      7  C   UNL     1     -25.125   6.101  23.434  1.00  0.00     0.000 C 
BRANCH   7   8
ATOM      8  C   UNL     1     -24.680   4.859  24.229  1.00  0.00    -0.000 C 
BRANCH   8   9
ATOM      9  C   UNL     1     -25.095   4.861  25.709  1.00  0.00    -0.003 C 
ATOM     10  C   UNL     1     -23.898   4.884  26.660  1.00  0.00     0.004 C 
ENDBRANCH   8   9
ENDBRANCH   7   8
ENDBRANCH   1   7
TORSDOF 6
ENDMDL
MODEL 5
REMARK VINA RESULT:    -3.391      2.649      4.776
REMARK INTER + INTRA:          -4.733
REMARK INTER:                  -4.255
REMARK INTRA:                  -0.478
REMARK UNBOUND:                -0.152
REMARK SMILES CCCCCCCC(=O)[O-]
REMARK SMILES IDX 5 1 6 2 7 3 8 4 9 5 10 6 4 7 3 8 2 9 1 10
REMARK H PARENT
REMARK Flexibility Score: inf
ROOT
ATOM      1  C   UNL     1     -22.269   7.739  20.833  1.00  0.00     0.000 C 
ENDROOT
BRANCH   1   2
ATOM      2  C   UNL     1     -22.548   7.356  22.296  1.00  0.00     0.006 C 
BRANCH   2   3
ATOM      3  C   UNL     1     -23.907   6.664  22.465  1.00  0.00     0.053 C 
BRANCH   3   4
ATOM      4  C   UNL     1     -23.820   5.496  23.400  1.00  0.00     0.041 C 
ATOM      5  O   UNL     1     -22.720   4.913  23.585  1.00  0.00    -0.550 OA
ATOM      6  O   UNL     1     -24.947   5.073  24.090  1.00  0.00    -0.550 OA
ENDBRANCH   3   4
ENDBRANCH   2   3
ENDBRANCH   1   2
BRANCH   1   7
ATOM      7  C   UNL     1     -21.097   6.935  20.232  1.00  0.00     0.000 C 
BRANCH   7   8
ATOM      8  C   UNL     1     -21.473   5.495  19.835  1.00  0.00    -0.000 C 
BRANCH   8   9
ATOM      9  C   UNL     1     -20.816   4.400  20.691  1.00  0.00    -0.003 C 
ATOM     10  C   UNL     1     -19.417   4.783  21.171  1.00  0.00     0.004 C 
ENDBRANCH   8   9
ENDBRANCH   7   8
ENDBRANCH   1   7
TORSDOF 6
ENDMDL
MODEL 6
REMARK VINA RESULT:    -3.378     24.291     25.602
REMARK INTER + INTRA:          -4.715
REMARK INTER:                  -4.422
REMARK INTRA:                  -0.293
REMARK UNBOUND:                -0.152
REMARK SMILES CCCCCCCC(=O)[O-]
REMARK SMILES IDX 5 1 6 2 7 3 8 4 9 5 10 6 4 7 3 8 2 9 1 10
REMARK H PARENT
REMARK Flexibility Score: inf
ROOT
ATOM      1  C   UNL     1      -5.017  -8.959  34.605  1.00  0.00     0.000 C 
ENDROOT
BRANCH   1   2
ATOM      2  C   UNL     1      -5.806  -9.306  33.331  1.00  0.00     0.006 C 
BRANCH   2   3
ATOM      3  C   UNL     1      -4.970 -10.122  32.336  1.00  0.00     0.053 C 
BRANCH   3   4
ATOM      4  C   UNL     1      -5.837 -10.870  31.369  1.00  0.00     0.041 C 
ATOM      5  O   UNL     1      -5.771 -12.125  31.297  1.00  0.00    -0.550 OA
ATOM      6  O   UNL     1      -6.741 -10.183  30.570  1.00  0.00    -0.550 OA
ENDBRANCH   3   4
ENDBRANCH   2   3
ENDBRANCH   1   2
BRANCH   1   7
ATOM      7  C   UNL     1      -5.941  -8.551  35.772  1.00  0.00     0.000 C 
BRANCH   7   8
ATOM      8  C   UNL     1      -5.670  -7.133  36.309  1.00  0.00    -0.000 C 
BRANCH   8   9
ATOM      9  C   UNL     1      -5.391  -6.078  35.226  1.00  0.00    -0.003 C 
ATOM     10  C   UNL     1      -6.664  -5.583  34.539  1.00  0.00     0.004 C 
ENDBRANCH   8   9
ENDBRANCH   7   8
ENDBRANCH   1   7
TORSDOF 6
ENDMDL
MODEL 7
REMARK VINA RESULT:    -3.356      1.783      2.881
REMARK INTER + INTRA:          -4.686
REMARK INTER:                  -4.474
REMARK INTRA:                  -0.213
REMARK UNBOUND:                -0.152
REMARK SMILES CCCCCCCC(=O)[O-]
REMARK SMILES IDX 5 1 6 2 7 3 8 4 9 5 10 6 4 7 3 8 2 9 1 10
REMARK H PARENT
REMARK Flexibility Score: inf
ROOT
ATOM      1  C   UNL     1     -25.099   5.504  23.975  1.00  0.00     0.000 C 
ENDROOT
BRANCH   1   2
ATOM      2  C   UNL     1     -24.550   6.436  22.881  1.00  0.00     0.006 C 
BRANCH   2   3
ATOM      3  C   UNL     1     -23.124   6.059  22.460  1.00  0.00     0.053 C 
BRANCH   3   4
ATOM      4  C   UNL     1     -22.335   7.262  22.040  1.00  0.00     0.041 C 
ATOM      5  O   UNL     1     -22.596   7.845  20.956  1.00  0.00    -0.550 OA
ATOM      6  O   UNL     1     -21.334   7.759  22.864  1.00  0.00    -0.550 OA
ENDBRANCH   3   4
ENDBRANCH   2   3
ENDBRANCH   1   2
BRANCH   1   7
ATOM      7  C   UNL     1     -23.973   4.780  24.743  1.00  0.00     0.000 C 
BRANCH   7   8
ATOM      8  C   UNL     1     -24.178   4.761  26.270  1.00  0.00    -0.000 C 
BRANCH   8   9
ATOM      9  C   UNL     1     -22.935   5.144  27.090  1.00  0.00    -0.003 C 
ATOM     10  C   UNL     1     -23.284   5.825  28.413  1.00  0.00     0.004 C 
ENDBRANCH   8   9
ENDBRANCH   7   8
ENDBRANCH   1   7
TORSDOF 6
ENDMDL
MODEL 8
REMARK VINA RESULT:    -3.331      3.583      5.965
REMARK INTER + INTRA:          -4.652
REMARK INTER:                  -4.475
REMARK INTRA:                  -0.177
REMARK UNBOUND:                -0.152
REMARK SMILES CCCCCCCC(=O)[O-]
REMARK SMILES IDX 5 1 6 2 7 3 8 4 9 5 10 6 4 7 3 8 2 9 1 10
REMARK H PARENT
REMARK Flexibility Score: inf
ROOT
ATOM      1  C   UNL     1     -23.756   5.632  23.107  1.00  0.00     0.000 C 
ENDROOT
BRANCH   1   2
ATOM      2  C   UNL     1     -25.048   5.520  23.935  1.00  0.00     0.006 C 
BRANCH   2   3
ATOM      3  C   UNL     1     -25.124   4.200  24.714  1.00  0.00     0.053 C 
BRANCH   3   4
ATOM      4  C   UNL     1     -24.417   4.294  26.031  1.00  0.00     0.041 C 
ATOM      5  O   UNL     1     -23.695   3.344  26.433  1.00  0.00    -0.550 OA
ATOM      6  O   UNL     1     -24.529   5.445  26.800  1.00  0.00    -0.550 OA
ENDBRANCH   3   4
ENDBRANCH   2   3
ENDBRANCH   1   2
BRANCH   1   7
ATOM      7  C   UNL     1     -23.692   6.947  22.300  1.00  0.00     0.000 C 
BRANCH   7   8
ATOM      8  C   UNL     1     -22.257   7.435  22.026  1.00  0.00    -0.000 C 
BRANCH   8   9
ATOM      9  C   UNL     1     -22.011   7.932  20.592  1.00  0.00    -0.003 C 
ATOM     10  C   UNL     1     -21.417   6.854  19.686  1.00  0.00     0.004 C 
ENDBRANCH   8   9
ENDBRANCH   7   8
ENDBRANCH   1   7
TORSDOF 6
ENDMDL
MODEL 9
REMARK VINA RESULT:    -3.253      1.373      2.043
REMARK INTER + INTRA:          -4.547
REMARK INTER:                  -4.307
REMARK INTRA:                  -0.239
REMARK UNBOUND:                -0.152
REMARK SMILES CCCCCCCC(=O)[O-]
REMARK SMILES IDX 5 1 6 2 7 3 8 4 9 5 10 6 4 7 3 8 2 9 1 10
REMARK H PARENT
REMARK Flexibility Score: inf
ROOT
ATOM      1  C   UNL     1     -23.794   5.936  22.820  1.00  0.00     0.000 C 
ENDROOT
BRANCH   1   2
ATOM      2  C   UNL     1     -23.451   7.373  22.391  1.00  0.00     0.006 C 
BRANCH   2   3
ATOM      3  C   UNL     1     -22.443   7.408  21.235  1.00  0.00     0.053 C 
BRANCH   3   4
ATOM      4  C   UNL     1     -21.031   7.349  21.731  1.00  0.00     0.041 C 
ATOM      5  O   UNL     1     -20.160   6.704  21.090  1.00  0.00    -0.550 OA
ATOM      6  O   UNL     1     -20.670   8.032  22.885  1.00  0.00    -0.550 OA
ENDBRANCH   3   4
ENDBRANCH   2   3
ENDBRANCH   1   2
BRANCH   1   7
ATOM      7  C   UNL     1     -25.125   5.861  23.598  1.00  0.00     0.000 C 
BRANCH   7   8
ATOM      8  C   UNL     1     -25.055   4.979  24.859  1.00  0.00    -0.000 C 
BRANCH   8   9
ATOM      9  C   UNL     1     -23.991   3.870  24.810  1.00  0.00    -0.003 C 
ATOM     10  C   UNL     1     -24.572   2.509  24.425  1.00  0.00     0.004 C 
ENDBRANCH   8   9
ENDBRANCH   7   8
ENDBRANCH   1   7
TORSDOF 6
ENDMDL
