MODEL 1
REMARK VINA RESULT:     4.804      0.000      0.000
REMARK INTER + INTRA:           7.532
REMARK INTER:                   6.769
REMARK INTRA:                   0.762
REMARK UNBOUND:                 0.762
REMARK SMILES CC1=CCC(=C(C)C)C(=O)CC(C)=CCC1
REMARK SMILES IDX 12 1 14 2 13 3 15 4 16 5 2 6 1 7 3 8 11 10 9 11 10 12 5 13
REMARK SMILES IDX 6 14 7 15 8 16 4 17
REMARK H PARENT
REMARK Flexibility Score: 60.00
ROOT
ATOM      1  C   UNL     1      11.963  36.728 -18.976  1.00  0.00    -0.070 C 
ATOM      2  C   UNL     1      11.412  37.970 -18.950  1.00  0.00    -0.027 C 
ATOM      3  C   UNL     1      11.473  35.782 -20.046  1.00  0.00     0.039 C 
ENDROOT
BRANCH   2   4
ATOM      4  C   UNL     1      11.837  39.127 -18.076  1.00  0.00     0.032 C 
BRANCH   4   5
ATOM      5  C   UNL     1      11.001  39.266 -16.796  1.00  0.00     0.034 C 
BRANCH   5   6
ATOM      6  C   UNL     1      11.774  39.907 -15.658  1.00  0.00    -0.077 C 
ATOM      7  C   UNL     1      11.197  41.137 -15.000  1.00  0.00     0.039 C 
ATOM      8  C   UNL     1      12.909  39.386 -15.124  1.00  0.00    -0.023 CG0
ATOM      9  G   UNL     1      13.747  38.243 -15.663  1.00  0.00     0.000 G0
ENDBRANCH   5   6
ENDBRANCH   4   5
ENDBRANCH   2   4
BRANCH   1  10
ATOM     10  C   UNL     1      12.934  36.185 -17.933  1.00  0.00     0.111 C 
BRANCH  10  11
ATOM     11  C   UNL     1      12.419  36.231 -16.519  1.00  0.00     0.163 C 
ATOM     12  O   UNL     1      11.303  35.706 -16.262  1.00  0.00    -0.294 OA
BRANCH  11  13
ATOM     13  C   UNL     1      13.204  36.849 -15.412  1.00  0.00    -0.002 C 
ATOM     14  C   UNL     1      13.529  36.156 -14.283  1.00  0.00    -0.069 C 
ATOM     15  C   UNL     1      13.192  34.691 -14.127  1.00  0.00     0.039 C 
ATOM     16  C   UNL     1      14.305  36.808 -13.162  1.00  0.00     0.039 C 
BRANCH  13  17
ATOM     17  C   UNL     1      13.744  38.248 -15.665  1.00  0.00     0.066 CG0
ATOM     18  G   UNL     1      12.907  39.385 -15.109  1.00  0.00     0.000 G0
ENDBRANCH  13  17
ENDBRANCH  11  13
ENDBRANCH  10  11
ENDBRANCH   1  10
TORSDOF 0
ENDMDL
MODEL 2
REMARK VINA RESULT:     5.598      1.713      3.947
REMARK INTER + INTRA:           8.652
REMARK INTER:                   7.562
REMARK INTRA:                   1.089
REMARK UNBOUND:                 0.762
REMARK SMILES CC1=CCC(=C(C)C)C(=O)CC(C)=CCC1
REMARK SMILES IDX 12 1 14 2 13 3 15 4 16 5 2 6 1 7 3 8 11 10 9 11 10 12 5 13
REMARK SMILES IDX 6 14 7 15 8 16 4 17
REMARK H PARENT
REMARK Flexibility Score: 60.00
ROOT
ATOM      1  C   UNL     1      11.996  39.369 -15.938  1.00  0.00    -0.070 C 
ATOM      2  C   UNL     1      11.741  39.357 -17.273  1.00  0.00    -0.027 C 
ATOM      3  C   UNL     1      11.108  40.235 -15.077  1.00  0.00     0.039 C 
ENDROOT
BRANCH   2   4
ATOM      4  C   UNL     1      12.392  38.469 -18.307  1.00  0.00     0.032 C 
BRANCH   4   5
ATOM      5  C   UNL     1      11.384  37.672 -19.149  1.00  0.00     0.034 C 
BRANCH   5   6
ATOM      6  C   UNL     1      11.613  36.173 -19.073  1.00  0.00    -0.077 C 
ATOM      7  C   UNL     1      11.823  35.412 -20.360  1.00  0.00     0.039 C 
ATOM      8  C   UNL     1      11.741  35.483 -17.910  1.00  0.00    -0.023 CG0
ATOM      9  G   UNL     1      11.463  35.978 -16.504  1.00  0.00     0.000 G0
ENDBRANCH   5   6
ENDBRANCH   4   5
ENDBRANCH   2   4
BRANCH   1  10
ATOM     10  C   UNL     1      13.182  38.679 -15.272  1.00  0.00     0.111 C 
BRANCH  10  11
ATOM     11  C   UNL     1      13.528  37.335 -15.858  1.00  0.00     0.163 C 
ATOM     12  O   UNL     1      14.575  37.226 -16.551  1.00  0.00    -0.294 OA
BRANCH  11  13
ATOM     13  C   UNL     1      12.689  36.127 -15.612  1.00  0.00    -0.002 C 
ATOM     14  C   UNL     1      12.929  35.281 -14.570  1.00  0.00    -0.069 C 
ATOM     15  C   UNL     1      14.004  35.568 -13.546  1.00  0.00     0.039 C 
ATOM     16  C   UNL     1      12.081  34.048 -14.353  1.00  0.00     0.039 C 
BRANCH  13  17
ATOM     17  C   UNL     1      11.466  35.962 -16.501  1.00  0.00     0.066 CG0
ATOM     18  G   UNL     1      11.741  35.480 -17.913  1.00  0.00     0.000 G0
ENDBRANCH  13  17
ENDBRANCH  11  13
ENDBRANCH  10  11
ENDBRANCH   1  10
TORSDOF 0
ENDMDL
MODEL 3
REMARK VINA RESULT:     5.637      1.660      4.688
REMARK INTER + INTRA:           8.706
REMARK INTER:                   7.678
REMARK INTRA:                   1.028
REMARK UNBOUND:                 0.762
REMARK SMILES CC1=CCC(=C(C)C)C(=O)CC(C)=CCC1
REMARK SMILES IDX 12 1 14 2 13 3 15 4 16 5 2 6 1 7 3 8 11 10 9 11 10 12 5 13
REMARK SMILES IDX 6 14 7 15 8 16 4 17
REMARK H PARENT
REMARK Flexibility Score: 60.00
ROOT
ATOM      1  C   UNL     1      11.678  39.709 -15.627  1.00  0.00    -0.070 C 
ATOM      2  C   UNL     1      12.934  39.580 -15.124  1.00  0.00    -0.027 C 
ATOM      3  C   UNL     1      10.843  40.854 -15.105  1.00  0.00     0.039 C 
ENDROOT
BRANCH   2   4
ATOM      4  C   UNL     1      13.998  38.614 -15.590  1.00  0.00     0.032 C 
BRANCH   4   5
ATOM      5  C   UNL     1      14.270  37.477 -14.594  1.00  0.00     0.034 C 
BRANCH   5   6
ATOM      6  C   UNL     1      13.577  36.182 -14.979  1.00  0.00    -0.077 C 
ATOM      7  C   UNL     1      13.237  35.197 -13.888  1.00  0.00     0.039 C 
ATOM      8  C   UNL     1      13.152  35.895 -16.237  1.00  0.00    -0.023 CG0
ATOM      9  G   UNL     1      13.464  36.648 -17.516  1.00  0.00     0.000 G0
ENDBRANCH   5   6
ENDBRANCH   4   5
ENDBRANCH   2   4
BRANCH   1  10
ATOM     10  C   UNL     1      11.014  38.716 -16.575  1.00  0.00     0.111 C 
BRANCH  10  11
ATOM     11  C   UNL     1      11.753  38.502 -17.869  1.00  0.00     0.163 C 
ATOM     12  O   UNL     1      11.979  39.495 -18.611  1.00  0.00    -0.294 OA
BRANCH  11  13
ATOM     13  C   UNL     1      12.253  37.159 -18.280  1.00  0.00    -0.002 C 
ATOM     14  C   UNL     1      11.737  36.493 -19.353  1.00  0.00    -0.069 C 
ATOM     15  C   UNL     1      10.689  37.119 -20.245  1.00  0.00     0.039 C 
ATOM     16  C   UNL     1      12.241  35.121 -19.739  1.00  0.00     0.039 C 
BRANCH  13  17
ATOM     17  C   UNL     1      13.463  36.628 -17.527  1.00  0.00     0.066 CG0
ATOM     18  G   UNL     1      13.160  35.876 -16.245  1.00  0.00     0.000 G0
ENDBRANCH  13  17
ENDBRANCH  11  13
ENDBRANCH  10  11
ENDBRANCH   1  10
TORSDOF 0
ENDMDL
MODEL 4
REMARK VINA RESULT:     6.428      1.478      3.856
REMARK INTER + INTRA:           9.821
REMARK INTER:                   9.295
REMARK INTRA:                   0.526
REMARK UNBOUND:                 0.762
REMARK SMILES CC1=CCC(=C(C)C)C(=O)CC(C)=CCC1
REMARK SMILES IDX 12 1 14 2 13 3 15 4 16 5 2 6 1 7 3 8 11 10 9 11 10 12 5 13
REMARK SMILES IDX 6 14 7 15 8 16 4 17
REMARK H PARENT
REMARK Flexibility Score: 60.00
ROOT
ATOM      1  C   UNL     1      11.809  39.145 -17.897  1.00  0.00    -0.070 C 
ATOM      2  C   UNL     1      12.211  39.597 -16.679  1.00  0.00    -0.027 C 
ATOM      3  C   UNL     1      12.005  40.074 -19.071  1.00  0.00     0.039 C 
ENDROOT
BRANCH   2   4
ATOM      4  C   UNL     1      12.252  38.805 -15.393  1.00  0.00     0.032 C 
BRANCH   4   5
ATOM      5  C   UNL     1      13.676  38.543 -14.881  1.00  0.00     0.034 C 
BRANCH   5   6
ATOM      6  C   UNL     1      13.990  37.063 -14.756  1.00  0.00    -0.077 C 
ATOM      7  C   UNL     1      13.996  36.444 -13.379  1.00  0.00     0.039 C 
ATOM      8  C   UNL     1      14.171  36.233 -15.816  1.00  0.00    -0.023 CG0
ATOM      9  G   UNL     1      14.327  36.615 -17.276  1.00  0.00     0.000 G0
ENDBRANCH   5   6
ENDBRANCH   4   5
ENDBRANCH   2   4
BRANCH   1  10
ATOM     10  C   UNL     1      11.066  37.836 -18.138  1.00  0.00     0.111 C 
BRANCH  10  11
ATOM     11  C   UNL     1      11.798  36.609 -17.661  1.00  0.00     0.163 C 
ATOM     12  O   UNL     1      11.233  35.850 -16.828  1.00  0.00    -0.294 OA
BRANCH  11  13
ATOM     13  C   UNL     1      13.153  36.250 -18.169  1.00  0.00    -0.002 C 
ATOM     14  C   UNL     1      13.344  35.753 -19.425  1.00  0.00    -0.069 C 
ATOM     15  C   UNL     1      12.204  35.622 -20.409  1.00  0.00     0.039 C 
ATOM     16  C   UNL     1      14.724  35.372 -19.913  1.00  0.00     0.039 C 
BRANCH  13  17
ATOM     17  C   UNL     1      14.327  36.598 -17.268  1.00  0.00     0.066 CG0
ATOM     18  G   UNL     1      14.164  36.229 -15.806  1.00  0.00     0.000 G0
ENDBRANCH  13  17
ENDBRANCH  11  13
ENDBRANCH  10  11
ENDBRANCH   1  10
TORSDOF 0
ENDMDL
MODEL 5
REMARK VINA RESULT:     6.811      1.407      3.976
REMARK INTER + INTRA:          10.360
REMARK INTER:                   9.300
REMARK INTRA:                   1.061
REMARK UNBOUND:                 0.762
REMARK SMILES CC1=CCC(=C(C)C)C(=O)CC(C)=CCC1
REMARK SMILES IDX 12 1 14 2 13 3 15 4 16 5 2 6 1 7 3 8 11 10 9 11 10 12 5 13
REMARK SMILES IDX 6 14 7 15 8 16 4 17
REMARK H PARENT
REMARK Flexibility Score: 60.00
ROOT
ATOM      1  C   UNL     1      13.412  36.516 -14.837  1.00  0.00    -0.070 C 
ATOM      2  C   UNL     1      14.061  37.707 -14.742  1.00  0.00    -0.027 C 
ATOM      3  C   UNL     1      13.669  35.506 -13.744  1.00  0.00     0.039 C 
ENDROOT
BRANCH   2   4
ATOM      4  C   UNL     1      13.859  38.916 -15.625  1.00  0.00     0.032 C 
BRANCH   4   5
ATOM      5  C   UNL     1      12.843  39.922 -15.061  1.00  0.00     0.034 C 
BRANCH   5   6
ATOM      6  C   UNL     1      11.485  39.821 -15.731  1.00  0.00    -0.077 C 
ATOM      7  C   UNL     1      10.264  40.234 -14.946  1.00  0.00     0.039 C 
ATOM      8  C   UNL     1      11.305  39.474 -17.032  1.00  0.00    -0.023 CG0
ATOM      9  G   UNL     1      12.335  38.911 -17.992  1.00  0.00     0.000 G0
ENDBRANCH   5   6
ENDBRANCH   4   5
ENDBRANCH   2   4
BRANCH   1  10
ATOM     10  C   UNL     1      12.554  36.084 -16.021  1.00  0.00     0.111 C 
BRANCH  10  11
ATOM     11  C   UNL     1      13.073  36.532 -17.361  1.00  0.00     0.163 C 
ATOM     12  O   UNL     1      14.211  36.139 -17.735  1.00  0.00    -0.294 OA
BRANCH  11  13
ATOM     13  C   UNL     1      12.268  37.397 -18.270  1.00  0.00    -0.002 C 
ATOM     14  C   UNL     1      11.421  36.874 -19.202  1.00  0.00    -0.069 C 
ATOM     15  C   UNL     1      11.178  35.385 -19.306  1.00  0.00     0.039 C 
ATOM     16  C   UNL     1      10.632  37.768 -20.132  1.00  0.00     0.039 C 
BRANCH  13  17
ATOM     17  C   UNL     1      12.334  38.895 -18.014  1.00  0.00     0.066 CG0
ATOM     18  G   UNL     1      11.302  39.440 -17.045  1.00  0.00     0.000 G0
ENDBRANCH  13  17
ENDBRANCH  11  13
ENDBRANCH  10  11
ENDBRANCH   1  10
TORSDOF 0
ENDMDL
MODEL 6
REMARK VINA RESULT:     6.920      1.442      3.578
REMARK INTER + INTRA:          10.514
REMARK INTER:                   9.370
REMARK INTRA:                   1.143
REMARK UNBOUND:                 0.762
REMARK SMILES CC1=CCC(=C(C)C)C(=O)CC(C)=CCC1
REMARK SMILES IDX 12 1 14 2 13 3 15 4 16 5 2 6 1 7 3 8 11 10 9 11 10 12 5 13
REMARK SMILES IDX 6 14 7 15 8 16 4 17
REMARK H PARENT
REMARK Flexibility Score: 60.00
ROOT
ATOM      1  C   UNL     1      12.334  36.316 -18.494  1.00  0.00    -0.070 C 
ATOM      2  C   UNL     1      13.671  36.150 -18.312  1.00  0.00    -0.027 C 
ATOM      3  C   UNL     1      11.745  35.789 -19.780  1.00  0.00     0.039 C 
ENDROOT
BRANCH   2   4
ATOM      4  C   UNL     1      14.456  36.459 -17.059  1.00  0.00     0.032 C 
BRANCH   4   5
ATOM      5  C   UNL     1      13.903  35.768 -15.805  1.00  0.00     0.034 C 
BRANCH   5   6
ATOM      6  C   UNL     1      13.782  36.711 -14.621  1.00  0.00    -0.077 C 
ATOM      7  C   UNL     1      13.795  36.124 -13.231  1.00  0.00     0.039 C 
ATOM      8  C   UNL     1      13.761  38.065 -14.729  1.00  0.00    -0.023 CG0
ATOM      9  G   UNL     1      13.621  38.892 -15.993  1.00  0.00     0.000 G0
ENDBRANCH   5   6
ENDBRANCH   4   5
ENDBRANCH   2   4
BRANCH   1  10
ATOM     10  C   UNL     1      11.420  37.102 -17.560  1.00  0.00     0.111 C 
BRANCH  10  11
ATOM     11  C   UNL     1      11.655  38.589 -17.566  1.00  0.00     0.163 C 
ATOM     12  O   UNL     1      11.337  39.250 -18.590  1.00  0.00    -0.294 OA
BRANCH  11  13
ATOM     13  C   UNL     1      12.220  39.304 -16.385  1.00  0.00    -0.002 C 
ATOM     14  C   UNL     1      11.471  40.163 -15.636  1.00  0.00    -0.069 C 
ATOM     15  C   UNL     1       9.998  40.371 -15.902  1.00  0.00     0.039 C 
ATOM     16  C   UNL     1      12.069  40.897 -14.457  1.00  0.00     0.039 C 
BRANCH  13  17
ATOM     17  C   UNL     1      13.633  38.921 -15.975  1.00  0.00     0.066 CG0
ATOM     18  G   UNL     1      13.744  38.057 -14.733  1.00  0.00     0.000 G0
ENDBRANCH  13  17
ENDBRANCH  11  13
ENDBRANCH  10  11
ENDBRANCH   1  10
TORSDOF 0
ENDMDL
MODEL 7
REMARK VINA RESULT:     7.529      2.230      4.220
REMARK INTER + INTRA:          11.373
REMARK INTER:                   9.380
REMARK INTRA:                   1.993
REMARK UNBOUND:                 0.762
REMARK SMILES CC1=CCC(=C(C)C)C(=O)CC(C)=CCC1
REMARK SMILES IDX 12 1 14 2 13 3 15 4 16 5 2 6 1 7 3 8 11 10 9 11 10 12 5 13
REMARK SMILES IDX 6 14 7 15 8 16 4 17
REMARK H PARENT
REMARK Flexibility Score: 60.00
ROOT
ATOM      1  C   UNL     1      13.629  37.782 -15.391  1.00  0.00    -0.070 C 
ATOM      2  C   UNL     1      12.843  38.670 -16.056  1.00  0.00    -0.027 C 
ATOM      3  C   UNL     1      14.505  38.331 -14.290  1.00  0.00     0.039 C 
ENDROOT
BRANCH   2   4
ATOM      4  C   UNL     1      11.787  38.343 -17.085  1.00  0.00     0.032 C 
BRANCH   4   5
ATOM      5  C   UNL     1      12.358  37.741 -18.378  1.00  0.00     0.034 C 
BRANCH   5   6
ATOM      6  C   UNL     1      11.734  36.402 -18.726  1.00  0.00    -0.077 C 
ATOM      7  C   UNL     1      11.815  35.922 -20.154  1.00  0.00     0.039 C 
ATOM      8  C   UNL     1      11.192  35.557 -17.811  1.00  0.00    -0.023 CG0
ATOM      9  G   UNL     1      10.887  35.842 -16.352  1.00  0.00     0.000 G0
ENDBRANCH   5   6
ENDBRANCH   4   5
ENDBRANCH   2   4
BRANCH   1  10
ATOM     10  C   UNL     1      13.784  36.310 -15.758  1.00  0.00     0.111 C 
BRANCH  10  11
ATOM     11  C   UNL     1      12.957  35.370 -14.922  1.00  0.00     0.163 C 
ATOM     12  O   UNL     1      13.429  34.955 -13.829  1.00  0.00    -0.294 OA
BRANCH  11  13
ATOM     13  C   UNL     1      11.588  34.944 -15.331  1.00  0.00    -0.002 C 
ATOM     14  C   UNL     1      10.953  33.891 -14.742  1.00  0.00    -0.069 C 
ATOM     15  C   UNL     1      11.563  33.150 -13.574  1.00  0.00     0.039 C 
ATOM     16  C   UNL     1       9.575  33.460 -15.189  1.00  0.00     0.039 C 
BRANCH  13  17
ATOM     17  C   UNL     1      10.879  35.830 -16.344  1.00  0.00     0.066 CG0
ATOM     18  G   UNL     1      11.198  35.547 -17.800  1.00  0.00     0.000 G0
ENDBRANCH  13  17
ENDBRANCH  11  13
ENDBRANCH  10  11
ENDBRANCH   1  10
TORSDOF 0
ENDMDL
