MODEL 1
REMARK VINA RESULT:    -3.907      0.000      0.000
REMARK INTER + INTRA:          -4.909
REMARK INTER:                  -4.820
REMARK INTRA:                  -0.088
REMARK UNBOUND:                -0.088
REMARK SMILES CCCCCC(=O)[O-]
REMARK SMILES IDX 4 1 5 2 6 3 7 4 8 5 3 6 2 7 1 8
REMARK H PARENT
REMARK Flexibility Score: inf
ROOT
ATOM      1  C   UNL     1       3.455 -36.459  17.094  1.00  0.00     0.006 C 
ENDROOT
BRANCH   1   2
ATOM      2  C   UNL     1       3.249 -37.281  18.373  1.00  0.00     0.053 C 
BRANCH   2   3
ATOM      3  C   UNL     1       4.228 -36.900  19.440  1.00  0.00     0.041 C 
ATOM      4  O   UNL     1       4.116 -35.797  20.038  1.00  0.00    -0.550 OA
ATOM      5  O   UNL     1       5.244 -37.777  19.799  1.00  0.00    -0.550 OA
ENDBRANCH   2   3
ENDBRANCH   1   2
BRANCH   1   6
ATOM      6  C   UNL     1       2.296 -36.635  16.098  1.00  0.00     0.000 C 
BRANCH   6   7
ATOM      7  C   UNL     1       2.753 -36.525  14.636  1.00  0.00    -0.003 C 
ATOM      8  C   UNL     1       3.919 -37.456  14.308  1.00  0.00     0.004 C 
ENDBRANCH   6   7
ENDBRANCH   1   6
TORSDOF 4
ENDMDL
MODEL 2
REMARK VINA RESULT:    -3.693      1.593      2.403
REMARK INTER + INTRA:          -4.645
REMARK INTER:                  -4.496
REMARK INTRA:                  -0.149
REMARK UNBOUND:                -0.088
REMARK SMILES CCCCCC(=O)[O-]
REMARK SMILES IDX 4 1 5 2 6 3 7 4 8 5 3 6 2 7 1 8
REMARK H PARENT
REMARK Flexibility Score: inf
ROOT
ATOM      1  C   UNL     1       3.060 -37.191  19.734  1.00  0.00     0.006 C 
ENDROOT
BRANCH   1   2
ATOM      2  C   UNL     1       4.581 -37.295  19.559  1.00  0.00     0.053 C 
BRANCH   2   3
ATOM      3  C   UNL     1       5.275 -36.038  19.982  1.00  0.00     0.041 C 
ATOM      4  O   UNL     1       5.841 -35.973  21.106  1.00  0.00    -0.550 OA
ATOM      5  O   UNL     1       5.328 -34.949  19.121  1.00  0.00    -0.550 OA
ENDBRANCH   2   3
ENDBRANCH   1   2
BRANCH   1   6
ATOM      6  C   UNL     1       2.302 -37.518  18.436  1.00  0.00     0.000 C 
BRANCH   6   7
ATOM      7  C   UNL     1       3.069 -37.084  17.179  1.00  0.00    -0.003 C 
ATOM      8  C   UNL     1       2.172 -36.415  16.139  1.00  0.00     0.004 C 
ENDBRANCH   6   7
ENDBRANCH   1   6
TORSDOF 4
ENDMDL
MODEL 3
REMARK VINA RESULT:    -3.680      2.968      5.679
REMARK INTER + INTRA:          -4.629
REMARK INTER:                  -4.580
REMARK INTRA:                  -0.049
REMARK UNBOUND:                -0.088
REMARK SMILES CCCCCC(=O)[O-]
REMARK SMILES IDX 4 1 5 2 6 3 7 4 8 5 3 6 2 7 1 8
REMARK H PARENT
REMARK Flexibility Score: inf
ROOT
ATOM      1  C   UNL     1       4.738 -35.892  20.680  1.00  0.00     0.006 C 
ENDROOT
BRANCH   1   2
ATOM      2  C   UNL     1       4.844 -37.046  19.676  1.00  0.00     0.053 C 
BRANCH   2   3
ATOM      3  C   UNL     1       3.555 -37.265  18.946  1.00  0.00     0.041 C 
ATOM      4  O   UNL     1       3.522 -37.216  17.688  1.00  0.00    -0.550 OA
ATOM      5  O   UNL     1       2.395 -37.560  19.653  1.00  0.00    -0.550 OA
ENDBRANCH   2   3
ENDBRANCH   1   2
BRANCH   1   6
ATOM      6  C   UNL     1       6.082 -35.592  21.366  1.00  0.00     0.000 C 
BRANCH   6   7
ATOM      7  C   UNL     1       6.020 -35.770  22.889  1.00  0.00    -0.003 C 
ATOM      8  C   UNL     1       5.787 -34.454  23.630  1.00  0.00     0.004 C 
ENDBRANCH   6   7
ENDBRANCH   1   6
TORSDOF 4
ENDMDL
MODEL 4
REMARK VINA RESULT:    -3.623      2.615      4.603
REMARK INTER + INTRA:          -4.559
REMARK INTER:                  -4.516
REMARK INTRA:                  -0.043
REMARK UNBOUND:                -0.088
REMARK SMILES CCCCCC(=O)[O-]
REMARK SMILES IDX 4 1 5 2 6 3 7 4 8 5 3 6 2 7 1 8
REMARK H PARENT
REMARK Flexibility Score: inf
ROOT
ATOM      1  C   UNL     1       3.918 -37.267  18.592  1.00  0.00     0.006 C 
ENDROOT
BRANCH   1   2
ATOM      2  C   UNL     1       2.524 -37.238  17.951  1.00  0.00     0.053 C 
BRANCH   2   3
ATOM      3  C   UNL     1       2.595 -36.936  16.486  1.00  0.00     0.041 C 
ATOM      4  O   UNL     1       1.884 -36.021  15.992  1.00  0.00    -0.550 OA
ATOM      5  O   UNL     1       3.472 -37.642  15.671  1.00  0.00    -0.550 OA
ENDBRANCH   2   3
ENDBRANCH   1   2
BRANCH   1   6
ATOM      6  C   UNL     1       3.971 -36.463  19.903  1.00  0.00     0.000 C 
BRANCH   6   7
ATOM      7  C   UNL     1       5.304 -35.723  20.087  1.00  0.00    -0.003 C 
ATOM      8  C   UNL     1       5.822 -35.785  21.524  1.00  0.00     0.004 C 
ENDBRANCH   6   7
ENDBRANCH   1   6
TORSDOF 4
ENDMDL
MODEL 5
REMARK VINA RESULT:    -3.462      3.478      6.303
REMARK INTER + INTRA:          -4.360
REMARK INTER:                  -4.241
REMARK INTRA:                  -0.119
REMARK UNBOUND:                -0.088
REMARK SMILES CCCCCC(=O)[O-]
REMARK SMILES IDX 4 1 5 2 6 3 7 4 8 5 3 6 2 7 1 8
REMARK H PARENT
REMARK Flexibility Score: inf
ROOT
ATOM      1  C   UNL     1       6.037 -35.622  21.486  1.00  0.00     0.006 C 
ENDROOT
BRANCH   1   2
ATOM      2  C   UNL     1       5.394 -36.879  20.887  1.00  0.00     0.053 C 
BRANCH   2   3
ATOM      3  C   UNL     1       4.416 -36.540  19.806  1.00  0.00     0.041 C 
ATOM      4  O   UNL     1       4.600 -35.529  19.078  1.00  0.00    -0.550 OA
ATOM      5  O   UNL     1       3.317 -37.360  19.578  1.00  0.00    -0.550 OA
ENDBRANCH   2   3
ENDBRANCH   1   2
BRANCH   1   6
ATOM      6  C   UNL     1       5.244 -35.080  22.689  1.00  0.00     0.000 C 
BRANCH   6   7
ATOM      7  C   UNL     1       6.125 -34.868  23.929  1.00  0.00    -0.003 C 
ATOM      8  C   UNL     1       6.001 -36.003  24.944  1.00  0.00     0.004 C 
ENDBRANCH   6   7
ENDBRANCH   1   6
TORSDOF 4
ENDMDL
MODEL 6
REMARK VINA RESULT:    -3.413      2.791      5.097
REMARK INTER + INTRA:          -4.300
REMARK INTER:                  -4.241
REMARK INTRA:                  -0.059
REMARK UNBOUND:                -0.088
REMARK SMILES CCCCCC(=O)[O-]
REMARK SMILES IDX 4 1 5 2 6 3 7 4 8 5 3 6 2 7 1 8
REMARK H PARENT
REMARK Flexibility Score: inf
ROOT
ATOM      1  C   UNL     1       4.077 -37.097  19.882  1.00  0.00     0.006 C 
ENDROOT
BRANCH   1   2
ATOM      2  C   UNL     1       3.755 -36.850  18.403  1.00  0.00     0.053 C 
BRANCH   2   3
ATOM      3  C   UNL     1       2.346 -37.235  18.070  1.00  0.00     0.041 C 
ATOM      4  O   UNL     1       1.848 -36.920  16.958  1.00  0.00    -0.550 OA
ATOM      5  O   UNL     1       1.595 -37.975  18.976  1.00  0.00    -0.550 OA
ENDBRANCH   2   3
ENDBRANCH   1   2
BRANCH   1   6
ATOM      6  C   UNL     1       4.505 -35.808  20.606  1.00  0.00     0.000 C 
BRANCH   6   7
ATOM      7  C   UNL     1       5.677 -36.036  21.571  1.00  0.00    -0.003 C 
ATOM      8  C   UNL     1       5.577 -35.185  22.836  1.00  0.00     0.004 C 
ENDBRANCH   6   7
ENDBRANCH   1   6
TORSDOF 4
ENDMDL
MODEL 7
REMARK VINA RESULT:    -3.330      2.895      4.612
REMARK INTER + INTRA:          -4.197
REMARK INTER:                  -4.117
REMARK INTRA:                  -0.080
REMARK UNBOUND:                -0.088
REMARK SMILES CCCCCC(=O)[O-]
REMARK SMILES IDX 4 1 5 2 6 3 7 4 8 5 3 6 2 7 1 8
REMARK H PARENT
REMARK Flexibility Score: inf
ROOT
ATOM      1  C   UNL     1       3.486 -36.436  17.433  1.00  0.00     0.006 C 
ENDROOT
BRANCH   1   2
ATOM      2  C   UNL     1       2.541 -36.579  16.233  1.00  0.00     0.053 C 
BRANCH   2   3
ATOM      3  C   UNL     1       3.259 -37.081  15.019  1.00  0.00     0.041 C 
ATOM      4  O   UNL     1       3.766 -38.234  15.013  1.00  0.00    -0.550 OA
ATOM      5  O   UNL     1       3.337 -36.290  13.879  1.00  0.00    -0.550 OA
ENDBRANCH   2   3
ENDBRANCH   1   2
BRANCH   1   6
ATOM      6  C   UNL     1       3.069 -37.334  18.611  1.00  0.00     0.000 C 
BRANCH   6   7
ATOM      7  C   UNL     1       3.665 -36.869  19.947  1.00  0.00    -0.003 C 
ATOM      8  C   UNL     1       5.132 -37.263  20.110  1.00  0.00     0.004 C 
ENDBRANCH   6   7
ENDBRANCH   1   6
TORSDOF 4
ENDMDL
MODEL 8
REMARK VINA RESULT:    -3.039      3.437      4.348
REMARK INTER + INTRA:          -3.838
REMARK INTER:                  -3.753
REMARK INTRA:                  -0.085
REMARK UNBOUND:                -0.088
REMARK SMILES CCCCCC(=O)[O-]
REMARK SMILES IDX 4 1 5 2 6 3 7 4 8 5 3 6 2 7 1 8
REMARK H PARENT
REMARK Flexibility Score: inf
ROOT
ATOM      1  C   UNL     1       5.373 -37.344  20.998  1.00  0.00     0.006 C 
ENDROOT
BRANCH   1   2
ATOM      2  C   UNL     1       5.881 -35.937  21.339  1.00  0.00     0.053 C 
BRANCH   2   3
ATOM      3  C   UNL     1       5.744 -35.638  22.800  1.00  0.00     0.041 C 
ATOM      4  O   UNL     1       5.253 -34.541  23.179  1.00  0.00    -0.550 OA
ATOM      5  O   UNL     1       6.125 -36.584  23.744  1.00  0.00    -0.550 OA
ENDBRANCH   2   3
ENDBRANCH   1   2
BRANCH   1   6
ATOM      6  C   UNL     1       4.932 -37.463  19.529  1.00  0.00     0.000 C 
BRANCH   6   7
ATOM      7  C   UNL     1       3.664 -36.652  19.226  1.00  0.00    -0.003 C 
ATOM      8  C   UNL     1       2.393 -37.498  19.278  1.00  0.00     0.004 C 
ENDBRANCH   6   7
ENDBRANCH   1   6
TORSDOF 4
ENDMDL
MODEL 9
REMARK VINA RESULT:    -2.497      2.252      2.616
REMARK INTER + INTRA:          -3.169
REMARK INTER:                  -3.709
REMARK INTRA:                   0.540
REMARK UNBOUND:                -0.088
REMARK SMILES CCCCCC(=O)[O-]
REMARK SMILES IDX 4 1 5 2 6 3 7 4 8 5 3 6 2 7 1 8
REMARK H PARENT
REMARK Flexibility Score: inf
ROOT
ATOM      1  C   UNL     1       3.620 -37.063  18.191  1.00  0.00     0.006 C 
ENDROOT
BRANCH   1   2
ATOM      2  C   UNL     1       2.989 -37.294  19.570  1.00  0.00     0.053 C 
BRANCH   2   3
ATOM      3  C   UNL     1       1.550 -37.693  19.461  1.00  0.00     0.041 C 
ATOM      4  O   UNL     1       1.207 -38.630  18.692  1.00  0.00    -0.550 OA
ATOM      5  O   UNL     1       0.590 -37.053  20.235  1.00  0.00    -0.550 OA
ENDBRANCH   2   3
ENDBRANCH   1   2
BRANCH   1   6
ATOM      6  C   UNL     1       2.560 -36.879  17.090  1.00  0.00     0.000 C 
BRANCH   6   7
ATOM      7  C   UNL     1       3.127 -36.206  15.832  1.00  0.00    -0.003 C 
ATOM      8  C   UNL     1       3.549 -37.211  14.762  1.00  0.00     0.004 C 
ENDBRANCH   6   7
ENDBRANCH   1   6
TORSDOF 4
ENDMDL
