MODEL 1
REMARK VINA RESULT:    -1.455      0.000      0.000
REMARK INTER + INTRA:          -5.647
REMARK INTER:                  -3.837
REMARK INTRA:                  -1.811
REMARK UNBOUND:                -1.811
REMARK SMILES CCCCCCCCCCCCCCCCCCCCCCCCCCCCCC(=O)[O-]
REMARK SMILES IDX 16 1 17 2 18 3 19 4 20 5 21 6 22 7 23 8 24 9 25 10 26 11
REMARK SMILES IDX 27 12 28 13 29 14 30 15 31 16 32 17 15 18 14 19 13 20 12 21
REMARK SMILES IDX 11 22 10 23 9 24 8 25 7 26 6 27 5 28 4 29 3 30 2 31 1 32
REMARK H PARENT
REMARK Flexibility Score: inf
ROOT
ATOM      1  C   UNL     1      -7.524   5.267  -7.779  1.00  0.00     0.000 C 
ENDROOT
BRANCH   1   2
ATOM      2  C   UNL     1      -7.841   5.698  -9.228  1.00  0.00     0.000 C 
BRANCH   2   3
ATOM      3  C   UNL     1      -8.668   6.994  -9.282  1.00  0.00     0.000 C 
BRANCH   3   4
ATOM      4  C   UNL     1      -7.790   8.247  -9.427  1.00  0.00     0.000 C 
BRANCH   4   5
ATOM      5  C   UNL     1      -7.479   8.909  -8.077  1.00  0.00     0.000 C 
BRANCH   5   6
ATOM      6  C   UNL     1      -5.996   9.303  -7.993  1.00  0.00     0.000 C 
BRANCH   6   7
ATOM      7  C   UNL     1      -5.124   8.599  -9.049  1.00  0.00     0.000 C 
BRANCH   7   8
ATOM      8  C   UNL     1      -3.778   8.063  -8.528  1.00  0.00     0.000 C 
BRANCH   8   9
ATOM      9  C   UNL     1      -3.736   7.919  -7.001  1.00  0.00     0.000 C 
BRANCH   9  10
ATOM     10  C   UNL     1      -4.242   6.535  -6.567  1.00  0.00     0.000 C 
BRANCH  10  11
ATOM     11  C   UNL     1      -3.805   6.174  -5.137  1.00  0.00     0.000 C 
BRANCH  11  12
ATOM     12  C   UNL     1      -3.155   4.781  -5.058  1.00  0.00     0.000 C 
BRANCH  12  13
ATOM     13  C   UNL     1      -2.581   4.475  -3.663  1.00  0.00     0.006 C 
BRANCH  13  14
ATOM     14  C   UNL     1      -2.923   3.072  -3.135  1.00  0.00     0.053 C 
BRANCH  14  15
ATOM     15  C   UNL     1      -1.694   2.269  -2.837  1.00  0.00     0.041 C 
ATOM     16  O   UNL     1      -0.629   2.843  -2.492  1.00  0.00    -0.550 OA
ATOM     17  O   UNL     1      -1.712   0.886  -2.980  1.00  0.00    -0.550 OA
ENDBRANCH  14  15
ENDBRANCH  13  14
ENDBRANCH  12  13
ENDBRANCH  11  12
ENDBRANCH  10  11
ENDBRANCH   9  10
ENDBRANCH   8   9
ENDBRANCH   7   8
ENDBRANCH   6   7
ENDBRANCH   5   6
ENDBRANCH   4   5
ENDBRANCH   3   4
ENDBRANCH   2   3
ENDBRANCH   1   2
BRANCH   1  18
ATOM     18  C   UNL     1      -8.715   5.412  -6.812  1.00  0.00     0.000 C 
BRANCH  18  19
ATOM     19  C   UNL     1      -9.622   4.174  -6.704  1.00  0.00     0.000 C 
BRANCH  19  20
ATOM     20  C   UNL     1      -9.720   3.635  -5.267  1.00  0.00     0.000 C 
BRANCH  20  21
ATOM     21  C   UNL     1     -10.085   4.725  -4.242  1.00  0.00     0.000 C 
BRANCH  21  22
ATOM     22  C   UNL     1      -9.660   4.424  -2.793  1.00  0.00     0.000 C 
BRANCH  22  23
ATOM     23  C   UNL     1      -9.328   5.694  -1.991  1.00  0.00     0.000 C 
BRANCH  23  24
ATOM     24  C   UNL     1      -9.349   5.463  -0.473  1.00  0.00    -0.000 C 
BRANCH  24  25
ATOM     25  C   UNL     1      -8.079   4.758   0.033  1.00  0.00    -0.000 C 
BRANCH  25  26
ATOM     26  C   UNL     1      -7.105   5.732   0.719  1.00  0.00    -0.000 C 
BRANCH  26  27
ATOM     27  C   UNL     1      -7.621   6.201   2.091  1.00  0.00    -0.000 C 
BRANCH  27  28
ATOM     28  C   UNL     1      -6.608   7.082   2.845  1.00  0.00    -0.000 C 
BRANCH  28  29
ATOM     29  C   UNL     1      -7.062   7.551   4.238  1.00  0.00    -0.000 C 
BRANCH  29  30
ATOM     30  C   UNL     1      -6.955   9.071   4.423  1.00  0.00    -0.000 C 
BRANCH  30  31
ATOM     31  C   UNL     1      -5.587   9.459   4.997  1.00  0.00    -0.003 C 
ATOM     32  C   UNL     1      -4.642   8.261   5.027  1.00  0.00     0.004 C 
ENDBRANCH  30  31
ENDBRANCH  29  30
ENDBRANCH  28  29
ENDBRANCH  27  28
ENDBRANCH  26  27
ENDBRANCH  25  26
ENDBRANCH  24  25
ENDBRANCH  23  24
ENDBRANCH  22  23
ENDBRANCH  21  22
ENDBRANCH  20  21
ENDBRANCH  19  20
ENDBRANCH  18  19
ENDBRANCH   1  18
TORSDOF 28
ENDMDL
MODEL 2
REMARK VINA RESULT:    -0.061      4.685     10.148
REMARK INTER + INTRA:          -1.971
REMARK INTER:                  -0.276
REMARK INTRA:                  -1.695
REMARK UNBOUND:                -1.811
REMARK SMILES CCCCCCCCCCCCCCCCCCCCCCCCCCCCCC(=O)[O-]
REMARK SMILES IDX 16 1 17 2 18 3 19 4 20 5 21 6 22 7 23 8 24 9 25 10 26 11
REMARK SMILES IDX 27 12 28 13 29 14 30 15 31 16 32 17 15 18 14 19 13 20 12 21
REMARK SMILES IDX 11 22 10 23 9 24 8 25 7 26 6 27 5 28 4 29 3 30 2 31 1 32
REMARK H PARENT
REMARK Flexibility Score: inf
ROOT
ATOM      1  C   UNL     1      -3.291   5.372  -4.875  1.00  0.00     0.000 C 
ENDROOT
BRANCH   1   2
ATOM      2  C   UNL     1      -2.698   3.996  -4.502  1.00  0.00     0.000 C 
BRANCH   2   3
ATOM      3  C   UNL     1      -3.057   3.577  -3.065  1.00  0.00     0.000 C 
BRANCH   3   4
ATOM      4  C   UNL     1      -2.204   2.400  -2.565  1.00  0.00     0.000 C 
BRANCH   4   5
ATOM      5  C   UNL     1      -0.814   2.362  -3.216  1.00  0.00     0.000 C 
BRANCH   5   6
ATOM      6  C   UNL     1       0.188   3.201  -2.407  1.00  0.00     0.000 C 
BRANCH   6   7
ATOM      7  C   UNL     1      -0.327   3.566  -1.002  1.00  0.00     0.000 C 
BRANCH   7   8
ATOM      8  C   UNL     1       0.066   2.577   0.111  1.00  0.00     0.000 C 
BRANCH   8   9
ATOM      9  C   UNL     1       1.123   3.139   1.070  1.00  0.00     0.000 C 
BRANCH   9  10
ATOM     10  C   UNL     1       1.452   2.127   2.178  1.00  0.00     0.000 C 
BRANCH  10  11
ATOM     11  C   UNL     1       0.189   1.533   2.822  1.00  0.00     0.000 C 
BRANCH  11  12
ATOM     12  C   UNL     1       0.502   0.741   4.104  1.00  0.00     0.000 C 
BRANCH  12  13
ATOM     13  C   UNL     1       0.455   1.617   5.368  1.00  0.00     0.006 C 
BRANCH  13  14
ATOM     14  C   UNL     1       0.037   3.074   5.109  1.00  0.00     0.053 C 
BRANCH  14  15
ATOM     15  C   UNL     1       0.340   3.962   6.278  1.00  0.00     0.041 C 
ATOM     16  O   UNL     1       0.212   5.209   6.176  1.00  0.00    -0.550 OA
ATOM     17  O   UNL     1       0.804   3.415   7.469  1.00  0.00    -0.550 OA
ENDBRANCH  14  15
ENDBRANCH  13  14
ENDBRANCH  12  13
ENDBRANCH  11  12
ENDBRANCH  10  11
ENDBRANCH   9  10
ENDBRANCH   8   9
ENDBRANCH   7   8
ENDBRANCH   6   7
ENDBRANCH   5   6
ENDBRANCH   4   5
ENDBRANCH   3   4
ENDBRANCH   2   3
ENDBRANCH   1   2
BRANCH   1  18
ATOM     18  C   UNL     1      -4.001   5.394  -6.243  1.00  0.00     0.000 C 
BRANCH  18  19
ATOM     19  C   UNL     1      -4.911   6.611  -6.486  1.00  0.00     0.000 C 
BRANCH  19  20
ATOM     20  C   UNL     1      -4.118   7.900  -6.755  1.00  0.00     0.000 C 
BRANCH  20  21
ATOM     21  C   UNL     1      -3.462   7.920  -8.148  1.00  0.00     0.000 C 
BRANCH  21  22
ATOM     22  C   UNL     1      -4.411   8.269  -9.309  1.00  0.00     0.000 C 
BRANCH  22  23
ATOM     23  C   UNL     1      -4.822   9.751  -9.320  1.00  0.00     0.000 C 
BRANCH  23  24
ATOM     24  C   UNL     1      -6.258   9.968  -9.821  1.00  0.00    -0.000 C 
BRANCH  24  25
ATOM     25  C   UNL     1      -7.299   9.227  -8.963  1.00  0.00    -0.000 C 
BRANCH  25  26
ATOM     26  C   UNL     1      -8.687   9.201  -9.625  1.00  0.00    -0.000 C 
BRANCH  26  27
ATOM     27  C   UNL     1      -9.133   7.773  -9.988  1.00  0.00    -0.000 C 
BRANCH  27  28
ATOM     28  C   UNL     1      -8.228   6.688  -9.378  1.00  0.00    -0.000 C 
BRANCH  28  29
ATOM     29  C   UNL     1      -8.513   6.355  -7.904  1.00  0.00    -0.000 C 
BRANCH  29  30
ATOM     30  C   UNL     1      -8.438   4.850  -7.604  1.00  0.00    -0.000 C 
BRANCH  30  31
ATOM     31  C   UNL     1      -9.777   4.330  -7.068  1.00  0.00    -0.003 C 
ATOM     32  C   UNL     1      -9.784   4.295  -5.542  1.00  0.00     0.004 C 
ENDBRANCH  30  31
ENDBRANCH  29  30
ENDBRANCH  28  29
ENDBRANCH  27  28
ENDBRANCH  26  27
ENDBRANCH  25  26
ENDBRANCH  24  25
ENDBRANCH  23  24
ENDBRANCH  22  23
ENDBRANCH  21  22
ENDBRANCH  20  21
ENDBRANCH  19  20
ENDBRANCH  18  19
ENDBRANCH   1  18
TORSDOF 28
ENDMDL
MODEL 3
REMARK VINA RESULT:    -0.026      4.675      7.455
REMARK INTER + INTRA:          -1.878
REMARK INTER:                  -1.105
REMARK INTRA:                  -0.773
REMARK UNBOUND:                -1.811
REMARK SMILES CCCCCCCCCCCCCCCCCCCCCCCCCCCCCC(=O)[O-]
REMARK SMILES IDX 16 1 17 2 18 3 19 4 20 5 21 6 22 7 23 8 24 9 25 10 26 11
REMARK SMILES IDX 27 12 28 13 29 14 30 15 31 16 32 17 15 18 14 19 13 20 12 21
REMARK SMILES IDX 11 22 10 23 9 24 8 25 7 26 6 27 5 28 4 29 3 30 2 31 1 32
REMARK H PARENT
REMARK Flexibility Score: inf
ROOT
ATOM      1  C   UNL     1      -4.085   5.803  -5.918  1.00  0.00     0.000 C 
ENDROOT
BRANCH   1   2
ATOM      2  C   UNL     1      -4.506   7.235  -6.313  1.00  0.00     0.000 C 
BRANCH   2   3
ATOM      3  C   UNL     1      -4.955   7.326  -7.782  1.00  0.00     0.000 C 
BRANCH   3   4
ATOM      4  C   UNL     1      -3.801   7.693  -8.728  1.00  0.00     0.000 C 
BRANCH   4   5
ATOM      5  C   UNL     1      -3.461   9.191  -8.690  1.00  0.00     0.000 C 
BRANCH   5   6
ATOM      6  C   UNL     1      -4.738  10.040  -8.791  1.00  0.00     0.000 C 
BRANCH   6   7
ATOM      7  C   UNL     1      -5.990   9.210  -9.131  1.00  0.00     0.000 C 
BRANCH   7   8
ATOM      8  C   UNL     1      -7.260   9.603  -8.354  1.00  0.00     0.000 C 
BRANCH   8   9
ATOM      9  C   UNL     1      -8.527   9.579  -9.220  1.00  0.00     0.000 C 
BRANCH   9  10
ATOM     10  C   UNL     1      -8.565   8.322 -10.103  1.00  0.00     0.000 C 
BRANCH  10  11
ATOM     11  C   UNL     1      -9.952   7.659 -10.117  1.00  0.00     0.000 C 
BRANCH  11  12
ATOM     12  C   UNL     1     -10.025   6.435  -9.187  1.00  0.00     0.000 C 
BRANCH  12  13
ATOM     13  C   UNL     1      -8.661   5.745  -9.007  1.00  0.00     0.006 C 
BRANCH  13  14
ATOM     14  C   UNL     1      -8.320   5.393  -7.551  1.00  0.00     0.053 C 
BRANCH  14  15
ATOM     15  C   UNL     1      -9.362   4.516  -6.926  1.00  0.00     0.041 C 
ATOM     16  O   UNL     1      -9.823   4.792  -5.788  1.00  0.00    -0.550 OA
ATOM     17  O   UNL     1      -9.795   3.369  -7.582  1.00  0.00    -0.550 OA
ENDBRANCH  14  15
ENDBRANCH  13  14
ENDBRANCH  12  13
ENDBRANCH  11  12
ENDBRANCH  10  11
ENDBRANCH   9  10
ENDBRANCH   8   9
ENDBRANCH   7   8
ENDBRANCH   6   7
ENDBRANCH   5   6
ENDBRANCH   4   5
ENDBRANCH   3   4
ENDBRANCH   2   3
ENDBRANCH   1   2
BRANCH   1  18
ATOM     18  C   UNL     1      -3.873   5.611  -4.404  1.00  0.00     0.000 C 
BRANCH  18  19
ATOM     19  C   UNL     1      -2.613   4.817  -4.016  1.00  0.00     0.000 C 
BRANCH  19  20
ATOM     20  C   UNL     1      -2.942   3.507  -3.281  1.00  0.00     0.000 C 
BRANCH  20  21
ATOM     21  C   UNL     1      -1.982   2.359  -3.645  1.00  0.00     0.000 C 
BRANCH  21  22
ATOM     22  C   UNL     1      -0.908   2.048  -2.585  1.00  0.00     0.000 C 
BRANCH  22  23
ATOM     23  C   UNL     1      -1.195   2.716  -1.230  1.00  0.00     0.000 C 
BRANCH  23  24
ATOM     24  C   UNL     1      -0.484   4.068  -1.070  1.00  0.00    -0.000 C 
BRANCH  24  25
ATOM     25  C   UNL     1       0.720   3.991  -0.115  1.00  0.00    -0.000 C 
BRANCH  25  26
ATOM     26  C   UNL     1       0.627   2.792   0.844  1.00  0.00    -0.000 C 
BRANCH  26  27
ATOM     27  C   UNL     1       1.909   2.611   1.677  1.00  0.00    -0.000 C 
BRANCH  27  28
ATOM     28  C   UNL     1       1.674   2.785   3.188  1.00  0.00    -0.000 C 
BRANCH  28  29
ATOM     29  C   UNL     1       0.710   1.765   3.819  1.00  0.00    -0.000 C 
BRANCH  29  30
ATOM     30  C   UNL     1       0.044   2.283   5.101  1.00  0.00    -0.000 C 
BRANCH  30  31
ATOM     31  C   UNL     1       0.743   3.550   5.609  1.00  0.00    -0.003 C 
ATOM     32  C   UNL     1      -0.271   4.594   6.066  1.00  0.00     0.004 C 
ENDBRANCH  30  31
ENDBRANCH  29  30
ENDBRANCH  28  29
ENDBRANCH  27  28
ENDBRANCH  26  27
ENDBRANCH  25  26
ENDBRANCH  24  25
ENDBRANCH  23  24
ENDBRANCH  22  23
ENDBRANCH  21  22
ENDBRANCH  20  21
ENDBRANCH  19  20
ENDBRANCH  18  19
ENDBRANCH   1  18
TORSDOF 28
ENDMDL
MODEL 4
REMARK VINA RESULT:     0.100      4.532      9.438
REMARK INTER + INTRA:          -1.547
REMARK INTER:                   0.484
REMARK INTRA:                  -2.031
REMARK UNBOUND:                -1.811
REMARK SMILES CCCCCCCCCCCCCCCCCCCCCCCCCCCCCC(=O)[O-]
REMARK SMILES IDX 16 1 17 2 18 3 19 4 20 5 21 6 22 7 23 8 24 9 25 10 26 11
REMARK SMILES IDX 27 12 28 13 29 14 30 15 31 16 32 17 15 18 14 19 13 20 12 21
REMARK SMILES IDX 11 22 10 23 9 24 8 25 7 26 6 27 5 28 4 29 3 30 2 31 1 32
REMARK H PARENT
REMARK Flexibility Score: inf
ROOT
ATOM      1  C   UNL     1      -3.831   5.298  -6.258  1.00  0.00     0.000 C 
ENDROOT
BRANCH   1   2
ATOM      2  C   UNL     1      -3.416   6.041  -4.970  1.00  0.00     0.000 C 
BRANCH   2   3
ATOM      3  C   UNL     1      -3.269   5.088  -3.769  1.00  0.00     0.000 C 
BRANCH   3   4
ATOM      4  C   UNL     1      -2.521   3.795  -4.133  1.00  0.00     0.000 C 
BRANCH   4   5
ATOM      5  C   UNL     1      -3.145   2.551  -3.483  1.00  0.00     0.000 C 
BRANCH   5   6
ATOM      6  C   UNL     1      -2.053   1.590  -2.990  1.00  0.00     0.000 C 
BRANCH   6   7
ATOM      7  C   UNL     1      -0.788   2.316  -2.494  1.00  0.00     0.000 C 
BRANCH   7   8
ATOM      8  C   UNL     1      -0.871   2.853  -1.053  1.00  0.00     0.000 C 
BRANCH   8   9
ATOM      9  C   UNL     1      -0.462   4.327  -0.935  1.00  0.00     0.000 C 
BRANCH   9  10
ATOM     10  C   UNL     1       0.682   4.499   0.077  1.00  0.00     0.000 C 
BRANCH  10  11
ATOM     11  C   UNL     1       1.133   3.161   0.683  1.00  0.00     0.000 C 
BRANCH  11  12
ATOM     12  C   UNL     1       2.050   3.351   1.905  1.00  0.00     0.000 C 
BRANCH  12  13
ATOM     13  C   UNL     1       1.950   2.188   2.907  1.00  0.00     0.006 C 
BRANCH  13  14
ATOM     14  C   UNL     1       0.751   2.282   3.865  1.00  0.00     0.053 C 
BRANCH  14  15
ATOM     15  C   UNL     1      -0.047   1.015   3.893  1.00  0.00     0.041 C 
ATOM     16  O   UNL     1       0.415  -0.013   4.452  1.00  0.00    -0.550 OA
ATOM     17  O   UNL     1      -1.286   0.956   3.265  1.00  0.00    -0.550 OA
ENDBRANCH  14  15
ENDBRANCH  13  14
ENDBRANCH  12  13
ENDBRANCH  11  12
ENDBRANCH  10  11
ENDBRANCH   9  10
ENDBRANCH   8   9
ENDBRANCH   7   8
ENDBRANCH   6   7
ENDBRANCH   5   6
ENDBRANCH   4   5
ENDBRANCH   3   4
ENDBRANCH   2   3
ENDBRANCH   1   2
BRANCH   1  18
ATOM     18  C   UNL     1      -4.842   6.073  -7.125  1.00  0.00     0.000 C 
BRANCH  18  19
ATOM     19  C   UNL     1      -4.916   7.585  -6.847  1.00  0.00     0.000 C 
BRANCH  19  20
ATOM     20  C   UNL     1      -3.758   8.364  -7.493  1.00  0.00     0.000 C 
BRANCH  20  21
ATOM     21  C   UNL     1      -4.067   8.808  -8.935  1.00  0.00     0.000 C 
BRANCH  21  22
ATOM     22  C   UNL     1      -4.887  10.105  -9.055  1.00  0.00     0.000 C 
BRANCH  22  23
ATOM     23  C   UNL     1      -6.225   9.902  -9.786  1.00  0.00     0.000 C 
BRANCH  23  24
ATOM     24  C   UNL     1      -7.320   9.323  -8.877  1.00  0.00    -0.000 C 
BRANCH  24  25
ATOM     25  C   UNL     1      -8.716   9.874  -9.212  1.00  0.00    -0.000 C 
BRANCH  25  26
ATOM     26  C   UNL     1      -9.550   8.882 -10.041  1.00  0.00    -0.000 C 
BRANCH  26  27
ATOM     27  C   UNL     1      -8.991   7.450  -9.972  1.00  0.00    -0.000 C 
BRANCH  27  28
ATOM     28  C   UNL     1     -10.029   6.422  -9.487  1.00  0.00    -0.000 C 
BRANCH  28  29
ATOM     29  C   UNL     1      -9.491   4.993  -9.299  1.00  0.00    -0.000 C 
BRANCH  29  30
ATOM     30  C   UNL     1      -8.964   4.733  -7.881  1.00  0.00    -0.000 C 
BRANCH  30  31
ATOM     31  C   UNL     1     -10.074   4.192  -6.973  1.00  0.00    -0.003 C 
ATOM     32  C   UNL     1      -9.724   4.381  -5.500  1.00  0.00     0.004 C 
ENDBRANCH  30  31
ENDBRANCH  29  30
ENDBRANCH  28  29
ENDBRANCH  27  28
ENDBRANCH  26  27
ENDBRANCH  25  26
ENDBRANCH  24  25
ENDBRANCH  23  24
ENDBRANCH  22  23
ENDBRANCH  21  22
ENDBRANCH  20  21
ENDBRANCH  19  20
ENDBRANCH  18  19
ENDBRANCH   1  18
TORSDOF 28
ENDMDL
MODEL 5
REMARK VINA RESULT:     0.122      3.726      7.063
REMARK INTER + INTRA:          -1.488
REMARK INTER:                   0.348
REMARK INTRA:                  -1.836
REMARK UNBOUND:                -1.811
REMARK SMILES CCCCCCCCCCCCCCCCCCCCCCCCCCCCCC(=O)[O-]
REMARK SMILES IDX 16 1 17 2 18 3 19 4 20 5 21 6 22 7 23 8 24 9 25 10 26 11
REMARK SMILES IDX 27 12 28 13 29 14 30 15 31 16 32 17 15 18 14 19 13 20 12 21
REMARK SMILES IDX 11 22 10 23 9 24 8 25 7 26 6 27 5 28 4 29 3 30 2 31 1 32
REMARK H PARENT
REMARK Flexibility Score: inf
ROOT
ATOM      1  C   UNL     1      -4.003   7.890  -7.118  1.00  0.00     0.000 C 
ENDROOT
BRANCH   1   2
ATOM      2  C   UNL     1      -4.100   8.038  -8.652  1.00  0.00     0.000 C 
BRANCH   2   3
ATOM      3  C   UNL     1      -5.330   8.859  -9.080  1.00  0.00     0.000 C 
BRANCH   3   4
ATOM      4  C   UNL     1      -6.386   8.004  -9.799  1.00  0.00     0.000 C 
BRANCH   4   5
ATOM      5  C   UNL     1      -7.795   8.200  -9.221  1.00  0.00     0.000 C 
BRANCH   5   6
ATOM      6  C   UNL     1      -7.997   7.326  -7.973  1.00  0.00     0.000 C 
BRANCH   6   7
ATOM      7  C   UNL     1      -7.572   5.861  -8.187  1.00  0.00     0.000 C 
BRANCH   7   8
ATOM      8  C   UNL     1      -8.709   4.830  -8.066  1.00  0.00     0.000 C 
BRANCH   8   9
ATOM      9  C   UNL     1      -8.715   4.095  -6.720  1.00  0.00     0.000 C 
BRANCH   9  10
ATOM     10  C   UNL     1     -10.113   4.126  -6.084  1.00  0.00     0.000 C 
BRANCH  10  11
ATOM     11  C   UNL     1     -10.095   3.691  -4.609  1.00  0.00     0.000 C 
BRANCH  11  12
ATOM     12  C   UNL     1      -9.988   4.888  -3.647  1.00  0.00     0.000 C 
BRANCH  12  13
ATOM     13  C   UNL     1      -9.354   4.507  -2.298  1.00  0.00     0.006 C 
BRANCH  13  14
ATOM     14  C   UNL     1      -8.872   5.708  -1.468  1.00  0.00     0.053 C 
BRANCH  14  15
ATOM     15  C   UNL     1      -8.602   5.334  -0.042  1.00  0.00     0.041 C 
ATOM     16  O   UNL     1      -9.554   5.202   0.770  1.00  0.00    -0.550 OA
ATOM     17  O   UNL     1      -7.294   5.171   0.402  1.00  0.00    -0.550 OA
ENDBRANCH  14  15
ENDBRANCH  13  14
ENDBRANCH  12  13
ENDBRANCH  11  12
ENDBRANCH  10  11
ENDBRANCH   9  10
ENDBRANCH   8   9
ENDBRANCH   7   8
ENDBRANCH   6   7
ENDBRANCH   5   6
ENDBRANCH   4   5
ENDBRANCH   3   4
ENDBRANCH   2   3
ENDBRANCH   1   2
BRANCH   1  18
ATOM     18  C   UNL     1      -3.911   6.428  -6.639  1.00  0.00     0.000 C 
BRANCH  18  19
ATOM     19  C   UNL     1      -3.219   6.229  -5.279  1.00  0.00     0.000 C 
BRANCH  19  20
ATOM     20  C   UNL     1      -3.655   4.933  -4.576  1.00  0.00     0.000 C 
BRANCH  20  21
ATOM     21  C   UNL     1      -2.473   4.151  -3.974  1.00  0.00     0.000 C 
BRANCH  21  22
ATOM     22  C   UNL     1      -2.835   3.233  -2.792  1.00  0.00     0.000 C 
BRANCH  22  23
ATOM     23  C   UNL     1      -1.691   2.281  -2.402  1.00  0.00     0.000 C 
BRANCH  23  24
ATOM     24  C   UNL     1      -0.431   3.023  -1.933  1.00  0.00    -0.000 C 
BRANCH  24  25
ATOM     25  C   UNL     1      -0.575   3.586  -0.508  1.00  0.00    -0.000 C 
BRANCH  25  26
ATOM     26  C   UNL     1      -0.103   2.589   0.563  1.00  0.00    -0.000 C 
BRANCH  26  27
ATOM     27  C   UNL     1       1.393   2.750   0.890  1.00  0.00    -0.000 C 
BRANCH  27  28
ATOM     28  C   UNL     1       1.695   2.638   2.395  1.00  0.00    -0.000 C 
BRANCH  28  29
ATOM     29  C   UNL     1       0.889   1.560   3.142  1.00  0.00    -0.000 C 
BRANCH  29  30
ATOM     30  C   UNL     1       0.102   2.121   4.336  1.00  0.00    -0.000 C 
BRANCH  30  31
ATOM     31  C   UNL     1       0.839   3.306   4.970  1.00  0.00    -0.003 C 
ATOM     32  C   UNL     1      -0.079   4.088   5.906  1.00  0.00     0.004 C 
ENDBRANCH  30  31
ENDBRANCH  29  30
ENDBRANCH  28  29
ENDBRANCH  27  28
ENDBRANCH  26  27
ENDBRANCH  25  26
ENDBRANCH  24  25
ENDBRANCH  23  24
ENDBRANCH  22  23
ENDBRANCH  21  22
ENDBRANCH  20  21
ENDBRANCH  19  20
ENDBRANCH  18  19
ENDBRANCH   1  18
TORSDOF 28
ENDMDL
MODEL 6
REMARK VINA RESULT:     0.263      3.994      9.455
REMARK INTER + INTRA:          -1.118
REMARK INTER:                   0.443
REMARK INTRA:                  -1.561
REMARK UNBOUND:                -1.811
REMARK SMILES CCCCCCCCCCCCCCCCCCCCCCCCCCCCCC(=O)[O-]
REMARK SMILES IDX 16 1 17 2 18 3 19 4 20 5 21 6 22 7 23 8 24 9 25 10 26 11
REMARK SMILES IDX 27 12 28 13 29 14 30 15 31 16 32 17 15 18 14 19 13 20 12 21
REMARK SMILES IDX 11 22 10 23 9 24 8 25 7 26 6 27 5 28 4 29 3 30 2 31 1 32
REMARK H PARENT
REMARK Flexibility Score: inf
ROOT
ATOM      1  C   UNL     1      -9.378   3.964  -6.110  1.00  0.00     0.000 C 
ENDROOT
BRANCH   1   2
ATOM      2  C   UNL     1     -10.112   3.575  -4.808  1.00  0.00     0.000 C 
BRANCH   2   3
ATOM      3  C   UNL     1     -10.082   4.706  -3.764  1.00  0.00     0.000 C 
BRANCH   3   4
ATOM      4  C   UNL     1      -9.511   4.244  -2.414  1.00  0.00     0.000 C 
BRANCH   4   5
ATOM      5  C   UNL     1      -9.301   5.408  -1.434  1.00  0.00     0.000 C 
BRANCH   5   6
ATOM      6  C   UNL     1      -8.029   5.194  -0.599  1.00  0.00     0.000 C 
BRANCH   6   7
ATOM      7  C   UNL     1      -8.211   5.564   0.885  1.00  0.00     0.000 C 
BRANCH   7   8
ATOM      8  C   UNL     1      -6.957   6.136   1.571  1.00  0.00     0.000 C 
BRANCH   8   9
ATOM      9  C   UNL     1      -7.261   6.815   2.913  1.00  0.00     0.000 C 
BRANCH   9  10
ATOM     10  C   UNL     1      -6.591   8.195   2.994  1.00  0.00     0.000 C 
BRANCH  10  11
ATOM     11  C   UNL     1      -6.846   8.891   4.341  1.00  0.00     0.000 C 
BRANCH  11  12
ATOM     12  C   UNL     1      -6.163   8.164   5.513  1.00  0.00     0.000 C 
BRANCH  12  13
ATOM     13  C   UNL     1      -6.863   8.423   6.859  1.00  0.00     0.006 C 
BRANCH  13  14
ATOM     14  C   UNL     1      -7.827   7.308   7.294  1.00  0.00     0.053 C 
BRANCH  14  15
ATOM     15  C   UNL     1      -8.167   7.395   8.750  1.00  0.00     0.041 C 
ATOM     16  O   UNL     1      -7.756   8.363   9.441  1.00  0.00    -0.550 OA
ATOM     17  O   UNL     1      -8.905   6.385   9.357  1.00  0.00    -0.550 OA
ENDBRANCH  14  15
ENDBRANCH  13  14
ENDBRANCH  12  13
ENDBRANCH  11  12
ENDBRANCH  10  11
ENDBRANCH   9  10
ENDBRANCH   8   9
ENDBRANCH   7   8
ENDBRANCH   6   7
ENDBRANCH   5   6
ENDBRANCH   4   5
ENDBRANCH   3   4
ENDBRANCH   2   3
ENDBRANCH   1   2
BRANCH   1  18
ATOM     18  C   UNL     1     -10.122   3.546  -7.393  1.00  0.00     0.000 C 
BRANCH  18  19
ATOM     19  C   UNL     1      -9.714   4.311  -8.664  1.00  0.00     0.000 C 
BRANCH  19  20
ATOM     20  C   UNL     1      -8.200   4.564  -8.743  1.00  0.00     0.000 C 
BRANCH  20  21
ATOM     21  C   UNL     1      -7.854   6.022  -9.100  1.00  0.00     0.000 C 
BRANCH  21  22
ATOM     22  C   UNL     1      -8.281   7.067  -8.053  1.00  0.00     0.000 C 
BRANCH  22  23
ATOM     23  C   UNL     1      -7.092   7.849  -7.469  1.00  0.00     0.000 C 
BRANCH  23  24
ATOM     24  C   UNL     1      -5.891   6.950  -7.141  1.00  0.00    -0.000 C 
BRANCH  24  25
ATOM     25  C   UNL     1      -4.545   7.672  -7.331  1.00  0.00    -0.000 C 
BRANCH  25  26
ATOM     26  C   UNL     1      -3.408   7.001  -6.541  1.00  0.00    -0.000 C 
BRANCH  26  27
ATOM     27  C   UNL     1      -3.770   5.573  -6.096  1.00  0.00    -0.000 C 
BRANCH  27  28
ATOM     28  C   UNL     1      -3.391   5.284  -4.633  1.00  0.00    -0.000 C 
BRANCH  28  29
ATOM     29  C   UNL     1      -2.607   3.980  -4.409  1.00  0.00    -0.000 C 
BRANCH  29  30
ATOM     30  C   UNL     1      -2.683   3.477  -2.960  1.00  0.00    -0.000 C 
BRANCH  30  31
ATOM     31  C   UNL     1      -2.083   2.071  -2.834  1.00  0.00    -0.003 C 
ATOM     32  C   UNL     1      -0.566   2.103  -2.995  1.00  0.00     0.004 C 
ENDBRANCH  30  31
ENDBRANCH  29  30
ENDBRANCH  28  29
ENDBRANCH  27  28
ENDBRANCH  26  27
ENDBRANCH  25  26
ENDBRANCH  24  25
ENDBRANCH  23  24
ENDBRANCH  22  23
ENDBRANCH  21  22
ENDBRANCH  20  21
ENDBRANCH  19  20
ENDBRANCH  18  19
ENDBRANCH   1  18
TORSDOF 28
ENDMDL
MODEL 7
REMARK VINA RESULT:     0.342      4.792      7.785
REMARK INTER + INTRA:          -0.908
REMARK INTER:                   0.249
REMARK INTRA:                  -1.157
REMARK UNBOUND:                -1.811
REMARK SMILES CCCCCCCCCCCCCCCCCCCCCCCCCCCCCC(=O)[O-]
REMARK SMILES IDX 16 1 17 2 18 3 19 4 20 5 21 6 22 7 23 8 24 9 25 10 26 11
REMARK SMILES IDX 27 12 28 13 29 14 30 15 31 16 32 17 15 18 14 19 13 20 12 21
REMARK SMILES IDX 11 22 10 23 9 24 8 25 7 26 6 27 5 28 4 29 3 30 2 31 1 32
REMARK H PARENT
REMARK Flexibility Score: inf
ROOT
ATOM      1  C   UNL     1      -3.386   4.104  -4.359  1.00  0.00     0.000 C 
ENDROOT
BRANCH   1   2
ATOM      2  C   UNL     1      -2.991   5.578  -4.596  1.00  0.00     0.000 C 
BRANCH   2   3
ATOM      3  C   UNL     1      -4.095   6.367  -5.323  1.00  0.00     0.000 C 
BRANCH   3   4
ATOM      4  C   UNL     1      -3.784   6.573  -6.815  1.00  0.00     0.000 C 
BRANCH   4   5
ATOM      5  C   UNL     1      -3.584   8.052  -7.176  1.00  0.00     0.000 C 
BRANCH   5   6
ATOM      6  C   UNL     1      -3.992   8.316  -8.633  1.00  0.00     0.000 C 
BRANCH   6   7
ATOM      7  C   UNL     1      -4.316   9.796  -8.910  1.00  0.00     0.000 C 
BRANCH   7   8
ATOM      8  C   UNL     1      -5.808  10.102  -9.138  1.00  0.00     0.000 C 
BRANCH   8   9
ATOM      9  C   UNL     1      -6.737   9.284  -8.231  1.00  0.00     0.000 C 
BRANCH   9  10
ATOM     10  C   UNL     1      -8.198   9.728  -8.399  1.00  0.00     0.000 C 
BRANCH  10  11
ATOM     11  C   UNL     1      -8.867   9.089  -9.627  1.00  0.00     0.000 C 
BRANCH  11  12
ATOM     12  C   UNL     1      -9.179   7.597  -9.412  1.00  0.00     0.000 C 
BRANCH  12  13
ATOM     13  C   UNL     1      -8.083   6.675  -9.975  1.00  0.00     0.006 C 
BRANCH  13  14
ATOM     14  C   UNL     1      -8.231   5.200  -9.571  1.00  0.00     0.053 C 
BRANCH  14  15
ATOM     15  C   UNL     1      -7.615   4.919  -8.234  1.00  0.00     0.041 C 
ATOM     16  O   UNL     1      -6.383   4.680  -8.141  1.00  0.00    -0.550 OA
ATOM     17  O   UNL     1      -8.409   4.879  -7.094  1.00  0.00    -0.550 OA
ENDBRANCH  14  15
ENDBRANCH  13  14
ENDBRANCH  12  13
ENDBRANCH  11  12
ENDBRANCH  10  11
ENDBRANCH   9  10
ENDBRANCH   8   9
ENDBRANCH   7   8
ENDBRANCH   6   7
ENDBRANCH   5   6
ENDBRANCH   4   5
ENDBRANCH   3   4
ENDBRANCH   2   3
ENDBRANCH   1   2
BRANCH   1  18
ATOM     18  C   UNL     1      -2.999   3.572  -2.966  1.00  0.00     0.000 C 
BRANCH  18  19
ATOM     19  C   UNL     1      -2.462   2.130  -2.943  1.00  0.00     0.000 C 
BRANCH  19  20
ATOM     20  C   UNL     1      -1.018   2.028  -3.461  1.00  0.00     0.000 C 
BRANCH  20  21
ATOM     21  C   UNL     1       0.005   2.680  -2.512  1.00  0.00     0.000 C 
BRANCH  21  22
ATOM     22  C   UNL     1      -0.598   3.341  -1.259  1.00  0.00     0.000 C 
BRANCH  22  23
ATOM     23  C   UNL     1       0.461   3.706  -0.206  1.00  0.00     0.000 C 
BRANCH  23  24
ATOM     24  C   UNL     1       0.446   2.765   1.007  1.00  0.00    -0.000 C 
BRANCH  24  25
ATOM     25  C   UNL     1       1.853   2.513   1.576  1.00  0.00    -0.000 C 
BRANCH  25  26
ATOM     26  C   UNL     1       1.852   2.419   3.112  1.00  0.00    -0.000 C 
BRANCH  26  27
ATOM     27  C   UNL     1       0.843   1.380   3.632  1.00  0.00    -0.000 C 
BRANCH  27  28
ATOM     28  C   UNL     1       0.155   1.812   4.939  1.00  0.00    -0.000 C 
BRANCH  28  29
ATOM     29  C   UNL     1      -0.372   3.258   4.950  1.00  0.00    -0.000 C 
BRANCH  29  30
ATOM     30  C   UNL     1       0.490   4.203   5.800  1.00  0.00    -0.000 C 
BRANCH  30  31
ATOM     31  C   UNL     1       0.503   3.762   7.268  1.00  0.00    -0.003 C 
ATOM     32  C   UNL     1      -0.411   4.642   8.116  1.00  0.00     0.004 C 
ENDBRANCH  30  31
ENDBRANCH  29  30
ENDBRANCH  28  29
ENDBRANCH  27  28
ENDBRANCH  26  27
ENDBRANCH  25  26
ENDBRANCH  24  25
ENDBRANCH  23  24
ENDBRANCH  22  23
ENDBRANCH  21  22
ENDBRANCH  20  21
ENDBRANCH  19  20
ENDBRANCH  18  19
ENDBRANCH   1  18
TORSDOF 28
ENDMDL
MODEL 8
REMARK VINA RESULT:     0.712      4.719      9.828
REMARK INTER + INTRA:           0.067
REMARK INTER:                   0.917
REMARK INTRA:                  -0.850
REMARK UNBOUND:                -1.811
REMARK SMILES CCCCCCCCCCCCCCCCCCCCCCCCCCCCCC(=O)[O-]
REMARK SMILES IDX 16 1 17 2 18 3 19 4 20 5 21 6 22 7 23 8 24 9 25 10 26 11
REMARK SMILES IDX 27 12 28 13 29 14 30 15 31 16 32 17 15 18 14 19 13 20 12 21
REMARK SMILES IDX 11 22 10 23 9 24 8 25 7 26 6 27 5 28 4 29 3 30 2 31 1 32
REMARK H PARENT
REMARK Flexibility Score: inf
ROOT
ATOM      1  C   UNL     1      -2.641   4.111  -4.144  1.00  0.00     0.000 C 
ENDROOT
BRANCH   1   2
ATOM      2  C   UNL     1      -3.538   3.268  -3.212  1.00  0.00     0.000 C 
BRANCH   2   3
ATOM      3  C   UNL     1      -2.740   2.196  -2.448  1.00  0.00     0.000 C 
BRANCH   3   4
ATOM      4  C   UNL     1      -1.933   1.285  -3.385  1.00  0.00     0.000 C 
BRANCH   4   5
ATOM      5  C   UNL     1      -0.431   1.287  -3.061  1.00  0.00     0.000 C 
BRANCH   5   6
ATOM      6  C   UNL     1       0.036   2.695  -2.658  1.00  0.00     0.000 C 
BRANCH   6   7
ATOM      7  C   UNL     1      -0.645   3.213  -1.377  1.00  0.00     0.000 C 
BRANCH   7   8
ATOM      8  C   UNL     1       0.037   4.430  -0.726  1.00  0.00     0.000 C 
BRANCH   8   9
ATOM      9  C   UNL     1       0.885   4.062   0.498  1.00  0.00     0.000 C 
BRANCH   9  10
ATOM     10  C   UNL     1       0.704   2.582   0.866  1.00  0.00     0.000 C 
BRANCH  10  11
ATOM     11  C   UNL     1       1.742   2.103   1.895  1.00  0.00     0.000 C 
BRANCH  11  12
ATOM     12  C   UNL     1       1.975   3.134   3.014  1.00  0.00     0.000 C 
BRANCH  12  13
ATOM     13  C   UNL     1       0.977   2.981   4.176  1.00  0.00     0.006 C 
BRANCH  13  14
ATOM     14  C   UNL     1      -0.015   1.819   4.006  1.00  0.00     0.053 C 
BRANCH  14  15
ATOM     15  C   UNL     1       0.414   0.599   4.764  1.00  0.00     0.041 C 
ATOM     16  O   UNL     1       0.105   0.465   5.976  1.00  0.00    -0.550 OA
ATOM     17  O   UNL     1       1.190  -0.372   4.142  1.00  0.00    -0.550 OA
ENDBRANCH  14  15
ENDBRANCH  13  14
ENDBRANCH  12  13
ENDBRANCH  11  12
ENDBRANCH  10  11
ENDBRANCH   9  10
ENDBRANCH   8   9
ENDBRANCH   7   8
ENDBRANCH   6   7
ENDBRANCH   5   6
ENDBRANCH   4   5
ENDBRANCH   3   4
ENDBRANCH   2   3
ENDBRANCH   1   2
BRANCH   1  18
ATOM     18  C   UNL     1      -3.358   5.322  -4.770  1.00  0.00     0.000 C 
BRANCH  18  19
ATOM     19  C   UNL     1      -3.598   5.227  -6.287  1.00  0.00     0.000 C 
BRANCH  19  20
ATOM     20  C   UNL     1      -4.928   5.867  -6.718  1.00  0.00     0.000 C 
BRANCH  20  21
ATOM     21  C   UNL     1      -4.934   7.399  -6.561  1.00  0.00     0.000 C 
BRANCH  21  22
ATOM     22  C   UNL     1      -3.710   8.118  -7.157  1.00  0.00     0.000 C 
BRANCH  22  23
ATOM     23  C   UNL     1      -3.744   8.184  -8.694  1.00  0.00     0.000 C 
BRANCH  23  24
ATOM     24  C   UNL     1      -5.172   8.197  -9.258  1.00  0.00    -0.000 C 
BRANCH  24  25
ATOM     25  C   UNL     1      -5.756   9.617  -9.351  1.00  0.00    -0.000 C 
BRANCH  25  26
ATOM     26  C   UNL     1      -7.294   9.618  -9.314  1.00  0.00    -0.000 C 
BRANCH  26  27
ATOM     27  C   UNL     1      -7.856   8.511  -8.404  1.00  0.00    -0.000 C 
BRANCH  27  28
ATOM     28  C   UNL     1      -8.687   7.467  -9.171  1.00  0.00    -0.000 C 
BRANCH  28  29
ATOM     29  C   UNL     1      -8.001   6.102  -9.361  1.00  0.00    -0.000 C 
BRANCH  29  30
ATOM     30  C   UNL     1      -8.699   4.970  -8.592  1.00  0.00    -0.000 C 
BRANCH  30  31
ATOM     31  C   UNL     1      -8.786   5.295  -7.097  1.00  0.00    -0.003 C 
ATOM     32  C   UNL     1      -9.518   4.193  -6.335  1.00  0.00     0.004 C 
ENDBRANCH  30  31
ENDBRANCH  29  30
ENDBRANCH  28  29
ENDBRANCH  27  28
ENDBRANCH  26  27
ENDBRANCH  25  26
ENDBRANCH  24  25
ENDBRANCH  23  24
ENDBRANCH  22  23
ENDBRANCH  21  22
ENDBRANCH  20  21
ENDBRANCH  19  20
ENDBRANCH  18  19
ENDBRANCH   1  18
TORSDOF 28
ENDMDL
MODEL 9
REMARK VINA RESULT:     0.847      5.014      8.612
REMARK INTER + INTRA:           0.424
REMARK INTER:                   1.960
REMARK INTRA:                  -1.537
REMARK UNBOUND:                -1.811
REMARK SMILES CCCCCCCCCCCCCCCCCCCCCCCCCCCCCC(=O)[O-]
REMARK SMILES IDX 16 1 17 2 18 3 19 4 20 5 21 6 22 7 23 8 24 9 25 10 26 11
REMARK SMILES IDX 27 12 28 13 29 14 30 15 31 16 32 17 15 18 14 19 13 20 12 21
REMARK SMILES IDX 11 22 10 23 9 24 8 25 7 26 6 27 5 28 4 29 3 30 2 31 1 32
REMARK H PARENT
REMARK Flexibility Score: inf
ROOT
ATOM      1  C   UNL     1      -1.804   2.222  -3.063  1.00  0.00     0.000 C 
ENDROOT
BRANCH   1   2
ATOM      2  C   UNL     1      -2.773   3.418  -3.186  1.00  0.00     0.000 C 
BRANCH   2   3
ATOM      3  C   UNL     1      -2.583   4.188  -4.505  1.00  0.00     0.000 C 
BRANCH   3   4
ATOM      4  C   UNL     1      -3.371   5.507  -4.535  1.00  0.00     0.000 C 
BRANCH   4   5
ATOM      5  C   UNL     1      -3.734   5.944  -5.962  1.00  0.00     0.000 C 
BRANCH   5   6
ATOM      6  C   UNL     1      -4.872   6.977  -5.941  1.00  0.00     0.000 C 
BRANCH   6   7
ATOM      7  C   UNL     1      -4.658   8.131  -6.939  1.00  0.00     0.000 C 
BRANCH   7   8
ATOM      8  C   UNL     1      -3.618   7.852  -8.040  1.00  0.00     0.000 C 
BRANCH   8   9
ATOM      9  C   UNL     1      -4.154   8.113  -9.455  1.00  0.00     0.000 C 
BRANCH   9  10
ATOM     10  C   UNL     1      -5.024   9.378  -9.487  1.00  0.00     0.000 C 
BRANCH  10  11
ATOM     11  C   UNL     1      -6.414   9.117 -10.089  1.00  0.00     0.000 C 
BRANCH  11  12
ATOM     12  C   UNL     1      -7.516   9.063  -9.016  1.00  0.00     0.000 C 
BRANCH  12  13
ATOM     13  C   UNL     1      -7.722   7.646  -8.450  1.00  0.00     0.006 C 
BRANCH  13  14
ATOM     14  C   UNL     1      -7.421   6.519  -9.450  1.00  0.00     0.053 C 
BRANCH  14  15
ATOM     15  C   UNL     1      -7.578   5.163  -8.832  1.00  0.00     0.041 C 
ATOM     16  O   UNL     1      -7.174   4.949  -7.660  1.00  0.00    -0.550 OA
ATOM     17  O   UNL     1      -8.134   4.121  -9.566  1.00  0.00    -0.550 OA
ENDBRANCH  14  15
ENDBRANCH  13  14
ENDBRANCH  12  13
ENDBRANCH  11  12
ENDBRANCH  10  11
ENDBRANCH   9  10
ENDBRANCH   8   9
ENDBRANCH   7   8
ENDBRANCH   6   7
ENDBRANCH   5   6
ENDBRANCH   4   5
ENDBRANCH   3   4
ENDBRANCH   2   3
ENDBRANCH   1   2
BRANCH   1  18
ATOM     18  C   UNL     1      -0.696   2.424  -2.011  1.00  0.00     0.000 C 
BRANCH  18  19
ATOM     19  C   UNL     1      -0.837   3.693  -1.151  1.00  0.00     0.000 C 
BRANCH  19  20
ATOM     20  C   UNL     1       0.395   3.950  -0.268  1.00  0.00     0.000 C 
BRANCH  20  21
ATOM     21  C   UNL     1       0.445   3.036   0.971  1.00  0.00     0.000 C 
BRANCH  21  22
ATOM     22  C   UNL     1       1.713   3.177   1.833  1.00  0.00     0.000 C 
BRANCH  22  23
ATOM     23  C   UNL     1       1.745   2.195   3.016  1.00  0.00     0.000 C 
BRANCH  23  24
ATOM     24  C   UNL     1       0.511   1.282   3.066  1.00  0.00    -0.000 C 
BRANCH  24  25
ATOM     25  C   UNL     1       0.335   0.604   4.436  1.00  0.00    -0.000 C 
BRANCH  25  26
ATOM     26  C   UNL     1       0.353   1.616   5.594  1.00  0.00    -0.000 C 
BRANCH  26  27
ATOM     27  C   UNL     1      -0.110   3.016   5.152  1.00  0.00    -0.000 C 
BRANCH  27  28
ATOM     28  C   UNL     1       0.565   4.150   5.944  1.00  0.00    -0.000 C 
BRANCH  28  29
ATOM     29  C   UNL     1       0.066   4.321   7.389  1.00  0.00    -0.000 C 
BRANCH  29  30
ATOM     30  C   UNL     1       0.800   3.414   8.387  1.00  0.00    -0.000 C 
BRANCH  30  31
ATOM     31  C   UNL     1       0.480   3.816   9.832  1.00  0.00    -0.003 C 
ATOM     32  C   UNL     1      -0.570   4.923   9.877  1.00  0.00     0.004 C 
ENDBRANCH  30  31
ENDBRANCH  29  30
ENDBRANCH  28  29
ENDBRANCH  27  28
ENDBRANCH  26  27
ENDBRANCH  25  26
ENDBRANCH  24  25
ENDBRANCH  23  24
ENDBRANCH  22  23
ENDBRANCH  21  22
ENDBRANCH  20  21
ENDBRANCH  19  20
ENDBRANCH  18  19
ENDBRANCH   1  18
TORSDOF 28
ENDMDL
