MODEL 1
REMARK VINA RESULT:    -5.004      0.000      0.000
REMARK INTER + INTRA:          -5.650
REMARK INTER:                  -5.443
REMARK INTRA:                  -0.207
REMARK UNBOUND:                -0.207
REMARK SMILES O=C([O-])c1ccccc1O
REMARK SMILES IDX 4 1 9 2 5 3 8 4 6 5 7 6 2 7 1 8 3 9 10 10
REMARK H PARENT 10 11
REMARK Flexibility Score: inf
ROOT
ATOM      1  C   UNL     1     113.726 114.719 123.352  1.00  0.00     0.039 A 
ATOM      2  C   UNL     1     113.095 114.934 124.604  1.00  0.00     0.124 A 
ATOM      3  C   UNL     1     115.083 114.345 123.328  1.00  0.00     0.014 A 
ATOM      4  C   UNL     1     113.845 114.834 125.783  1.00  0.00     0.047 A 
ATOM      5  C   UNL     1     115.810 114.228 124.515  1.00  0.00     0.001 A 
ATOM      6  C   UNL     1     115.194 114.482 125.740  1.00  0.00     0.004 A 
ENDROOT
BRANCH   1   7
ATOM      7  C   UNL     1     113.020 114.909 122.065  1.00  0.00     0.075 C 
ATOM      8  O   UNL     1     113.376 115.828 121.280  1.00  0.00    -0.545 OA
ATOM      9  O   UNL     1     111.920 114.129 121.734  1.00  0.00    -0.545 OA
ENDBRANCH   1   7
BRANCH   2  10
ATOM     10  O   UNL     1     111.731 115.211 124.721  1.00  0.00    -0.507 OA
ATOM     11  H   UNL     1     111.025 114.785 124.139  1.00  0.00     0.293 HD
ENDBRANCH   2  10
TORSDOF 2
ENDMDL
MODEL 2
REMARK VINA RESULT:    -4.617     12.379     13.323
REMARK INTER + INTRA:          -5.228
REMARK INTER:                  -5.019
REMARK INTRA:                  -0.210
REMARK UNBOUND:                -0.207
REMARK SMILES O=C([O-])c1ccccc1O
REMARK SMILES IDX 4 1 9 2 5 3 8 4 6 5 7 6 2 7 1 8 3 9 10 10
REMARK H PARENT 10 11
REMARK Flexibility Score: inf
ROOT
ATOM      1  C   UNL     1     125.620 116.738 118.916  1.00  0.00     0.039 A 
ATOM      2  C   UNL     1     126.486 117.649 119.575  1.00  0.00     0.124 A 
ATOM      3  C   UNL     1     125.375 115.484 119.507  1.00  0.00     0.014 A 
ATOM      4  C   UNL     1     127.125 117.263 120.760  1.00  0.00     0.047 A 
ATOM      5  C   UNL     1     126.004 115.124 120.701  1.00  0.00     0.001 A 
ATOM      6  C   UNL     1     126.886 116.008 121.320  1.00  0.00     0.004 A 
ENDROOT
BRANCH   1   7
ATOM      7  C   UNL     1     124.995 117.041 117.610  1.00  0.00     0.075 C 
ATOM      8  O   UNL     1     123.749 116.924 117.464  1.00  0.00    -0.545 OA
ATOM      9  O   UNL     1     125.772 117.391 116.513  1.00  0.00    -0.545 OA
ENDBRANCH   1   7
BRANCH   2  10
ATOM     10  O   UNL     1     126.706 118.947 119.109  1.00  0.00    -0.507 OA
ATOM     11  H   UNL     1     127.610 119.286 118.814  1.00  0.00     0.293 HD
ENDBRANCH   2  10
TORSDOF 2
ENDMDL
MODEL 3
REMARK VINA RESULT:    -4.398      2.433      3.566
REMARK INTER + INTRA:          -4.991
REMARK INTER:                  -4.766
REMARK INTRA:                  -0.224
REMARK UNBOUND:                -0.207
REMARK SMILES O=C([O-])c1ccccc1O
REMARK SMILES IDX 4 1 9 2 5 3 8 4 6 5 7 6 2 7 1 8 3 9 10 10
REMARK H PARENT 10 11
REMARK Flexibility Score: inf
ROOT
ATOM      1  C   UNL     1     114.190 114.657 124.655  1.00  0.00     0.039 A 
ATOM      2  C   UNL     1     112.873 114.959 125.087  1.00  0.00     0.124 A 
ATOM      3  C   UNL     1     114.444 114.534 123.276  1.00  0.00     0.014 A 
ATOM      4  C   UNL     1     111.844 115.067 124.143  1.00  0.00     0.047 A 
ATOM      5  C   UNL     1     113.409 114.665 122.347  1.00  0.00     0.001 A 
ATOM      6  C   UNL     1     112.109 114.921 122.781  1.00  0.00     0.004 A 
ENDROOT
BRANCH   1   7
ATOM      7  C   UNL     1     115.303 114.428 125.604  1.00  0.00     0.075 C 
ATOM      8  O   UNL     1     116.294 113.731 125.259  1.00  0.00    -0.545 OA
ATOM      9  O   UNL     1     115.243 114.916 126.903  1.00  0.00    -0.545 OA
ENDBRANCH   1   7
BRANCH   2  10
ATOM     10  O   UNL     1     112.557 115.195 126.426  1.00  0.00    -0.507 OA
ATOM     11  H   UNL     1     112.603 116.106 126.857  1.00  0.00     0.293 HD
ENDBRANCH   2  10
TORSDOF 2
ENDMDL
MODEL 4
REMARK VINA RESULT:    -4.367      1.475      2.206
REMARK INTER + INTRA:          -4.956
REMARK INTER:                  -4.720
REMARK INTRA:                  -0.236
REMARK UNBOUND:                -0.207
REMARK SMILES O=C([O-])c1ccccc1O
REMARK SMILES IDX 4 1 9 2 5 3 8 4 6 5 7 6 2 7 1 8 3 9 10 10
REMARK H PARENT 10 11
REMARK Flexibility Score: inf
ROOT
ATOM      1  C   UNL     1     113.561 114.809 124.977  1.00  0.00     0.039 A 
ATOM      2  C   UNL     1     114.002 115.018 126.309  1.00  0.00     0.124 A 
ATOM      3  C   UNL     1     114.467 114.291 124.032  1.00  0.00     0.014 A 
ATOM      4  C   UNL     1     115.339 114.767 126.642  1.00  0.00     0.047 A 
ATOM      5  C   UNL     1     115.792 114.025 124.388  1.00  0.00     0.001 A 
ATOM      6  C   UNL     1     116.229 114.273 125.689  1.00  0.00     0.004 A 
ENDROOT
BRANCH   1   7
ATOM      7  C   UNL     1     112.191 115.151 124.531  1.00  0.00     0.075 C 
ATOM      8  O   UNL     1     111.987 115.516 123.343  1.00  0.00    -0.545 OA
ATOM      9  O   UNL     1     111.129 115.142 125.426  1.00  0.00    -0.545 OA
ENDBRANCH   1   7
BRANCH   2  10
ATOM     10  O   UNL     1     113.143 115.435 127.328  1.00  0.00    -0.507 OA
ATOM     11  H   UNL     1     112.566 114.802 127.863  1.00  0.00     0.293 HD
ENDBRANCH   2  10
TORSDOF 2
ENDMDL
MODEL 5
REMARK VINA RESULT:    -4.211      7.993      8.722
REMARK INTER + INTRA:          -4.787
REMARK INTER:                  -4.534
REMARK INTRA:                  -0.252
REMARK UNBOUND:                -0.207
REMARK SMILES O=C([O-])c1ccccc1O
REMARK SMILES IDX 4 1 9 2 5 3 8 4 6 5 7 6 2 7 1 8 3 9 10 10
REMARK H PARENT 10 11
REMARK Flexibility Score: inf
ROOT
ATOM      1  C   UNL     1     109.428 114.523 131.003  1.00  0.00     0.039 A 
ATOM      2  C   UNL     1     110.585 113.718 131.154  1.00  0.00     0.124 A 
ATOM      3  C   UNL     1     109.067 115.399 132.044  1.00  0.00     0.014 A 
ATOM      4  C   UNL     1     111.307 113.762 132.354  1.00  0.00     0.047 A 
ATOM      5  C   UNL     1     109.811 115.447 133.225  1.00  0.00     0.001 A 
ATOM      6  C   UNL     1     110.924 114.621 133.383  1.00  0.00     0.004 A 
ENDROOT
BRANCH   1   7
ATOM      7  C   UNL     1     108.561 114.450 129.805  1.00  0.00     0.075 C 
ATOM      8  O   UNL     1     108.020 115.493 129.352  1.00  0.00    -0.545 OA
ATOM      9  O   UNL     1     108.276 113.229 129.207  1.00  0.00    -0.545 OA
ENDBRANCH   1   7
BRANCH   2  10
ATOM     10  O   UNL     1     111.067 112.896 130.133  1.00  0.00    -0.507 OA
ATOM     11  H   UNL     1     111.193 113.207 129.181  1.00  0.00     0.293 HD
ENDBRANCH   2  10
TORSDOF 2
ENDMDL
MODEL 6
REMARK VINA RESULT:    -4.178     12.503     13.147
REMARK INTER + INTRA:          -4.750
REMARK INTER:                  -4.505
REMARK INTRA:                  -0.246
REMARK UNBOUND:                -0.207
REMARK SMILES O=C([O-])c1ccccc1O
REMARK SMILES IDX 4 1 9 2 5 3 8 4 6 5 7 6 2 7 1 8 3 9 10 10
REMARK H PARENT 10 11
REMARK Flexibility Score: inf
ROOT
ATOM      1  C   UNL     1     125.707 116.747 118.871  1.00  0.00     0.039 A 
ATOM      2  C   UNL     1     125.639 115.544 119.619  1.00  0.00     0.124 A 
ATOM      3  C   UNL     1     126.473 117.817 119.370  1.00  0.00     0.014 A 
ATOM      4  C   UNL     1     126.280 115.465 120.862  1.00  0.00     0.047 A 
ATOM      5  C   UNL     1     127.124 117.714 120.602  1.00  0.00     0.001 A 
ATOM      6  C   UNL     1     127.019 116.542 121.351  1.00  0.00     0.004 A 
ENDROOT
BRANCH   1   7
ATOM      7  C   UNL     1     124.970 116.935 117.601  1.00  0.00     0.075 C 
ATOM      8  O   UNL     1     123.749 116.631 117.529  1.00  0.00    -0.545 OA
ATOM      9  O   UNL     1     125.622 117.380 116.459  1.00  0.00    -0.545 OA
ENDBRANCH   1   7
BRANCH   2  10
ATOM     10  O   UNL     1     124.984 114.403 119.150  1.00  0.00    -0.507 OA
ATOM     11  H   UNL     1     124.355 113.851 119.716  1.00  0.00     0.293 HD
ENDBRANCH   2  10
TORSDOF 2
ENDMDL
MODEL 7
REMARK VINA RESULT:    -4.043      7.680      8.909
REMARK INTER + INTRA:          -4.604
REMARK INTER:                  -4.405
REMARK INTRA:                  -0.199
REMARK UNBOUND:                -0.207
REMARK SMILES O=C([O-])c1ccccc1O
REMARK SMILES IDX 4 1 9 2 5 3 8 4 6 5 7 6 2 7 1 8 3 9 10 10
REMARK H PARENT 10 11
REMARK Flexibility Score: inf
ROOT
ATOM      1  C   UNL     1     109.743 114.405 131.319  1.00  0.00     0.039 A 
ATOM      2  C   UNL     1     109.351 115.554 132.053  1.00  0.00     0.124 A 
ATOM      3  C   UNL     1     110.549 113.437 131.947  1.00  0.00     0.014 A 
ATOM      4  C   UNL     1     109.822 115.734 133.360  1.00  0.00     0.047 A 
ATOM      5  C   UNL     1     110.992 113.622 133.259  1.00  0.00     0.001 A 
ATOM      6  C   UNL     1     110.637 114.774 133.960  1.00  0.00     0.004 A 
ENDROOT
BRANCH   1   7
ATOM      7  C   UNL     1     109.367 114.204 129.902  1.00  0.00     0.075 C 
ATOM      8  O   UNL     1     109.782 113.192 129.276  1.00  0.00    -0.545 OA
ATOM      9  O   UNL     1     108.615 115.153 129.223  1.00  0.00    -0.545 OA
ENDBRANCH   1   7
BRANCH   2  10
ATOM     10  O   UNL     1     108.475 116.512 131.539  1.00  0.00    -0.507 OA
ATOM     11  H   UNL     1     108.553 117.500 131.734  1.00  0.00     0.293 HD
ENDBRANCH   2  10
TORSDOF 2
ENDMDL
MODEL 8
REMARK VINA RESULT:    -4.036      8.962     10.347
REMARK INTER + INTRA:          -4.597
REMARK INTER:                  -4.412
REMARK INTRA:                  -0.185
REMARK UNBOUND:                -0.207
REMARK SMILES O=C([O-])c1ccccc1O
REMARK SMILES IDX 4 1 9 2 5 3 8 4 6 5 7 6 2 7 1 8 3 9 10 10
REMARK H PARENT 10 11
REMARK Flexibility Score: inf
ROOT
ATOM      1  C   UNL     1     109.711 115.841 132.987  1.00  0.00     0.039 A 
ATOM      2  C   UNL     1     109.240 115.297 131.764  1.00  0.00     0.124 A 
ATOM      3  C   UNL     1     110.565 115.066 133.794  1.00  0.00     0.014 A 
ATOM      4  C   UNL     1     109.581 113.983 131.415  1.00  0.00     0.047 A 
ATOM      5  C   UNL     1     110.912 113.765 133.420  1.00  0.00     0.001 A 
ATOM      6  C   UNL     1     110.412 113.222 132.237  1.00  0.00     0.004 A 
ENDROOT
BRANCH   1   7
ATOM      7  C   UNL     1     109.306 117.182 133.466  1.00  0.00     0.075 C 
ATOM      8  O   UNL     1     108.103 117.411 133.758  1.00  0.00    -0.545 OA
ATOM      9  O   UNL     1     110.227 118.220 133.536  1.00  0.00    -0.545 OA
ENDBRANCH   1   7
BRANCH   2  10
ATOM     10  O   UNL     1     108.471 116.033 130.861  1.00  0.00    -0.507 OA
ATOM     11  H   UNL     1     108.349 117.033 130.919  1.00  0.00     0.293 HD
ENDBRANCH   2  10
TORSDOF 2
ENDMDL
MODEL 9
REMARK VINA RESULT:    -3.968      7.401      9.500
REMARK INTER + INTRA:          -4.522
REMARK INTER:                  -4.317
REMARK INTRA:                  -0.205
REMARK UNBOUND:                -0.207
REMARK SMILES O=C([O-])c1ccccc1O
REMARK SMILES IDX 4 1 9 2 5 3 8 4 6 5 7 6 2 7 1 8 3 9 10 10
REMARK H PARENT 10 11
REMARK Flexibility Score: inf
ROOT
ATOM      1  C   UNL     1     109.797 114.048 131.716  1.00  0.00     0.039 A 
ATOM      2  C   UNL     1     110.511 113.889 130.500  1.00  0.00     0.124 A 
ATOM      3  C   UNL     1     108.394 113.947 131.700  1.00  0.00     0.014 A 
ATOM      4  C   UNL     1     109.807 113.697 129.304  1.00  0.00     0.047 A 
ATOM      5  C   UNL     1     107.709 113.734 130.501  1.00  0.00     0.001 A 
ATOM      6  C   UNL     1     108.414 113.620 129.304  1.00  0.00     0.004 A 
ENDROOT
BRANCH   1   7
ATOM      7  C   UNL     1     110.472 114.356 132.997  1.00  0.00     0.075 C 
ATOM      8  O   UNL     1     111.242 113.511 133.524  1.00  0.00    -0.545 OA
ATOM      9  O   UNL     1     110.214 115.544 133.669  1.00  0.00    -0.545 OA
ENDBRANCH   1   7
BRANCH   2  10
ATOM     10  O   UNL     1     111.906 113.877 130.444  1.00  0.00    -0.507 OA
ATOM     11  H   UNL     1     112.428 113.782 129.584  1.00  0.00     0.293 HD
ENDBRANCH   2  10
TORSDOF 2
ENDMDL
