MODEL 1
REMARK VINA RESULT:    18.458      0.000      0.000
REMARK INTER + INTRA:          29.832
REMARK INTER:                  28.169
REMARK INTRA:                   1.663
REMARK UNBOUND:                 1.663
REMARK SMILES CC1=CCC[C@H](C)C(=O)C[C@H](C(C)C)C(=O)C1
REMARK SMILES IDX 8 1 9 2 6 3 7 4 5 5 4 6 3 7 2 8 1 9 10 11 11 12 15 13 16 14
REMARK SMILES IDX 17 15 12 17 13 18 14 19
REMARK H PARENT
REMARK Flexibility Score: 70.00
ROOT
ATOM      1  C   UNL     1      35.314  12.320  40.026  1.00  0.00     0.136 C 
ATOM      2  O   UNL     1      34.428  12.942  39.460  1.00  0.00    -0.299 OA
ENDROOT
BRANCH   1   3
ATOM      3  C   UNL     1      35.645  10.906  39.525  1.00  0.00     0.053 C 
ATOM      4  C   UNL     1      37.124  10.585  39.747  1.00  0.00     0.016 C 
BRANCH   3   5
ATOM      5  C   UNL     1      34.739   9.959  40.285  1.00  0.00     0.015 C 
BRANCH   5   6
ATOM      6  C   UNL     1      33.356   9.536  39.865  1.00  0.00     0.028 C 
BRANCH   6   7
ATOM      7  C   UNL     1      32.336  10.395  40.614  1.00  0.00    -0.028 C 
ATOM      8  C   UNL     1      32.509  11.158  41.749  1.00  0.00    -0.070 CG0
ATOM      9  C   UNL     1      31.263  11.794  42.319  1.00  0.00     0.039 C 
ATOM     10  G   UNL     1      33.840  11.452  42.478  1.00  0.00     0.000 G0
ENDBRANCH   6   7
ENDBRANCH   5   6
ENDBRANCH   3   5
ENDBRANCH   1   3
BRANCH   1  11
ATOM     11  C   UNL     1      36.042  12.988  41.209  1.00  0.00     0.087 C 
BRANCH  11  12
ATOM     12  C   UNL     1      35.127  13.814  42.202  1.00  0.00     0.066 C 
BRANCH  12  13
ATOM     13  C   UNL     1      34.019  12.964  42.869  1.00  0.00     0.140 C 
ATOM     14  O   UNL     1      33.273  13.487  43.683  1.00  0.00    -0.299 OA
BRANCH  13  15
ATOM     15  C   UNL     1      33.814  11.479  42.544  1.00  0.00     0.106 CG0
ATOM     16  G   UNL     1      32.537  11.170  41.730  1.00  0.00     0.000 G0
ENDBRANCH  13  15
ENDBRANCH  12  13
BRANCH  12  17
ATOM     17  C   UNL     1      35.978  14.577  43.265  1.00  0.00    -0.006 C 
ATOM     18  C   UNL     1      35.207  15.769  43.856  1.00  0.00     0.008 C 
ATOM     19  C   UNL     1      36.508  13.679  44.397  1.00  0.00     0.008 C 
ENDBRANCH  12  17
ENDBRANCH  11  12
ENDBRANCH   1  11
TORSDOF 1
ENDMDL
MODEL 2
REMARK VINA RESULT:    18.514      1.948      4.132
REMARK INTER + INTRA:          29.918
REMARK INTER:                  30.193
REMARK INTRA:                  -0.275
REMARK UNBOUND:                 1.663
REMARK SMILES CC1=CCC[C@H](C)C(=O)C[C@H](C(C)C)C(=O)C1
REMARK SMILES IDX 8 1 9 2 6 3 7 4 5 5 4 6 3 7 2 8 1 9 10 11 11 12 15 13 16 14
REMARK SMILES IDX 17 15 12 17 13 18 14 19
REMARK H PARENT
REMARK Flexibility Score: 70.00
ROOT
ATOM      1  C   UNL     1      34.329   9.159  39.652  1.00  0.00     0.136 C 
ATOM      2  O   UNL     1      34.394   8.406  38.693  1.00  0.00    -0.299 OA
ENDROOT
BRANCH   1   3
ATOM      3  C   UNL     1      35.547   9.259  40.583  1.00  0.00     0.053 C 
ATOM      4  C   UNL     1      35.920   7.882  41.136  1.00  0.00     0.016 C 
BRANCH   3   5
ATOM      5  C   UNL     1      36.667   9.863  39.762  1.00  0.00     0.015 C 
BRANCH   5   6
ATOM      6  C   UNL     1      36.955  11.332  39.610  1.00  0.00     0.028 C 
BRANCH   6   7
ATOM      7  C   UNL     1      36.596  12.037  40.920  1.00  0.00    -0.028 C 
ATOM      8  C   UNL     1      35.626  12.987  41.158  1.00  0.00    -0.070 CG0
ATOM      9  C   UNL     1      35.606  13.585  42.545  1.00  0.00     0.039 C 
ATOM     10  G   UNL     1      34.546  13.482  40.168  1.00  0.00     0.000 G0
ENDBRANCH   6   7
ENDBRANCH   5   6
ENDBRANCH   3   5
ENDBRANCH   1   3
BRANCH   1  11
ATOM     11  C   UNL     1      33.029   9.957  39.875  1.00  0.00     0.087 C 
BRANCH  11  12
ATOM     12  C   UNL     1      33.165  11.261  40.761  1.00  0.00     0.066 C 
BRANCH  12  13
ATOM     13  C   UNL     1      33.373  12.550  39.930  1.00  0.00     0.140 C 
ATOM     14  O   UNL     1      32.573  12.828  39.048  1.00  0.00    -0.299 OA
BRANCH  13  15
ATOM     15  C   UNL     1      34.548  13.506  40.172  1.00  0.00     0.106 CG0
ATOM     16  G   UNL     1      35.616  12.973  41.154  1.00  0.00     0.000 G0
ENDBRANCH  13  15
ENDBRANCH  12  13
BRANCH  12  17
ATOM     17  C   UNL     1      31.969  11.409  41.752  1.00  0.00    -0.006 C 
ATOM     18  C   UNL     1      31.074  10.159  41.748  1.00  0.00     0.008 C 
ATOM     19  C   UNL     1      32.394  11.748  43.192  1.00  0.00     0.008 C 
ENDBRANCH  12  17
ENDBRANCH  11  12
ENDBRANCH   1  11
TORSDOF 1
ENDMDL
MODEL 3
REMARK VINA RESULT:    18.571      1.504      1.999
REMARK INTER + INTRA:          30.006
REMARK INTER:                  28.447
REMARK INTRA:                   1.559
REMARK UNBOUND:                 1.663
REMARK SMILES CC1=CCC[C@H](C)C(=O)C[C@H](C(C)C)C(=O)C1
REMARK SMILES IDX 8 1 9 2 6 3 7 4 5 5 4 6 3 7 2 8 1 9 10 11 11 12 15 13 16 14
REMARK SMILES IDX 17 15 12 17 13 18 14 19
REMARK H PARENT
REMARK Flexibility Score: 70.00
ROOT
ATOM      1  C   UNL     1      36.169  10.867  40.283  1.00  0.00     0.136 C 
ATOM      2  O   UNL     1      37.125  11.370  39.711  1.00  0.00    -0.299 OA
ENDROOT
BRANCH   1   3
ATOM      3  C   UNL     1      35.566   9.581  39.697  1.00  0.00     0.053 C 
ATOM      4  C   UNL     1      35.611   8.447  40.722  1.00  0.00     0.016 C 
BRANCH   3   5
ATOM      5  C   UNL     1      34.147   9.920  39.288  1.00  0.00     0.015 C 
BRANCH   5   6
ATOM      6  C   UNL     1      32.895   9.359  39.906  1.00  0.00     0.028 C 
BRANCH   6   7
ATOM      7  C   UNL     1      32.436  10.304  41.019  1.00  0.00    -0.028 C 
ATOM      8  C   UNL     1      32.627  11.664  41.137  1.00  0.00    -0.070 CG0
ATOM      9  C   UNL     1      32.158  12.292  42.429  1.00  0.00     0.039 C 
ATOM     10  G   UNL     1      33.242  12.613  40.083  1.00  0.00     0.000 G0
ENDBRANCH   6   7
ENDBRANCH   5   6
ENDBRANCH   3   5
ENDBRANCH   1   3
BRANCH   1  11
ATOM     11  C   UNL     1      35.624  11.555  41.550  1.00  0.00     0.087 C 
BRANCH  11  12
ATOM     12  C   UNL     1      35.527  13.133  41.488  1.00  0.00     0.066 C 
BRANCH  12  13
ATOM     13  C   UNL     1      34.276  13.643  40.733  1.00  0.00     0.140 C 
ATOM     14  O   UNL     1      34.093  14.846  40.624  1.00  0.00    -0.299 OA
BRANCH  13  15
ATOM     15  C   UNL     1      33.249  12.692  40.105  1.00  0.00     0.106 CG0
ATOM     16  G   UNL     1      32.657  11.651  41.082  1.00  0.00     0.000 G0
ENDBRANCH  13  15
ENDBRANCH  12  13
BRANCH  12  17
ATOM     17  C   UNL     1      35.633  13.770  42.909  1.00  0.00    -0.006 C 
ATOM     18  C   UNL     1      37.076  14.186  43.236  1.00  0.00     0.008 C 
ATOM     19  C   UNL     1      34.680  14.958  43.130  1.00  0.00     0.008 C 
ENDBRANCH  12  17
ENDBRANCH  11  12
ENDBRANCH   1  11
TORSDOF 1
ENDMDL
MODEL 4
REMARK VINA RESULT:    19.710      1.890      4.114
REMARK INTER + INTRA:          31.744
REMARK INTER:                  30.570
REMARK INTRA:                   1.173
REMARK UNBOUND:                 1.663
REMARK SMILES CC1=CCC[C@H](C)C(=O)C[C@H](C(C)C)C(=O)C1
REMARK SMILES IDX 8 1 9 2 6 3 7 4 5 5 4 6 3 7 2 8 1 9 10 11 11 12 15 13 16 14
REMARK SMILES IDX 17 15 12 17 13 18 14 19
REMARK H PARENT
REMARK Flexibility Score: 70.00
ROOT
ATOM      1  C   UNL     1      34.717  13.482  40.513  1.00  0.00     0.136 C 
ATOM      2  O   UNL     1      33.992  14.465  40.466  1.00  0.00    -0.299 OA
ENDROOT
BRANCH   1   3
ATOM      3  C   UNL     1      36.000  13.565  41.354  1.00  0.00     0.053 C 
ATOM      4  C   UNL     1      35.674  13.917  42.806  1.00  0.00     0.016 C 
BRANCH   3   5
ATOM      5  C   UNL     1      36.680  12.217  41.235  1.00  0.00     0.015 C 
BRANCH   5   6
ATOM      6  C   UNL     1      36.641  11.314  40.031  1.00  0.00     0.028 C 
BRANCH   6   7
ATOM      7  C   UNL     1      36.440   9.874  40.509  1.00  0.00    -0.028 C 
ATOM      8  C   UNL     1      35.395   9.012  40.253  1.00  0.00    -0.070 CG0
ATOM      9  C   UNL     1      35.431   7.689  40.982  1.00  0.00     0.039 C 
ATOM     10  G   UNL     1      34.214   9.244  39.284  1.00  0.00     0.000 G0
ENDBRANCH   6   7
ENDBRANCH   5   6
ENDBRANCH   3   5
ENDBRANCH   1   3
BRANCH   1  11
ATOM     11  C   UNL     1      34.304  12.224  39.724  1.00  0.00     0.087 C 
BRANCH  11  12
ATOM     12  C   UNL     1      33.008  11.481  40.244  1.00  0.00     0.066 C 
BRANCH  12  13
ATOM     13  C   UNL     1      32.998   9.966  39.922  1.00  0.00     0.140 C 
ATOM     14  O   UNL     1      31.996   9.310  40.169  1.00  0.00    -0.299 OA
BRANCH  13  15
ATOM     15  C   UNL     1      34.201   9.249  39.297  1.00  0.00     0.106 CG0
ATOM     16  G   UNL     1      35.381   9.010  40.266  1.00  0.00     0.000 G0
ENDBRANCH  13  15
ENDBRANCH  12  13
BRANCH  12  17
ATOM     17  C   UNL     1      32.766  11.742  41.764  1.00  0.00    -0.006 C 
ATOM     18  C   UNL     1      31.284  11.579  42.136  1.00  0.00     0.008 C 
ATOM     19  C   UNL     1      33.641  10.878  42.689  1.00  0.00     0.008 C 
ENDBRANCH  12  17
ENDBRANCH  11  12
ENDBRANCH   1  11
TORSDOF 1
ENDMDL
MODEL 5
REMARK VINA RESULT:    20.622      2.624      4.280
REMARK INTER + INTRA:          33.136
REMARK INTER:                  32.477
REMARK INTRA:                   0.659
REMARK UNBOUND:                 1.663
REMARK SMILES CC1=CCC[C@H](C)C(=O)C[C@H](C(C)C)C(=O)C1
REMARK SMILES IDX 8 1 9 2 6 3 7 4 5 5 4 6 3 7 2 8 1 9 10 11 11 12 15 13 16 14
REMARK SMILES IDX 17 15 12 17 13 18 14 19
REMARK H PARENT
REMARK Flexibility Score: 70.00
ROOT
ATOM      1  C   UNL     1      33.840  13.479  40.070  1.00  0.00     0.136 C 
ATOM      2  O   UNL     1      33.026  13.272  39.182  1.00  0.00    -0.299 OA
ENDROOT
BRANCH   1   3
ATOM      3  C   UNL     1      34.124  12.352  41.074  1.00  0.00     0.053 C 
ATOM      4  C   UNL     1      33.314  11.102  40.726  1.00  0.00     0.016 C 
BRANCH   3   5
ATOM      5  C   UNL     1      35.615  12.095  41.022  1.00  0.00     0.015 C 
BRANCH   5   6
ATOM      6  C   UNL     1      36.690  13.148  40.989  1.00  0.00     0.028 C 
BRANCH   6   7
ATOM      7  C   UNL     1      37.100  13.471  42.427  1.00  0.00    -0.028 C 
ATOM      8  C   UNL     1      36.387  14.129  43.407  1.00  0.00    -0.070 CG0
ATOM      9  C   UNL     1      37.125  14.404  44.696  1.00  0.00     0.039 C 
ATOM     10  G   UNL     1      34.913  14.587  43.335  1.00  0.00     0.000 G0
ENDBRANCH   6   7
ENDBRANCH   5   6
ENDBRANCH   3   5
ENDBRANCH   1   3
BRANCH   1  11
ATOM     11  C   UNL     1      34.527  14.857  40.132  1.00  0.00     0.087 C 
BRANCH  11  12
ATOM     12  C   UNL     1      33.935  15.875  41.188  1.00  0.00     0.066 C 
BRANCH  12  13
ATOM     13  C   UNL     1      34.700  15.880  42.534  1.00  0.00     0.140 C 
ATOM     14  O   UNL     1      35.148  16.933  42.962  1.00  0.00    -0.299 OA
BRANCH  13  15
ATOM     15  C   UNL     1      34.919  14.607  43.361  1.00  0.00     0.106 CG0
ATOM     16  G   UNL     1      36.387  14.130  43.431  1.00  0.00     0.000 G0
ENDBRANCH  13  15
ENDBRANCH  12  13
BRANCH  12  17
ATOM     17  C   UNL     1      33.815  17.314  40.595  1.00  0.00    -0.006 C 
ATOM     18  C   UNL     1      33.576  17.282  39.078  1.00  0.00     0.008 C 
ATOM     19  C   UNL     1      32.743  18.181  41.280  1.00  0.00     0.008 C 
ENDBRANCH  12  17
ENDBRANCH  11  12
ENDBRANCH   1  11
TORSDOF 1
ENDMDL
MODEL 6
REMARK VINA RESULT:    21.141     16.264     18.439
REMARK INTER + INTRA:          33.928
REMARK INTER:                  30.500
REMARK INTRA:                   3.428
REMARK UNBOUND:                 1.663
REMARK SMILES CC1=CCC[C@H](C)C(=O)C[C@H](C(C)C)C(=O)C1
REMARK SMILES IDX 8 1 9 2 6 3 7 4 5 5 4 6 3 7 2 8 1 9 10 11 11 12 15 13 16 14
REMARK SMILES IDX 17 15 12 17 13 18 14 19
REMARK H PARENT
REMARK Flexibility Score: 70.00
ROOT
ATOM      1  C   UNL     1      20.708  24.195  46.075  1.00  0.00     0.136 C 
ATOM      2  O   UNL     1      21.197  23.733  45.056  1.00  0.00    -0.299 OA
ENDROOT
BRANCH   1   3
ATOM      3  C   UNL     1      19.493  25.125  45.943  1.00  0.00     0.053 C 
ATOM      4  C   UNL     1      18.665  24.760  44.709  1.00  0.00     0.016 C 
BRANCH   3   5
ATOM      5  C   UNL     1      18.698  24.980  47.224  1.00  0.00     0.015 C 
BRANCH   5   6
ATOM      6  C   UNL     1      17.823  23.811  47.590  1.00  0.00     0.028 C 
BRANCH   6   7
ATOM      7  C   UNL     1      18.162  22.640  46.664  1.00  0.00    -0.028 C 
ATOM      8  C   UNL     1      19.048  21.603  46.865  1.00  0.00    -0.070 CG0
ATOM      9  C   UNL     1      19.252  20.667  45.697  1.00  0.00     0.039 C 
ATOM     10  G   UNL     1      19.827  21.283  48.160  1.00  0.00     0.000 G0
ENDBRANCH   6   7
ENDBRANCH   5   6
ENDBRANCH   3   5
ENDBRANCH   1   3
BRANCH   1  11
ATOM     11  C   UNL     1      21.342  23.822  47.430  1.00  0.00     0.087 C 
BRANCH  11  12
ATOM     12  C   UNL     1      22.185  22.484  47.450  1.00  0.00     0.066 C 
BRANCH  12  13
ATOM     13  C   UNL     1      21.364  21.247  47.889  1.00  0.00     0.140 C 
ATOM     14  O   UNL     1      21.939  20.186  48.081  1.00  0.00    -0.299 OA
BRANCH  13  15
ATOM     15  C   UNL     1      19.846  21.300  48.099  1.00  0.00     0.106 CG0
ATOM     16  G   UNL     1      19.033  21.644  46.830  1.00  0.00     0.000 G0
ENDBRANCH  13  15
ENDBRANCH  12  13
BRANCH  12  17
ATOM     17  C   UNL     1      22.903  22.237  46.086  1.00  0.00    -0.006 C 
ATOM     18  C   UNL     1      24.005  23.277  45.831  1.00  0.00     0.008 C 
ATOM     19  C   UNL     1      23.474  20.816  45.934  1.00  0.00     0.008 C 
ENDBRANCH  12  17
ENDBRANCH  11  12
ENDBRANCH   1  11
TORSDOF 1
ENDMDL
MODEL 7
REMARK VINA RESULT:    21.304      2.384      4.075
REMARK INTER + INTRA:          34.176
REMARK INTER:                  32.960
REMARK INTRA:                   1.216
REMARK UNBOUND:                 1.663
REMARK SMILES CC1=CCC[C@H](C)C(=O)C[C@H](C(C)C)C(=O)C1
REMARK SMILES IDX 8 1 9 2 6 3 7 4 5 5 4 6 3 7 2 8 1 9 10 11 11 12 15 13 16 14
REMARK SMILES IDX 17 15 12 17 13 18 14 19
REMARK H PARENT
REMARK Flexibility Score: 70.00
ROOT
ATOM      1  C   UNL     1      35.116  15.430  43.042  1.00  0.00     0.136 C 
ATOM      2  O   UNL     1      35.286  16.405  43.759  1.00  0.00    -0.299 OA
ENDROOT
BRANCH   1   3
ATOM      3  C   UNL     1      36.125  14.276  43.132  1.00  0.00     0.053 C 
ATOM      4  C   UNL     1      36.476  13.977  44.591  1.00  0.00     0.016 C 
BRANCH   3   5
ATOM      5  C   UNL     1      35.482  13.088  42.447  1.00  0.00     0.015 C 
BRANCH   5   6
ATOM      6  C   UNL     1      34.505  12.131  43.076  1.00  0.00     0.028 C 
BRANCH   6   7
ATOM      7  C   UNL     1      33.870  11.287  41.970  1.00  0.00    -0.028 C 
ATOM      8  C   UNL     1      33.807  11.535  40.615  1.00  0.00    -0.070 CG0
ATOM      9  C   UNL     1      32.992  10.561  39.798  1.00  0.00     0.039 C 
ATOM     10  G   UNL     1      34.503  12.681  39.847  1.00  0.00     0.000 G0
ENDBRANCH   6   7
ENDBRANCH   5   6
ENDBRANCH   3   5
ENDBRANCH   1   3
BRANCH   1  11
ATOM     11  C   UNL     1      33.904  15.420  42.089  1.00  0.00     0.087 C 
BRANCH  11  12
ATOM     12  C   UNL     1      34.244  15.333  40.546  1.00  0.00     0.066 C 
BRANCH  12  13
ATOM     13  C   UNL     1      33.729  14.037  39.876  1.00  0.00     0.140 C 
ATOM     14  O   UNL     1      32.647  14.047  39.308  1.00  0.00    -0.299 OA
BRANCH  13  15
ATOM     15  C   UNL     1      34.530  12.729  39.891  1.00  0.00     0.106 CG0
ATOM     16  G   UNL     1      33.815  11.545  40.580  1.00  0.00     0.000 G0
ENDBRANCH  13  15
ENDBRANCH  12  13
BRANCH  12  17
ATOM     17  C   UNL     1      33.757  16.603  39.779  1.00  0.00    -0.006 C 
ATOM     18  C   UNL     1      33.355  17.728  40.746  1.00  0.00     0.008 C 
ATOM     19  C   UNL     1      34.770  17.131  38.748  1.00  0.00     0.008 C 
ENDBRANCH  12  17
ENDBRANCH  11  12
ENDBRANCH   1  11
TORSDOF 1
ENDMDL
MODEL 8
REMARK VINA RESULT:    21.346      2.858      5.511
REMARK INTER + INTRA:          34.240
REMARK INTER:                  34.411
REMARK INTRA:                  -0.171
REMARK UNBOUND:                 1.663
REMARK SMILES CC1=CCC[C@H](C)C(=O)C[C@H](C(C)C)C(=O)C1
REMARK SMILES IDX 8 1 9 2 6 3 7 4 5 5 4 6 3 7 2 8 1 9 10 11 11 12 15 13 16 14
REMARK SMILES IDX 17 15 12 17 13 18 14 19
REMARK H PARENT
REMARK Flexibility Score: 70.00
ROOT
ATOM      1  C   UNL     1      35.972  14.214  43.117  1.00  0.00     0.136 C 
ATOM      2  O   UNL     1      37.124  14.447  43.451  1.00  0.00    -0.299 OA
ENDROOT
BRANCH   1   3
ATOM      3  C   UNL     1      34.858  15.114  43.672  1.00  0.00     0.053 C 
ATOM      4  C   UNL     1      35.019  15.306  45.181  1.00  0.00     0.016 C 
BRANCH   3   5
ATOM      5  C   UNL     1      34.951  16.426  42.920  1.00  0.00     0.015 C 
BRANCH   5   6
ATOM      6  C   UNL     1      33.802  17.158  42.281  1.00  0.00     0.028 C 
BRANCH   6   7
ATOM      7  C   UNL     1      34.132  17.389  40.804  1.00  0.00    -0.028 C 
ATOM      8  C   UNL     1      34.036  16.511  39.745  1.00  0.00    -0.070 CG0
ATOM      9  C   UNL     1      34.563  17.008  38.420  1.00  0.00     0.039 C 
ATOM     10  G   UNL     1      33.423  15.092  39.766  1.00  0.00     0.000 G0
ENDBRANCH   6   7
ENDBRANCH   5   6
ENDBRANCH   3   5
ENDBRANCH   1   3
BRANCH   1  11
ATOM     11  C   UNL     1      35.707  13.029  42.168  1.00  0.00     0.087 C 
BRANCH  11  12
ATOM     12  C   UNL     1      34.344  13.082  41.366  1.00  0.00     0.066 C 
BRANCH  12  13
ATOM     13  C   UNL     1      34.418  13.953  40.088  1.00  0.00     0.140 C 
ATOM     14  O   UNL     1      35.300  13.740  39.270  1.00  0.00    -0.299 OA
BRANCH  13  15
ATOM     15  C   UNL     1      33.417  15.079  39.800  1.00  0.00     0.106 CG0
ATOM     16  G   UNL     1      34.042  16.490  39.725  1.00  0.00     0.000 G0
ENDBRANCH  13  15
ENDBRANCH  12  13
BRANCH  12  17
ATOM     17  C   UNL     1      33.807  11.651  41.050  1.00  0.00    -0.006 C 
ATOM     18  C   UNL     1      32.852  11.659  39.846  1.00  0.00     0.008 C 
ATOM     19  C   UNL     1      34.916  10.605  40.837  1.00  0.00     0.008 C 
ENDBRANCH  12  17
ENDBRANCH  11  12
ENDBRANCH   1  11
TORSDOF 1
ENDMDL
