MODEL 1
REMARK VINA RESULT:    -1.052      0.000      0.000
REMARK INTER + INTRA:          -4.118
REMARK INTER:                  -2.404
REMARK INTRA:                  -1.714
REMARK UNBOUND:                -1.714
REMARK SMILES CCCCCCCCCCCCCCCCCCCCCCCC(=O)[O-]
REMARK SMILES IDX 13 1 14 2 15 3 16 4 17 5 18 6 19 7 20 8 21 9 22 10 23 11
REMARK SMILES IDX 24 12 25 13 26 14 12 15 11 16 10 17 9 18 8 19 7 20 6 21 5 22
REMARK SMILES IDX 4 23 3 24 2 25 1 26
REMARK H PARENT
REMARK Flexibility Score: inf
ROOT
ATOM      1  C   UNL     1      27.659  15.953  49.686  1.00  0.00     0.000 C 
ENDROOT
BRANCH   1   2
ATOM      2  C   UNL     1      26.775  14.766  50.124  1.00  0.00     0.000 C 
BRANCH   2   3
ATOM      3  C   UNL     1      26.117  13.980  48.974  1.00  0.00     0.000 C 
BRANCH   3   4
ATOM      4  C   UNL     1      24.714  13.426  49.292  1.00  0.00     0.000 C 
BRANCH   4   5
ATOM      5  C   UNL     1      24.729  11.989  49.864  1.00  0.00     0.000 C 
BRANCH   5   6
ATOM      6  C   UNL     1      23.642  11.075  49.274  1.00  0.00     0.000 C 
BRANCH   6   7
ATOM      7  C   UNL     1      22.244  11.395  49.829  1.00  0.00     0.000 C 
BRANCH   7   8
ATOM      8  C   UNL     1      21.417  10.132  50.125  1.00  0.00     0.000 C 
BRANCH   8   9
ATOM      9  C   UNL     1      22.014   8.845  49.516  1.00  0.00     0.000 C 
BRANCH   9  10
ATOM     10  C   UNL     1      20.928   7.833  49.113  1.00  0.00     0.006 C 
BRANCH  10  11
ATOM     11  C   UNL     1      19.772   7.785  50.121  1.00  0.00     0.053 C 
BRANCH  11  12
ATOM     12  C   UNL     1      18.554   7.132  49.541  1.00  0.00     0.041 C 
ATOM     13  O   UNL     1      18.669   6.119  48.801  1.00  0.00    -0.550 OA
ATOM     14  O   UNL     1      17.295   7.668  49.784  1.00  0.00    -0.550 OA
ENDBRANCH  11  12
ENDBRANCH  10  11
ENDBRANCH   9  10
ENDBRANCH   8   9
ENDBRANCH   7   8
ENDBRANCH   6   7
ENDBRANCH   5   6
ENDBRANCH   4   5
ENDBRANCH   3   4
ENDBRANCH   2   3
ENDBRANCH   1   2
BRANCH   1  15
ATOM     15  C   UNL     1      27.073  16.824  48.561  1.00  0.00     0.000 C 
BRANCH  15  16
ATOM     16  C   UNL     1      28.106  17.184  47.484  1.00  0.00     0.000 C 
BRANCH  16  17
ATOM     17  C   UNL     1      29.222  18.062  48.064  1.00  0.00     0.000 C 
BRANCH  17  18
ATOM     18  C   UNL     1      30.481  18.002  47.186  1.00  0.00    -0.000 C 
BRANCH  18  19
ATOM     19  C   UNL     1      31.782  17.937  48.007  1.00  0.00    -0.000 C 
BRANCH  19  20
ATOM     20  C   UNL     1      31.677  17.156  49.330  1.00  0.00    -0.000 C 
BRANCH  20  21
ATOM     21  C   UNL     1      31.961  15.645  49.223  1.00  0.00    -0.000 C 
BRANCH  21  22
ATOM     22  C   UNL     1      30.733  14.810  48.800  1.00  0.00    -0.000 C 
BRANCH  22  23
ATOM     23  C   UNL     1      30.589  13.518  49.619  1.00  0.00    -0.000 C 
BRANCH  23  24
ATOM     24  C   UNL     1      29.710  12.497  48.884  1.00  0.00    -0.000 C 
BRANCH  24  25
ATOM     25  C   UNL     1      30.335  12.022  47.562  1.00  0.00    -0.003 C 
ATOM     26  C   UNL     1      31.864  12.051  47.588  1.00  0.00     0.004 C 
ENDBRANCH  24  25
ENDBRANCH  23  24
ENDBRANCH  22  23
ENDBRANCH  21  22
ENDBRANCH  20  21
ENDBRANCH  19  20
ENDBRANCH  18  19
ENDBRANCH  17  18
ENDBRANCH  16  17
ENDBRANCH  15  16
ENDBRANCH   1  15
TORSDOF 22
ENDMDL
MODEL 2
REMARK VINA RESULT:    -0.945     13.980     15.462
REMARK INTER + INTRA:          -3.874
REMARK INTER:                  -2.258
REMARK INTRA:                  -1.617
REMARK UNBOUND:                -1.714
REMARK SMILES CCCCCCCCCCCCCCCCCCCCCCCC(=O)[O-]
REMARK SMILES IDX 13 1 14 2 15 3 16 4 17 5 18 6 19 7 20 8 21 9 22 10 23 11
REMARK SMILES IDX 24 12 25 13 26 14 12 15 11 16 10 17 9 18 8 19 7 20 6 21 5 22
REMARK SMILES IDX 4 23 3 24 2 25 1 26
REMARK H PARENT
REMARK Flexibility Score: inf
ROOT
ATOM      1  C   UNL     1      28.032  -1.709  43.883  1.00  0.00     0.000 C 
ENDROOT
BRANCH   1   2
ATOM      2  C   UNL     1      27.755  -0.357  43.189  1.00  0.00     0.000 C 
BRANCH   2   3
ATOM      3  C   UNL     1      26.315   0.170  43.334  1.00  0.00     0.000 C 
BRANCH   3   4
ATOM      4  C   UNL     1      25.742   0.836  42.066  1.00  0.00     0.000 C 
BRANCH   4   5
ATOM      5  C   UNL     1      24.396   1.559  42.300  1.00  0.00     0.000 C 
BRANCH   5   6
ATOM      6  C   UNL     1      23.946   2.430  41.115  1.00  0.00     0.000 C 
BRANCH   6   7
ATOM      7  C   UNL     1      22.422   2.406  40.916  1.00  0.00     0.000 C 
BRANCH   7   8
ATOM      8  C   UNL     1      21.909   1.049  40.403  1.00  0.00     0.000 C 
BRANCH   8   9
ATOM      9  C   UNL     1      20.626   0.565  41.111  1.00  0.00     0.000 C 
BRANCH   9  10
ATOM     10  C   UNL     1      19.938   1.690  41.903  1.00  0.00     0.006 C 
BRANCH  10  11
ATOM     11  C   UNL     1      18.489   1.919  41.452  1.00  0.00     0.053 C 
BRANCH  11  12
ATOM     12  C   UNL     1      18.421   2.494  40.069  1.00  0.00     0.041 C 
ATOM     13  O   UNL     1      19.414   3.096  39.583  1.00  0.00    -0.550 OA
ATOM     14  O   UNL     1      17.245   2.398  39.335  1.00  0.00    -0.550 OA
ENDBRANCH  11  12
ENDBRANCH  10  11
ENDBRANCH   9  10
ENDBRANCH   8   9
ENDBRANCH   7   8
ENDBRANCH   6   7
ENDBRANCH   5   6
ENDBRANCH   4   5
ENDBRANCH   3   4
ENDBRANCH   2   3
ENDBRANCH   1   2
BRANCH   1  15
ATOM     15  C   UNL     1      29.029  -1.650  45.054  1.00  0.00     0.000 C 
BRANCH  15  16
ATOM     16  C   UNL     1      30.275  -0.812  44.737  1.00  0.00     0.000 C 
BRANCH  16  17
ATOM     17  C   UNL     1      31.002  -1.353  43.500  1.00  0.00     0.000 C 
BRANCH  17  18
ATOM     18  C   UNL     1      31.136  -0.267  42.422  1.00  0.00    -0.000 C 
BRANCH  18  19
ATOM     19  C   UNL     1      31.529  -0.834  41.045  1.00  0.00    -0.000 C 
BRANCH  19  20
ATOM     20  C   UNL     1      30.351  -1.326  40.184  1.00  0.00    -0.000 C 
BRANCH  20  21
ATOM     21  C   UNL     1      29.183  -0.330  40.043  1.00  0.00    -0.000 C 
BRANCH  21  22
ATOM     22  C   UNL     1      28.871   0.060  38.582  1.00  0.00    -0.000 C 
BRANCH  22  23
ATOM     23  C   UNL     1      29.651   1.302  38.124  1.00  0.00    -0.000 C 
BRANCH  23  24
ATOM     24  C   UNL     1      31.125   0.961  37.865  1.00  0.00    -0.000 C 
BRANCH  24  25
ATOM     25  C   UNL     1      32.086   1.779  38.743  1.00  0.00    -0.003 C 
ATOM     26  C   UNL     1      31.369   2.511  39.878  1.00  0.00     0.004 C 
ENDBRANCH  24  25
ENDBRANCH  23  24
ENDBRANCH  22  23
ENDBRANCH  21  22
ENDBRANCH  20  21
ENDBRANCH  19  20
ENDBRANCH  18  19
ENDBRANCH  17  18
ENDBRANCH  16  17
ENDBRANCH  15  16
ENDBRANCH   1  15
TORSDOF 22
ENDMDL
MODEL 3
REMARK VINA RESULT:    -0.831     14.219     15.450
REMARK INTER + INTRA:          -3.613
REMARK INTER:                  -1.655
REMARK INTRA:                  -1.958
REMARK UNBOUND:                -1.714
REMARK SMILES CCCCCCCCCCCCCCCCCCCCCCCC(=O)[O-]
REMARK SMILES IDX 13 1 14 2 15 3 16 4 17 5 18 6 19 7 20 8 21 9 22 10 23 11
REMARK SMILES IDX 24 12 25 13 26 14 12 15 11 16 10 17 9 18 8 19 7 20 6 21 5 22
REMARK SMILES IDX 4 23 3 24 2 25 1 26
REMARK H PARENT
REMARK Flexibility Score: inf
ROOT
ATOM      1  C   UNL     1      28.249  -1.709  43.262  1.00  0.00     0.000 C 
ENDROOT
BRANCH   1   2
ATOM      2  C   UNL     1      27.533  -0.350  43.418  1.00  0.00     0.000 C 
BRANCH   2   3
ATOM      3  C   UNL     1      26.285  -0.163  42.535  1.00  0.00     0.000 C 
BRANCH   3   4
ATOM      4  C   UNL     1      25.494   1.134  42.801  1.00  0.00     0.000 C 
BRANCH   4   5
ATOM      5  C   UNL     1      24.826   1.724  41.538  1.00  0.00     0.000 C 
BRANCH   5   6
ATOM      6  C   UNL     1      23.356   2.128  41.746  1.00  0.00     0.000 C 
BRANCH   6   7
ATOM      7  C   UNL     1      22.647   2.457  40.422  1.00  0.00     0.000 C 
BRANCH   7   8
ATOM      8  C   UNL     1      21.522   1.462  40.085  1.00  0.00     0.000 C 
BRANCH   8   9
ATOM      9  C   UNL     1      21.279   0.408  41.187  1.00  0.00     0.000 C 
BRANCH   9  10
ATOM     10  C   UNL     1      19.915   0.591  41.876  1.00  0.00     0.006 C 
BRANCH  10  11
ATOM     11  C   UNL     1      19.417   2.041  41.809  1.00  0.00     0.053 C 
BRANCH  11  12
ATOM     12  C   UNL     1      18.310   2.203  40.811  1.00  0.00     0.041 C 
ATOM     13  O   UNL     1      17.222   1.587  40.966  1.00  0.00    -0.550 OA
ATOM     14  O   UNL     1      18.497   3.002  39.690  1.00  0.00    -0.550 OA
ENDBRANCH  11  12
ENDBRANCH  10  11
ENDBRANCH   9  10
ENDBRANCH   8   9
ENDBRANCH   7   8
ENDBRANCH   6   7
ENDBRANCH   5   6
ENDBRANCH   4   5
ENDBRANCH   3   4
ENDBRANCH   2   3
ENDBRANCH   1   2
BRANCH   1  15
ATOM     15  C   UNL     1      29.636  -1.796  43.924  1.00  0.00     0.000 C 
BRANCH  15  16
ATOM     16  C   UNL     1      30.496  -0.549  43.676  1.00  0.00     0.000 C 
BRANCH  16  17
ATOM     17  C   UNL     1      30.561  -0.214  42.180  1.00  0.00     0.000 C 
BRANCH  17  18
ATOM     18  C   UNL     1      31.766  -0.896  41.516  1.00  0.00    -0.000 C 
BRANCH  18  19
ATOM     19  C   UNL     1      32.125  -0.283  40.150  1.00  0.00    -0.000 C 
BRANCH  19  20
ATOM     20  C   UNL     1      32.125   1.257  40.109  1.00  0.00    -0.000 C 
BRANCH  20  21
ATOM     21  C   UNL     1      31.676   1.877  38.771  1.00  0.00    -0.000 C 
BRANCH  21  22
ATOM     22  C   UNL     1      31.399   0.836  37.666  1.00  0.00    -0.000 C 
BRANCH  22  23
ATOM     23  C   UNL     1      29.906   0.495  37.538  1.00  0.00    -0.000 C 
BRANCH  23  24
ATOM     24  C   UNL     1      29.078   1.252  38.587  1.00  0.00    -0.000 C 
BRANCH  24  25
ATOM     25  C   UNL     1      28.460   0.317  39.639  1.00  0.00    -0.003 C 
ATOM     26  C   UNL     1      28.551  -1.157  39.245  1.00  0.00     0.004 C 
ENDBRANCH  24  25
ENDBRANCH  23  24
ENDBRANCH  22  23
ENDBRANCH  21  22
ENDBRANCH  20  21
ENDBRANCH  19  20
ENDBRANCH  18  19
ENDBRANCH  17  18
ENDBRANCH  16  17
ENDBRANCH  15  16
ENDBRANCH   1  15
TORSDOF 22
ENDMDL
MODEL 4
REMARK VINA RESULT:    -0.826     14.339     15.408
REMARK INTER + INTRA:          -3.602
REMARK INTER:                  -1.877
REMARK INTRA:                  -1.726
REMARK UNBOUND:                -1.714
REMARK SMILES CCCCCCCCCCCCCCCCCCCCCCCC(=O)[O-]
REMARK SMILES IDX 13 1 14 2 15 3 16 4 17 5 18 6 19 7 20 8 21 9 22 10 23 11
REMARK SMILES IDX 24 12 25 13 26 14 12 15 11 16 10 17 9 18 8 19 7 20 6 21 5 22
REMARK SMILES IDX 4 23 3 24 2 25 1 26
REMARK H PARENT
REMARK Flexibility Score: inf
ROOT
ATOM      1  C   UNL     1      26.022   0.503  42.103  1.00  0.00     0.000 C 
ENDROOT
BRANCH   1   2
ATOM      2  C   UNL     1      24.717   1.255  42.443  1.00  0.00     0.000 C 
BRANCH   2   3
ATOM      3  C   UNL     1      24.164   2.148  41.316  1.00  0.00     0.000 C 
BRANCH   3   4
ATOM      4  C   UNL     1      22.625   2.210  41.239  1.00  0.00     0.000 C 
BRANCH   4   5
ATOM      5  C   UNL     1      22.031   1.413  40.055  1.00  0.00     0.000 C 
BRANCH   5   6
ATOM      6  C   UNL     1      21.289   0.133  40.478  1.00  0.00     0.000 C 
BRANCH   6   7
ATOM      7  C   UNL     1      20.957   0.119  41.979  1.00  0.00     0.000 C 
BRANCH   7   8
ATOM      8  C   UNL     1      19.525  -0.365  42.268  1.00  0.00     0.000 C 
BRANCH   8   9
ATOM      9  C   UNL     1      18.664   0.669  43.025  1.00  0.00     0.000 C 
BRANCH   9  10
ATOM     10  C   UNL     1      18.476   1.969  42.223  1.00  0.00     0.006 C 
BRANCH  10  11
ATOM     11  C   UNL     1      17.782   1.728  40.876  1.00  0.00     0.053 C 
BRANCH  11  12
ATOM     12  C   UNL     1      18.260   2.684  39.825  1.00  0.00     0.041 C 
ATOM     13  O   UNL     1      17.467   3.104  38.942  1.00  0.00    -0.550 OA
ATOM     14  O   UNL     1      19.592   3.078  39.799  1.00  0.00    -0.550 OA
ENDBRANCH  11  12
ENDBRANCH  10  11
ENDBRANCH   9  10
ENDBRANCH   8   9
ENDBRANCH   7   8
ENDBRANCH   6   7
ENDBRANCH   5   6
ENDBRANCH   4   5
ENDBRANCH   3   4
ENDBRANCH   2   3
ENDBRANCH   1   2
BRANCH   1  15
ATOM     15  C   UNL     1      26.877   0.096  43.317  1.00  0.00     0.000 C 
BRANCH  15  16
ATOM     16  C   UNL     1      27.992  -0.895  42.957  1.00  0.00     0.000 C 
BRANCH  16  17
ATOM     17  C   UNL     1      28.992  -1.042  44.111  1.00  0.00     0.000 C 
BRANCH  17  18
ATOM     18  C   UNL     1      30.437  -1.033  43.591  1.00  0.00    -0.000 C 
BRANCH  18  19
ATOM     19  C   UNL     1      30.532  -0.737  42.084  1.00  0.00    -0.000 C 
BRANCH  19  20
ATOM     20  C   UNL     1      31.944  -0.869  41.483  1.00  0.00    -0.000 C 
BRANCH  20  21
ATOM     21  C   UNL     1      32.091  -0.355  40.037  1.00  0.00    -0.000 C 
BRANCH  21  22
ATOM     22  C   UNL     1      31.885   1.168  39.895  1.00  0.00    -0.000 C 
BRANCH  22  23
ATOM     23  C   UNL     1      31.548   1.584  38.455  1.00  0.00    -0.000 C 
BRANCH  23  24
ATOM     24  C   UNL     1      30.387   0.748  37.898  1.00  0.00    -0.000 C 
BRANCH  24  25
ATOM     25  C   UNL     1      29.155   0.759  38.818  1.00  0.00    -0.003 C 
ATOM     26  C   UNL     1      28.637  -0.646  39.127  1.00  0.00     0.004 C 
ENDBRANCH  24  25
ENDBRANCH  23  24
ENDBRANCH  22  23
ENDBRANCH  21  22
ENDBRANCH  20  21
ENDBRANCH  19  20
ENDBRANCH  18  19
ENDBRANCH  17  18
ENDBRANCH  16  17
ENDBRANCH  15  16
ENDBRANCH   1  15
TORSDOF 22
ENDMDL
MODEL 5
REMARK VINA RESULT:    -0.693     14.627     17.673
REMARK INTER + INTRA:          -3.298
REMARK INTER:                  -1.543
REMARK INTRA:                  -1.755
REMARK UNBOUND:                -1.714
REMARK SMILES CCCCCCCCCCCCCCCCCCCCCCCC(=O)[O-]
REMARK SMILES IDX 13 1 14 2 15 3 16 4 17 5 18 6 19 7 20 8 21 9 22 10 23 11
REMARK SMILES IDX 24 12 25 13 26 14 12 15 11 16 10 17 9 18 8 19 7 20 6 21 5 22
REMARK SMILES IDX 4 23 3 24 2 25 1 26
REMARK H PARENT
REMARK Flexibility Score: inf
ROOT
ATOM      1  C   UNL     1      27.082  -0.239  43.569  1.00  0.00     0.000 C 
ENDROOT
BRANCH   1   2
ATOM      2  C   UNL     1      28.071  -1.386  43.271  1.00  0.00     0.000 C 
BRANCH   2   3
ATOM      3  C   UNL     1      29.225  -1.534  44.281  1.00  0.00     0.000 C 
BRANCH   3   4
ATOM      4  C   UNL     1      30.562  -0.915  43.827  1.00  0.00     0.000 C 
BRANCH   4   5
ATOM      5  C   UNL     1      30.495  -0.246  42.435  1.00  0.00     0.000 C 
BRANCH   5   6
ATOM      6  C   UNL     1      31.055  -1.120  41.300  1.00  0.00     0.000 C 
BRANCH   6   7
ATOM      7  C   UNL     1      32.099  -0.377  40.449  1.00  0.00     0.000 C 
BRANCH   7   8
ATOM      8  C   UNL     1      31.941   1.153  40.515  1.00  0.00     0.000 C 
BRANCH   8   9
ATOM      9  C   UNL     1      31.565   1.794  39.163  1.00  0.00     0.000 C 
BRANCH   9  10
ATOM     10  C   UNL     1      31.501   0.760  38.025  1.00  0.00     0.006 C 
BRANCH  10  11
ATOM     11  C   UNL     1      30.096   0.645  37.420  1.00  0.00     0.053 C 
BRANCH  11  12
ATOM     12  C   UNL     1      29.042   0.521  38.478  1.00  0.00     0.041 C 
ATOM     13  O   UNL     1      28.413   1.540  38.869  1.00  0.00    -0.550 OA
ATOM     14  O   UNL     1      28.784  -0.713  39.061  1.00  0.00    -0.550 OA
ENDBRANCH  11  12
ENDBRANCH  10  11
ENDBRANCH   9  10
ENDBRANCH   8   9
ENDBRANCH   7   8
ENDBRANCH   6   7
ENDBRANCH   5   6
ENDBRANCH   4   5
ENDBRANCH   3   4
ENDBRANCH   2   3
ENDBRANCH   1   2
BRANCH   1  15
ATOM     15  C   UNL     1      26.451   0.419  42.329  1.00  0.00     0.000 C 
BRANCH  15  16
ATOM     16  C   UNL     1      25.116   1.111  42.633  1.00  0.00     0.000 C 
BRANCH  16  17
ATOM     17  C   UNL     1      24.597   1.870  41.405  1.00  0.00     0.000 C 
BRANCH  17  18
ATOM     18  C   UNL     1      23.104   2.200  41.553  1.00  0.00    -0.000 C 
BRANCH  18  19
ATOM     19  C   UNL     1      22.277   1.806  40.315  1.00  0.00    -0.000 C 
BRANCH  19  20
ATOM     20  C   UNL     1      21.406   0.548  40.489  1.00  0.00    -0.000 C 
BRANCH  20  21
ATOM     21  C   UNL     1      21.076   0.177  41.948  1.00  0.00    -0.000 C 
BRANCH  21  22
ATOM     22  C   UNL     1      19.652  -0.387  42.139  1.00  0.00    -0.000 C 
BRANCH  22  23
ATOM     23  C   UNL     1      18.774   0.514  43.022  1.00  0.00    -0.000 C 
BRANCH  23  24
ATOM     24  C   UNL     1      18.652   1.921  42.419  1.00  0.00    -0.000 C 
BRANCH  24  25
ATOM     25  C   UNL     1      17.808   1.943  41.135  1.00  0.00    -0.003 C 
ATOM     26  C   UNL     1      18.600   2.421  39.917  1.00  0.00     0.004 C 
ENDBRANCH  24  25
ENDBRANCH  23  24
ENDBRANCH  22  23
ENDBRANCH  21  22
ENDBRANCH  20  21
ENDBRANCH  19  20
ENDBRANCH  18  19
ENDBRANCH  17  18
ENDBRANCH  16  17
ENDBRANCH  15  16
ENDBRANCH   1  15
TORSDOF 22
ENDMDL
MODEL 6
REMARK VINA RESULT:    -0.517     14.096     15.383
REMARK INTER + INTRA:          -2.896
REMARK INTER:                  -1.891
REMARK INTRA:                  -1.005
REMARK UNBOUND:                -1.714
REMARK SMILES CCCCCCCCCCCCCCCCCCCCCCCC(=O)[O-]
REMARK SMILES IDX 13 1 14 2 15 3 16 4 17 5 18 6 19 7 20 8 21 9 22 10 23 11
REMARK SMILES IDX 24 12 25 13 26 14 12 15 11 16 10 17 9 18 8 19 7 20 6 21 5 22
REMARK SMILES IDX 4 23 3 24 2 25 1 26
REMARK H PARENT
REMARK Flexibility Score: inf
ROOT
ATOM      1  C   UNL     1      27.454  -0.175  42.727  1.00  0.00     0.000 C 
ENDROOT
BRANCH   1   2
ATOM      2  C   UNL     1      26.060   0.080  43.340  1.00  0.00     0.000 C 
BRANCH   2   3
ATOM      3  C   UNL     1      25.381   1.391  42.899  1.00  0.00     0.000 C 
BRANCH   3   4
ATOM      4  C   UNL     1      24.326   1.228  41.787  1.00  0.00     0.000 C 
BRANCH   4   5
ATOM      5  C   UNL     1      23.901   2.563  41.133  1.00  0.00     0.000 C 
BRANCH   5   6
ATOM      6  C   UNL     1      22.415   2.616  40.740  1.00  0.00     0.000 C 
BRANCH   6   7
ATOM      7  C   UNL     1      21.821   1.217  40.507  1.00  0.00     0.000 C 
BRANCH   7   8
ATOM      8  C   UNL     1      20.438   1.260  39.835  1.00  0.00     0.000 C 
BRANCH   8   9
ATOM      9  C   UNL     1      19.480   2.298  40.458  1.00  0.00     0.000 C 
BRANCH   9  10
ATOM     10  C   UNL     1      19.251   2.052  41.960  1.00  0.00     0.006 C 
BRANCH  10  11
ATOM     11  C   UNL     1      18.217   0.948  42.218  1.00  0.00     0.053 C 
BRANCH  11  12
ATOM     12  C   UNL     1      18.854  -0.295  42.763  1.00  0.00     0.041 C 
ATOM     13  O   UNL     1      20.097  -0.470  42.654  1.00  0.00    -0.550 OA
ATOM     14  O   UNL     1      18.068  -1.277  43.353  1.00  0.00    -0.550 OA
ENDBRANCH  11  12
ENDBRANCH  10  11
ENDBRANCH   9  10
ENDBRANCH   8   9
ENDBRANCH   7   8
ENDBRANCH   6   7
ENDBRANCH   5   6
ENDBRANCH   4   5
ENDBRANCH   3   4
ENDBRANCH   2   3
ENDBRANCH   1   2
BRANCH   1  15
ATOM     15  C   UNL     1      28.221  -1.369  43.323  1.00  0.00     0.000 C 
BRANCH  15  16
ATOM     16  C   UNL     1      29.232  -0.951  44.400  1.00  0.00     0.000 C 
BRANCH  16  17
ATOM     17  C   UNL     1      30.648  -0.856  43.819  1.00  0.00     0.000 C 
BRANCH  17  18
ATOM     18  C   UNL     1      30.606  -0.618  42.302  1.00  0.00    -0.000 C 
BRANCH  18  19
ATOM     19  C   UNL     1      31.917  -1.010  41.597  1.00  0.00    -0.000 C 
BRANCH  19  20
ATOM     20  C   UNL     1      32.017  -0.573  40.123  1.00  0.00    -0.000 C 
BRANCH  20  21
ATOM     21  C   UNL     1      32.066   0.950  39.893  1.00  0.00    -0.000 C 
BRANCH  21  22
ATOM     22  C   UNL     1      32.124   1.353  38.404  1.00  0.00    -0.000 C 
BRANCH  22  23
ATOM     23  C   UNL     1      30.801   1.084  37.669  1.00  0.00    -0.000 C 
BRANCH  23  24
ATOM     24  C   UNL     1      29.621   1.069  38.651  1.00  0.00    -0.000 C 
BRANCH  24  25
ATOM     25  C   UNL     1      28.658  -0.102  38.401  1.00  0.00    -0.003 C 
ATOM     26  C   UNL     1      28.658  -1.120  39.542  1.00  0.00     0.004 C 
ENDBRANCH  24  25
ENDBRANCH  23  24
ENDBRANCH  22  23
ENDBRANCH  21  22
ENDBRANCH  20  21
ENDBRANCH  19  20
ENDBRANCH  18  19
ENDBRANCH  17  18
ENDBRANCH  16  17
ENDBRANCH  15  16
ENDBRANCH   1  15
TORSDOF 22
ENDMDL
MODEL 7
REMARK VINA RESULT:    -0.401     14.694     17.724
REMARK INTER + INTRA:          -2.631
REMARK INTER:                  -0.812
REMARK INTRA:                  -1.820
REMARK UNBOUND:                -1.714
REMARK SMILES CCCCCCCCCCCCCCCCCCCCCCCC(=O)[O-]
REMARK SMILES IDX 13 1 14 2 15 3 16 4 17 5 18 6 19 7 20 8 21 9 22 10 23 11
REMARK SMILES IDX 24 12 25 13 26 14 12 15 11 16 10 17 9 18 8 19 7 20 6 21 5 22
REMARK SMILES IDX 4 23 3 24 2 25 1 26
REMARK H PARENT
REMARK Flexibility Score: inf
ROOT
ATOM      1  C   UNL     1      25.582   0.885  41.866  1.00  0.00     0.000 C 
ENDROOT
BRANCH   1   2
ATOM      2  C   UNL     1      26.428   0.438  43.078  1.00  0.00     0.000 C 
BRANCH   2   3
ATOM      3  C   UNL     1      27.502  -0.623  42.771  1.00  0.00     0.000 C 
BRANCH   3   4
ATOM      4  C   UNL     1      28.044  -1.367  44.008  1.00  0.00     0.000 C 
BRANCH   4   5
ATOM      5  C   UNL     1      29.320  -0.730  44.606  1.00  0.00     0.000 C 
BRANCH   5   6
ATOM      6  C   UNL     1      30.612  -1.118  43.867  1.00  0.00     0.000 C 
BRANCH   6   7
ATOM      7  C   UNL     1      30.892  -0.207  42.661  1.00  0.00     0.000 C 
BRANCH   7   8
ATOM      8  C   UNL     1      30.898  -0.970  41.325  1.00  0.00     0.000 C 
BRANCH   8   9
ATOM      9  C   UNL     1      32.001  -0.505  40.351  1.00  0.00     0.000 C 
BRANCH   9  10
ATOM     10  C   UNL     1      31.711   0.889  39.766  1.00  0.00     0.006 C 
BRANCH  10  11
ATOM     11  C   UNL     1      31.333   0.830  38.280  1.00  0.00     0.053 C 
BRANCH  11  12
ATOM     12  C   UNL     1      29.854   0.680  38.088  1.00  0.00     0.041 C 
ATOM     13  O   UNL     1      29.378   0.516  36.934  1.00  0.00    -0.550 OA
ATOM     14  O   UNL     1      29.000   0.761  39.181  1.00  0.00    -0.550 OA
ENDBRANCH  11  12
ENDBRANCH  10  11
ENDBRANCH   9  10
ENDBRANCH   8   9
ENDBRANCH   7   8
ENDBRANCH   6   7
ENDBRANCH   5   6
ENDBRANCH   4   5
ENDBRANCH   3   4
ENDBRANCH   2   3
ENDBRANCH   1   2
BRANCH   1  15
ATOM     15  C   UNL     1      24.218   1.506  42.214  1.00  0.00     0.000 C 
BRANCH  15  16
ATOM     16  C   UNL     1      23.722   2.495  41.150  1.00  0.00     0.000 C 
BRANCH  16  17
ATOM     17  C   UNL     1      22.218   2.327  40.901  1.00  0.00     0.000 C 
BRANCH  17  18
ATOM     18  C   UNL     1      21.948   1.187  39.908  1.00  0.00    -0.000 C 
BRANCH  18  19
ATOM     19  C   UNL     1      21.220  -0.008  40.550  1.00  0.00    -0.000 C 
BRANCH  19  20
ATOM     20  C   UNL     1      20.878   0.165  42.042  1.00  0.00    -0.000 C 
BRANCH  20  21
ATOM     21  C   UNL     1      19.609  -0.572  42.513  1.00  0.00    -0.000 C 
BRANCH  21  22
ATOM     22  C   UNL     1      18.414   0.365  42.794  1.00  0.00    -0.000 C 
BRANCH  22  23
ATOM     23  C   UNL     1      18.607   1.763  42.186  1.00  0.00    -0.000 C 
BRANCH  23  24
ATOM     24  C   UNL     1      17.739   1.940  40.931  1.00  0.00    -0.000 C 
BRANCH  24  25
ATOM     25  C   UNL     1      18.562   2.334  39.694  1.00  0.00    -0.003 C 
ATOM     26  C   UNL     1      18.311   3.777  39.254  1.00  0.00     0.004 C 
ENDBRANCH  24  25
ENDBRANCH  23  24
ENDBRANCH  22  23
ENDBRANCH  21  22
ENDBRANCH  20  21
ENDBRANCH  19  20
ENDBRANCH  18  19
ENDBRANCH  17  18
ENDBRANCH  16  17
ENDBRANCH  15  16
ENDBRANCH   1  15
TORSDOF 22
ENDMDL
MODEL 8
REMARK VINA RESULT:    -0.366     14.081     15.373
REMARK INTER + INTRA:          -2.550
REMARK INTER:                  -0.924
REMARK INTRA:                  -1.626
REMARK UNBOUND:                -1.714
REMARK SMILES CCCCCCCCCCCCCCCCCCCCCCCC(=O)[O-]
REMARK SMILES IDX 13 1 14 2 15 3 16 4 17 5 18 6 19 7 20 8 21 9 22 10 23 11
REMARK SMILES IDX 24 12 25 13 26 14 12 15 11 16 10 17 9 18 8 19 7 20 6 21 5 22
REMARK SMILES IDX 4 23 3 24 2 25 1 26
REMARK H PARENT
REMARK Flexibility Score: inf
ROOT
ATOM      1  C   UNL     1      28.759   2.106  38.559  1.00  0.00     0.000 C 
ENDROOT
BRANCH   1   2
ATOM      2  C   UNL     1      27.226   2.281  38.591  1.00  0.00     0.000 C 
BRANCH   2   3
ATOM      3  C   UNL     1      26.734   3.741  38.578  1.00  0.00     0.000 C 
BRANCH   3   4
ATOM      4  C   UNL     1      25.201   3.905  38.633  1.00  0.00     0.000 C 
BRANCH   4   5
ATOM      5  C   UNL     1      24.585   3.524  39.999  1.00  0.00     0.000 C 
BRANCH   5   6
ATOM      6  C   UNL     1      23.166   2.939  39.897  1.00  0.00     0.000 C 
BRANCH   6   7
ATOM      7  C   UNL     1      22.787   2.103  41.131  1.00  0.00     0.000 C 
BRANCH   7   8
ATOM      8  C   UNL     1      21.986   0.840  40.772  1.00  0.00     0.000 C 
BRANCH   8   9
ATOM      9  C   UNL     1      20.653   0.714  41.541  1.00  0.00     0.000 C 
BRANCH   9  10
ATOM     10  C   UNL     1      19.726   1.918  41.300  1.00  0.00     0.006 C 
BRANCH  10  11
ATOM     11  C   UNL     1      19.444   2.148  39.810  1.00  0.00     0.053 C 
BRANCH  11  12
ATOM     12  C   UNL     1      18.069   2.699  39.582  1.00  0.00     0.041 C 
ATOM     13  O   UNL     1      17.054   2.029  39.911  1.00  0.00    -0.550 OA
ATOM     14  O   UNL     1      17.909   3.936  38.969  1.00  0.00    -0.550 OA
ENDBRANCH  11  12
ENDBRANCH  10  11
ENDBRANCH   9  10
ENDBRANCH   8   9
ENDBRANCH   7   8
ENDBRANCH   6   7
ENDBRANCH   5   6
ENDBRANCH   4   5
ENDBRANCH   3   4
ENDBRANCH   2   3
ENDBRANCH   1   2
BRANCH   1  15
ATOM     15  C   UNL     1      29.248   0.659  38.363  1.00  0.00     0.000 C 
BRANCH  15  16
ATOM     16  C   UNL     1      30.666   0.581  37.781  1.00  0.00     0.000 C 
BRANCH  16  17
ATOM     17  C   UNL     1      31.605   1.569  38.485  1.00  0.00     0.000 C 
BRANCH  17  18
ATOM     18  C   UNL     1      31.919   1.106  39.915  1.00  0.00    -0.000 C 
BRANCH  18  19
ATOM     19  C   UNL     1      32.120  -0.417  40.023  1.00  0.00    -0.000 C 
BRANCH  19  20
ATOM     20  C   UNL     1      31.146  -1.135  40.977  1.00  0.00    -0.000 C 
BRANCH  20  21
ATOM     21  C   UNL     1      30.366  -0.211  41.933  1.00  0.00    -0.000 C 
BRANCH  21  22
ATOM     22  C   UNL     1      28.836  -0.404  41.874  1.00  0.00    -0.000 C 
BRANCH  22  23
ATOM     23  C   UNL     1      28.381  -1.707  42.550  1.00  0.00    -0.000 C 
BRANCH  23  24
ATOM     24  C   UNL     1      28.434  -1.581  44.079  1.00  0.00    -0.000 C 
BRANCH  24  25
ATOM     25  C   UNL     1      29.785  -2.026  44.662  1.00  0.00    -0.003 C 
ATOM     26  C   UNL     1      30.313  -1.063  45.727  1.00  0.00     0.004 C 
ENDBRANCH  24  25
ENDBRANCH  23  24
ENDBRANCH  22  23
ENDBRANCH  21  22
ENDBRANCH  20  21
ENDBRANCH  19  20
ENDBRANCH  18  19
ENDBRANCH  17  18
ENDBRANCH  16  17
ENDBRANCH  15  16
ENDBRANCH   1  15
TORSDOF 22
ENDMDL
MODEL 9
REMARK VINA RESULT:    -0.333     13.933     15.467
REMARK INTER + INTRA:          -2.475
REMARK INTER:                  -1.197
REMARK INTRA:                  -1.277
REMARK UNBOUND:                -1.714
REMARK SMILES CCCCCCCCCCCCCCCCCCCCCCCC(=O)[O-]
REMARK SMILES IDX 13 1 14 2 15 3 16 4 17 5 18 6 19 7 20 8 21 9 22 10 23 11
REMARK SMILES IDX 24 12 25 13 26 14 12 15 11 16 10 17 9 18 8 19 7 20 6 21 5 22
REMARK SMILES IDX 4 23 3 24 2 25 1 26
REMARK H PARENT
REMARK Flexibility Score: inf
ROOT
ATOM      1  C   UNL     1      30.218   1.059  37.254  1.00  0.00     0.000 C 
ENDROOT
BRANCH   1   2
ATOM      2  C   UNL     1      29.231   0.036  37.856  1.00  0.00     0.000 C 
BRANCH   2   3
ATOM      3  C   UNL     1      28.273   0.600  38.922  1.00  0.00     0.000 C 
BRANCH   3   4
ATOM      4  C   UNL     1      27.750   2.021  38.632  1.00  0.00     0.000 C 
BRANCH   4   5
ATOM      5  C   UNL     1      26.246   2.205  38.942  1.00  0.00     0.000 C 
BRANCH   5   6
ATOM      6  C   UNL     1      25.820   3.675  39.092  1.00  0.00     0.000 C 
BRANCH   6   7
ATOM      7  C   UNL     1      24.294   3.835  39.191  1.00  0.00     0.000 C 
BRANCH   7   8
ATOM      8  C   UNL     1      23.693   3.090  40.396  1.00  0.00     0.000 C 
BRANCH   8   9
ATOM      9  C   UNL     1      22.172   2.854  40.282  1.00  0.00     0.000 C 
BRANCH   9  10
ATOM     10  C   UNL     1      21.816   1.358  40.239  1.00  0.00     0.006 C 
BRANCH  10  11
ATOM     11  C   UNL     1      20.775   0.975  41.298  1.00  0.00     0.053 C 
BRANCH  11  12
ATOM     12  C   UNL     1      19.482   1.707  41.098  1.00  0.00     0.041 C 
ATOM     13  O   UNL     1      19.134   2.076  39.945  1.00  0.00    -0.550 OA
ATOM     14  O   UNL     1      18.682   2.016  42.191  1.00  0.00    -0.550 OA
ENDBRANCH  11  12
ENDBRANCH  10  11
ENDBRANCH   9  10
ENDBRANCH   8   9
ENDBRANCH   7   8
ENDBRANCH   6   7
ENDBRANCH   5   6
ENDBRANCH   4   5
ENDBRANCH   3   4
ENDBRANCH   2   3
ENDBRANCH   1   2
BRANCH   1  15
ATOM     15  C   UNL     1      31.667   0.946  37.761  1.00  0.00     0.000 C 
BRANCH  15  16
ATOM     16  C   UNL     1      32.125   2.183  38.544  1.00  0.00     0.000 C 
BRANCH  16  17
ATOM     17  C   UNL     1      31.138   2.519  39.670  1.00  0.00     0.000 C 
BRANCH  17  18
ATOM     18  C   UNL     1      31.368   1.617  40.891  1.00  0.00    -0.000 C 
BRANCH  18  19
ATOM     19  C   UNL     1      32.093   0.305  40.540  1.00  0.00    -0.000 C 
BRANCH  19  20
ATOM     20  C   UNL     1      31.507  -0.958  41.199  1.00  0.00    -0.000 C 
BRANCH  20  21
ATOM     21  C   UNL     1      29.974  -1.093  41.106  1.00  0.00    -0.000 C 
BRANCH  21  22
ATOM     22  C   UNL     1      29.334  -1.769  42.337  1.00  0.00    -0.000 C 
BRANCH  22  23
ATOM     23  C   UNL     1      28.322  -0.858  43.050  1.00  0.00    -0.000 C 
BRANCH  23  24
ATOM     24  C   UNL     1      28.859  -0.403  44.415  1.00  0.00    -0.000 C 
BRANCH  24  25
ATOM     25  C   UNL     1      30.319  -0.823  44.646  1.00  0.00    -0.003 C 
ATOM     26  C   UNL     1      30.553  -1.398  46.044  1.00  0.00     0.004 C 
ENDBRANCH  24  25
ENDBRANCH  23  24
ENDBRANCH  22  23
ENDBRANCH  21  22
ENDBRANCH  20  21
ENDBRANCH  19  20
ENDBRANCH  18  19
ENDBRANCH  17  18
ENDBRANCH  16  17
ENDBRANCH  15  16
ENDBRANCH   1  15
TORSDOF 22
ENDMDL
