MODEL 1
REMARK VINA RESULT:    -4.237      0.000      0.000
REMARK INTER + INTRA:          -6.274
REMARK INTER:                  -5.971
REMARK INTRA:                  -0.302
REMARK UNBOUND:                -0.302
REMARK SMILES CCCCCCCCC(=O)[O-]
REMARK SMILES IDX 6 1 7 2 8 3 9 4 10 5 11 6 5 7 4 8 3 9 2 10 1 11
REMARK H PARENT
REMARK Flexibility Score: inf
ROOT
ATOM      1  C   UNL     1       4.263 -12.765   3.004  1.00  0.00     0.000 C 
ENDROOT
BRANCH   1   2
ATOM      2  C   UNL     1       4.955 -12.739   1.632  1.00  0.00     0.006 C 
BRANCH   2   3
ATOM      3  C   UNL     1       6.299 -13.475   1.635  1.00  0.00     0.053 C 
BRANCH   3   4
ATOM      4  C   UNL     1       7.233 -12.860   0.641  1.00  0.00     0.041 C 
ATOM      5  O   UNL     1       8.439 -13.222   0.594  1.00  0.00    -0.550 OA
ATOM      6  O   UNL     1       6.786 -11.850  -0.202  1.00  0.00    -0.550 OA
ENDBRANCH   3   4
ENDBRANCH   2   3
ENDBRANCH   1   2
BRANCH   1   7
ATOM      7  C   UNL     1       4.902 -13.773   3.971  1.00  0.00     0.000 C 
BRANCH   7   8
ATOM      8  C   UNL     1       4.240 -13.701   5.355  1.00  0.00    -0.000 C 
BRANCH   8   9
ATOM      9  C   UNL     1       5.246 -13.415   6.481  1.00  0.00    -0.000 C 
BRANCH   9  10
ATOM     10  C   UNL     1       5.486 -11.913   6.692  1.00  0.00    -0.003 C 
ATOM     11  C   UNL     1       6.730 -11.669   7.541  1.00  0.00     0.004 C 
ENDBRANCH   9  10
ENDBRANCH   8   9
ENDBRANCH   7   8
ENDBRANCH   1   7
TORSDOF 7
ENDMDL
MODEL 2
REMARK VINA RESULT:    -4.215      3.252      5.574
REMARK INTER + INTRA:          -6.242
REMARK INTER:                  -6.010
REMARK INTRA:                  -0.232
REMARK UNBOUND:                -0.302
REMARK SMILES CCCCCCCCC(=O)[O-]
REMARK SMILES IDX 6 1 7 2 8 3 9 4 10 5 11 6 5 7 4 8 3 9 2 10 1 11
REMARK H PARENT
REMARK Flexibility Score: inf
ROOT
ATOM      1  C   UNL     1       4.501 -14.143   4.218  1.00  0.00     0.000 C 
ENDROOT
BRANCH   1   2
ATOM      2  C   UNL     1       4.332 -13.096   5.330  1.00  0.00     0.006 C 
BRANCH   2   3
ATOM      3  C   UNL     1       5.275 -13.335   6.514  1.00  0.00     0.053 C 
BRANCH   3   4
ATOM      4  C   UNL     1       5.727 -12.032   7.094  1.00  0.00     0.041 C 
ATOM      5  O   UNL     1       6.853 -11.941   7.650  1.00  0.00    -0.550 OA
ATOM      6  O   UNL     1       4.884 -10.928   7.065  1.00  0.00    -0.550 OA
ENDBRANCH   3   4
ENDBRANCH   2   3
ENDBRANCH   1   2
BRANCH   1   7
ATOM      7  C   UNL     1       4.250 -13.566   2.817  1.00  0.00     0.000 C 
BRANCH   7   8
ATOM      8  C   UNL     1       5.575 -13.321   2.080  1.00  0.00    -0.000 C 
BRANCH   8   9
ATOM      9  C   UNL     1       5.385 -12.581   0.746  1.00  0.00    -0.000 C 
BRANCH   9  10
ATOM     10  C   UNL     1       6.717 -12.263   0.051  1.00  0.00    -0.003 C 
ATOM     11  C   UNL     1       7.873 -13.008   0.712  1.00  0.00     0.004 C 
ENDBRANCH   9  10
ENDBRANCH   8   9
ENDBRANCH   7   8
ENDBRANCH   1   7
TORSDOF 7
ENDMDL
MODEL 3
REMARK VINA RESULT:    -4.159      3.568      5.511
REMARK INTER + INTRA:          -6.163
REMARK INTER:                  -5.659
REMARK INTRA:                  -0.505
REMARK UNBOUND:                -0.302
REMARK SMILES CCCCCCCCC(=O)[O-]
REMARK SMILES IDX 6 1 7 2 8 3 9 4 10 5 11 6 5 7 4 8 3 9 2 10 1 11
REMARK H PARENT
REMARK Flexibility Score: inf
ROOT
ATOM      1  C   UNL     1       6.060 -12.521   6.875  1.00  0.00     0.000 C 
ENDROOT
BRANCH   1   2
ATOM      2  C   UNL     1       5.715 -11.092   7.325  1.00  0.00     0.006 C 
BRANCH   2   3
ATOM      3  C   UNL     1       4.284 -10.686   6.955  1.00  0.00     0.053 C 
BRANCH   3   4
ATOM      4  C   UNL     1       4.294  -9.455   6.104  1.00  0.00     0.041 C 
ATOM      5  O   UNL     1       3.830  -9.489   4.934  1.00  0.00    -0.550 OA
ATOM      6  O   UNL     1       4.863  -8.282   6.584  1.00  0.00    -0.550 OA
ENDBRANCH   3   4
ENDBRANCH   2   3
ENDBRANCH   1   2
BRANCH   1   7
ATOM      7  C   UNL     1       4.814 -13.347   6.522  1.00  0.00     0.000 C 
BRANCH   7   8
ATOM      8  C   UNL     1       4.897 -13.874   5.082  1.00  0.00    -0.000 C 
BRANCH   8   9
ATOM      9  C   UNL     1       4.078 -13.030   4.092  1.00  0.00    -0.000 C 
BRANCH   9  10
ATOM     10  C   UNL     1       2.630 -13.520   3.953  1.00  0.00    -0.003 C 
ATOM     11  C   UNL     1       2.548 -15.037   4.091  1.00  0.00     0.004 C 
ENDBRANCH   9  10
ENDBRANCH   8   9
ENDBRANCH   7   8
ENDBRANCH   1   7
TORSDOF 7
ENDMDL
MODEL 4
REMARK VINA RESULT:    -4.094      5.245      6.727
REMARK INTER + INTRA:          -6.071
REMARK INTER:                  -5.634
REMARK INTRA:                  -0.437
REMARK UNBOUND:                -0.302
REMARK SMILES CCCCCCCCC(=O)[O-]
REMARK SMILES IDX 6 1 7 2 8 3 9 4 10 5 11 6 5 7 4 8 3 9 2 10 1 11
REMARK H PARENT
REMARK Flexibility Score: inf
ROOT
ATOM      1  C   UNL     1       3.899  -9.676   5.516  1.00  0.00     0.000 C 
ENDROOT
BRANCH   1   2
ATOM      2  C   UNL     1       4.621  -8.389   5.947  1.00  0.00     0.006 C 
BRANCH   2   3
ATOM      3  C   UNL     1       3.737  -7.144   5.813  1.00  0.00     0.053 C 
BRANCH   3   4
ATOM      4  C   UNL     1       3.212  -6.729   7.151  1.00  0.00     0.041 C 
ATOM      5  O   UNL     1       2.192  -7.288   7.634  1.00  0.00    -0.550 OA
ATOM      6  O   UNL     1       3.819  -5.690   7.845  1.00  0.00    -0.550 OA
ENDBRANCH   3   4
ENDBRANCH   2   3
ENDBRANCH   1   2
BRANCH   1   7
ATOM      7  C   UNL     1       3.825 -10.719   6.641  1.00  0.00     0.000 C 
BRANCH   7   8
ATOM      8  C   UNL     1       5.215 -10.983   7.237  1.00  0.00    -0.000 C 
BRANCH   8   9
ATOM      9  C   UNL     1       5.858 -12.271   6.698  1.00  0.00    -0.000 C 
BRANCH   9  10
ATOM     10  C   UNL     1       4.835 -13.396   6.481  1.00  0.00    -0.003 C 
ATOM     11  C   UNL     1       4.804 -13.836   5.021  1.00  0.00     0.004 C 
ENDBRANCH   9  10
ENDBRANCH   8   9
ENDBRANCH   7   8
ENDBRANCH   1   7
TORSDOF 7
ENDMDL
MODEL 5
REMARK VINA RESULT:    -4.074      4.713      6.194
REMARK INTER + INTRA:          -6.043
REMARK INTER:                  -5.519
REMARK INTRA:                  -0.525
REMARK UNBOUND:                -0.302
REMARK SMILES CCCCCCCCC(=O)[O-]
REMARK SMILES IDX 6 1 7 2 8 3 9 4 10 5 11 6 5 7 4 8 3 9 2 10 1 11
REMARK H PARENT
REMARK Flexibility Score: inf
ROOT
ATOM      1  C   UNL     1       4.035 -10.813   6.882  1.00  0.00     0.000 C 
ENDROOT
BRANCH   1   2
ATOM      2  C   UNL     1       3.747  -9.793   5.768  1.00  0.00     0.006 C 
BRANCH   2   3
ATOM      3  C   UNL     1       4.431  -8.443   6.014  1.00  0.00     0.053 C 
BRANCH   3   4
ATOM      4  C   UNL     1       3.447  -7.447   6.539  1.00  0.00     0.041 C 
ATOM      5  O   UNL     1       3.824  -6.530   7.316  1.00  0.00    -0.550 OA
ATOM      6  O   UNL     1       2.101  -7.559   6.211  1.00  0.00    -0.550 OA
ENDBRANCH   3   4
ENDBRANCH   2   3
ENDBRANCH   1   2
BRANCH   1   7
ATOM      7  C   UNL     1       5.534 -10.952   7.185  1.00  0.00     0.000 C 
BRANCH   7   8
ATOM      8  C   UNL     1       6.037 -12.360   6.831  1.00  0.00    -0.000 C 
BRANCH   8   9
ATOM      9  C   UNL     1       4.893 -13.346   6.547  1.00  0.00    -0.000 C 
BRANCH   9  10
ATOM     10  C   UNL     1       4.889 -13.844   5.094  1.00  0.00    -0.003 C 
ATOM     11  C   UNL     1       3.501 -13.717   4.473  1.00  0.00     0.004 C 
ENDBRANCH   9  10
ENDBRANCH   8   9
ENDBRANCH   7   8
ENDBRANCH   1   7
TORSDOF 7
ENDMDL
MODEL 6
REMARK VINA RESULT:    -4.024      3.971      5.837
REMARK INTER + INTRA:          -5.973
REMARK INTER:                  -5.611
REMARK INTRA:                  -0.362
REMARK UNBOUND:                -0.302
REMARK SMILES CCCCCCCCC(=O)[O-]
REMARK SMILES IDX 6 1 7 2 8 3 9 4 10 5 11 6 5 7 4 8 3 9 2 10 1 11
REMARK H PARENT
REMARK Flexibility Score: inf
ROOT
ATOM      1  C   UNL     1       4.715 -14.013   4.960  1.00  0.00     0.000 C 
ENDROOT
BRANCH   1   2
ATOM      2  C   UNL     1       5.253 -13.448   6.285  1.00  0.00     0.006 C 
BRANCH   2   3
ATOM      3  C   UNL     1       4.477 -12.212   6.757  1.00  0.00     0.053 C 
BRANCH   3   4
ATOM      4  C   UNL     1       5.422 -11.128   7.167  1.00  0.00     0.041 C 
ATOM      5  O   UNL     1       5.198  -9.933   6.839  1.00  0.00    -0.550 OA
ATOM      6  O   UNL     1       6.580 -11.442   7.869  1.00  0.00    -0.550 OA
ENDBRANCH   3   4
ENDBRANCH   2   3
ENDBRANCH   1   2
BRANCH   1   7
ATOM      7  C   UNL     1       3.688 -13.086   4.294  1.00  0.00     0.000 C 
BRANCH   7   8
ATOM      8  C   UNL     1       2.400 -13.850   3.954  1.00  0.00    -0.000 C 
BRANCH   8   9
ATOM      9  C   UNL     1       2.466 -15.334   4.350  1.00  0.00    -0.000 C 
BRANCH   9  10
ATOM     10  C   UNL     1       1.340 -16.165   3.719  1.00  0.00    -0.003 C 
ATOM     11  C   UNL     1       0.793 -17.190   4.707  1.00  0.00     0.004 C 
ENDBRANCH   9  10
ENDBRANCH   8   9
ENDBRANCH   7   8
ENDBRANCH   1   7
TORSDOF 7
ENDMDL
MODEL 7
REMARK VINA RESULT:    -4.019      3.270      4.622
REMARK INTER + INTRA:          -5.966
REMARK INTER:                  -5.406
REMARK INTRA:                  -0.561
REMARK UNBOUND:                -0.302
REMARK SMILES CCCCCCCCC(=O)[O-]
REMARK SMILES IDX 6 1 7 2 8 3 9 4 10 5 11 6 5 7 4 8 3 9 2 10 1 11
REMARK H PARENT
REMARK Flexibility Score: inf
ROOT
ATOM      1  C   UNL     1       5.879 -12.224   6.503  1.00  0.00     0.000 C 
ENDROOT
BRANCH   1   2
ATOM      2  C   UNL     1       4.891 -13.394   6.369  1.00  0.00     0.006 C 
BRANCH   2   3
ATOM      3  C   UNL     1       4.817 -13.942   4.939  1.00  0.00     0.053 C 
BRANCH   3   4
ATOM      4  C   UNL     1       3.757 -13.228   4.161  1.00  0.00     0.041 C 
ATOM      5  O   UNL     1       4.054 -12.232   3.450  1.00  0.00    -0.550 OA
ATOM      6  O   UNL     1       2.430 -13.630   4.260  1.00  0.00    -0.550 OA
ENDBRANCH   3   4
ENDBRANCH   2   3
ENDBRANCH   1   2
BRANCH   1   7
ATOM      7  C   UNL     1       5.283 -11.029   7.261  1.00  0.00     0.000 C 
BRANCH   7   8
ATOM      8  C   UNL     1       3.807 -10.825   6.889  1.00  0.00    -0.000 C 
BRANCH   8   9
ATOM      9  C   UNL     1       3.603  -9.697   5.865  1.00  0.00    -0.000 C 
BRANCH   9  10
ATOM     10  C   UNL     1       4.529  -8.498   6.114  1.00  0.00    -0.003 C 
ATOM     11  C   UNL     1       3.731  -7.258   6.506  1.00  0.00     0.004 C 
ENDBRANCH   9  10
ENDBRANCH   8   9
ENDBRANCH   7   8
ENDBRANCH   1   7
TORSDOF 7
ENDMDL
MODEL 8
REMARK VINA RESULT:    -3.939      3.985      4.769
REMARK INTER + INTRA:          -5.854
REMARK INTER:                  -5.223
REMARK INTRA:                  -0.631
REMARK UNBOUND:                -0.302
REMARK SMILES CCCCCCCCC(=O)[O-]
REMARK SMILES IDX 6 1 7 2 8 3 9 4 10 5 11 6 5 7 4 8 3 9 2 10 1 11
REMARK H PARENT
REMARK Flexibility Score: inf
ROOT
ATOM      1  C   UNL     1       3.729 -11.649   4.044  1.00  0.00     0.000 C 
ENDROOT
BRANCH   1   2
ATOM      2  C   UNL     1       2.622 -10.661   4.448  1.00  0.00     0.006 C 
BRANCH   2   3
ATOM      3  C   UNL     1       3.160  -9.252   4.724  1.00  0.00     0.053 C 
BRANCH   3   4
ATOM      4  C   UNL     1       3.859  -9.211   6.046  1.00  0.00     0.041 C 
ATOM      5  O   UNL     1       4.949  -8.592   6.168  1.00  0.00    -0.550 OA
ATOM      6  O   UNL     1       3.334  -9.899   7.133  1.00  0.00    -0.550 OA
ENDBRANCH   3   4
ENDBRANCH   2   3
ENDBRANCH   1   2
BRANCH   1   7
ATOM      7  C   UNL     1       3.527 -13.045   4.650  1.00  0.00     0.000 C 
BRANCH   7   8
ATOM      8  C   UNL     1       4.825 -13.556   5.293  1.00  0.00    -0.000 C 
BRANCH   8   9
ATOM      9  C   UNL     1       5.109 -12.908   6.657  1.00  0.00    -0.000 C 
BRANCH   9  10
ATOM     10  C   UNL     1       6.309 -11.951   6.618  1.00  0.00    -0.003 C 
ATOM     11  C   UNL     1       6.765 -11.583   8.027  1.00  0.00     0.004 C 
ENDBRANCH   9  10
ENDBRANCH   8   9
ENDBRANCH   7   8
ENDBRANCH   1   7
TORSDOF 7
ENDMDL
MODEL 9
REMARK VINA RESULT:    -3.936      3.442      5.390
REMARK INTER + INTRA:          -5.850
REMARK INTER:                  -5.270
REMARK INTRA:                  -0.580
REMARK UNBOUND:                -0.302
REMARK SMILES CCCCCCCCC(=O)[O-]
REMARK SMILES IDX 6 1 7 2 8 3 9 4 10 5 11 6 5 7 4 8 3 9 2 10 1 11
REMARK H PARENT
REMARK Flexibility Score: inf
ROOT
ATOM      1  C   UNL     1       4.916 -13.701   4.978  1.00  0.00     0.000 C 
ENDROOT
BRANCH   1   2
ATOM      2  C   UNL     1       5.003 -13.482   6.498  1.00  0.00     0.006 C 
BRANCH   2   3
ATOM      3  C   UNL     1       5.826 -12.242   6.868  1.00  0.00     0.053 C 
BRANCH   3   4
ATOM      4  C   UNL     1       4.950 -11.031   6.920  1.00  0.00     0.041 C 
ATOM      5  O   UNL     1       5.460  -9.879   6.942  1.00  0.00    -0.550 OA
ATOM      6  O   UNL     1       3.570 -11.173   6.996  1.00  0.00    -0.550 OA
ENDBRANCH   3   4
ENDBRANCH   2   3
ENDBRANCH   1   2
BRANCH   1   7
ATOM      7  C   UNL     1       3.564 -14.282   4.540  1.00  0.00     0.000 C 
BRANCH   7   8
ATOM      8  C   UNL     1       2.857 -13.341   3.554  1.00  0.00    -0.000 C 
BRANCH   8   9
ATOM      9  C   UNL     1       3.589 -12.001   3.382  1.00  0.00    -0.000 C 
BRANCH   9  10
ATOM     10  C   UNL     1       3.889 -11.675   1.912  1.00  0.00    -0.003 C 
ATOM     11  C   UNL     1       4.938 -12.625   1.342  1.00  0.00     0.004 C 
ENDBRANCH   9  10
ENDBRANCH   8   9
ENDBRANCH   7   8
ENDBRANCH   1   7
TORSDOF 7
ENDMDL
