MODEL 1
REMARK VINA RESULT:    65.065      0.000      0.000
REMARK INTER + INTRA:          88.860
REMARK INTER:                  85.986
REMARK INTRA:                   2.874
REMARK UNBOUND:                 2.874
REMARK SMILES C=C(CC[C@@H](C)[C@@H]1CC[C@@]2(C)[C@@H]3CC[C@H]4C(C)(C)[C@@H](O)CC[C@]45C[C@]35CC[C@@]12C)C(C)C
REMARK SMILES IDX 4 1 3 2 2 3 1 4 30 5 31 6 32 7 5 8 6 9 7 10 8 11 28 12 9 13
REMARK SMILES IDX 10 14 27 15 29 16 11 17 12 18 26 19 25 20 13 21 23 22 24 23
REMARK SMILES IDX 14 24 15 25 22 26 16 27 21 28 19 29 17 30 18 31 20 32
REMARK H PARENT 20 33
REMARK Flexibility Score: inf
ROOT
ATOM      1  C   UNL     1     -26.455  23.079   7.582  1.00  0.00     0.008 C 
ENDROOT
BRANCH   1   2
ATOM      2  C   UNL     1     -26.325  24.080   6.406  1.00  0.00     0.031 C 
BRANCH   2   3
ATOM      3  C   UNL     1     -26.052  25.500   6.867  1.00  0.00    -0.075 C 
ATOM      4  C   UNL     1     -25.911  25.747   8.183  1.00  0.00     0.008 C 
BRANCH   3   5
ATOM      5  C   UNL     1     -25.838  26.604   5.837  1.00  0.00     0.008 C 
ATOM      6  C   UNL     1     -25.955  28.000   6.463  1.00  0.00     0.012 C 
ATOM      7  C   UNL     1     -24.492  26.435   5.124  1.00  0.00     0.012 C 
ENDBRANCH   3   5
ENDBRANCH   2   3
ENDBRANCH   1   2
BRANCH   1   8
ATOM      8  C   UNL     1     -27.830  23.056   8.311  1.00  0.00    -0.010 C 
ATOM      9  C   UNL     1     -27.986  24.358   9.122  1.00  0.00     0.008 C 
BRANCH   8  10
ATOM     10  C   UNL     1     -29.074  22.786   7.378  1.00  0.00    -0.002 C 
ATOM     11  C   UNL     1     -28.873  23.327   5.967  1.00  0.00     0.005 C 
ATOM     12  C   UNL     1     -30.496  23.326   7.804  1.00  0.00    -0.024 C 
ATOM     13  C   UNL     1     -30.232  23.204   5.322  1.00  0.00     0.008 C 
ATOM     14  C   UNL     1     -31.253  23.611   6.408  1.00  0.00    -0.024 C 
ATOM     15  C   UNL     1     -31.221  22.225   8.652  1.00  0.00     0.008 C 
ATOM     16  C   UNL     1     -30.383  24.605   8.690  1.00  0.00     0.012 C 
ATOM     17  C   UNL     1     -31.583  25.118   6.168  1.00  0.00     0.012 C 
ATOM     18  C   UNL     1     -32.556  22.734   6.263  1.00  0.00     0.002 C 
ATOM     19  C   UNL     1     -32.721  22.482   8.855  1.00  0.00     0.008 C 
ATOM     20  C   UNL     1     -33.432  22.840   7.531  1.00  0.00    -0.020 C 
ATOM     21  C   UNL     1     -33.341  22.916   4.949  1.00  0.00     0.005 C 
ATOM     22  C   UNL     1     -34.959  22.557   7.414  1.00  0.00    -0.020 C 
ATOM     23  C   UNL     1     -34.433  23.994   7.598  1.00  0.00     0.015 C 
ATOM     24  C   UNL     1     -34.528  21.961   4.926  1.00  0.00     0.005 C 
ATOM     25  C   UNL     1     -35.602  22.303   5.996  1.00  0.00     0.004 C 
ATOM     26  C   UNL     1     -35.786  22.158   8.661  1.00  0.00     0.010 C 
ATOM     27  C   UNL     1     -36.769  21.225   6.059  1.00  0.00    -0.006 C 
ATOM     28  C   UNL     1     -36.387  20.745   8.577  1.00  0.00     0.033 C 
ATOM     29  C   UNL     1     -36.461  20.155   7.152  1.00  0.00     0.120 C 
ATOM     30  C   UNL     1     -38.124  21.924   6.358  1.00  0.00     0.014 C 
ATOM     31  C   UNL     1     -36.987  20.483   4.708  1.00  0.00     0.014 C 
BRANCH  29  32
ATOM     32  O   UNL     1     -35.248  19.505   6.856  1.00  0.00    -0.393 OA
ATOM     33  H   UNL     1     -34.521  20.170   6.976  1.00  0.00     0.210 HD
ENDBRANCH  29  32
ENDBRANCH   8  10
ENDBRANCH   1   8
TORSDOF 6
ENDMDL
