MODEL 1
REMARK VINA RESULT:    -5.579      0.000      0.000
REMARK INTER + INTRA:          -6.348
REMARK INTER:                  -6.231
REMARK INTRA:                  -0.117
REMARK UNBOUND:                -0.117
REMARK SMILES COc1cc2ccc(=O)oc2cc1OC
REMARK SMILES IDX 3 1 13 2 12 3 11 4 5 5 4 6 6 7 7 8 8 9 9 10 10 11 2 12 1 13
REMARK SMILES IDX 14 14 15 15
REMARK H PARENT
REMARK Flexibility Score: inf
ROOT
ATOM      1  C   UNL     1      71.922  47.398   6.960  1.00  0.00     0.161 A 
ATOM      2  C   UNL     1      72.644  46.781   5.923  1.00  0.00     0.164 A 
ATOM      3  C   UNL     1      72.465  47.212   4.594  1.00  0.00     0.098 A 
ATOM      4  C   UNL     1      71.574  48.247   4.299  1.00  0.00     0.142 A 
ATOM      5  C   UNL     1      70.849  48.865   5.338  1.00  0.00     0.022 A 
ATOM      6  C   UNL     1      71.023  48.441   6.661  1.00  0.00     0.062 A 
ATOM      7  C   UNL     1      69.965  49.898   5.011  1.00  0.00     0.019 A 
ATOM      8  C   UNL     1      69.826  50.285   3.678  1.00  0.00     0.094 A 
ATOM      9  C   UNL     1      70.578  49.625   2.701  1.00  0.00     0.336 A 
ATOM     10  O   UNL     1      70.468  49.959   1.492  1.00  0.00    -0.246 OA
ATOM     11  O   UNL     1      71.412  48.646   3.040  1.00  0.00    -0.423 OA
ENDROOT
BRANCH   1  12
ATOM     12  O   UNL     1      72.125  46.943   8.272  1.00  0.00    -0.493 OA
ATOM     13  C   UNL     1      72.683  47.727   9.321  1.00  0.00     0.278 C 
ENDBRANCH   1  12
BRANCH   2  14
ATOM     14  O   UNL     1      73.531  45.745   6.256  1.00  0.00    -0.493 OA
ATOM     15  C   UNL     1      74.373  45.072   5.324  1.00  0.00     0.278 C 
ENDBRANCH   2  14
TORSDOF 2
ENDMDL
MODEL 2
REMARK VINA RESULT:    -5.395      1.809      3.437
REMARK INTER + INTRA:          -6.142
REMARK INTER:                  -6.015
REMARK INTRA:                  -0.127
REMARK UNBOUND:                -0.117
REMARK SMILES COc1cc2ccc(=O)oc2cc1OC
REMARK SMILES IDX 3 1 13 2 12 3 11 4 5 5 4 6 6 7 7 8 8 9 9 10 10 11 2 12 1 13
REMARK SMILES IDX 14 14 15 15
REMARK H PARENT
REMARK Flexibility Score: inf
ROOT
ATOM      1  C   UNL     1      71.330  48.186   8.090  1.00  0.00     0.161 A 
ATOM      2  C   UNL     1      70.265  49.100   8.009  1.00  0.00     0.164 A 
ATOM      3  C   UNL     1      69.867  49.601   6.754  1.00  0.00     0.098 A 
ATOM      4  C   UNL     1      70.525  49.196   5.589  1.00  0.00     0.142 A 
ATOM      5  C   UNL     1      71.594  48.281   5.670  1.00  0.00     0.022 A 
ATOM      6  C   UNL     1      71.993  47.779   6.915  1.00  0.00     0.062 A 
ATOM      7  C   UNL     1      72.232  47.895   4.487  1.00  0.00     0.019 A 
ATOM      8  C   UNL     1      71.798  48.421   3.272  1.00  0.00     0.094 A 
ATOM      9  C   UNL     1      70.732  49.326   3.268  1.00  0.00     0.336 A 
ATOM     10  O   UNL     1      70.324  49.813   2.182  1.00  0.00    -0.246 OA
ATOM     11  O   UNL     1      70.142  49.675   4.408  1.00  0.00    -0.423 OA
ENDROOT
BRANCH   1  12
ATOM     12  O   UNL     1      71.699  47.708   9.358  1.00  0.00    -0.493 OA
ATOM     13  C   UNL     1      72.792  48.207  10.121  1.00  0.00     0.278 C 
ENDBRANCH   1  12
BRANCH   2  14
ATOM     14  O   UNL     1      69.627  49.485   9.199  1.00  0.00    -0.493 OA
ATOM     15  C   UNL     1      68.227  49.365   9.439  1.00  0.00     0.278 C 
ENDBRANCH   2  14
TORSDOF 2
ENDMDL
MODEL 3
REMARK VINA RESULT:    -5.186      2.262      4.810
REMARK INTER + INTRA:          -5.909
REMARK INTER:                  -5.794
REMARK INTRA:                  -0.115
REMARK UNBOUND:                -0.117
REMARK SMILES COc1cc2ccc(=O)oc2cc1OC
REMARK SMILES IDX 3 1 13 2 12 3 11 4 5 5 4 6 6 7 7 8 8 9 9 10 10 11 2 12 1 13
REMARK SMILES IDX 14 14 15 15
REMARK H PARENT
REMARK Flexibility Score: inf
ROOT
ATOM      1  C   UNL     1      72.272  48.057   5.495  1.00  0.00     0.161 A 
ATOM      2  C   UNL     1      71.126  48.579   4.868  1.00  0.00     0.164 A 
ATOM      3  C   UNL     1      70.044  49.028   5.651  1.00  0.00     0.098 A 
ATOM      4  C   UNL     1      70.101  48.957   7.045  1.00  0.00     0.142 A 
ATOM      5  C   UNL     1      71.249  48.434   7.674  1.00  0.00     0.022 A 
ATOM      6  C   UNL     1      72.328  47.986   6.901  1.00  0.00     0.062 A 
ATOM      7  C   UNL     1      71.276  48.376   9.071  1.00  0.00     0.019 A 
ATOM      8  C   UNL     1      70.178  48.834   9.796  1.00  0.00     0.094 A 
ATOM      9  C   UNL     1      69.073  49.340   9.104  1.00  0.00     0.336 A 
ATOM     10  O   UNL     1      68.071  49.759   9.740  1.00  0.00    -0.246 OA
ATOM     11  O   UNL     1      69.074  49.383   7.775  1.00  0.00    -0.423 OA
ENDROOT
BRANCH   1  12
ATOM     12  O   UNL     1      73.331  47.619   4.684  1.00  0.00    -0.493 OA
ATOM     13  C   UNL     1      73.977  46.357   4.812  1.00  0.00     0.278 C 
ENDBRANCH   1  12
BRANCH   2  14
ATOM     14  O   UNL     1      71.104  48.635   3.466  1.00  0.00    -0.493 OA
ATOM     15  C   UNL     1      70.556  49.711   2.710  1.00  0.00     0.278 C 
ENDBRANCH   2  14
TORSDOF 2
ENDMDL
MODEL 4
REMARK VINA RESULT:    -4.981      1.476      4.676
REMARK INTER + INTRA:          -5.680
REMARK INTER:                  -5.563
REMARK INTRA:                  -0.117
REMARK UNBOUND:                -0.117
REMARK SMILES COc1cc2ccc(=O)oc2cc1OC
REMARK SMILES IDX 3 1 13 2 12 3 11 4 5 5 4 6 6 7 7 8 8 9 9 10 10 11 2 12 1 13
REMARK SMILES IDX 14 14 15 15
REMARK H PARENT
REMARK Flexibility Score: inf
ROOT
ATOM      1  C   UNL     1      71.040  48.550   4.057  1.00  0.00     0.161 A 
ATOM      2  C   UNL     1      71.879  47.460   4.350  1.00  0.00     0.164 A 
ATOM      3  C   UNL     1      72.301  47.238   5.676  1.00  0.00     0.098 A 
ATOM      4  C   UNL     1      71.894  48.095   6.701  1.00  0.00     0.142 A 
ATOM      5  C   UNL     1      71.053  49.189   6.408  1.00  0.00     0.022 A 
ATOM      6  C   UNL     1      70.630  49.413   5.093  1.00  0.00     0.062 A 
ATOM      7  C   UNL     1      70.662  50.028   7.456  1.00  0.00     0.019 A 
ATOM      8  C   UNL     1      71.110  49.763   8.750  1.00  0.00     0.094 A 
ATOM      9  C   UNL     1      71.942  48.660   8.965  1.00  0.00     0.336 A 
ATOM     10  O   UNL     1      72.357  48.403  10.125  1.00  0.00    -0.246 OA
ATOM     11  O   UNL     1      72.298  47.878   7.950  1.00  0.00    -0.423 OA
ENDROOT
BRANCH   1  12
ATOM     12  O   UNL     1      70.639  48.740   2.726  1.00  0.00    -0.493 OA
ATOM     13  C   UNL     1      70.261  49.994   2.168  1.00  0.00     0.278 C 
ENDBRANCH   1  12
BRANCH   2  14
ATOM     14  O   UNL     1      72.269  46.619   3.295  1.00  0.00    -0.493 OA
ATOM     15  C   UNL     1      71.951  45.233   3.208  1.00  0.00     0.278 C 
ENDBRANCH   2  14
TORSDOF 2
ENDMDL
MODEL 5
REMARK VINA RESULT:    -4.724      1.632      5.292
REMARK INTER + INTRA:          -5.393
REMARK INTER:                  -5.291
REMARK INTRA:                  -0.102
REMARK UNBOUND:                -0.117
REMARK SMILES COc1cc2ccc(=O)oc2cc1OC
REMARK SMILES IDX 3 1 13 2 12 3 11 4 5 5 4 6 6 7 7 8 8 9 9 10 10 11 2 12 1 13
REMARK SMILES IDX 14 14 15 15
REMARK H PARENT
REMARK Flexibility Score: inf
ROOT
ATOM      1  C   UNL     1      70.653  48.924   5.326  1.00  0.00     0.161 A 
ATOM      2  C   UNL     1      70.353  48.528   6.641  1.00  0.00     0.164 A 
ATOM      3  C   UNL     1      71.092  47.493   7.246  1.00  0.00     0.098 A 
ATOM      4  C   UNL     1      72.121  46.856   6.547  1.00  0.00     0.142 A 
ATOM      5  C   UNL     1      72.422  47.252   5.228  1.00  0.00     0.022 A 
ATOM      6  C   UNL     1      71.691  48.280   4.622  1.00  0.00     0.062 A 
ATOM      7  C   UNL     1      73.457  46.595   4.554  1.00  0.00     0.019 A 
ATOM      8  C   UNL     1      74.156  45.577   5.200  1.00  0.00     0.094 A 
ATOM      9  C   UNL     1      73.802  45.237   6.510  1.00  0.00     0.336 A 
ATOM     10  O   UNL     1      74.420  44.321   7.111  1.00  0.00    -0.246 OA
ATOM     11  O   UNL     1      72.813  45.878   7.127  1.00  0.00    -0.423 OA
ENDROOT
BRANCH   1  12
ATOM     12  O   UNL     1      69.896  49.959   4.755  1.00  0.00    -0.493 OA
ATOM     13  C   UNL     1      69.944  50.332   3.382  1.00  0.00     0.278 C 
ENDBRANCH   1  12
BRANCH   2  14
ATOM     14  O   UNL     1      69.314  49.190   7.313  1.00  0.00    -0.493 OA
ATOM     15  C   UNL     1      69.127  49.175   8.726  1.00  0.00     0.278 C 
ENDBRANCH   2  14
TORSDOF 2
ENDMDL
MODEL 6
REMARK VINA RESULT:    -4.564      1.725      5.124
REMARK INTER + INTRA:          -5.215
REMARK INTER:                  -5.107
REMARK INTRA:                  -0.108
REMARK UNBOUND:                -0.117
REMARK SMILES COc1cc2ccc(=O)oc2cc1OC
REMARK SMILES IDX 3 1 13 2 12 3 11 4 5 5 4 6 6 7 7 8 8 9 9 10 10 11 2 12 1 13
REMARK SMILES IDX 14 14 15 15
REMARK H PARENT
REMARK Flexibility Score: inf
ROOT
ATOM      1  C   UNL     1      71.758  48.241   4.421  1.00  0.00     0.161 A 
ATOM      2  C   UNL     1      71.954  46.949   3.902  1.00  0.00     0.164 A 
ATOM      3  C   UNL     1      72.679  45.998   4.648  1.00  0.00     0.098 A 
ATOM      4  C   UNL     1      73.206  46.332   5.898  1.00  0.00     0.142 A 
ATOM      5  C   UNL     1      73.011  47.627   6.418  1.00  0.00     0.022 A 
ATOM      6  C   UNL     1      72.290  48.576   5.682  1.00  0.00     0.062 A 
ATOM      7  C   UNL     1      73.551  47.931   7.672  1.00  0.00     0.019 A 
ATOM      8  C   UNL     1      74.260  46.952   8.367  1.00  0.00     0.094 A 
ATOM      9  C   UNL     1      74.414  45.688   7.788  1.00  0.00     0.336 A 
ATOM     10  O   UNL     1      75.051  44.791   8.399  1.00  0.00    -0.246 OA
ATOM     11  O   UNL     1      73.890  45.427   6.594  1.00  0.00    -0.423 OA
ENDROOT
BRANCH   1  12
ATOM     12  O   UNL     1      71.030  49.162   3.651  1.00  0.00    -0.493 OA
ATOM     13  C   UNL     1      70.025  50.029   4.166  1.00  0.00     0.278 C 
ENDBRANCH   1  12
BRANCH   2  14
ATOM     14  O   UNL     1      71.410  46.649   2.644  1.00  0.00    -0.493 OA
ATOM     15  C   UNL     1      71.356  45.342   2.078  1.00  0.00     0.278 C 
ENDBRANCH   2  14
TORSDOF 2
ENDMDL
MODEL 7
REMARK VINA RESULT:    -4.553      3.259      5.136
REMARK INTER + INTRA:          -5.202
REMARK INTER:                  -5.070
REMARK INTRA:                  -0.131
REMARK UNBOUND:                -0.117
REMARK SMILES COc1cc2ccc(=O)oc2cc1OC
REMARK SMILES IDX 3 1 13 2 12 3 11 4 5 5 4 6 6 7 7 8 8 9 9 10 10 11 2 12 1 13
REMARK SMILES IDX 14 14 15 15
REMARK H PARENT
REMARK Flexibility Score: inf
ROOT
ATOM      1  C   UNL     1      68.826  48.795   9.254  1.00  0.00     0.161 A 
ATOM      2  C   UNL     1      68.603  47.831   8.255  1.00  0.00     0.164 A 
ATOM      3  C   UNL     1      69.661  47.444   7.409  1.00  0.00     0.098 A 
ATOM      4  C   UNL     1      70.929  48.013   7.555  1.00  0.00     0.142 A 
ATOM      5  C   UNL     1      71.152  48.980   8.555  1.00  0.00     0.022 A 
ATOM      6  C   UNL     1      70.105  49.368   9.400  1.00  0.00     0.062 A 
ATOM      7  C   UNL     1      72.432  49.531   8.676  1.00  0.00     0.019 A 
ATOM      8  C   UNL     1      73.442  49.111   7.812  1.00  0.00     0.094 A 
ATOM      9  C   UNL     1      73.147  48.148   6.842  1.00  0.00     0.336 A 
ATOM     10  O   UNL     1      74.045  47.756   6.052  1.00  0.00    -0.246 OA
ATOM     11  O   UNL     1      71.921  47.641   6.750  1.00  0.00    -0.423 OA
ENDROOT
BRANCH   1  12
ATOM     12  O   UNL     1      67.749  49.157  10.079  1.00  0.00    -0.493 OA
ATOM     13  C   UNL     1      67.141  50.444  10.095  1.00  0.00     0.278 C 
ENDBRANCH   1  12
BRANCH   2  14
ATOM     14  O   UNL     1      67.317  47.281   8.137  1.00  0.00    -0.493 OA
ATOM     15  C   UNL     1      66.562  47.244   6.930  1.00  0.00     0.278 C 
ENDBRANCH   2  14
TORSDOF 2
ENDMDL
MODEL 8
REMARK VINA RESULT:    -4.518      2.255      5.761
REMARK INTER + INTRA:          -5.163
REMARK INTER:                  -5.056
REMARK INTRA:                  -0.107
REMARK UNBOUND:                -0.117
REMARK SMILES COc1cc2ccc(=O)oc2cc1OC
REMARK SMILES IDX 3 1 13 2 12 3 11 4 5 5 4 6 6 7 7 8 8 9 9 10 10 11 2 12 1 13
REMARK SMILES IDX 14 14 15 15
REMARK H PARENT
REMARK Flexibility Score: inf
ROOT
ATOM      1  C   UNL     1      70.264  48.657   6.294  1.00  0.00     0.161 A 
ATOM      2  C   UNL     1      69.574  47.947   7.293  1.00  0.00     0.164 A 
ATOM      3  C   UNL     1      70.297  47.237   8.272  1.00  0.00     0.098 A 
ATOM      4  C   UNL     1      71.694  47.233   8.257  1.00  0.00     0.142 A 
ATOM      5  C   UNL     1      72.386  47.944   7.255  1.00  0.00     0.022 A 
ATOM      6  C   UNL     1      71.673  48.652   6.280  1.00  0.00     0.062 A 
ATOM      7  C   UNL     1      73.784  47.921   7.267  1.00  0.00     0.019 A 
ATOM      8  C   UNL     1      74.449  47.202   8.259  1.00  0.00     0.094 A 
ATOM      9  C   UNL     1      73.696  46.520   9.220  1.00  0.00     0.336 A 
ATOM     10  O   UNL     1      74.277  45.865  10.125  1.00  0.00    -0.246 OA
ATOM     11  O   UNL     1      72.367  46.560   9.186  1.00  0.00    -0.423 OA
ENDROOT
BRANCH   1  12
ATOM     12  O   UNL     1      69.512  49.353   5.335  1.00  0.00    -0.493 OA
ATOM     13  C   UNL     1      70.055  49.952   4.163  1.00  0.00     0.278 C 
ENDBRANCH   1  12
BRANCH   2  14
ATOM     14  O   UNL     1      68.171  47.973   7.278  1.00  0.00    -0.493 OA
ATOM     15  C   UNL     1      67.340  46.837   7.498  1.00  0.00     0.278 C 
ENDBRANCH   2  14
TORSDOF 2
ENDMDL
MODEL 9
REMARK VINA RESULT:    -4.518      2.610      3.644
REMARK INTER + INTRA:          -5.163
REMARK INTER:                  -5.058
REMARK INTRA:                  -0.105
REMARK UNBOUND:                -0.117
REMARK SMILES COc1cc2ccc(=O)oc2cc1OC
REMARK SMILES IDX 3 1 13 2 12 3 11 4 5 5 4 6 6 7 7 8 8 9 9 10 10 11 2 12 1 13
REMARK SMILES IDX 14 14 15 15
REMARK H PARENT
REMARK Flexibility Score: inf
ROOT
ATOM      1  C   UNL     1      69.116  47.977   8.890  1.00  0.00     0.161 A 
ATOM      2  C   UNL     1      70.138  47.013   8.932  1.00  0.00     0.164 A 
ATOM      3  C   UNL     1      71.016  46.876   7.838  1.00  0.00     0.098 A 
ATOM      4  C   UNL     1      70.876  47.691   6.712  1.00  0.00     0.142 A 
ATOM      5  C   UNL     1      69.850  48.657   6.670  1.00  0.00     0.022 A 
ATOM      6  C   UNL     1      68.976  48.798   7.754  1.00  0.00     0.062 A 
ATOM      7  C   UNL     1      69.736  49.458   5.528  1.00  0.00     0.019 A 
ATOM      8  C   UNL     1      70.631  49.280   4.475  1.00  0.00     0.094 A 
ATOM      9  C   UNL     1      71.623  48.301   4.587  1.00  0.00     0.336 A 
ATOM     10  O   UNL     1      72.441  48.124   3.647  1.00  0.00    -0.246 OA
ATOM     11  O   UNL     1      71.709  47.554   5.684  1.00  0.00    -0.423 OA
ENDROOT
BRANCH   1  12
ATOM     12  O   UNL     1      68.261  48.085   9.998  1.00  0.00    -0.493 OA
ATOM     13  C   UNL     1      67.010  48.765   9.988  1.00  0.00     0.278 C 
ENDBRANCH   1  12
BRANCH   2  14
ATOM     14  O   UNL     1      70.250  46.211  10.079  1.00  0.00    -0.493 OA
ATOM     15  C   UNL     1      70.688  44.856  10.078  1.00  0.00     0.278 C 
ENDBRANCH   2  14
TORSDOF 2
ENDMDL
