MODEL 1
REMARK VINA RESULT:    -4.539      0.000      0.000
REMARK INTER + INTRA:          -8.899
REMARK INTER:                  -7.988
REMARK INTRA:                  -0.911
REMARK UNBOUND:                -0.911
REMARK SMILES CCCCCCCCCCCCCCC(=O)[O-]
REMARK SMILES IDX 9 1 10 2 11 3 12 4 13 5 14 6 15 7 16 8 17 9 8 10 7 11 6 12
REMARK SMILES IDX 5 13 4 14 3 15 2 16 1 17
REMARK H PARENT
REMARK Flexibility Score: inf
ROOT
ATOM      1  C   UNL     1      43.723  26.898   1.530  1.00  0.00     0.000 C 
ENDROOT
BRANCH   1   2
ATOM      2  C   UNL     1      42.468  27.762   1.715  1.00  0.00     0.000 C 
BRANCH   2   3
ATOM      3  C   UNL     1      42.507  29.063   0.893  1.00  0.00     0.000 C 
BRANCH   3   4
ATOM      4  C   UNL     1      43.445  29.034  -0.327  1.00  0.00     0.000 C 
BRANCH   4   5
ATOM      5  C   UNL     1      42.722  28.665  -1.631  1.00  0.00     0.006 C 
BRANCH   5   6
ATOM      6  C   UNL     1      43.716  28.188  -2.693  1.00  0.00     0.053 C 
BRANCH   6   7
ATOM      7  C   UNL     1      44.524  27.040  -2.177  1.00  0.00     0.041 C 
ATOM      8  O   UNL     1      45.776  27.138  -2.080  1.00  0.00    -0.550 OA
ATOM      9  O   UNL     1      43.889  25.878  -1.756  1.00  0.00    -0.550 OA
ENDBRANCH   6   7
ENDBRANCH   5   6
ENDBRANCH   4   5
ENDBRANCH   3   4
ENDBRANCH   2   3
ENDBRANCH   1   2
BRANCH   1  10
ATOM     10  C   UNL     1      44.671  27.041   2.727  1.00  0.00     0.000 C 
BRANCH  10  11
ATOM     11  C   UNL     1      45.010  25.668   3.327  1.00  0.00    -0.000 C 
BRANCH  11  12
ATOM     12  C   UNL     1      46.119  25.742   4.389  1.00  0.00    -0.000 C 
BRANCH  12  13
ATOM     13  C   UNL     1      46.457  27.188   4.791  1.00  0.00    -0.000 C 
BRANCH  13  14
ATOM     14  C   UNL     1      46.062  27.503   6.244  1.00  0.00    -0.000 C 
BRANCH  14  15
ATOM     15  C   UNL     1      46.043  26.251   7.138  1.00  0.00    -0.000 C 
BRANCH  15  16
ATOM     16  C   UNL     1      45.370  26.509   8.496  1.00  0.00    -0.003 C 
ATOM     17  C   UNL     1      45.198  27.998   8.795  1.00  0.00     0.004 C 
ENDBRANCH  15  16
ENDBRANCH  14  15
ENDBRANCH  13  14
ENDBRANCH  12  13
ENDBRANCH  11  12
ENDBRANCH  10  11
ENDBRANCH   1  10
TORSDOF 13
ENDMDL
MODEL 2
REMARK VINA RESULT:    -4.310      2.667      3.863
REMARK INTER + INTRA:          -8.497
REMARK INTER:                  -6.398
REMARK INTRA:                  -2.099
REMARK UNBOUND:                -0.911
REMARK SMILES CCCCCCCCCCCCCCC(=O)[O-]
REMARK SMILES IDX 9 1 10 2 11 3 12 4 13 5 14 6 15 7 16 8 17 9 8 10 7 11 6 12
REMARK SMILES IDX 5 13 4 14 3 15 2 16 1 17
REMARK H PARENT
REMARK Flexibility Score: inf
ROOT
ATOM      1  C   UNL     1      42.492  27.571   1.459  1.00  0.00     0.000 C 
ENDROOT
BRANCH   1   2
ATOM      2  C   UNL     1      42.649  27.092   0.009  1.00  0.00     0.000 C 
BRANCH   2   3
ATOM      3  C   UNL     1      44.106  27.140  -0.485  1.00  0.00     0.000 C 
BRANCH   3   4
ATOM      4  C   UNL     1      44.389  28.186  -1.577  1.00  0.00     0.000 C 
BRANCH   4   5
ATOM      5  C   UNL     1      43.118  28.666  -2.293  1.00  0.00     0.006 C 
BRANCH   5   6
ATOM      6  C   UNL     1      43.371  28.854  -3.792  1.00  0.00     0.053 C 
BRANCH   6   7
ATOM      7  C   UNL     1      42.781  27.719  -4.568  1.00  0.00     0.041 C 
ATOM      8  O   UNL     1      41.753  27.899  -5.272  1.00  0.00    -0.550 OA
ATOM      9  O   UNL     1      43.396  26.473  -4.553  1.00  0.00    -0.550 OA
ENDBRANCH   6   7
ENDBRANCH   5   6
ENDBRANCH   4   5
ENDBRANCH   3   4
ENDBRANCH   2   3
ENDBRANCH   1   2
BRANCH   1  10
ATOM     10  C   UNL     1      41.873  28.974   1.512  1.00  0.00     0.000 C 
BRANCH  10  11
ATOM     11  C   UNL     1      42.959  30.057   1.420  1.00  0.00    -0.000 C 
BRANCH  11  12
ATOM     12  C   UNL     1      44.141  29.793   2.365  1.00  0.00    -0.000 C 
BRANCH  12  13
ATOM     13  C   UNL     1      45.498  29.840   1.642  1.00  0.00    -0.000 C 
BRANCH  13  14
ATOM     14  C   UNL     1      46.457  28.735   2.114  1.00  0.00    -0.000 C 
BRANCH  14  15
ATOM     15  C   UNL     1      45.786  27.739   3.076  1.00  0.00    -0.000 C 
BRANCH  15  16
ATOM     16  C   UNL     1      45.891  26.286   2.586  1.00  0.00    -0.003 C 
ATOM     17  C   UNL     1      45.239  25.291   3.546  1.00  0.00     0.004 C 
ENDBRANCH  15  16
ENDBRANCH  14  15
ENDBRANCH  13  14
ENDBRANCH  12  13
ENDBRANCH  11  12
ENDBRANCH  10  11
ENDBRANCH   1  10
TORSDOF 13
ENDMDL
MODEL 3
REMARK VINA RESULT:    -4.251      1.811      2.988
REMARK INTER + INTRA:          -8.394
REMARK INTER:                  -7.011
REMARK INTRA:                  -1.383
REMARK UNBOUND:                -0.911
REMARK SMILES CCCCCCCCCCCCCCC(=O)[O-]
REMARK SMILES IDX 9 1 10 2 11 3 12 4 13 5 14 6 15 7 16 8 17 9 8 10 7 11 6 12
REMARK SMILES IDX 5 13 4 14 3 15 2 16 1 17
REMARK H PARENT
REMARK Flexibility Score: inf
ROOT
ATOM      1  C   UNL     1      42.308  28.264   1.640  1.00  0.00     0.000 C 
ENDROOT
BRANCH   1   2
ATOM      2  C   UNL     1      42.463  27.350   0.417  1.00  0.00     0.000 C 
BRANCH   2   3
ATOM      3  C   UNL     1      42.961  28.098  -0.833  1.00  0.00     0.000 C 
BRANCH   3   4
ATOM      4  C   UNL     1      44.086  27.391  -1.609  1.00  0.00     0.000 C 
BRANCH   4   5
ATOM      5  C   UNL     1      44.451  28.105  -2.919  1.00  0.00     0.006 C 
BRANCH   5   6
ATOM      6  C   UNL     1      43.201  28.662  -3.607  1.00  0.00     0.053 C 
BRANCH   6   7
ATOM      7  C   UNL     1      42.702  27.703  -4.641  1.00  0.00     0.041 C 
ATOM      8  O   UNL     1      41.802  28.054  -5.449  1.00  0.00    -0.550 OA
ATOM      9  O   UNL     1      43.267  26.438  -4.746  1.00  0.00    -0.550 OA
ENDBRANCH   6   7
ENDBRANCH   5   6
ENDBRANCH   4   5
ENDBRANCH   3   4
ENDBRANCH   2   3
ENDBRANCH   1   2
BRANCH   1  10
ATOM     10  C   UNL     1      43.433  29.305   1.695  1.00  0.00     0.000 C 
BRANCH  10  11
ATOM     11  C   UNL     1      44.607  28.801   2.549  1.00  0.00    -0.000 C 
BRANCH  11  12
ATOM     12  C   UNL     1      45.726  28.170   1.705  1.00  0.00    -0.000 C 
BRANCH  12  13
ATOM     13  C   UNL     1      46.100  26.756   2.182  1.00  0.00    -0.000 C 
BRANCH  13  14
ATOM     14  C   UNL     1      44.924  26.030   2.856  1.00  0.00    -0.000 C 
BRANCH  14  15
ATOM     15  C   UNL     1      45.265  25.536   4.272  1.00  0.00    -0.000 C 
BRANCH  15  16
ATOM     16  C   UNL     1      46.062  26.572   5.080  1.00  0.00    -0.003 C 
ATOM     17  C   UNL     1      45.987  26.329   6.588  1.00  0.00     0.004 C 
ENDBRANCH  15  16
ENDBRANCH  14  15
ENDBRANCH  13  14
ENDBRANCH  12  13
ENDBRANCH  11  12
ENDBRANCH  10  11
ENDBRANCH   1  10
TORSDOF 13
ENDMDL
MODEL 4
REMARK VINA RESULT:    -4.241      1.885      2.162
REMARK INTER + INTRA:          -8.375
REMARK INTER:                  -7.671
REMARK INTRA:                  -0.703
REMARK UNBOUND:                -0.911
REMARK SMILES CCCCCCCCCCCCCCC(=O)[O-]
REMARK SMILES IDX 9 1 10 2 11 3 12 4 13 5 14 6 15 7 16 8 17 9 8 10 7 11 6 12
REMARK SMILES IDX 5 13 4 14 3 15 2 16 1 17
REMARK H PARENT
REMARK Flexibility Score: inf
ROOT
ATOM      1  C   UNL     1      42.810  27.592   1.849  1.00  0.00     0.000 C 
ENDROOT
BRANCH   1   2
ATOM      2  C   UNL     1      42.612  27.161   0.390  1.00  0.00     0.000 C 
BRANCH   2   3
ATOM      3  C   UNL     1      43.388  28.042  -0.607  1.00  0.00     0.000 C 
BRANCH   3   4
ATOM      4  C   UNL     1      44.280  27.273  -1.598  1.00  0.00     0.000 C 
BRANCH   4   5
ATOM      5  C   UNL     1      44.198  27.821  -3.030  1.00  0.00     0.006 C 
BRANCH   5   6
ATOM      6  C   UNL     1      43.714  26.742  -4.003  1.00  0.00     0.053 C 
BRANCH   6   7
ATOM      7  C   UNL     1      42.961  27.360  -5.138  1.00  0.00     0.041 C 
ATOM      8  O   UNL     1      43.364  27.211  -6.322  1.00  0.00    -0.550 OA
ATOM      9  O   UNL     1      41.785  28.060  -4.893  1.00  0.00    -0.550 OA
ENDBRANCH   6   7
ENDBRANCH   5   6
ENDBRANCH   4   5
ENDBRANCH   3   4
ENDBRANCH   2   3
ENDBRANCH   1   2
BRANCH   1  10
ATOM     10  C   UNL     1      44.279  27.455   2.270  1.00  0.00     0.000 C 
BRANCH  10  11
ATOM     11  C   UNL     1      44.642  25.985   2.531  1.00  0.00    -0.000 C 
BRANCH  11  12
ATOM     12  C   UNL     1      45.295  25.771   3.905  1.00  0.00    -0.000 C 
BRANCH  12  13
ATOM     13  C   UNL     1      46.220  26.933   4.308  1.00  0.00    -0.000 C 
BRANCH  13  14
ATOM     14  C   UNL     1      45.959  27.425   5.741  1.00  0.00    -0.000 C 
BRANCH  14  15
ATOM     15  C   UNL     1      46.081  26.302   6.786  1.00  0.00    -0.000 C 
BRANCH  15  16
ATOM     16  C   UNL     1      45.555  26.724   8.167  1.00  0.00    -0.003 C 
ATOM     17  C   UNL     1      45.215  28.212   8.239  1.00  0.00     0.004 C 
ENDBRANCH  15  16
ENDBRANCH  14  15
ENDBRANCH  13  14
ENDBRANCH  12  13
ENDBRANCH  11  12
ENDBRANCH  10  11
ENDBRANCH   1  10
TORSDOF 13
ENDMDL
MODEL 5
REMARK VINA RESULT:    -4.237      1.386      3.290
REMARK INTER + INTRA:          -8.368
REMARK INTER:                  -7.033
REMARK INTRA:                  -1.335
REMARK UNBOUND:                -0.911
REMARK SMILES CCCCCCCCCCCCCCC(=O)[O-]
REMARK SMILES IDX 9 1 10 2 11 3 12 4 13 5 14 6 15 7 16 8 17 9 8 10 7 11 6 12
REMARK SMILES IDX 5 13 4 14 3 15 2 16 1 17
REMARK H PARENT
REMARK Flexibility Score: inf
ROOT
ATOM      1  C   UNL     1      45.734  26.561   5.104  1.00  0.00     0.000 C 
ENDROOT
BRANCH   1   2
ATOM      2  C   UNL     1      45.585  25.603   3.914  1.00  0.00     0.000 C 
BRANCH   2   3
ATOM      3  C   UNL     1      44.488  26.038   2.925  1.00  0.00     0.000 C 
BRANCH   3   4
ATOM      4  C   UNL     1      44.719  27.405   2.257  1.00  0.00     0.000 C 
BRANCH   4   5
ATOM      5  C   UNL     1      43.487  27.918   1.498  1.00  0.00     0.006 C 
BRANCH   5   6
ATOM      6  C   UNL     1      43.054  26.921   0.418  1.00  0.00     0.053 C 
BRANCH   6   7
ATOM      7  C   UNL     1      43.890  27.087  -0.812  1.00  0.00     0.041 C 
ATOM      8  O   UNL     1      44.061  26.117  -1.597  1.00  0.00    -0.550 OA
ATOM      9  O   UNL     1      44.440  28.326  -1.116  1.00  0.00    -0.550 OA
ENDBRANCH   6   7
ENDBRANCH   5   6
ENDBRANCH   4   5
ENDBRANCH   3   4
ENDBRANCH   2   3
ENDBRANCH   1   2
BRANCH   1  10
ATOM     10  C   UNL     1      47.125  27.208   5.119  1.00  0.00     0.000 C 
BRANCH  10  11
ATOM     11  C   UNL     1      47.099  28.550   5.867  1.00  0.00    -0.000 C 
BRANCH  11  12
ATOM     12  C   UNL     1      45.672  29.060   6.122  1.00  0.00    -0.000 C 
BRANCH  12  13
ATOM     13  C   UNL     1      45.530  29.763   7.483  1.00  0.00    -0.000 C 
BRANCH  13  14
ATOM     14  C   UNL     1      44.865  28.868   8.543  1.00  0.00    -0.000 C 
BRANCH  14  15
ATOM     15  C   UNL     1      45.840  27.843   9.150  1.00  0.00    -0.000 C 
BRANCH  15  16
ATOM     16  C   UNL     1      45.514  26.401   8.730  1.00  0.00    -0.003 C 
ATOM     17  C   UNL     1      46.668  25.435   8.996  1.00  0.00     0.004 C 
ENDBRANCH  15  16
ENDBRANCH  14  15
ENDBRANCH  13  14
ENDBRANCH  12  13
ENDBRANCH  11  12
ENDBRANCH  10  11
ENDBRANCH   1  10
TORSDOF 13
ENDMDL
MODEL 6
REMARK VINA RESULT:    -4.179      4.013      7.762
REMARK INTER + INTRA:          -8.266
REMARK INTER:                  -6.849
REMARK INTRA:                  -1.417
REMARK UNBOUND:                -0.911
REMARK SMILES CCCCCCCCCCCCCCC(=O)[O-]
REMARK SMILES IDX 9 1 10 2 11 3 12 4 13 5 14 6 15 7 16 8 17 9 8 10 7 11 6 12
REMARK SMILES IDX 5 13 4 14 3 15 2 16 1 17
REMARK H PARENT
REMARK Flexibility Score: inf
ROOT
ATOM      1  C   UNL     1      44.623  26.386   2.734  1.00  0.00     0.000 C 
ENDROOT
BRANCH   1   2
ATOM      2  C   UNL     1      45.318  25.332   3.607  1.00  0.00     0.000 C 
BRANCH   2   3
ATOM      3  C   UNL     1      46.411  25.928   4.513  1.00  0.00     0.000 C 
BRANCH   3   4
ATOM      4  C   UNL     1      45.973  26.216   5.959  1.00  0.00     0.000 C 
BRANCH   4   5
ATOM      5  C   UNL     1      46.184  27.681   6.370  1.00  0.00     0.006 C 
BRANCH   5   6
ATOM      6  C   UNL     1      45.481  27.985   7.696  1.00  0.00     0.053 C 
BRANCH   6   7
ATOM      7  C   UNL     1      45.828  26.952   8.721  1.00  0.00     0.041 C 
ATOM      8  O   UNL     1      46.931  27.004   9.326  1.00  0.00    -0.550 OA
ATOM      9  O   UNL     1      44.910  25.960   9.045  1.00  0.00    -0.550 OA
ENDBRANCH   6   7
ENDBRANCH   5   6
ENDBRANCH   4   5
ENDBRANCH   3   4
ENDBRANCH   2   3
ENDBRANCH   1   2
BRANCH   1  10
ATOM     10  C   UNL     1      45.580  27.535   2.391  1.00  0.00     0.000 C 
BRANCH  10  11
ATOM     11  C   UNL     1      45.102  28.855   3.015  1.00  0.00    -0.000 C 
BRANCH  11  12
ATOM     12  C   UNL     1      44.475  29.806   1.984  1.00  0.00    -0.000 C 
BRANCH  12  13
ATOM     13  C   UNL     1      43.001  30.125   2.292  1.00  0.00    -0.000 C 
BRANCH  13  14
ATOM     14  C   UNL     1      42.028  29.330   1.405  1.00  0.00    -0.000 C 
BRANCH  14  15
ATOM     15  C   UNL     1      42.666  28.885   0.077  1.00  0.00    -0.000 C 
BRANCH  15  16
ATOM     16  C   UNL     1      42.658  27.358  -0.096  1.00  0.00    -0.003 C 
ATOM     17  C   UNL     1      43.826  26.854  -0.944  1.00  0.00     0.004 C 
ENDBRANCH  15  16
ENDBRANCH  14  15
ENDBRANCH  13  14
ENDBRANCH  12  13
ENDBRANCH  11  12
ENDBRANCH  10  11
ENDBRANCH   1  10
TORSDOF 13
ENDMDL
MODEL 7
REMARK VINA RESULT:    -4.152      3.942      7.481
REMARK INTER + INTRA:          -8.219
REMARK INTER:                  -6.478
REMARK INTRA:                  -1.740
REMARK UNBOUND:                -0.911
REMARK SMILES CCCCCCCCCCCCCCC(=O)[O-]
REMARK SMILES IDX 9 1 10 2 11 3 12 4 13 5 14 6 15 7 16 8 17 9 8 10 7 11 6 12
REMARK SMILES IDX 5 13 4 14 3 15 2 16 1 17
REMARK H PARENT
REMARK Flexibility Score: inf
ROOT
ATOM      1  C   UNL     1      45.330  28.090   3.294  1.00  0.00     0.000 C 
ENDROOT
BRANCH   1   2
ATOM      2  C   UNL     1      45.097  26.617   2.931  1.00  0.00     0.000 C 
BRANCH   2   3
ATOM      3  C   UNL     1      45.435  25.653   4.082  1.00  0.00     0.000 C 
BRANCH   3   4
ATOM      4  C   UNL     1      46.661  26.049   4.924  1.00  0.00     0.000 C 
BRANCH   4   5
ATOM      5  C   UNL     1      46.374  26.067   6.432  1.00  0.00     0.006 C 
BRANCH   5   6
ATOM      6  C   UNL     1      45.878  27.445   6.879  1.00  0.00     0.053 C 
BRANCH   6   7
ATOM      7  C   UNL     1      45.296  27.371   8.255  1.00  0.00     0.041 C 
ATOM      8  O   UNL     1      44.971  28.425   8.864  1.00  0.00    -0.550 OA
ATOM      9  O   UNL     1      45.065  26.135   8.846  1.00  0.00    -0.550 OA
ENDBRANCH   6   7
ENDBRANCH   5   6
ENDBRANCH   4   5
ENDBRANCH   3   4
ENDBRANCH   2   3
ENDBRANCH   1   2
BRANCH   1  10
ATOM     10  C   UNL     1      45.746  28.902   2.061  1.00  0.00     0.000 C 
BRANCH  10  11
ATOM     11  C   UNL     1      46.090  27.976   0.884  1.00  0.00    -0.000 C 
BRANCH  11  12
ATOM     12  C   UNL     1      45.446  28.430  -0.436  1.00  0.00    -0.000 C 
BRANCH  12  13
ATOM     13  C   UNL     1      44.690  27.294  -1.146  1.00  0.00    -0.000 C 
BRANCH  13  14
ATOM     14  C   UNL     1      43.401  26.893  -0.410  1.00  0.00    -0.000 C 
BRANCH  14  15
ATOM     15  C   UNL     1      42.513  28.102  -0.066  1.00  0.00    -0.000 C 
BRANCH  15  16
ATOM     16  C   UNL     1      42.102  28.127   1.414  1.00  0.00    -0.003 C 
ATOM     17  C   UNL     1      41.910  29.546   1.949  1.00  0.00     0.004 C 
ENDBRANCH  15  16
ENDBRANCH  14  15
ENDBRANCH  13  14
ENDBRANCH  12  13
ENDBRANCH  11  12
ENDBRANCH  10  11
ENDBRANCH   1  10
TORSDOF 13
ENDMDL
MODEL 8
REMARK VINA RESULT:    -4.082      3.136      8.183
REMARK INTER + INTRA:          -8.095
REMARK INTER:                  -6.829
REMARK INTRA:                  -1.266
REMARK UNBOUND:                -0.911
REMARK SMILES CCCCCCCCCCCCCCC(=O)[O-]
REMARK SMILES IDX 9 1 10 2 11 3 12 4 13 5 14 6 15 7 16 8 17 9 8 10 7 11 6 12
REMARK SMILES IDX 5 13 4 14 3 15 2 16 1 17
REMARK H PARENT
REMARK Flexibility Score: inf
ROOT
ATOM      1  C   UNL     1      42.689  27.203   0.241  1.00  0.00     0.000 C 
ENDROOT
BRANCH   1   2
ATOM      2  C   UNL     1      42.731  27.570   1.731  1.00  0.00     0.000 C 
BRANCH   2   3
ATOM      3  C   UNL     1      44.160  27.805   2.252  1.00  0.00     0.000 C 
BRANCH   3   4
ATOM      4  C   UNL     1      45.085  26.577   2.191  1.00  0.00     0.000 C 
BRANCH   4   5
ATOM      5  C   UNL     1      44.966  25.672   3.426  1.00  0.00     0.006 C 
BRANCH   5   6
ATOM      6  C   UNL     1      46.233  25.744   4.283  1.00  0.00     0.053 C 
BRANCH   6   7
ATOM      7  C   UNL     1      46.006  26.606   5.484  1.00  0.00     0.041 C 
ATOM      8  O   UNL     1      45.798  26.083   6.610  1.00  0.00    -0.550 OA
ATOM      9  O   UNL     1      46.074  27.989   5.369  1.00  0.00    -0.550 OA
ENDBRANCH   6   7
ENDBRANCH   5   6
ENDBRANCH   4   5
ENDBRANCH   3   4
ENDBRANCH   2   3
ENDBRANCH   1   2
BRANCH   1  10
ATOM     10  C   UNL     1      42.831  28.452  -0.638  1.00  0.00     0.000 C 
BRANCH  10  11
ATOM     11  C   UNL     1      44.169  28.445  -1.392  1.00  0.00    -0.000 C 
BRANCH  11  12
ATOM     12  C   UNL     1      44.466  27.094  -2.062  1.00  0.00    -0.000 C 
BRANCH  12  13
ATOM     13  C   UNL     1      45.545  27.200  -3.154  1.00  0.00    -0.000 C 
BRANCH  13  14
ATOM     14  C   UNL     1      44.949  27.218  -4.571  1.00  0.00    -0.000 C 
BRANCH  14  15
ATOM     15  C   UNL     1      43.482  26.755  -4.604  1.00  0.00    -0.000 C 
BRANCH  15  16
ATOM     16  C   UNL     1      42.567  27.751  -5.333  1.00  0.00    -0.003 C 
ATOM     17  C   UNL     1      42.813  29.198  -4.907  1.00  0.00     0.004 C 
ENDBRANCH  15  16
ENDBRANCH  14  15
ENDBRANCH  13  14
ENDBRANCH  12  13
ENDBRANCH  11  12
ENDBRANCH  10  11
ENDBRANCH   1  10
TORSDOF 13
ENDMDL
MODEL 9
REMARK VINA RESULT:    -4.043      3.813      8.357
REMARK INTER + INTRA:          -8.028
REMARK INTER:                  -7.261
REMARK INTRA:                  -0.766
REMARK UNBOUND:                -0.911
REMARK SMILES CCCCCCCCCCCCCCC(=O)[O-]
REMARK SMILES IDX 9 1 10 2 11 3 12 4 13 5 14 6 15 7 16 8 17 9 8 10 7 11 6 12
REMARK SMILES IDX 5 13 4 14 3 15 2 16 1 17
REMARK H PARENT
REMARK Flexibility Score: inf
ROOT
ATOM      1  C   UNL     1      44.547  27.241   2.373  1.00  0.00     0.000 C 
ENDROOT
BRANCH   1   2
ATOM      2  C   UNL     1      44.886  25.909   3.057  1.00  0.00     0.000 C 
BRANCH   2   3
ATOM      3  C   UNL     1      45.661  26.090   4.374  1.00  0.00     0.000 C 
BRANCH   3   4
ATOM      4  C   UNL     1      46.028  27.544   4.720  1.00  0.00     0.000 C 
BRANCH   4   5
ATOM      5  C   UNL     1      46.170  27.785   6.230  1.00  0.00     0.006 C 
BRANCH   5   6
ATOM      6  C   UNL     1      45.934  26.492   7.016  1.00  0.00     0.053 C 
BRANCH   6   7
ATOM      7  C   UNL     1      45.438  26.801   8.393  1.00  0.00     0.041 C 
ATOM      8  O   UNL     1      45.445  25.911   9.284  1.00  0.00    -0.550 OA
ATOM      9  O   UNL     1      45.012  28.086   8.707  1.00  0.00    -0.550 OA
ENDBRANCH   6   7
ENDBRANCH   5   6
ENDBRANCH   4   5
ENDBRANCH   3   4
ENDBRANCH   2   3
ENDBRANCH   1   2
BRANCH   1  10
ATOM     10  C   UNL     1      43.655  27.018   1.145  1.00  0.00     0.000 C 
BRANCH  10  11
ATOM     11  C   UNL     1      42.254  27.607   1.369  1.00  0.00    -0.000 C 
BRANCH  11  12
ATOM     12  C   UNL     1      42.190  29.114   1.073  1.00  0.00    -0.000 C 
BRANCH  12  13
ATOM     13  C   UNL     1      43.134  29.534  -0.067  1.00  0.00    -0.000 C 
BRANCH  13  14
ATOM     14  C   UNL     1      42.639  29.066  -1.446  1.00  0.00    -0.000 C 
BRANCH  14  15
ATOM     15  C   UNL     1      43.792  28.777  -2.423  1.00  0.00    -0.000 C 
BRANCH  15  16
ATOM     16  C   UNL     1      43.941  27.279  -2.731  1.00  0.00    -0.003 C 
ATOM     17  C   UNL     1      43.659  26.948  -4.197  1.00  0.00     0.004 C 
ENDBRANCH  15  16
ENDBRANCH  14  15
ENDBRANCH  13  14
ENDBRANCH  12  13
ENDBRANCH  11  12
ENDBRANCH  10  11
ENDBRANCH   1  10
TORSDOF 13
ENDMDL
