MODEL 1
REMARK VINA RESULT:    -3.555      0.000      0.000
REMARK INTER + INTRA:          -9.185
REMARK INTER:                  -6.672
REMARK INTRA:                  -2.513
REMARK UNBOUND:                -2.513
REMARK SMILES O=C([O-])CCCCCCCCCCCCCCC(=O)[O-]
REMARK SMILES IDX 10 1 9 2 8 3 7 4 6 5 5 6 4 7 2 8 1 9 3 10 11 11 12 12 13 13
REMARK SMILES IDX 14 14 15 15 16 16 17 17 18 18 19 19 20 20
REMARK H PARENT
REMARK Flexibility Score: inf
ROOT
ATOM      1  C   UNL     1      26.536  33.494   1.253  1.00  0.00     0.000 C 
ENDROOT
BRANCH   1   2
ATOM      2  C   UNL     1      27.295  32.823   2.405  1.00  0.00     0.000 C 
BRANCH   2   3
ATOM      3  C   UNL     1      27.253  33.692   3.671  1.00  0.00     0.000 C 
BRANCH   3   4
ATOM      4  C   UNL     1      28.654  34.042   4.202  1.00  0.00     0.000 C 
BRANCH   4   5
ATOM      5  C   UNL     1      29.763  33.037   3.830  1.00  0.00     0.000 C 
BRANCH   5   6
ATOM      6  C   UNL     1      31.002  33.654   3.156  1.00  0.00     0.006 C 
BRANCH   6   7
ATOM      7  C   UNL     1      31.909  32.604   2.503  1.00  0.00     0.053 C 
BRANCH   7   8
ATOM      8  C   UNL     1      33.305  33.126   2.374  1.00  0.00     0.041 C 
ATOM      9  O   UNL     1      33.906  33.580   3.383  1.00  0.00    -0.550 OA
ATOM     10  O   UNL     1      33.925  33.157   1.133  1.00  0.00    -0.550 OA
ENDBRANCH   7   8
ENDBRANCH   6   7
ENDBRANCH   5   6
ENDBRANCH   4   5
ENDBRANCH   3   4
ENDBRANCH   2   3
ENDBRANCH   1   2
BRANCH   1  11
ATOM     11  C   UNL     1      25.663  34.674   1.717  1.00  0.00     0.000 C 
BRANCH  11  12
ATOM     12  C   UNL     1      25.990  36.001   1.002  1.00  0.00     0.000 C 
BRANCH  12  13
ATOM     13  C   UNL     1      26.616  37.035   1.957  1.00  0.00     0.000 C 
BRANCH  13  14
ATOM     14  C   UNL     1      28.001  37.513   1.491  1.00  0.00     0.000 C 
BRANCH  14  15
ATOM     15  C   UNL     1      29.077  36.421   1.614  1.00  0.00     0.000 C 
BRANCH  15  16
ATOM     16  C   UNL     1      29.799  36.152   0.284  1.00  0.00     0.006 C 
BRANCH  16  17
ATOM     17  C   UNL     1      29.701  34.687  -0.157  1.00  0.00     0.053 C 
BRANCH  17  18
ATOM     18  C   UNL     1      31.002  34.228  -0.736  1.00  0.00     0.041 C 
ATOM     19  O   UNL     1      31.230  33.000  -0.889  1.00  0.00    -0.550 OA
ATOM     20  O   UNL     1      31.945  35.160  -1.152  1.00  0.00    -0.550 OA
ENDBRANCH  17  18
ENDBRANCH  16  17
ENDBRANCH  15  16
ENDBRANCH  14  15
ENDBRANCH  13  14
ENDBRANCH  12  13
ENDBRANCH  11  12
ENDBRANCH   1  11
TORSDOF 15
ENDMDL
MODEL 2
REMARK VINA RESULT:    -3.486      3.192      4.923
REMARK INTER + INTRA:          -9.057
REMARK INTER:                  -7.195
REMARK INTRA:                  -1.862
REMARK UNBOUND:                -2.513
REMARK SMILES O=C([O-])CCCCCCCCCCCCCCC(=O)[O-]
REMARK SMILES IDX 10 1 9 2 8 3 7 4 6 5 5 6 4 7 2 8 1 9 3 10 11 11 12 12 13 13
REMARK SMILES IDX 14 14 15 15 16 16 17 17 18 18 19 19 20 20
REMARK H PARENT
REMARK Flexibility Score: inf
ROOT
ATOM      1  C   UNL     1      28.811  35.665   3.128  1.00  0.00     0.000 C 
ENDROOT
BRANCH   1   2
ATOM      2  C   UNL     1      30.011  35.638   2.172  1.00  0.00     0.000 C 
BRANCH   2   3
ATOM      3  C   UNL     1      29.551  35.445   0.719  1.00  0.00     0.000 C 
BRANCH   3   4
ATOM      4  C   UNL     1      30.251  34.263   0.025  1.00  0.00     0.000 C 
BRANCH   4   5
ATOM      5  C   UNL     1      30.737  33.145   0.969  1.00  0.00     0.000 C 
BRANCH   5   6
ATOM      6  C   UNL     1      32.251  32.868   0.926  1.00  0.00     0.006 C 
BRANCH   6   7
ATOM      7  C   UNL     1      32.854  32.642   2.318  1.00  0.00     0.053 C 
BRANCH   7   8
ATOM      8  C   UNL     1      33.501  33.895   2.817  1.00  0.00     0.041 C 
ATOM      9  O   UNL     1      33.999  33.933   3.973  1.00  0.00    -0.550 OA
ATOM     10  O   UNL     1      33.511  35.036   2.026  1.00  0.00    -0.550 OA
ENDBRANCH   7   8
ENDBRANCH   6   7
ENDBRANCH   5   6
ENDBRANCH   4   5
ENDBRANCH   3   4
ENDBRANCH   2   3
ENDBRANCH   1   2
BRANCH   1  11
ATOM     11  C   UNL     1      28.630  34.347   3.901  1.00  0.00     0.000 C 
BRANCH  11  12
ATOM     12  C   UNL     1      27.275  33.658   3.636  1.00  0.00     0.000 C 
BRANCH  12  13
ATOM     13  C   UNL     1      27.284  32.844   2.330  1.00  0.00     0.000 C 
BRANCH  13  14
ATOM     14  C   UNL     1      26.423  33.479   1.226  1.00  0.00     0.000 C 
BRANCH  14  15
ATOM     15  C   UNL     1      25.319  34.391   1.788  1.00  0.00     0.000 C 
BRANCH  15  16
ATOM     16  C   UNL     1      24.267  34.762   0.731  1.00  0.00     0.006 C 
BRANCH  16  17
ATOM     17  C   UNL     1      24.229  33.772  -0.439  1.00  0.00     0.053 C 
BRANCH  17  18
ATOM     18  C   UNL     1      22.936  33.019  -0.444  1.00  0.00     0.041 C 
ATOM     19  O   UNL     1      21.901  33.542  -0.935  1.00  0.00    -0.550 OA
ATOM     20  O   UNL     1      22.884  31.721   0.049  1.00  0.00    -0.550 OA
ENDBRANCH  17  18
ENDBRANCH  16  17
ENDBRANCH  15  16
ENDBRANCH  14  15
ENDBRANCH  13  14
ENDBRANCH  12  13
ENDBRANCH  11  12
ENDBRANCH   1  11
TORSDOF 15
ENDMDL
MODEL 3
REMARK VINA RESULT:    -3.470      3.079      5.990
REMARK INTER + INTRA:          -9.026
REMARK INTER:                  -6.854
REMARK INTRA:                  -2.171
REMARK UNBOUND:                -2.513
REMARK SMILES O=C([O-])CCCCCCCCCCCCCCC(=O)[O-]
REMARK SMILES IDX 10 1 9 2 8 3 7 4 6 5 5 6 4 7 2 8 1 9 3 10 11 11 12 12 13 13
REMARK SMILES IDX 14 14 15 15 16 16 17 17 18 18 19 19 20 20
REMARK H PARENT
REMARK Flexibility Score: inf
ROOT
ATOM      1  C   UNL     1      31.318  33.099   3.991  1.00  0.00     0.000 C 
ENDROOT
BRANCH   1   2
ATOM      2  C   UNL     1      29.888  32.899   3.471  1.00  0.00     0.000 C 
BRANCH   2   3
ATOM      3  C   UNL     1      28.900  33.809   4.216  1.00  0.00     0.000 C 
BRANCH   3   4
ATOM      4  C   UNL     1      27.504  33.831   3.568  1.00  0.00     0.000 C 
BRANCH   4   5
ATOM      5  C   UNL     1      27.344  32.924   2.331  1.00  0.00     0.000 C 
BRANCH   5   6
ATOM      6  C   UNL     1      26.271  33.377   1.325  1.00  0.00     0.006 C 
BRANCH   6   7
ATOM      7  C   UNL     1      25.601  34.698   1.723  1.00  0.00     0.053 C 
BRANCH   7   8
ATOM      8  C   UNL     1      24.385  34.941   0.887  1.00  0.00     0.041 C 
ATOM      9  O   UNL     1      23.980  36.116   0.685  1.00  0.00    -0.550 OA
ATOM     10  O   UNL     1      23.670  33.869   0.371  1.00  0.00    -0.550 OA
ENDBRANCH   7   8
ENDBRANCH   6   7
ENDBRANCH   5   6
ENDBRANCH   4   5
ENDBRANCH   3   4
ENDBRANCH   2   3
ENDBRANCH   1   2
BRANCH   1  11
ATOM     11  C   UNL     1      32.268  33.674   2.926  1.00  0.00     0.000 C 
BRANCH  11  12
ATOM     12  C   UNL     1      32.911  32.597   2.027  1.00  0.00     0.000 C 
BRANCH  12  13
ATOM     13  C   UNL     1      32.703  32.892   0.531  1.00  0.00     0.000 C 
BRANCH  13  14
ATOM     14  C   UNL     1      31.218  32.953   0.136  1.00  0.00     0.000 C 
BRANCH  14  15
ATOM     15  C   UNL     1      30.825  34.305  -0.483  1.00  0.00     0.000 C 
BRANCH  15  16
ATOM     16  C   UNL     1      29.574  34.913   0.172  1.00  0.00     0.006 C 
BRANCH  16  17
ATOM     17  C   UNL     1      29.916  35.904   1.291  1.00  0.00     0.053 C 
BRANCH  17  18
ATOM     18  C   UNL     1      28.893  36.995   1.351  1.00  0.00     0.041 C 
ATOM     19  O   UNL     1      28.772  37.804   0.394  1.00  0.00    -0.550 OA
ATOM     20  O   UNL     1      28.040  37.088   2.444  1.00  0.00    -0.550 OA
ENDBRANCH  17  18
ENDBRANCH  16  17
ENDBRANCH  15  16
ENDBRANCH  14  15
ENDBRANCH  13  14
ENDBRANCH  12  13
ENDBRANCH  11  12
ENDBRANCH   1  11
TORSDOF 15
ENDMDL
MODEL 4
REMARK VINA RESULT:    -3.466      3.044      6.087
REMARK INTER + INTRA:          -9.019
REMARK INTER:                  -7.095
REMARK INTRA:                  -1.924
REMARK UNBOUND:                -2.513
REMARK SMILES O=C([O-])CCCCCCCCCCCCCCC(=O)[O-]
REMARK SMILES IDX 10 1 9 2 8 3 7 4 6 5 5 6 4 7 2 8 1 9 3 10 11 11 12 12 13 13
REMARK SMILES IDX 14 14 15 15 16 16 17 17 18 18 19 19 20 20
REMARK H PARENT
REMARK Flexibility Score: inf
ROOT
ATOM      1  C   UNL     1      28.729  35.314   3.309  1.00  0.00     0.000 C 
ENDROOT
BRANCH   1   2
ATOM      2  C   UNL     1      29.032  33.885   3.779  1.00  0.00     0.000 C 
BRANCH   2   3
ATOM      3  C   UNL     1      28.217  32.859   2.977  1.00  0.00     0.000 C 
BRANCH   3   4
ATOM      4  C   UNL     1      26.729  33.233   2.868  1.00  0.00     0.000 C 
BRANCH   4   5
ATOM      5  C   UNL     1      26.212  33.447   1.431  1.00  0.00     0.000 C 
BRANCH   5   6
ATOM      6  C   UNL     1      24.731  33.853   1.324  1.00  0.00     0.006 C 
BRANCH   6   7
ATOM      7  C   UNL     1      23.903  32.869   0.489  1.00  0.00     0.053 C 
BRANCH   7   8
ATOM      8  C   UNL     1      23.263  33.573  -0.665  1.00  0.00     0.041 C 
ATOM      9  O   UNL     1      22.289  34.347  -0.472  1.00  0.00    -0.550 OA
ATOM     10  O   UNL     1      23.708  33.337  -1.959  1.00  0.00    -0.550 OA
ENDBRANCH   7   8
ENDBRANCH   6   7
ENDBRANCH   5   6
ENDBRANCH   4   5
ENDBRANCH   3   4
ENDBRANCH   2   3
ENDBRANCH   1   2
BRANCH   1  11
ATOM     11  C   UNL     1      29.821  35.886   2.388  1.00  0.00     0.000 C 
BRANCH  11  12
ATOM     12  C   UNL     1      29.421  35.908   0.898  1.00  0.00     0.000 C 
BRANCH  12  13
ATOM     13  C   UNL     1      29.776  34.591   0.184  1.00  0.00     0.000 C 
BRANCH  13  14
ATOM     14  C   UNL     1      31.250  34.195   0.362  1.00  0.00     0.000 C 
BRANCH  14  15
ATOM     15  C   UNL     1      31.417  32.842   1.076  1.00  0.00     0.000 C 
BRANCH  15  16
ATOM     16  C   UNL     1      32.731  32.752   1.868  1.00  0.00     0.006 C 
BRANCH  16  17
ATOM     17  C   UNL     1      32.700  33.578   3.160  1.00  0.00     0.053 C 
BRANCH  17  18
ATOM     18  C   UNL     1      33.757  34.636   3.128  1.00  0.00     0.041 C 
ATOM     19  O   UNL     1      34.954  34.344   3.391  1.00  0.00    -0.550 OA
ATOM     20  O   UNL     1      33.431  35.935   2.760  1.00  0.00    -0.550 OA
ENDBRANCH  17  18
ENDBRANCH  16  17
ENDBRANCH  15  16
ENDBRANCH  14  15
ENDBRANCH  13  14
ENDBRANCH  12  13
ENDBRANCH  11  12
ENDBRANCH   1  11
TORSDOF 15
ENDMDL
MODEL 5
REMARK VINA RESULT:    -3.461      3.113      5.775
REMARK INTER + INTRA:          -9.009
REMARK INTER:                  -6.885
REMARK INTRA:                  -2.124
REMARK UNBOUND:                -2.513
REMARK SMILES O=C([O-])CCCCCCCCCCCCCCC(=O)[O-]
REMARK SMILES IDX 10 1 9 2 8 3 7 4 6 5 5 6 4 7 2 8 1 9 3 10 11 11 12 12 13 13
REMARK SMILES IDX 14 14 15 15 16 16 17 17 18 18 19 19 20 20
REMARK H PARENT
REMARK Flexibility Score: inf
ROOT
ATOM      1  C   UNL     1      25.633  33.480   1.312  1.00  0.00     0.000 C 
ENDROOT
BRANCH   1   2
ATOM      2  C   UNL     1      26.065  34.155   0.004  1.00  0.00     0.000 C 
BRANCH   2   3
ATOM      3  C   UNL     1      27.487  34.725   0.123  1.00  0.00     0.000 C 
BRANCH   3   4
ATOM      4  C   UNL     1      27.508  36.261   0.218  1.00  0.00     0.000 C 
BRANCH   4   5
ATOM      5  C   UNL     1      27.257  36.832   1.629  1.00  0.00     0.000 C 
BRANCH   5   6
ATOM      6  C   UNL     1      25.819  37.314   1.892  1.00  0.00     0.006 C 
BRANCH   6   7
ATOM      7  C   UNL     1      25.109  37.788   0.618  1.00  0.00     0.053 C 
BRANCH   7   8
ATOM      8  C   UNL     1      23.818  37.055   0.436  1.00  0.00     0.041 C 
ATOM      9  O   UNL     1      23.429  36.232   1.306  1.00  0.00    -0.550 OA
ATOM     10  O   UNL     1      23.068  37.241  -0.717  1.00  0.00    -0.550 OA
ENDBRANCH   7   8
ENDBRANCH   6   7
ENDBRANCH   5   6
ENDBRANCH   4   5
ENDBRANCH   3   4
ENDBRANCH   2   3
ENDBRANCH   1   2
BRANCH   1  11
ATOM     11  C   UNL     1      26.821  32.949   2.133  1.00  0.00     0.000 C 
BRANCH  11  12
ATOM     12  C   UNL     1      26.929  33.577   3.538  1.00  0.00     0.000 C 
BRANCH  12  13
ATOM     13  C   UNL     1      28.309  34.213   3.785  1.00  0.00     0.000 C 
BRANCH  13  14
ATOM     14  C   UNL     1      29.415  33.169   4.011  1.00  0.00     0.000 C 
BRANCH  14  15
ATOM     15  C   UNL     1      30.633  33.389   3.097  1.00  0.00     0.000 C 
BRANCH  15  16
ATOM     16  C   UNL     1      30.400  32.870   1.669  1.00  0.00     0.006 C 
BRANCH  16  17
ATOM     17  C   UNL     1      31.154  33.687   0.613  1.00  0.00     0.053 C 
BRANCH  17  18
ATOM     18  C   UNL     1      32.413  32.985   0.212  1.00  0.00     0.041 C 
ATOM     19  O   UNL     1      32.571  32.595  -0.975  1.00  0.00    -0.550 OA
ATOM     20  O   UNL     1      33.434  32.805   1.137  1.00  0.00    -0.550 OA
ENDBRANCH  17  18
ENDBRANCH  16  17
ENDBRANCH  15  16
ENDBRANCH  14  15
ENDBRANCH  13  14
ENDBRANCH  12  13
ENDBRANCH  11  12
ENDBRANCH   1  11
TORSDOF 15
ENDMDL
MODEL 6
REMARK VINA RESULT:    -3.454      3.164      4.820
REMARK INTER + INTRA:          -8.995
REMARK INTER:                  -6.827
REMARK INTRA:                  -2.168
REMARK UNBOUND:                -2.513
REMARK SMILES O=C([O-])CCCCCCCCCCCCCCC(=O)[O-]
REMARK SMILES IDX 10 1 9 2 8 3 7 4 6 5 5 6 4 7 2 8 1 9 3 10 11 11 12 12 13 13
REMARK SMILES IDX 14 14 15 15 16 16 17 17 18 18 19 19 20 20
REMARK H PARENT
REMARK Flexibility Score: inf
ROOT
ATOM      1  C   UNL     1      28.639  34.063   4.208  1.00  0.00     0.000 C 
ENDROOT
BRANCH   1   2
ATOM      2  C   UNL     1      29.713  33.027   3.849  1.00  0.00     0.000 C 
BRANCH   2   3
ATOM      3  C   UNL     1      30.676  33.580   2.788  1.00  0.00     0.000 C 
BRANCH   3   4
ATOM      4  C   UNL     1      30.350  35.028   2.383  1.00  0.00     0.000 C 
BRANCH   4   5
ATOM      5  C   UNL     1      30.499  35.335   0.878  1.00  0.00     0.000 C 
BRANCH   5   6
ATOM      6  C   UNL     1      30.471  34.102  -0.044  1.00  0.00     0.006 C 
BRANCH   6   7
ATOM      7  C   UNL     1      31.622  34.092  -1.057  1.00  0.00     0.053 C 
BRANCH   7   8
ATOM      8  C   UNL     1      32.504  32.904  -0.835  1.00  0.00     0.041 C 
ATOM      9  O   UNL     1      32.640  32.040  -1.740  1.00  0.00    -0.550 OA
ATOM     10  O   UNL     1      33.136  32.725   0.387  1.00  0.00    -0.550 OA
ENDBRANCH   7   8
ENDBRANCH   6   7
ENDBRANCH   5   6
ENDBRANCH   4   5
ENDBRANCH   3   4
ENDBRANCH   2   3
ENDBRANCH   1   2
BRANCH   1  11
ATOM     11  C   UNL     1      27.214  33.593   3.865  1.00  0.00     0.000 C 
BRANCH  11  12
ATOM     12  C   UNL     1      27.104  32.916   2.483  1.00  0.00     0.000 C 
BRANCH  12  13
ATOM     13  C   UNL     1      26.128  33.656   1.551  1.00  0.00     0.000 C 
BRANCH  13  14
ATOM     14  C   UNL     1      26.846  34.472   0.463  1.00  0.00     0.000 C 
BRANCH  14  15
ATOM     15  C   UNL     1      26.935  35.968   0.808  1.00  0.00     0.000 C 
BRANCH  15  16
ATOM     16  C   UNL     1      25.822  36.420   1.767  1.00  0.00     0.006 C 
BRANCH  16  17
ATOM     17  C   UNL     1      24.722  37.221   1.059  1.00  0.00     0.053 C 
BRANCH  17  18
ATOM     18  C   UNL     1      23.430  36.467   1.086  1.00  0.00     0.041 C 
ATOM     19  O   UNL     1      23.289  35.425   0.394  1.00  0.00    -0.550 OA
ATOM     20  O   UNL     1      22.396  36.888   1.913  1.00  0.00    -0.550 OA
ENDBRANCH  17  18
ENDBRANCH  16  17
ENDBRANCH  15  16
ENDBRANCH  14  15
ENDBRANCH  13  14
ENDBRANCH  12  13
ENDBRANCH  11  12
ENDBRANCH   1  11
TORSDOF 15
ENDMDL
MODEL 7
REMARK VINA RESULT:    -3.453      3.040      5.931
REMARK INTER + INTRA:          -8.995
REMARK INTER:                  -6.824
REMARK INTRA:                  -2.171
REMARK UNBOUND:                -2.513
REMARK SMILES O=C([O-])CCCCCCCCCCCCCCC(=O)[O-]
REMARK SMILES IDX 10 1 9 2 8 3 7 4 6 5 5 6 4 7 2 8 1 9 3 10 11 11 12 12 13 13
REMARK SMILES IDX 14 14 15 15 16 16 17 17 18 18 19 19 20 20
REMARK H PARENT
REMARK Flexibility Score: inf
ROOT
ATOM      1  C   UNL     1      28.685  34.352   3.829  1.00  0.00     0.000 C 
ENDROOT
BRANCH   1   2
ATOM      2  C   UNL     1      27.360  33.579   3.833  1.00  0.00     0.000 C 
BRANCH   2   3
ATOM      3  C   UNL     1      27.089  32.946   2.459  1.00  0.00     0.000 C 
BRANCH   3   4
ATOM      4  C   UNL     1      25.833  33.516   1.777  1.00  0.00     0.000 C 
BRANCH   4   5
ATOM      5  C   UNL     1      26.024  33.939   0.306  1.00  0.00     0.000 C 
BRANCH   5   6
ATOM      6  C   UNL     1      25.709  35.416   0.006  1.00  0.00     0.006 C 
BRANCH   6   7
ATOM      7  C   UNL     1      25.467  36.242   1.274  1.00  0.00     0.053 C 
BRANCH   7   8
ATOM      8  C   UNL     1      24.123  36.897   1.223  1.00  0.00     0.041 C 
ATOM      9  O   UNL     1      24.003  38.118   1.509  1.00  0.00    -0.550 OA
ATOM     10  O   UNL     1      22.996  36.151   0.908  1.00  0.00    -0.550 OA
ENDBRANCH   7   8
ENDBRANCH   6   7
ENDBRANCH   5   6
ENDBRANCH   4   5
ENDBRANCH   3   4
ENDBRANCH   2   3
ENDBRANCH   1   2
BRANCH   1  11
ATOM     11  C   UNL     1      28.626  35.640   2.991  1.00  0.00     0.000 C 
BRANCH  11  12
ATOM     12  C   UNL     1      29.753  35.746   1.942  1.00  0.00     0.000 C 
BRANCH  12  13
ATOM     13  C   UNL     1      29.421  34.972   0.653  1.00  0.00     0.000 C 
BRANCH  13  14
ATOM     14  C   UNL     1      30.554  34.032   0.214  1.00  0.00     0.000 C 
BRANCH  14  15
ATOM     15  C   UNL     1      30.789  32.882   1.209  1.00  0.00     0.000 C 
BRANCH  15  16
ATOM     16  C   UNL     1      32.230  32.847   1.741  1.00  0.00     0.006 C 
BRANCH  16  17
ATOM     17  C   UNL     1      32.356  33.444   3.148  1.00  0.00     0.053 C 
BRANCH  17  18
ATOM     18  C   UNL     1      33.745  33.950   3.378  1.00  0.00     0.041 C 
ATOM     19  O   UNL     1      34.218  33.995   4.544  1.00  0.00    -0.550 OA
ATOM     20  O   UNL     1      34.536  34.326   2.299  1.00  0.00    -0.550 OA
ENDBRANCH  17  18
ENDBRANCH  16  17
ENDBRANCH  15  16
ENDBRANCH  14  15
ENDBRANCH  13  14
ENDBRANCH  12  13
ENDBRANCH  11  12
ENDBRANCH   1  11
TORSDOF 15
ENDMDL
MODEL 8
REMARK VINA RESULT:    -3.440      2.810      5.658
REMARK INTER + INTRA:          -8.970
REMARK INTER:                  -6.857
REMARK INTRA:                  -2.113
REMARK UNBOUND:                -2.513
REMARK SMILES O=C([O-])CCCCCCCCCCCCCCC(=O)[O-]
REMARK SMILES IDX 10 1 9 2 8 3 7 4 6 5 5 6 4 7 2 8 1 9 3 10 11 11 12 12 13 13
REMARK SMILES IDX 14 14 15 15 16 16 17 17 18 18 19 19 20 20
REMARK H PARENT
REMARK Flexibility Score: inf
ROOT
ATOM      1  C   UNL     1      30.976  36.505   2.266  1.00  0.00     0.000 C 
ENDROOT
BRANCH   1   2
ATOM      2  C   UNL     1      29.712  35.679   1.993  1.00  0.00     0.000 C 
BRANCH   2   3
ATOM      3  C   UNL     1      28.961  35.376   3.298  1.00  0.00     0.000 C 
BRANCH   3   4
ATOM      4  C   UNL     1      29.048  33.895   3.706  1.00  0.00     0.000 C 
BRANCH   4   5
ATOM      5  C   UNL     1      28.493  32.898   2.669  1.00  0.00     0.000 C 
BRANCH   5   6
ATOM      6  C   UNL     1      26.962  32.906   2.510  1.00  0.00     0.006 C 
BRANCH   6   7
ATOM      7  C   UNL     1      26.500  33.634   1.242  1.00  0.00     0.053 C 
BRANCH   7   8
ATOM      8  C   UNL     1      25.010  33.576   1.120  1.00  0.00     0.041 C 
ATOM      9  O   UNL     1      24.440  32.488   0.843  1.00  0.00    -0.550 OA
ATOM     10  O   UNL     1      24.255  34.732   1.263  1.00  0.00    -0.550 OA
ENDBRANCH   7   8
ENDBRANCH   6   7
ENDBRANCH   5   6
ENDBRANCH   4   5
ENDBRANCH   3   4
ENDBRANCH   2   3
ENDBRANCH   1   2
BRANCH   1  11
ATOM     11  C   UNL     1      31.910  36.593   1.046  1.00  0.00     0.000 C 
BRANCH  11  12
ATOM     12  C   UNL     1      33.385  36.282   1.375  1.00  0.00     0.000 C 
BRANCH  12  13
ATOM     13  C   UNL     1      33.585  35.921   2.858  1.00  0.00     0.000 C 
BRANCH  13  14
ATOM     14  C   UNL     1      33.992  34.453   3.064  1.00  0.00     0.000 C 
BRANCH  14  15
ATOM     15  C   UNL     1      32.779  33.510   3.157  1.00  0.00     0.000 C 
BRANCH  15  16
ATOM     16  C   UNL     1      32.738  32.489   2.009  1.00  0.00     0.006 C 
BRANCH  16  17
ATOM     17  C   UNL     1      31.825  32.930   0.858  1.00  0.00     0.053 C 
BRANCH  17  18
ATOM     18  C   UNL     1      32.567  32.891  -0.441  1.00  0.00     0.041 C 
ATOM     19  O   UNL     1      33.732  33.361  -0.519  1.00  0.00    -0.550 OA
ATOM     20  O   UNL     1      31.991  32.290  -1.553  1.00  0.00    -0.550 OA
ENDBRANCH  17  18
ENDBRANCH  16  17
ENDBRANCH  15  16
ENDBRANCH  14  15
ENDBRANCH  13  14
ENDBRANCH  12  13
ENDBRANCH  11  12
ENDBRANCH   1  11
TORSDOF 15
ENDMDL
MODEL 9
REMARK VINA RESULT:    -3.432      3.246      4.491
REMARK INTER + INTRA:          -8.955
REMARK INTER:                  -6.975
REMARK INTRA:                  -1.980
REMARK UNBOUND:                -2.513
REMARK SMILES O=C([O-])CCCCCCCCCCCCCCC(=O)[O-]
REMARK SMILES IDX 10 1 9 2 8 3 7 4 6 5 5 6 4 7 2 8 1 9 3 10 11 11 12 12 13 13
REMARK SMILES IDX 14 14 15 15 16 16 17 17 18 18 19 19 20 20
REMARK H PARENT
REMARK Flexibility Score: inf
ROOT
ATOM      1  C   UNL     1      26.367  33.610   1.458  1.00  0.00     0.000 C 
ENDROOT
BRANCH   1   2
ATOM      2  C   UNL     1      27.161  32.843   2.524  1.00  0.00     0.000 C 
BRANCH   2   3
ATOM      3  C   UNL     1      27.197  33.622   3.848  1.00  0.00     0.000 C 
BRANCH   3   4
ATOM      4  C   UNL     1      28.614  34.086   4.229  1.00  0.00     0.000 C 
BRANCH   4   5
ATOM      5  C   UNL     1      29.742  33.094   3.879  1.00  0.00     0.000 C 
BRANCH   5   6
ATOM      6  C   UNL     1      30.769  33.610   2.854  1.00  0.00     0.006 C 
BRANCH   6   7
ATOM      7  C   UNL     1      30.715  32.848   1.524  1.00  0.00     0.053 C 
BRANCH   7   8
ATOM      8  C   UNL     1      31.263  33.692   0.416  1.00  0.00     0.041 C 
ATOM      9  O   UNL     1      30.552  33.958  -0.587  1.00  0.00    -0.550 OA
ATOM     10  O   UNL     1      32.575  34.142   0.469  1.00  0.00    -0.550 OA
ENDBRANCH   7   8
ENDBRANCH   6   7
ENDBRANCH   5   6
ENDBRANCH   4   5
ENDBRANCH   3   4
ENDBRANCH   2   3
ENDBRANCH   1   2
BRANCH   1  11
ATOM     11  C   UNL     1      27.255  34.510   0.580  1.00  0.00     0.000 C 
BRANCH  11  12
ATOM     12  C   UNL     1      27.027  36.017   0.814  1.00  0.00     0.000 C 
BRANCH  12  13
ATOM     13  C   UNL     1      25.787  36.288   1.685  1.00  0.00     0.000 C 
BRANCH  13  14
ATOM     14  C   UNL     1      24.596  36.825   0.875  1.00  0.00     0.000 C 
BRANCH  14  15
ATOM     15  C   UNL     1      23.617  35.714   0.457  1.00  0.00     0.000 C 
BRANCH  15  16
ATOM     16  C   UNL     1      23.731  35.358  -1.034  1.00  0.00     0.006 C 
BRANCH  16  17
ATOM     17  C   UNL     1      24.029  33.872  -1.266  1.00  0.00     0.053 C 
BRANCH  17  18
ATOM     18  C   UNL     1      23.016  33.022  -0.566  1.00  0.00     0.041 C 
ATOM     19  O   UNL     1      21.814  33.030  -0.940  1.00  0.00    -0.550 OA
ATOM     20  O   UNL     1      23.408  32.183   0.469  1.00  0.00    -0.550 OA
ENDBRANCH  17  18
ENDBRANCH  16  17
ENDBRANCH  15  16
ENDBRANCH  14  15
ENDBRANCH  13  14
ENDBRANCH  12  13
ENDBRANCH  11  12
ENDBRANCH   1  11
TORSDOF 15
ENDMDL
