MODEL 1
REMARK VINA RESULT:    -6.346      0.000      0.000
REMARK INTER + INTRA:          -6.346
REMARK INTER:                  -6.346
REMARK INTRA:                   0.000
REMARK UNBOUND:                 0.000
REMARK SMILES C=C1CCC[C@@]2(C)CC(=O)C(=C(C)C)C[C@H]12
REMARK SMILES IDX 13 1 12 2 11 3 15 4 16 5 2 6 1 7 3 8 4 9 5 10 6 11 8 12 9 13
REMARK SMILES IDX 10 14 7 15 14 16
REMARK H PARENT
REMARK Flexibility Score: inf
ROOT
ATOM      1  C   UNL     1      35.134  11.982  28.872  1.00  0.00     0.039 C 
ATOM      2  C   UNL     1      34.621  10.754  28.156  1.00  0.00    -0.070 C 
ATOM      3  C   UNL     1      35.475   9.797  27.687  1.00  0.00    -0.006 C 
ATOM      4  C   UNL     1      36.980   9.918  27.888  1.00  0.00     0.047 C 
ATOM      5  C   UNL     1      37.683   8.542  28.000  1.00  0.00     0.025 C 
ATOM      6  C   UNL     1      39.202   8.601  28.163  1.00  0.00    -0.073 C 
ATOM      7  C   UNL     1      39.914   9.742  28.199  1.00  0.00     0.008 C 
ATOM      8  C   UNL     1      39.906   7.275  28.334  1.00  0.00     0.031 C 
ATOM      9  C   UNL     1      39.525   6.318  27.201  1.00  0.00     0.005 C 
ATOM     10  C   UNL     1      37.999   6.205  27.043  1.00  0.00     0.008 C 
ATOM     11  C   UNL     1      37.304   7.584  26.828  1.00  0.00    -0.018 C 
ATOM     12  C   UNL     1      35.772   7.358  26.849  1.00  0.00     0.088 C 
ATOM     13  C   UNL     1      35.009   8.652  26.852  1.00  0.00     0.159 C 
ATOM     14  O   UNL     1      33.983   8.748  26.125  1.00  0.00    -0.295 OA
ATOM     15  C   UNL     1      37.718   8.166  25.448  1.00  0.00     0.012 C 
ATOM     16  C   UNL     1      33.121  10.619  28.017  1.00  0.00     0.039 C 
ENDROOT
TORSDOF 0
ENDMDL
MODEL 2
REMARK VINA RESULT:    -6.175      1.994      3.248
REMARK INTER + INTRA:          -6.175
REMARK INTER:                  -6.175
REMARK INTRA:                   0.000
REMARK UNBOUND:                 0.000
REMARK SMILES C=C1CCC[C@@]2(C)CC(=O)C(=C(C)C)C[C@H]12
REMARK SMILES IDX 13 1 12 2 11 3 15 4 16 5 2 6 1 7 3 8 4 9 5 10 6 11 8 12 9 13
REMARK SMILES IDX 10 14 7 15 14 16
REMARK H PARENT
REMARK Flexibility Score: inf
ROOT
ATOM      1  C   UNL     1      33.806  10.626  28.629  1.00  0.00     0.039 C 
ATOM      2  C   UNL     1      35.082  11.431  28.537  1.00  0.00    -0.070 C 
ATOM      3  C   UNL     1      36.274  10.839  28.235  1.00  0.00    -0.006 C 
ATOM      4  C   UNL     1      36.363   9.344  27.955  1.00  0.00     0.047 C 
ATOM      5  C   UNL     1      37.496   8.986  26.962  1.00  0.00     0.025 C 
ATOM      6  C   UNL     1      37.659   7.493  26.673  1.00  0.00    -0.073 C 
ATOM      7  C   UNL     1      36.901   6.530  27.230  1.00  0.00     0.008 C 
ATOM      8  C   UNL     1      38.718   7.121  25.662  1.00  0.00     0.031 C 
ATOM      9  C   UNL     1      40.064   7.743  26.046  1.00  0.00     0.005 C 
ATOM     10  C   UNL     1      39.939   9.255  26.300  1.00  0.00     0.008 C 
ATOM     11  C   UNL     1      38.867   9.607  27.375  1.00  0.00    -0.018 C 
ATOM     12  C   UNL     1      38.719  11.148  27.420  1.00  0.00     0.088 C 
ATOM     13  C   UNL     1      37.568  11.581  28.282  1.00  0.00     0.159 C 
ATOM     14  O   UNL     1      37.727  12.570  29.047  1.00  0.00    -0.295 OA
ATOM     15  C   UNL     1      39.338   9.096  28.765  1.00  0.00     0.012 C 
ATOM     16  C   UNL     1      34.967  12.922  28.759  1.00  0.00     0.039 C 
ENDROOT
TORSDOF 0
ENDMDL
MODEL 3
REMARK VINA RESULT:    -6.170      1.474      1.984
REMARK INTER + INTRA:          -6.170
REMARK INTER:                  -6.170
REMARK INTRA:                   0.000
REMARK UNBOUND:                 0.000
REMARK SMILES C=C1CCC[C@@]2(C)CC(=O)C(=C(C)C)C[C@H]12
REMARK SMILES IDX 13 1 12 2 11 3 15 4 16 5 2 6 1 7 3 8 4 9 5 10 6 11 8 12 9 13
REMARK SMILES IDX 10 14 7 15 14 16
REMARK H PARENT
REMARK Flexibility Score: inf
ROOT
ATOM      1  C   UNL     1      37.499  13.824  29.125  1.00  0.00     0.039 C 
ATOM      2  C   UNL     1      36.425  12.810  28.802  1.00  0.00    -0.070 C 
ATOM      3  C   UNL     1      36.742  11.549  28.384  1.00  0.00    -0.006 C 
ATOM      4  C   UNL     1      38.194  11.106  28.250  1.00  0.00     0.047 C 
ATOM      5  C   UNL     1      38.384   9.590  28.507  1.00  0.00     0.025 C 
ATOM      6  C   UNL     1      39.816   9.080  28.346  1.00  0.00    -0.073 C 
ATOM      7  C   UNL     1      40.859   9.856  27.997  1.00  0.00     0.008 C 
ATOM      8  C   UNL     1      40.041   7.617  28.649  1.00  0.00     0.031 C 
ATOM      9  C   UNL     1      39.069   6.750  27.843  1.00  0.00     0.005 C 
ATOM     10  C   UNL     1      37.613   7.214  28.021  1.00  0.00     0.008 C 
ATOM     11  C   UNL     1      37.403   8.717  27.664  1.00  0.00    -0.018 C 
ATOM     12  C   UNL     1      35.951   9.102  28.038  1.00  0.00     0.088 C 
ATOM     13  C   UNL     1      35.709  10.579  27.920  1.00  0.00     0.159 C 
ATOM     14  O   UNL     1      34.625  10.973  27.410  1.00  0.00    -0.295 OA
ATOM     15  C   UNL     1      37.611   8.922  26.137  1.00  0.00     0.012 C 
ATOM     16  C   UNL     1      34.991  13.246  28.998  1.00  0.00     0.039 C 
ENDROOT
TORSDOF 0
ENDMDL
MODEL 4
REMARK VINA RESULT:    -5.772      1.855      3.335
REMARK INTER + INTRA:          -5.772
REMARK INTER:                  -5.772
REMARK INTRA:                   0.000
REMARK UNBOUND:                 0.000
REMARK SMILES C=C1CCC[C@@]2(C)CC(=O)C(=C(C)C)C[C@H]12
REMARK SMILES IDX 13 1 12 2 11 3 15 4 16 5 2 6 1 7 3 8 4 9 5 10 6 11 8 12 9 13
REMARK SMILES IDX 10 14 7 15 14 16
REMARK H PARENT
REMARK Flexibility Score: inf
ROOT
ATOM      1  C   UNL     1      33.153   8.821  25.935  1.00  0.00     0.039 C 
ATOM      2  C   UNL     1      33.622   9.836  26.951  1.00  0.00    -0.070 C 
ATOM      3  C   UNL     1      34.945   9.970  27.262  1.00  0.00    -0.006 C 
ATOM      4  C   UNL     1      36.005   9.116  26.579  1.00  0.00     0.047 C 
ATOM      5  C   UNL     1      37.369   9.839  26.456  1.00  0.00     0.025 C 
ATOM      6  C   UNL     1      38.485   9.014  25.813  1.00  0.00    -0.073 C 
ATOM      7  C   UNL     1      38.335   7.747  25.383  1.00  0.00     0.008 C 
ATOM      8  C   UNL     1      39.810   9.715  25.627  1.00  0.00     0.031 C 
ATOM      9  C   UNL     1      40.285  10.318  26.952  1.00  0.00     0.005 C 
ATOM     10  C   UNL     1      39.197  11.191  27.601  1.00  0.00     0.008 C 
ATOM     11  C   UNL     1      37.853  10.430  27.817  1.00  0.00    -0.018 C 
ATOM     12  C   UNL     1      36.799  11.449  28.316  1.00  0.00     0.088 C 
ATOM     13  C   UNL     1      35.419  10.858  28.363  1.00  0.00     0.159 C 
ATOM     14  O   UNL     1      34.685  11.119  29.354  1.00  0.00    -0.295 OA
ATOM     15  C   UNL     1      38.048   9.325  28.891  1.00  0.00     0.012 C 
ATOM     16  C   UNL     1      32.564  10.717  27.577  1.00  0.00     0.039 C 
ENDROOT
TORSDOF 0
ENDMDL
MODEL 5
REMARK VINA RESULT:    -5.634      2.501      5.075
REMARK INTER + INTRA:          -5.634
REMARK INTER:                  -5.634
REMARK INTRA:                   0.000
REMARK UNBOUND:                 0.000
REMARK SMILES C=C1CCC[C@@]2(C)CC(=O)C(=C(C)C)C[C@H]12
REMARK SMILES IDX 13 1 12 2 11 3 15 4 16 5 2 6 1 7 3 8 4 9 5 10 6 11 8 12 9 13
REMARK SMILES IDX 10 14 7 15 14 16
REMARK H PARENT
REMARK Flexibility Score: inf
ROOT
ATOM      1  C   UNL     1      41.903  11.133  26.060  1.00  0.00     0.039 C 
ATOM      2  C   UNL     1      41.297   9.807  25.662  1.00  0.00    -0.070 C 
ATOM      3  C   UNL     1      40.070   9.421  26.121  1.00  0.00    -0.006 C 
ATOM      4  C   UNL     1      39.251  10.324  27.034  1.00  0.00     0.047 C 
ATOM      5  C   UNL     1      37.724  10.134  26.853  1.00  0.00     0.025 C 
ATOM      6  C   UNL     1      36.851  10.986  27.774  1.00  0.00    -0.073 C 
ATOM      7  C   UNL     1      37.334  11.842  28.694  1.00  0.00     0.008 C 
ATOM      8  C   UNL     1      35.357  10.864  27.578  1.00  0.00     0.031 C 
ATOM      9  C   UNL     1      34.930   9.395  27.642  1.00  0.00     0.005 C 
ATOM     10  C   UNL     1      35.764   8.519  26.691  1.00  0.00     0.008 C 
ATOM     11  C   UNL     1      37.298   8.635  26.942  1.00  0.00    -0.018 C 
ATOM     12  C   UNL     1      38.028   7.845  25.829  1.00  0.00     0.088 C 
ATOM     13  C   UNL     1      39.515   8.061  25.864  1.00  0.00     0.159 C 
ATOM     14  O   UNL     1      40.271   7.068  25.686  1.00  0.00    -0.295 OA
ATOM     15  C   UNL     1      37.647   8.015  28.324  1.00  0.00     0.012 C 
ATOM     16  C   UNL     1      42.096   8.949  24.708  1.00  0.00     0.039 C 
ENDROOT
TORSDOF 0
ENDMDL
MODEL 6
REMARK VINA RESULT:    -5.444      2.443      5.652
REMARK INTER + INTRA:          -5.444
REMARK INTER:                  -5.444
REMARK INTRA:                   0.000
REMARK UNBOUND:                 0.000
REMARK SMILES C=C1CCC[C@@]2(C)CC(=O)C(=C(C)C)C[C@H]12
REMARK SMILES IDX 13 1 12 2 11 3 15 4 16 5 2 6 1 7 3 8 4 9 5 10 6 11 8 12 9 13
REMARK SMILES IDX 10 14 7 15 14 16
REMARK H PARENT
REMARK Flexibility Score: inf
ROOT
ATOM      1  C   UNL     1      40.845   6.186  25.206  1.00  0.00     0.039 C 
ATOM      2  C   UNL     1      40.786   6.633  26.648  1.00  0.00    -0.070 C 
ATOM      3  C   UNL     1      39.933   7.620  27.051  1.00  0.00    -0.006 C 
ATOM      4  C   UNL     1      38.987   8.295  26.066  1.00  0.00     0.047 C 
ATOM      5  C   UNL     1      37.673   8.776  26.729  1.00  0.00     0.025 C 
ATOM      6  C   UNL     1      36.701   9.498  25.794  1.00  0.00    -0.073 C 
ATOM      7  C   UNL     1      36.939   9.728  24.490  1.00  0.00     0.008 C 
ATOM      8  C   UNL     1      35.385   9.925  26.402  1.00  0.00     0.031 C 
ATOM      9  C   UNL     1      35.626  10.752  27.668  1.00  0.00     0.005 C 
ATOM     10  C   UNL     1      36.566  10.029  28.647  1.00  0.00     0.008 C 
ATOM     11  C   UNL     1      37.931   9.635  28.005  1.00  0.00    -0.018 C 
ATOM     12  C   UNL     1      38.715   8.778  29.029  1.00  0.00     0.088 C 
ATOM     13  C   UNL     1      39.957   8.180  28.434  1.00  0.00     0.159 C 
ATOM     14  O   UNL     1      41.014   8.177  29.121  1.00  0.00    -0.295 OA
ATOM     15  C   UNL     1      38.744  10.920  27.683  1.00  0.00     0.012 C 
ATOM     16  C   UNL     1      41.687   5.912  27.625  1.00  0.00     0.039 C 
ENDROOT
TORSDOF 0
ENDMDL
MODEL 7
REMARK VINA RESULT:    -5.410      2.372      5.280
REMARK INTER + INTRA:          -5.410
REMARK INTER:                  -5.410
REMARK INTRA:                   0.000
REMARK UNBOUND:                 0.000
REMARK SMILES C=C1CCC[C@@]2(C)CC(=O)C(=C(C)C)C[C@H]12
REMARK SMILES IDX 13 1 12 2 11 3 15 4 16 5 2 6 1 7 3 8 4 9 5 10 6 11 8 12 9 13
REMARK SMILES IDX 10 14 7 15 14 16
REMARK H PARENT
REMARK Flexibility Score: inf
ROOT
ATOM      1  C   UNL     1      41.479   6.778  27.871  1.00  0.00     0.039 C 
ATOM      2  C   UNL     1      41.052   8.226  27.944  1.00  0.00    -0.070 C 
ATOM      3  C   UNL     1      39.876   8.648  27.393  1.00  0.00    -0.006 C 
ATOM      4  C   UNL     1      38.935   7.670  26.702  1.00  0.00     0.047 C 
ATOM      5  C   UNL     1      37.448   8.088  26.813  1.00  0.00     0.025 C 
ATOM      6  C   UNL     1      36.459   7.164  26.102  1.00  0.00    -0.073 C 
ATOM      7  C   UNL     1      36.815   6.065  25.411  1.00  0.00     0.008 C 
ATOM      8  C   UNL     1      34.996   7.515  26.245  1.00  0.00     0.031 C 
ATOM      9  C   UNL     1      34.756   8.972  25.838  1.00  0.00     0.005 C 
ATOM     10  C   UNL     1      35.709   9.931  26.573  1.00  0.00     0.008 C 
ATOM     11  C   UNL     1      37.212   9.567  26.375  1.00  0.00    -0.018 C 
ATOM     12  C   UNL     1      38.054  10.493  27.287  1.00  0.00     0.088 C 
ATOM     13  C   UNL     1      39.501  10.089  27.322  1.00  0.00     0.159 C 
ATOM     14  O   UNL     1      40.379  10.992  27.277  1.00  0.00    -0.295 OA
ATOM     15  C   UNL     1      37.614   9.803  24.893  1.00  0.00     0.012 C 
ATOM     16  C   UNL     1      41.968   9.173  28.686  1.00  0.00     0.039 C 
ENDROOT
TORSDOF 0
ENDMDL
MODEL 8
REMARK VINA RESULT:    -5.290      2.146      5.292
REMARK INTER + INTRA:          -5.290
REMARK INTER:                  -5.290
REMARK INTRA:                   0.000
REMARK UNBOUND:                 0.000
REMARK SMILES C=C1CCC[C@@]2(C)CC(=O)C(=C(C)C)C[C@H]12
REMARK SMILES IDX 13 1 12 2 11 3 15 4 16 5 2 6 1 7 3 8 4 9 5 10 6 11 8 12 9 13
REMARK SMILES IDX 10 14 7 15 14 16
REMARK H PARENT
REMARK Flexibility Score: inf
ROOT
ATOM      1  C   UNL     1      35.769   4.399  24.957  1.00  0.00     0.039 C 
ATOM      2  C   UNL     1      37.031   4.985  25.546  1.00  0.00    -0.070 C 
ATOM      3  C   UNL     1      37.078   6.280  25.978  1.00  0.00    -0.006 C 
ATOM      4  C   UNL     1      35.851   7.180  25.905  1.00  0.00     0.047 C 
ATOM      5  C   UNL     1      35.821   8.246  27.027  1.00  0.00     0.025 C 
ATOM      6  C   UNL     1      34.631   9.205  26.980  1.00  0.00    -0.073 C 
ATOM      7  C   UNL     1      33.667   9.165  26.042  1.00  0.00     0.008 C 
ATOM      8  C   UNL     1      34.546  10.217  28.098  1.00  0.00     0.031 C 
ATOM      9  C   UNL     1      35.859  10.997  28.213  1.00  0.00     0.005 C 
ATOM     10  C   UNL     1      37.071  10.055  28.308  1.00  0.00     0.008 C 
ATOM     11  C   UNL     1      37.156   9.049  27.121  1.00  0.00    -0.018 C 
ATOM     12  C   UNL     1      38.311   8.058  27.412  1.00  0.00     0.088 C 
ATOM     13  C   UNL     1      38.346   6.925  26.426  1.00  0.00     0.159 C 
ATOM     14  O   UNL     1      39.464   6.548  25.983  1.00  0.00    -0.295 OA
ATOM     15  C   UNL     1      37.461   9.819  25.806  1.00  0.00     0.012 C 
ATOM     16  C   UNL     1      38.222   4.062  25.667  1.00  0.00     0.039 C 
ENDROOT
TORSDOF 0
ENDMDL
