MODEL 1
REMARK VINA RESULT:    -1.906      0.000      0.000
REMARK INTER + INTRA:          -2.580
REMARK INTER:                  -2.686
REMARK INTRA:                   0.106
REMARK UNBOUND:                 0.106
REMARK SMILES CC1=CCC(=C(C)C)C(=O)CC(C)=CCC1
REMARK SMILES IDX 12 1 14 2 13 3 15 4 16 5 2 6 1 7 3 8 11 10 9 11 10 12 5 13
REMARK SMILES IDX 6 14 7 15 8 16 4 17
REMARK H PARENT
REMARK Flexibility Score: 60.00
ROOT
ATOM      1  C   UNL     1      26.345  25.179  26.801  1.00  0.00    -0.070 C 
ATOM      2  C   UNL     1      25.686  25.119  27.988  1.00  0.00    -0.027 C 
ATOM      3  C   UNL     1      26.760  23.888  26.139  1.00  0.00     0.039 C 
ENDROOT
BRANCH   2   4
ATOM      4  C   UNL     1      25.114  26.294  28.745  1.00  0.00     0.032 C 
BRANCH   4   5
ATOM      5  C   UNL     1      26.107  26.922  29.732  1.00  0.00     0.034 C 
BRANCH   5   6
ATOM      6  C   UNL     1      26.133  28.428  29.561  1.00  0.00    -0.077 C 
ATOM      7  C   UNL     1      24.913  29.215  29.965  1.00  0.00     0.039 C 
ATOM      8  C   UNL     1      27.165  29.097  28.993  1.00  0.00    -0.023 CG0
ATOM      9  G   UNL     1      28.471  28.486  28.542  1.00  0.00     0.000 G0
ENDBRANCH   5   6
ENDBRANCH   4   5
ENDBRANCH   2   4
BRANCH   1  10
ATOM     10  C   UNL     1      26.826  26.470  26.152  1.00  0.00     0.111 C 
BRANCH  10  11
ATOM     11  C   UNL     1      28.225  26.871  26.548  1.00  0.00     0.163 C 
ATOM     12  O   UNL     1      29.123  25.986  26.496  1.00  0.00    -0.294 OA
BRANCH  11  13
ATOM     13  C   UNL     1      28.565  28.244  27.046  1.00  0.00    -0.002 C 
ATOM     14  C   UNL     1      28.874  29.251  26.170  1.00  0.00    -0.069 C 
ATOM     15  C   UNL     1      29.032  28.994  24.687  1.00  0.00     0.039 C 
ATOM     16  C   UNL     1      29.125  30.667  26.640  1.00  0.00     0.039 C 
BRANCH  13  17
ATOM     17  C   UNL     1      28.505  28.516  28.549  1.00  0.00     0.066 CG0
ATOM     18  G   UNL     1      27.175  29.096  28.970  1.00  0.00     0.000 G0
ENDBRANCH  13  17
ENDBRANCH  11  13
ENDBRANCH  10  11
ENDBRANCH   1  10
TORSDOF 0
ENDMDL
MODEL 2
REMARK VINA RESULT:    -0.631      1.486      2.128
REMARK INTER + INTRA:          -0.783
REMARK INTER:                  -2.229
REMARK INTRA:                   1.447
REMARK UNBOUND:                 0.106
REMARK SMILES CC1=CCC(=C(C)C)C(=O)CC(C)=CCC1
REMARK SMILES IDX 12 1 14 2 13 3 15 4 16 5 2 6 1 7 3 8 11 10 9 11 10 12 5 13
REMARK SMILES IDX 6 14 7 15 8 16 4 17
REMARK H PARENT
REMARK Flexibility Score: 60.00
ROOT
ATOM      1  C   UNL     1      27.612  24.791  26.034  1.00  0.00    -0.070 C 
ATOM      2  C   UNL     1      26.755  24.120  26.847  1.00  0.00    -0.027 C 
ATOM      3  C   UNL     1      29.031  24.292  25.910  1.00  0.00     0.039 C 
ENDROOT
BRANCH   2   4
ATOM      4  C   UNL     1      25.284  24.415  27.020  1.00  0.00     0.032 C 
BRANCH   4   5
ATOM      5  C   UNL     1      24.931  24.944  28.418  1.00  0.00     0.034 C 
BRANCH   5   6
ATOM      6  C   UNL     1      24.697  26.441  28.367  1.00  0.00    -0.077 C 
ATOM      7  C   UNL     1      23.276  26.942  28.356  1.00  0.00     0.039 C 
ATOM      8  C   UNL     1      25.695  27.349  28.254  1.00  0.00    -0.023 CG0
ATOM      9  G   UNL     1      27.174  27.041  28.263  1.00  0.00     0.000 G0
ENDBRANCH   5   6
ENDBRANCH   4   5
ENDBRANCH   2   4
BRANCH   1  10
ATOM     10  C   UNL     1      27.285  26.107  25.340  1.00  0.00     0.111 C 
BRANCH  10  11
ATOM     11  C   UNL     1      28.098  27.278  25.830  1.00  0.00     0.163 C 
ATOM     12  O   UNL     1      29.007  27.716  25.072  1.00  0.00    -0.294 OA
BRANCH  11  13
ATOM     13  C   UNL     1      27.905  27.890  27.186  1.00  0.00    -0.002 C 
ATOM     14  C   UNL     1      28.321  29.169  27.443  1.00  0.00    -0.069 C 
ATOM     15  C   UNL     1      29.119  29.964  26.433  1.00  0.00     0.039 C 
ATOM     16  C   UNL     1      28.051  29.843  28.771  1.00  0.00     0.039 C 
BRANCH  13  17
ATOM     17  C   UNL     1      27.183  27.079  28.262  1.00  0.00     0.066 CG0
ATOM     18  G   UNL     1      25.694  27.337  28.265  1.00  0.00     0.000 G0
ENDBRANCH  13  17
ENDBRANCH  11  13
ENDBRANCH  10  11
ENDBRANCH   1  10
TORSDOF 0
ENDMDL
MODEL 3
REMARK VINA RESULT:     0.373     12.717     15.407
REMARK INTER + INTRA:           0.633
REMARK INTER:                  -0.585
REMARK INTRA:                   1.218
REMARK UNBOUND:                 0.106
REMARK SMILES CC1=CCC(=C(C)C)C(=O)CC(C)=CCC1
REMARK SMILES IDX 12 1 14 2 13 3 15 4 16 5 2 6 1 7 3 8 11 10 9 11 10 12 5 13
REMARK SMILES IDX 6 14 7 15 8 16 4 17
REMARK H PARENT
REMARK Flexibility Score: 60.00
ROOT
ATOM      1  C   UNL     1      28.726  39.956  18.415  1.00  0.00    -0.070 C 
ATOM      2  C   UNL     1      28.302  41.214  18.120  1.00  0.00    -0.027 C 
ATOM      3  C   UNL     1      28.759  38.927  17.312  1.00  0.00     0.039 C 
ENDROOT
BRANCH   2   4
ATOM      4  C   UNL     1      28.293  42.390  19.067  1.00  0.00     0.032 C 
BRANCH   4   5
ATOM      5  C   UNL     1      26.892  42.975  19.294  1.00  0.00     0.034 C 
BRANCH   5   6
ATOM      6  C   UNL     1      26.513  42.873  20.758  1.00  0.00    -0.077 C 
ATOM      7  C   UNL     1      26.883  44.012  21.673  1.00  0.00     0.039 C 
ATOM      8  C   UNL     1      25.928  41.780  21.303  1.00  0.00    -0.023 CG0
ATOM      9  G   UNL     1      25.472  40.554  20.548  1.00  0.00     0.000 G0
ENDBRANCH   5   6
ENDBRANCH   4   5
ENDBRANCH   2   4
BRANCH   1  10
ATOM     10  C   UNL     1      29.040  39.464  19.822  1.00  0.00     0.111 C 
BRANCH  10  11
ATOM     11  C   UNL     1      27.964  39.772  20.833  1.00  0.00     0.163 C 
ATOM     12  O   UNL     1      28.319  40.309  21.918  1.00  0.00    -0.294 OA
BRANCH  11  13
ATOM     13  C   UNL     1      26.523  39.413  20.619  1.00  0.00    -0.002 C 
ATOM     14  C   UNL     1      26.131  38.103  20.546  1.00  0.00    -0.069 C 
ATOM     15  C   UNL     1      27.135  36.971  20.527  1.00  0.00     0.039 C 
ATOM     16  C   UNL     1      24.673  37.714  20.429  1.00  0.00     0.039 C 
BRANCH  13  17
ATOM     17  C   UNL     1      25.491  40.537  20.540  1.00  0.00     0.066 CG0
ATOM     18  G   UNL     1      25.936  41.772  21.288  1.00  0.00     0.000 G0
ENDBRANCH  13  17
ENDBRANCH  11  13
ENDBRANCH  10  11
ENDBRANCH   1  10
TORSDOF 0
ENDMDL
MODEL 4
REMARK VINA RESULT:     1.054     13.313     15.118
REMARK INTER + INTRA:           1.592
REMARK INTER:                   0.296
REMARK INTRA:                   1.296
REMARK UNBOUND:                 0.106
REMARK SMILES CC1=CCC(=C(C)C)C(=O)CC(C)=CCC1
REMARK SMILES IDX 12 1 14 2 13 3 15 4 16 5 2 6 1 7 3 8 11 10 9 11 10 12 5 13
REMARK SMILES IDX 6 14 7 15 8 16 4 17
REMARK H PARENT
REMARK Flexibility Score: 60.00
ROOT
ATOM      1  C   UNL     1      28.696  39.705  18.895  1.00  0.00    -0.070 C 
ATOM      2  C   UNL     1      29.118  40.790  19.596  1.00  0.00    -0.027 C 
ATOM      3  C   UNL     1      28.893  39.690  17.398  1.00  0.00     0.039 C 
ENDROOT
BRANCH   2   4
ATOM      4  C   UNL     1      29.091  40.939  21.098  1.00  0.00     0.032 C 
BRANCH   4   5
ATOM      5  C   UNL     1      27.956  41.844  21.599  1.00  0.00     0.034 C 
BRANCH   5   6
ATOM      6  C   UNL     1      26.957  42.094  20.486  1.00  0.00    -0.077 C 
ATOM      7  C   UNL     1      27.144  43.312  19.619  1.00  0.00     0.039 C 
ATOM      8  C   UNL     1      25.863  41.324  20.279  1.00  0.00    -0.023 CG0
ATOM      9  G   UNL     1      25.516  40.061  21.032  1.00  0.00     0.000 G0
ENDBRANCH   5   6
ENDBRANCH   4   5
ENDBRANCH   2   4
BRANCH   1  10
ATOM     10  C   UNL     1      27.904  38.551  19.494  1.00  0.00     0.111 C 
BRANCH  10  11
ATOM     11  C   UNL     1      26.443  38.551  19.120  1.00  0.00     0.163 C 
ATOM     12  O   UNL     1      26.150  38.341  17.910  1.00  0.00    -0.294 OA
BRANCH  11  13
ATOM     13  C   UNL     1      25.352  38.843  20.107  1.00  0.00    -0.002 C 
ATOM     14  C   UNL     1      24.263  38.019  20.212  1.00  0.00    -0.069 C 
ATOM     15  C   UNL     1      24.036  36.874  19.249  1.00  0.00     0.039 C 
ATOM     16  C   UNL     1      23.198  38.237  21.265  1.00  0.00     0.039 C 
BRANCH  13  17
ATOM     17  C   UNL     1      25.505  40.047  21.035  1.00  0.00     0.066 CG0
ATOM     18  G   UNL     1      25.866  41.305  20.280  1.00  0.00     0.000 G0
ENDBRANCH  13  17
ENDBRANCH  11  13
ENDBRANCH  10  11
ENDBRANCH   1  10
TORSDOF 0
ENDMDL
