MODEL 1
REMARK VINA RESULT:    -5.336      0.000      0.000
REMARK INTER + INTRA:          -5.492
REMARK INTER:                  -5.492
REMARK INTRA:                   0.000
REMARK UNBOUND:                 0.000
REMARK SMILES O=c1ccc2cc(O)ccc2o1
REMARK SMILES IDX 9 1 10 2 11 3 5 4 4 5 3 6 2 7 1 8 12 9 6 10 7 11 8 12
REMARK H PARENT 8 13
REMARK Flexibility Score: inf
ROOT
ATOM      1  C   UNL     1      20.358   0.384 -17.786  1.00  0.00     0.050 A 
ATOM      2  C   UNL     1      21.108   1.036 -18.770  1.00  0.00     0.052 A 
ATOM      3  C   UNL     1      21.121   0.547 -20.080  1.00  0.00     0.138 A 
ATOM      4  C   UNL     1      20.375  -0.607 -20.405  1.00  0.00     0.021 A 
ATOM      5  C   UNL     1      20.407  -1.073 -21.724  1.00  0.00     0.019 A 
ATOM      6  C   UNL     1      21.170  -0.390 -22.671  1.00  0.00     0.094 A 
ATOM      7  C   UNL     1      21.884   0.747 -22.277  1.00  0.00     0.336 A 
ATOM      8  O   UNL     1      22.577   1.377 -23.118  1.00  0.00    -0.246 OA
ATOM      9  O   UNL     1      21.835   1.169 -21.016  1.00  0.00    -0.423 OA
ATOM     10  C   UNL     1      19.625  -1.258 -19.415  1.00  0.00     0.058 A 
ATOM     11  C   UNL     1      19.617  -0.761 -18.103  1.00  0.00     0.116 A 
ENDROOT
BRANCH  11  12
ATOM     12  O   UNL     1      18.876  -1.396 -17.109  1.00  0.00    -0.508 OA
ATOM     13  H   UNL     1      18.528  -0.891 -16.303  1.00  0.00     0.293 HD
ENDBRANCH  11  12
TORSDOF 1
ENDMDL
MODEL 2
REMARK VINA RESULT:    -5.243     16.036     18.617
REMARK INTER + INTRA:          -5.396
REMARK INTER:                  -5.396
REMARK INTRA:                   0.000
REMARK UNBOUND:                 0.000
REMARK SMILES O=c1ccc2cc(O)ccc2o1
REMARK SMILES IDX 9 1 10 2 11 3 5 4 4 5 3 6 2 7 1 8 12 9 6 10 7 11 8 12
REMARK H PARENT 8 13
REMARK Flexibility Score: inf
ROOT
ATOM      1  C   UNL     1       7.666  -6.609  -5.736  1.00  0.00     0.050 A 
ATOM      2  C   UNL     1       8.668  -5.919  -6.426  1.00  0.00     0.052 A 
ATOM      3  C   UNL     1       9.482  -6.595  -7.341  1.00  0.00     0.138 A 
ATOM      4  C   UNL     1       9.287  -7.976  -7.565  1.00  0.00     0.021 A 
ATOM      5  C   UNL     1      10.117  -8.625  -8.486  1.00  0.00     0.019 A 
ATOM      6  C   UNL     1      11.103  -7.897  -9.150  1.00  0.00     0.094 A 
ATOM      7  C   UNL     1      11.238  -6.530  -8.878  1.00  0.00     0.336 A 
ATOM      8  O   UNL     1      12.121  -5.856  -9.467  1.00  0.00    -0.246 OA
ATOM      9  O   UNL     1      10.435  -5.938  -7.997  1.00  0.00    -0.423 OA
ATOM     10  C   UNL     1       8.281  -8.663  -6.870  1.00  0.00     0.058 A 
ATOM     11  C   UNL     1       7.470  -7.977  -5.955  1.00  0.00     0.116 A 
ENDROOT
BRANCH  11  12
ATOM     12  O   UNL     1       6.466  -8.647  -5.259  1.00  0.00    -0.508 OA
ATOM     13  H   UNL     1       5.486  -8.484  -5.455  1.00  0.00     0.293 HD
ENDBRANCH  11  12
TORSDOF 1
ENDMDL
MODEL 3
REMARK VINA RESULT:    -5.209      1.483      4.361
REMARK INTER + INTRA:          -5.361
REMARK INTER:                  -5.361
REMARK INTRA:                   0.000
REMARK UNBOUND:                 0.000
REMARK SMILES O=c1ccc2cc(O)ccc2o1
REMARK SMILES IDX 9 1 10 2 11 3 5 4 4 5 3 6 2 7 1 8 12 9 6 10 7 11 8 12
REMARK H PARENT 8 13
REMARK Flexibility Score: inf
ROOT
ATOM      1  C   UNL     1      21.695   0.833 -21.308  1.00  0.00     0.050 A 
ATOM      2  C   UNL     1      21.423   1.244 -19.999  1.00  0.00     0.052 A 
ATOM      3  C   UNL     1      20.568   0.488 -19.191  1.00  0.00     0.138 A 
ATOM      4  C   UNL     1      19.980  -0.690 -19.701  1.00  0.00     0.021 A 
ATOM      5  C   UNL     1      19.128  -1.425 -18.869  1.00  0.00     0.019 A 
ATOM      6  C   UNL     1      18.887  -0.977 -17.571  1.00  0.00     0.094 A 
ATOM      7  C   UNL     1      19.504   0.200 -17.133  1.00  0.00     0.336 A 
ATOM      8  O   UNL     1      19.299   0.620 -15.965  1.00  0.00    -0.246 OA
ATOM      9  O   UNL     1      20.310   0.880 -17.945  1.00  0.00    -0.423 OA
ATOM     10  C   UNL     1      20.255  -1.098 -21.014  1.00  0.00     0.058 A 
ATOM     11  C   UNL     1      21.114  -0.334 -21.818  1.00  0.00     0.116 A 
ENDROOT
BRANCH  11  12
ATOM     12  O   UNL     1      21.398  -0.727 -23.124  1.00  0.00    -0.508 OA
ATOM     13  H   UNL     1      21.269  -1.684 -23.430  1.00  0.00     0.293 HD
ENDBRANCH  11  12
TORSDOF 1
ENDMDL
MODEL 4
REMARK VINA RESULT:    -5.141      1.477      4.675
REMARK INTER + INTRA:          -5.292
REMARK INTER:                  -5.292
REMARK INTRA:                   0.000
REMARK UNBOUND:                 0.000
REMARK SMILES O=c1ccc2cc(O)ccc2o1
REMARK SMILES IDX 9 1 10 2 11 3 5 4 4 5 3 6 2 7 1 8 12 9 6 10 7 11 8 12
REMARK H PARENT 8 13
REMARK Flexibility Score: inf
ROOT
ATOM      1  C   UNL     1      21.809   0.836 -23.125  1.00  0.00     0.050 A 
ATOM      2  C   UNL     1      21.321  -0.351 -22.569  1.00  0.00     0.052 A 
ATOM      3  C   UNL     1      20.922  -0.386 -21.230  1.00  0.00     0.138 A 
ATOM      4  C   UNL     1      21.014   0.781 -20.440  1.00  0.00     0.021 A 
ATOM      5  C   UNL     1      20.607   0.716 -19.103  1.00  0.00     0.019 A 
ATOM      6  C   UNL     1      20.127  -0.490 -18.592  1.00  0.00     0.094 A 
ATOM      7  C   UNL     1      20.063  -1.607 -19.434  1.00  0.00     0.336 A 
ATOM      8  O   UNL     1      19.632  -2.703 -18.992  1.00  0.00    -0.246 OA
ATOM      9  O   UNL     1      20.456  -1.517 -20.702  1.00  0.00    -0.423 OA
ATOM     10  C   UNL     1      21.505   1.969 -21.001  1.00  0.00     0.058 A 
ATOM     11  C   UNL     1      21.903   1.995 -22.345  1.00  0.00     0.116 A 
ENDROOT
BRANCH  11  12
ATOM     12  O   UNL     1      22.392   3.168 -22.917  1.00  0.00    -0.508 OA
ATOM     13  H   UNL     1      22.010   4.074 -22.674  1.00  0.00     0.293 HD
ENDBRANCH  11  12
TORSDOF 1
ENDMDL
MODEL 5
REMARK VINA RESULT:    -5.096     16.521     18.609
REMARK INTER + INTRA:          -5.245
REMARK INTER:                  -5.245
REMARK INTRA:                   0.000
REMARK UNBOUND:                 0.000
REMARK SMILES O=c1ccc2cc(O)ccc2o1
REMARK SMILES IDX 9 1 10 2 11 3 5 4 4 5 3 6 2 7 1 8 12 9 6 10 7 11 8 12
REMARK H PARENT 8 13
REMARK Flexibility Score: inf
ROOT
ATOM      1  C   UNL     1       7.583  -7.268  -5.908  1.00  0.00     0.050 A 
ATOM      2  C   UNL     1       8.148  -8.222  -6.761  1.00  0.00     0.052 A 
ATOM      3  C   UNL     1       9.230  -7.878  -7.578  1.00  0.00     0.138 A 
ATOM      4  C   UNL     1       9.749  -6.565  -7.538  1.00  0.00     0.021 A 
ATOM      5  C   UNL     1      10.831  -6.251  -8.367  1.00  0.00     0.019 A 
ATOM      6  C   UNL     1      11.362  -7.234  -9.201  1.00  0.00     0.094 A 
ATOM      7  C   UNL     1      10.796  -8.515  -9.187  1.00  0.00     0.336 A 
ATOM      8  O   UNL     1      11.262  -9.415  -9.933  1.00  0.00    -0.246 OA
ATOM      9  O   UNL     1       9.767  -8.787  -8.389  1.00  0.00    -0.423 OA
ATOM     10  C   UNL     1       9.178  -5.612  -6.682  1.00  0.00     0.058 A 
ATOM     11  C   UNL     1       8.094  -5.966  -5.866  1.00  0.00     0.116 A 
ENDROOT
BRANCH  11  12
ATOM     12  O   UNL     1       7.518  -5.030  -5.010  1.00  0.00    -0.508 OA
ATOM     13  H   UNL     1       6.519  -5.007  -4.844  1.00  0.00     0.293 HD
ENDBRANCH  11  12
TORSDOF 1
ENDMDL
MODEL 6
REMARK VINA RESULT:    -5.006      2.486      4.230
REMARK INTER + INTRA:          -5.152
REMARK INTER:                  -5.152
REMARK INTRA:                   0.000
REMARK UNBOUND:                 0.000
REMARK SMILES O=c1ccc2cc(O)ccc2o1
REMARK SMILES IDX 9 1 10 2 11 3 5 4 4 5 3 6 2 7 1 8 12 9 6 10 7 11 8 12
REMARK H PARENT 8 13
REMARK Flexibility Score: inf
ROOT
ATOM      1  C   UNL     1      18.806  -0.699 -18.641  1.00  0.00     0.050 A 
ATOM      2  C   UNL     1      19.477  -0.317 -17.475  1.00  0.00     0.052 A 
ATOM      3  C   UNL     1      20.639   0.456 -17.557  1.00  0.00     0.138 A 
ATOM      4  C   UNL     1      21.133   0.850 -18.820  1.00  0.00     0.021 A 
ATOM      5  C   UNL     1      22.298   1.623 -18.871  1.00  0.00     0.019 A 
ATOM      6  C   UNL     1      22.933   1.980 -17.681  1.00  0.00     0.094 A 
ATOM      7  C   UNL     1      22.386   1.555 -16.465  1.00  0.00     0.336 A 
ATOM      8  O   UNL     1      22.945   1.868 -15.382  1.00  0.00    -0.246 OA
ATOM      9  O   UNL     1      21.277   0.820 -16.446  1.00  0.00    -0.423 OA
ATOM     10  C   UNL     1      20.457   0.463 -19.987  1.00  0.00     0.058 A 
ATOM     11  C   UNL     1      19.292  -0.312 -19.896  1.00  0.00     0.116 A 
ENDROOT
BRANCH  11  12
ATOM     12  O   UNL     1      18.609  -0.703 -21.046  1.00  0.00    -0.508 OA
ATOM     13  H   UNL     1      17.630  -0.482 -21.182  1.00  0.00     0.293 HD
ENDBRANCH  11  12
TORSDOF 1
ENDMDL
MODEL 7
REMARK VINA RESULT:    -4.982      2.294      3.464
REMARK INTER + INTRA:          -5.128
REMARK INTER:                  -5.128
REMARK INTRA:                   0.000
REMARK UNBOUND:                 0.000
REMARK SMILES O=c1ccc2cc(O)ccc2o1
REMARK SMILES IDX 9 1 10 2 11 3 5 4 4 5 3 6 2 7 1 8 12 9 6 10 7 11 8 12
REMARK H PARENT 8 13
REMARK Flexibility Score: inf
ROOT
ATOM      1  C   UNL     1      21.652   1.503 -15.862  1.00  0.00     0.050 A 
ATOM      2  C   UNL     1      21.902   1.004 -17.145  1.00  0.00     0.052 A 
ATOM      3  C   UNL     1      20.890   0.347 -17.851  1.00  0.00     0.138 A 
ATOM      4  C   UNL     1      19.615   0.189 -17.264  1.00  0.00     0.021 A 
ATOM      5  C   UNL     1      18.622  -0.474 -17.995  1.00  0.00     0.019 A 
ATOM      6  C   UNL     1      18.918  -0.955 -19.270  1.00  0.00     0.094 A 
ATOM      7  C   UNL     1      20.204  -0.761 -19.788  1.00  0.00     0.336 A 
ATOM      8  O   UNL     1      20.489  -1.187 -20.937  1.00  0.00    -0.246 OA
ATOM      9  O   UNL     1      21.129  -0.128 -19.072  1.00  0.00    -0.423 OA
ATOM     10  C   UNL     1      19.369   0.690 -15.978  1.00  0.00     0.058 A 
ATOM     11  C   UNL     1      20.390   1.348 -15.277  1.00  0.00     0.116 A 
ENDROOT
BRANCH  11  12
ATOM     12  O   UNL     1      20.160   1.853 -13.999  1.00  0.00    -0.508 OA
ATOM     13  H   UNL     1      19.433   2.536 -13.821  1.00  0.00     0.293 HD
ENDBRANCH  11  12
TORSDOF 1
ENDMDL
MODEL 8
REMARK VINA RESULT:    -4.879     16.622     17.708
REMARK INTER + INTRA:          -5.022
REMARK INTER:                  -5.022
REMARK INTRA:                   0.000
REMARK UNBOUND:                 0.000
REMARK SMILES O=c1ccc2cc(O)ccc2o1
REMARK SMILES IDX 9 1 10 2 11 3 5 4 4 5 3 6 2 7 1 8 12 9 6 10 7 11 8 12
REMARK H PARENT 8 13
REMARK Flexibility Score: inf
ROOT
ATOM      1  C   UNL     1       9.021  -7.260  -7.340  1.00  0.00     0.050 A 
ATOM      2  C   UNL     1       8.328  -8.044  -8.268  1.00  0.00     0.052 A 
ATOM      3  C   UNL     1       8.291  -7.667  -9.614  1.00  0.00     0.138 A 
ATOM      4  C   UNL     1       8.956  -6.493 -10.033  1.00  0.00     0.021 A 
ATOM      5  C   UNL     1       8.901  -6.142 -11.386  1.00  0.00     0.019 A 
ATOM      6  C   UNL     1       8.197  -6.954 -12.275  1.00  0.00     0.094 A 
ATOM      7  C   UNL     1       7.564  -8.104 -11.789  1.00  0.00     0.336 A 
ATOM      8  O   UNL     1       6.925  -8.849 -12.576  1.00  0.00    -0.246 OA
ATOM      9  O   UNL     1       7.632  -8.415 -10.498  1.00  0.00    -0.423 OA
ATOM     10  C   UNL     1       9.648  -5.710  -9.098  1.00  0.00     0.058 A 
ATOM     11  C   UNL     1       9.681  -6.095  -7.750  1.00  0.00     0.116 A 
ENDROOT
BRANCH  11  12
ATOM     12  O   UNL     1      10.366  -5.328  -6.811  1.00  0.00    -0.508 OA
ATOM     13  H   UNL     1      10.020  -5.213  -5.866  1.00  0.00     0.293 HD
ENDBRANCH  11  12
TORSDOF 1
ENDMDL
MODEL 9
REMARK VINA RESULT:    -4.748     16.481     18.506
REMARK INTER + INTRA:          -4.887
REMARK INTER:                  -4.887
REMARK INTRA:                   0.000
REMARK UNBOUND:                 0.000
REMARK SMILES O=c1ccc2cc(O)ccc2o1
REMARK SMILES IDX 9 1 10 2 11 3 5 4 4 5 3 6 2 7 1 8 12 9 6 10 7 11 8 12
REMARK H PARENT 8 13
REMARK Flexibility Score: inf
ROOT
ATOM      1  C   UNL     1       8.036  -5.353 -11.440  1.00  0.00     0.050 A 
ATOM      2  C   UNL     1       7.997  -4.884 -10.123  1.00  0.00     0.052 A 
ATOM      3  C   UNL     1       7.989  -5.789  -9.057  1.00  0.00     0.138 A 
ATOM      4  C   UNL     1       8.021  -7.177  -9.316  1.00  0.00     0.021 A 
ATOM      5  C   UNL     1       8.011  -8.059  -8.230  1.00  0.00     0.019 A 
ATOM      6  C   UNL     1       7.972  -7.546  -6.933  1.00  0.00     0.094 A 
ATOM      7  C   UNL     1       7.942  -6.158  -6.752  1.00  0.00     0.336 A 
ATOM      8  O   UNL     1       7.907  -5.677  -5.590  1.00  0.00    -0.246 OA
ATOM      9  O   UNL     1       7.952  -5.343  -7.803  1.00  0.00    -0.423 OA
ATOM     10  C   UNL     1       8.059  -7.642 -10.638  1.00  0.00     0.058 A 
ATOM     11  C   UNL     1       8.067  -6.727 -11.701  1.00  0.00     0.116 A 
ENDROOT
BRANCH  11  12
ATOM     12  O   UNL     1       8.107  -7.175 -13.020  1.00  0.00    -0.508 OA
ATOM     13  H   UNL     1       7.269  -7.475 -13.503  1.00  0.00     0.293 HD
ENDBRANCH  11  12
TORSDOF 1
ENDMDL
