MODEL 1
REMARK VINA RESULT:    -4.688      0.000      0.000
REMARK INTER + INTRA:          -8.559
REMARK INTER:                  -7.429
REMARK INTRA:                  -1.131
REMARK UNBOUND:                -1.131
REMARK SMILES CCCCCCCCCCCC(=O)[O-]
REMARK SMILES IDX 7 1 8 2 9 3 10 4 11 5 12 6 13 7 14 8 6 9 5 10 4 11 3 12 2 13
REMARK SMILES IDX 1 14
REMARK H PARENT
REMARK Flexibility Score: inf
ROOT
ATOM      1  C   UNL     1      11.257   0.026  34.140  1.00  0.00     0.000 C 
ENDROOT
BRANCH   1   2
ATOM      2  C   UNL     1      10.534   1.131  33.352  1.00  0.00     0.000 C 
BRANCH   2   3
ATOM      3  C   UNL     1       9.380   1.766  34.143  1.00  0.00     0.000 C 
BRANCH   3   4
ATOM      4  C   UNL     1       8.247   0.757  34.365  1.00  0.00     0.006 C 
BRANCH   4   5
ATOM      5  C   UNL     1       7.837   0.706  35.839  1.00  0.00     0.053 C 
BRANCH   5   6
ATOM      6  C   UNL     1       6.660  -0.200  36.025  1.00  0.00     0.041 C 
ATOM      7  O   UNL     1       6.782  -1.441  35.848  1.00  0.00    -0.550 OA
ATOM      8  O   UNL     1       5.417   0.330  36.345  1.00  0.00    -0.550 OA
ENDBRANCH   5   6
ENDBRANCH   4   5
ENDBRANCH   3   4
ENDBRANCH   2   3
ENDBRANCH   1   2
BRANCH   1   9
ATOM      9  C   UNL     1      12.696   0.417  34.518  1.00  0.00     0.000 C 
BRANCH   9  10
ATOM     10  C   UNL     1      12.772   1.158  35.862  1.00  0.00    -0.000 C 
BRANCH  10  11
ATOM     11  C   UNL     1      13.440   2.539  35.743  1.00  0.00    -0.000 C 
BRANCH  11  12
ATOM     12  C   UNL     1      12.422   3.681  35.574  1.00  0.00    -0.000 C 
BRANCH  12  13
ATOM     13  C   UNL     1      12.254   4.187  34.131  1.00  0.00    -0.003 C 
ATOM     14  C   UNL     1      13.422   3.803  33.223  1.00  0.00     0.004 C 
ENDBRANCH  12  13
ENDBRANCH  11  12
ENDBRANCH  10  11
ENDBRANCH   9  10
ENDBRANCH   1   9
TORSDOF 10
ENDMDL
MODEL 2
REMARK VINA RESULT:    -4.576      2.728      4.619
REMARK INTER + INTRA:          -8.383
REMARK INTER:                  -8.005
REMARK INTRA:                  -0.377
REMARK UNBOUND:                -1.131
REMARK SMILES CCCCCCCCCCCC(=O)[O-]
REMARK SMILES IDX 7 1 8 2 9 3 10 4 11 5 12 6 13 7 14 8 6 9 5 10 4 11 3 12 2 13
REMARK SMILES IDX 1 14
REMARK H PARENT
REMARK Flexibility Score: inf
ROOT
ATOM      1  C   UNL     1       7.563   0.850  36.008  1.00  0.00     0.000 C 
ENDROOT
BRANCH   1   2
ATOM      2  C   UNL     1       6.440  -0.201  35.980  1.00  0.00     0.000 C 
BRANCH   2   3
ATOM      3  C   UNL     1       5.078   0.375  36.398  1.00  0.00     0.000 C 
BRANCH   3   4
ATOM      4  C   UNL     1       4.274  -0.651  37.205  1.00  0.00     0.006 C 
BRANCH   4   5
ATOM      5  C   UNL     1       3.350   0.042  38.210  1.00  0.00     0.053 C 
BRANCH   5   6
ATOM      6  C   UNL     1       2.516  -0.965  38.938  1.00  0.00     0.041 C 
ATOM      7  O   UNL     1       2.551  -1.028  40.195  1.00  0.00    -0.550 OA
ATOM      8  O   UNL     1       1.739  -1.869  38.225  1.00  0.00    -0.550 OA
ENDBRANCH   5   6
ENDBRANCH   4   5
ENDBRANCH   3   4
ENDBRANCH   2   3
ENDBRANCH   1   2
BRANCH   1   9
ATOM      9  C   UNL     1       8.941   0.250  35.680  1.00  0.00     0.000 C 
BRANCH   9  10
ATOM     10  C   UNL     1       9.049  -0.215  34.219  1.00  0.00    -0.000 C 
BRANCH  10  11
ATOM     11  C   UNL     1      10.507  -0.356  33.746  1.00  0.00    -0.000 C 
BRANCH  11  12
ATOM     12  C   UNL     1      11.372   0.863  34.113  1.00  0.00    -0.000 C 
BRANCH  12  13
ATOM     13  C   UNL     1      12.737   0.519  34.736  1.00  0.00    -0.003 C 
ATOM     14  C   UNL     1      13.131   1.461  35.872  1.00  0.00     0.004 C 
ENDBRANCH  12  13
ENDBRANCH  11  12
ENDBRANCH  10  11
ENDBRANCH   9  10
ENDBRANCH   1   9
TORSDOF 10
ENDMDL
MODEL 3
REMARK VINA RESULT:    -4.542      3.417      6.868
REMARK INTER + INTRA:          -8.328
REMARK INTER:                  -7.699
REMARK INTRA:                  -0.629
REMARK UNBOUND:                -1.131
REMARK SMILES CCCCCCCCCCCC(=O)[O-]
REMARK SMILES IDX 7 1 8 2 9 3 10 4 11 5 12 6 13 7 14 8 6 9 5 10 4 11 3 12 2 13
REMARK SMILES IDX 1 14
REMARK H PARENT
REMARK Flexibility Score: inf
ROOT
ATOM      1  C   UNL     1       9.025   1.395  34.788  1.00  0.00     0.000 C 
ENDROOT
BRANCH   1   2
ATOM      2  C   UNL     1      10.164   1.209  33.771  1.00  0.00     0.000 C 
BRANCH   2   3
ATOM      3  C   UNL     1      11.095   0.041  34.131  1.00  0.00     0.000 C 
BRANCH   3   4
ATOM      4  C   UNL     1      12.521   0.540  34.397  1.00  0.00     0.006 C 
BRANCH   4   5
ATOM      5  C   UNL     1      12.564   1.455  35.624  1.00  0.00     0.053 C 
BRANCH   5   6
ATOM      6  C   UNL     1      13.132   2.792  35.262  1.00  0.00     0.041 C 
ATOM      7  O   UNL     1      13.187   3.710  36.122  1.00  0.00    -0.550 OA
ATOM      8  O   UNL     1      13.552   3.040  33.962  1.00  0.00    -0.550 OA
ENDBRANCH   5   6
ENDBRANCH   4   5
ENDBRANCH   3   4
ENDBRANCH   2   3
ENDBRANCH   1   2
BRANCH   1   9
ATOM      9  C   UNL     1       8.889   0.200  35.747  1.00  0.00     0.000 C 
BRANCH   9  10
ATOM     10  C   UNL     1       7.549  -0.535  35.585  1.00  0.00    -0.000 C 
BRANCH  10  11
ATOM     11  C   UNL     1       6.355   0.286  36.105  1.00  0.00    -0.000 C 
BRANCH  11  12
ATOM     12  C   UNL     1       5.161  -0.594  36.516  1.00  0.00    -0.000 C 
BRANCH  12  13
ATOM     13  C   UNL     1       5.417  -2.109  36.429  1.00  0.00    -0.003 C 
ATOM     14  C   UNL     1       4.458  -2.928  37.290  1.00  0.00     0.004 C 
ENDBRANCH  12  13
ENDBRANCH  11  12
ENDBRANCH  10  11
ENDBRANCH   9  10
ENDBRANCH   1   9
TORSDOF 10
ENDMDL
MODEL 4
REMARK VINA RESULT:    -4.519      3.687      7.945
REMARK INTER + INTRA:          -8.292
REMARK INTER:                  -7.533
REMARK INTRA:                  -0.760
REMARK UNBOUND:                -1.131
REMARK SMILES CCCCCCCCCCCC(=O)[O-]
REMARK SMILES IDX 7 1 8 2 9 3 10 4 11 5 12 6 13 7 14 8 6 9 5 10 4 11 3 12 2 13
REMARK SMILES IDX 1 14
REMARK H PARENT
REMARK Flexibility Score: inf
ROOT
ATOM      1  C   UNL     1       6.152  -2.640  36.396  1.00  0.00     0.000 C 
ENDROOT
BRANCH   1   2
ATOM      2  C   UNL     1       6.155  -1.149  36.017  1.00  0.00     0.000 C 
BRANCH   2   3
ATOM      3  C   UNL     1       7.529  -0.663  35.531  1.00  0.00     0.000 C 
BRANCH   3   4
ATOM      4  C   UNL     1       7.787   0.782  35.975  1.00  0.00     0.006 C 
BRANCH   4   5
ATOM      5  C   UNL     1       9.256   0.986  36.357  1.00  0.00     0.053 C 
BRANCH   5   6
ATOM      6  C   UNL     1       9.898   1.992  35.454  1.00  0.00     0.041 C 
ATOM      7  O   UNL     1      10.908   2.637  35.841  1.00  0.00    -0.550 OA
ATOM      8  O   UNL     1       9.351   2.254  34.205  1.00  0.00    -0.550 OA
ENDBRANCH   5   6
ENDBRANCH   4   5
ENDBRANCH   3   4
ENDBRANCH   2   3
ENDBRANCH   1   2
BRANCH   1   9
ATOM      9  C   UNL     1       4.857  -3.354  35.973  1.00  0.00     0.000 C 
BRANCH   9  10
ATOM     10  C   UNL     1       4.296  -4.261  37.079  1.00  0.00    -0.000 C 
BRANCH  10  11
ATOM     11  C   UNL     1       3.797  -3.470  38.301  1.00  0.00    -0.000 C 
BRANCH  11  12
ATOM     12  C   UNL     1       2.786  -2.372  37.927  1.00  0.00    -0.000 C 
BRANCH  12  13
ATOM     13  C   UNL     1       2.966  -1.045  38.685  1.00  0.00    -0.003 C 
ATOM     14  C   UNL     1       3.169   0.152  37.757  1.00  0.00     0.004 C 
ENDBRANCH  12  13
ENDBRANCH  11  12
ENDBRANCH  10  11
ENDBRANCH   9  10
ENDBRANCH   1   9
TORSDOF 10
ENDMDL
MODEL 5
REMARK VINA RESULT:    -4.505      3.845      8.367
REMARK INTER + INTRA:          -8.269
REMARK INTER:                  -7.666
REMARK INTRA:                  -0.603
REMARK UNBOUND:                -1.131
REMARK SMILES CCCCCCCCCCCC(=O)[O-]
REMARK SMILES IDX 7 1 8 2 9 3 10 4 11 5 12 6 13 7 14 8 6 9 5 10 4 11 3 12 2 13
REMARK SMILES IDX 1 14
REMARK H PARENT
REMARK Flexibility Score: inf
ROOT
ATOM      1  C   UNL     1       4.879  -0.471  36.676  1.00  0.00     0.000 C 
ENDROOT
BRANCH   1   2
ATOM      2  C   UNL     1       6.143   0.314  36.288  1.00  0.00     0.000 C 
BRANCH   2   3
ATOM      3  C   UNL     1       7.166  -0.545  35.529  1.00  0.00     0.000 C 
BRANCH   3   4
ATOM      4  C   UNL     1       8.599  -0.173  35.929  1.00  0.00     0.006 C 
BRANCH   4   5
ATOM      5  C   UNL     1       8.736   1.338  36.137  1.00  0.00     0.053 C 
BRANCH   5   6
ATOM      6  C   UNL     1       9.552   1.947  35.040  1.00  0.00     0.041 C 
ATOM      7  O   UNL     1       9.000   2.314  33.969  1.00  0.00    -0.550 OA
ATOM      8  O   UNL     1      10.929   2.063  35.179  1.00  0.00    -0.550 OA
ENDBRANCH   5   6
ENDBRANCH   4   5
ENDBRANCH   3   4
ENDBRANCH   2   3
ENDBRANCH   1   2
BRANCH   1   9
ATOM      9  C   UNL     1       3.763   0.437  37.221  1.00  0.00     0.000 C 
BRANCH   9  10
ATOM     10  C   UNL     1       3.284   0.010  38.617  1.00  0.00    -0.000 C 
BRANCH  10  11
ATOM     11  C   UNL     1       2.444  -1.280  38.587  1.00  0.00    -0.000 C 
BRANCH  11  12
ATOM     12  C   UNL     1       2.772  -2.232  39.751  1.00  0.00    -0.000 C 
BRANCH  12  13
ATOM     13  C   UNL     1       3.121  -3.669  39.328  1.00  0.00    -0.003 C 
ATOM     14  C   UNL     1       4.025  -3.728  38.097  1.00  0.00     0.004 C 
ENDBRANCH  12  13
ENDBRANCH  11  12
ENDBRANCH  10  11
ENDBRANCH   9  10
ENDBRANCH   1   9
TORSDOF 10
ENDMDL
MODEL 6
REMARK VINA RESULT:    -4.471      3.547      7.777
REMARK INTER + INTRA:          -8.216
REMARK INTER:                  -7.689
REMARK INTRA:                  -0.527
REMARK UNBOUND:                -1.131
REMARK SMILES CCCCCCCCCCCC(=O)[O-]
REMARK SMILES IDX 7 1 8 2 9 3 10 4 11 5 12 6 13 7 14 8 6 9 5 10 4 11 3 12 2 13
REMARK SMILES IDX 1 14
REMARK H PARENT
REMARK Flexibility Score: inf
ROOT
ATOM      1  C   UNL     1       6.755  -1.593  35.993  1.00  0.00     0.000 C 
ENDROOT
BRANCH   1   2
ATOM      2  C   UNL     1       7.332  -0.233  35.566  1.00  0.00     0.000 C 
BRANCH   2   3
ATOM      3  C   UNL     1       8.048  -0.293  34.208  1.00  0.00     0.000 C 
BRANCH   3   4
ATOM      4  C   UNL     1       9.497   0.194  34.330  1.00  0.00     0.006 C 
BRANCH   4   5
ATOM      5  C   UNL     1       9.551   1.699  34.606  1.00  0.00     0.053 C 
BRANCH   5   6
ATOM      6  C   UNL     1      10.355   1.979  35.837  1.00  0.00     0.041 C 
ATOM      7  O   UNL     1      11.229   2.885  35.830  1.00  0.00    -0.550 OA
ATOM      8  O   UNL     1      10.174   1.205  36.976  1.00  0.00    -0.550 OA
ENDBRANCH   5   6
ENDBRANCH   4   5
ENDBRANCH   3   4
ENDBRANCH   2   3
ENDBRANCH   1   2
BRANCH   1   9
ATOM      9  C   UNL     1       5.276  -1.503  36.407  1.00  0.00     0.000 C 
BRANCH   9  10
ATOM     10  C   UNL     1       4.830  -0.059  36.687  1.00  0.00    -0.000 C 
BRANCH  10  11
ATOM     11  C   UNL     1       3.694   0.022  37.722  1.00  0.00    -0.000 C 
BRANCH  11  12
ATOM     12  C   UNL     1       2.997  -1.332  37.949  1.00  0.00    -0.000 C 
BRANCH  12  13
ATOM     13  C   UNL     1       1.939  -1.332  39.066  1.00  0.00    -0.003 C 
ATOM     14  C   UNL     1       2.542  -1.183  40.462  1.00  0.00     0.004 C 
ENDBRANCH  12  13
ENDBRANCH  11  12
ENDBRANCH  10  11
ENDBRANCH   9  10
ENDBRANCH   1   9
TORSDOF 10
ENDMDL
MODEL 7
REMARK VINA RESULT:    -4.384      3.880      8.006
REMARK INTER + INTRA:          -8.078
REMARK INTER:                  -7.794
REMARK INTRA:                  -0.284
REMARK UNBOUND:                -1.131
REMARK SMILES CCCCCCCCCCCC(=O)[O-]
REMARK SMILES IDX 7 1 8 2 9 3 10 4 11 5 12 6 13 7 14 8 6 9 5 10 4 11 3 12 2 13
REMARK SMILES IDX 1 14
REMARK H PARENT
REMARK Flexibility Score: inf
ROOT
ATOM      1  C   UNL     1       7.107  -0.264  35.682  1.00  0.00     0.000 C 
ENDROOT
BRANCH   1   2
ATOM      2  C   UNL     1       8.199   0.746  35.291  1.00  0.00     0.000 C 
BRANCH   2   3
ATOM      3  C   UNL     1       9.411   0.702  36.234  1.00  0.00     0.000 C 
BRANCH   3   4
ATOM      4  C   UNL     1      10.364   1.870  35.955  1.00  0.00     0.006 C 
BRANCH   4   5
ATOM      5  C   UNL     1      11.191   1.616  34.691  1.00  0.00     0.053 C 
BRANCH   5   6
ATOM      6  C   UNL     1      12.530   1.049  35.045  1.00  0.00     0.041 C 
ATOM      7  O   UNL     1      12.917  -0.033  34.530  1.00  0.00    -0.550 OA
ATOM      8  O   UNL     1      13.330   1.690  35.982  1.00  0.00    -0.550 OA
ENDBRANCH   5   6
ENDBRANCH   4   5
ENDBRANCH   3   4
ENDBRANCH   2   3
ENDBRANCH   1   2
BRANCH   1   9
ATOM      9  C   UNL     1       5.896   0.406  36.355  1.00  0.00     0.000 C 
BRANCH   9  10
ATOM     10  C   UNL     1       4.794  -0.601  36.721  1.00  0.00    -0.000 C 
BRANCH  10  11
ATOM     11  C   UNL     1       3.756  -0.017  37.696  1.00  0.00    -0.000 C 
BRANCH  11  12
ATOM     12  C   UNL     1       2.714  -1.055  38.149  1.00  0.00    -0.000 C 
BRANCH  12  13
ATOM     13  C   UNL     1       2.515  -1.145  39.672  1.00  0.00    -0.003 C 
ATOM     14  C   UNL     1       2.910  -2.505  40.247  1.00  0.00     0.004 C 
ENDBRANCH  12  13
ENDBRANCH  11  12
ENDBRANCH  10  11
ENDBRANCH   9  10
ENDBRANCH   1   9
TORSDOF 10
ENDMDL
MODEL 8
REMARK VINA RESULT:    -4.376      3.402      6.364
REMARK INTER + INTRA:          -8.066
REMARK INTER:                  -7.245
REMARK INTRA:                  -0.820
REMARK UNBOUND:                -1.131
REMARK SMILES CCCCCCCCCCCC(=O)[O-]
REMARK SMILES IDX 7 1 8 2 9 3 10 4 11 5 12 6 13 7 14 8 6 9 5 10 4 11 3 12 2 13
REMARK SMILES IDX 1 14
REMARK H PARENT
REMARK Flexibility Score: inf
ROOT
ATOM      1  C   UNL     1      10.894   0.082  33.912  1.00  0.00     0.000 C 
ENDROOT
BRANCH   1   2
ATOM      2  C   UNL     1      12.291   0.357  34.494  1.00  0.00     0.000 C 
BRANCH   2   3
ATOM      3  C   UNL     1      12.240   1.140  35.815  1.00  0.00     0.000 C 
BRANCH   3   4
ATOM      4  C   UNL     1      13.201   2.334  35.782  1.00  0.00     0.006 C 
BRANCH   4   5
ATOM      5  C   UNL     1      12.453   3.633  35.469  1.00  0.00     0.053 C 
BRANCH   5   6
ATOM      6  C   UNL     1      12.694   4.050  34.052  1.00  0.00     0.041 C 
ATOM      7  O   UNL     1      11.967   4.928  33.517  1.00  0.00    -0.550 OA
ATOM      8  O   UNL     1      13.690   3.433  33.306  1.00  0.00    -0.550 OA
ENDBRANCH   5   6
ENDBRANCH   4   5
ENDBRANCH   3   4
ENDBRANCH   2   3
ENDBRANCH   1   2
BRANCH   1   9
ATOM      9  C   UNL     1      10.066   1.367  33.735  1.00  0.00     0.000 C 
BRANCH   9  10
ATOM     10  C   UNL     1       8.745   1.328  34.519  1.00  0.00    -0.000 C 
BRANCH  10  11
ATOM     11  C   UNL     1       8.057  -0.049  34.457  1.00  0.00    -0.000 C 
BRANCH  11  12
ATOM     12  C   UNL     1       7.742  -0.620  35.851  1.00  0.00    -0.000 C 
BRANCH  12  13
ATOM     13  C   UNL     1       6.353  -1.268  35.982  1.00  0.00    -0.003 C 
ATOM     14  C   UNL     1       6.404  -2.795  36.004  1.00  0.00     0.004 C 
ENDBRANCH  12  13
ENDBRANCH  11  12
ENDBRANCH  10  11
ENDBRANCH   9  10
ENDBRANCH   1   9
TORSDOF 10
ENDMDL
