MODEL 1
REMARK VINA RESULT:    -3.641      0.000      0.000
REMARK INTER + INTRA:          -4.854
REMARK INTER:                  -4.706
REMARK INTRA:                  -0.149
REMARK UNBOUND:                -0.149
REMARK SMILES CCCCCCC(=O)[O-]
REMARK SMILES IDX 5 1 6 2 7 3 8 4 9 5 4 6 3 7 2 8 1 9
REMARK H PARENT
REMARK Flexibility Score: inf
ROOT
ATOM      1  C   UNL     1     -15.113   7.068  29.581  1.00  0.00     0.006 C 
ENDROOT
BRANCH   1   2
ATOM      2  C   UNL     1     -16.285   6.913  30.560  1.00  0.00     0.053 C 
BRANCH   2   3
ATOM      3  C   UNL     1     -16.175   5.619  31.303  1.00  0.00     0.041 C 
ATOM      4  O   UNL     1     -17.106   5.240  32.060  1.00  0.00    -0.550 OA
ATOM      5  O   UNL     1     -15.063   4.805  31.121  1.00  0.00    -0.550 OA
ENDBRANCH   2   3
ENDBRANCH   1   2
BRANCH   1   6
ATOM      6  C   UNL     1     -14.839   8.536  29.218  1.00  0.00     0.000 C 
BRANCH   6   7
ATOM      7  C   UNL     1     -14.245   8.696  27.808  1.00  0.00    -0.000 C 
BRANCH   7   8
ATOM      8  C   UNL     1     -12.749   8.350  27.758  1.00  0.00    -0.003 C 
ATOM      9  C   UNL     1     -11.929   9.124  28.790  1.00  0.00     0.004 C 
ENDBRANCH   7   8
ENDBRANCH   6   7
ENDBRANCH   1   6
TORSDOF 5
ENDMDL
MODEL 2
REMARK VINA RESULT:    -3.551      3.426      6.544
REMARK INTER + INTRA:          -4.737
REMARK INTER:                  -4.582
REMARK INTRA:                  -0.156
REMARK UNBOUND:                -0.149
REMARK SMILES CCCCCCC(=O)[O-]
REMARK SMILES IDX 5 1 6 2 7 3 8 4 9 5 4 6 3 7 2 8 1 9
REMARK H PARENT
REMARK Flexibility Score: inf
ROOT
ATOM      1  C   UNL     1     -15.066   4.145  32.072  1.00  0.00     0.006 C 
ENDROOT
BRANCH   1   2
ATOM      2  C   UNL     1     -16.328   4.982  31.826  1.00  0.00     0.053 C 
BRANCH   2   3
ATOM      3  C   UNL     1     -16.190   5.775  30.564  1.00  0.00     0.041 C 
ATOM      4  O   UNL     1     -15.927   5.198  29.477  1.00  0.00    -0.550 OA
ATOM      5  O   UNL     1     -16.401   7.149  30.581  1.00  0.00    -0.550 OA
ENDBRANCH   2   3
ENDBRANCH   1   2
BRANCH   1   6
ATOM      6  C   UNL     1     -15.327   2.941  32.991  1.00  0.00     0.000 C 
BRANCH   6   7
ATOM      7  C   UNL     1     -16.653   3.062  33.762  1.00  0.00    -0.000 C 
BRANCH   7   8
ATOM      8  C   UNL     1     -17.120   1.718  34.341  1.00  0.00    -0.003 C 
ATOM      9  C   UNL     1     -16.089   1.089  35.279  1.00  0.00     0.004 C 
ENDBRANCH   7   8
ENDBRANCH   6   7
ENDBRANCH   1   6
TORSDOF 5
ENDMDL
MODEL 3
REMARK VINA RESULT:    -3.505      1.473      2.226
REMARK INTER + INTRA:          -4.678
REMARK INTER:                  -4.534
REMARK INTRA:                  -0.145
REMARK UNBOUND:                -0.149
REMARK SMILES CCCCCCC(=O)[O-]
REMARK SMILES IDX 5 1 6 2 7 3 8 4 9 5 4 6 3 7 2 8 1 9
REMARK H PARENT
REMARK Flexibility Score: inf
ROOT
ATOM      1  C   UNL     1     -16.173   5.760  30.156  1.00  0.00     0.006 C 
ENDROOT
BRANCH   1   2
ATOM      2  C   UNL     1     -16.396   5.265  31.591  1.00  0.00     0.053 C 
BRANCH   2   3
ATOM      3  C   UNL     1     -15.313   4.310  31.987  1.00  0.00     0.041 C 
ATOM      4  O   UNL     1     -14.233   4.273  31.343  1.00  0.00    -0.550 OA
ATOM      5  O   UNL     1     -15.479   3.494  33.100  1.00  0.00    -0.550 OA
ENDBRANCH   2   3
ENDBRANCH   1   2
BRANCH   1   6
ATOM      6  C   UNL     1     -15.671   7.212  30.105  1.00  0.00     0.000 C 
BRANCH   6   7
ATOM      7  C   UNL     1     -14.432   7.379  29.208  1.00  0.00    -0.000 C 
BRANCH   7   8
ATOM      8  C   UNL     1     -14.287   8.809  28.667  1.00  0.00    -0.003 C 
ATOM      9  C   UNL     1     -14.390   8.877  27.142  1.00  0.00     0.004 C 
ENDBRANCH   7   8
ENDBRANCH   6   7
ENDBRANCH   1   6
TORSDOF 5
ENDMDL
MODEL 4
REMARK VINA RESULT:    -3.468     24.794     26.029
REMARK INTER + INTRA:          -4.630
REMARK INTER:                  -4.365
REMARK INTRA:                  -0.265
REMARK UNBOUND:                -0.149
REMARK SMILES CCCCCCC(=O)[O-]
REMARK SMILES IDX 5 1 6 2 7 3 8 4 9 5 4 6 3 7 2 8 1 9
REMARK H PARENT
REMARK Flexibility Score: inf
ROOT
ATOM      1  C   UNL     1       3.102  -9.702  19.339  1.00  0.00     0.006 C 
ENDROOT
BRANCH   1   2
ATOM      2  C   UNL     1       1.801 -10.469  19.063  1.00  0.00     0.053 C 
BRANCH   2   3
ATOM      3  C   UNL     1       1.275 -10.130  17.704  1.00  0.00     0.041 C 
ATOM      4  O   UNL     1       0.606  -9.079  17.526  1.00  0.00    -0.550 OA
ATOM      5  O   UNL     1       1.566 -10.952  16.621  1.00  0.00    -0.550 OA
ENDBRANCH   2   3
ENDBRANCH   1   2
BRANCH   1   6
ATOM      6  C   UNL     1       3.035  -8.874  20.632  1.00  0.00     0.000 C 
BRANCH   6   7
ATOM      7  C   UNL     1       1.636  -8.890  21.273  1.00  0.00    -0.000 C 
BRANCH   7   8
ATOM      8  C   UNL     1       1.694  -8.965  22.806  1.00  0.00    -0.003 C 
ATOM      9  C   UNL     1       3.124  -8.932  23.346  1.00  0.00     0.004 C 
ENDBRANCH   7   8
ENDBRANCH   6   7
ENDBRANCH   1   6
TORSDOF 5
ENDMDL
MODEL 5
REMARK VINA RESULT:    -3.428      3.346      5.087
REMARK INTER + INTRA:          -4.579
REMARK INTER:                  -4.412
REMARK INTRA:                  -0.167
REMARK UNBOUND:                -0.149
REMARK SMILES CCCCCCC(=O)[O-]
REMARK SMILES IDX 5 1 6 2 7 3 8 4 9 5 4 6 3 7 2 8 1 9
REMARK H PARENT
REMARK Flexibility Score: inf
ROOT
ATOM      1  C   UNL     1     -15.066   2.950  32.421  1.00  0.00     0.006 C 
ENDROOT
BRANCH   1   2
ATOM      2  C   UNL     1     -15.778   3.022  33.779  1.00  0.00     0.053 C 
BRANCH   2   3
ATOM      3  C   UNL     1     -16.215   1.658  34.211  1.00  0.00     0.041 C 
ATOM      4  O   UNL     1     -15.920   1.231  35.358  1.00  0.00    -0.550 OA
ATOM      5  O   UNL     1     -16.991   0.876  33.365  1.00  0.00    -0.550 OA
ENDBRANCH   2   3
ENDBRANCH   1   2
BRANCH   1   6
ATOM      6  C   UNL     1     -15.060   4.299  31.686  1.00  0.00     0.000 C 
BRANCH   6   7
ATOM      7  C   UNL     1     -16.422   5.012  31.747  1.00  0.00    -0.000 C 
BRANCH   7   8
ATOM      8  C   UNL     1     -16.431   6.330  30.957  1.00  0.00    -0.003 C 
ATOM      9  C   UNL     1     -15.247   6.451  29.997  1.00  0.00     0.004 C 
ENDBRANCH   7   8
ENDBRANCH   6   7
ENDBRANCH   1   6
TORSDOF 5
ENDMDL
MODEL 6
REMARK VINA RESULT:    -3.411      2.732      5.841
REMARK INTER + INTRA:          -4.557
REMARK INTER:                  -4.479
REMARK INTRA:                  -0.078
REMARK UNBOUND:                -0.149
REMARK SMILES CCCCCCC(=O)[O-]
REMARK SMILES IDX 5 1 6 2 7 3 8 4 9 5 4 6 3 7 2 8 1 9
REMARK H PARENT
REMARK Flexibility Score: inf
ROOT
ATOM      1  C   UNL     1     -16.388   5.335  30.670  1.00  0.00     0.006 C 
ENDROOT
BRANCH   1   2
ATOM      2  C   UNL     1     -16.220   6.856  30.551  1.00  0.00     0.053 C 
BRANCH   2   3
ATOM      3  C   UNL     1     -15.005   7.185  29.742  1.00  0.00     0.041 C 
ATOM      4  O   UNL     1     -14.886   8.318  29.206  1.00  0.00    -0.550 OA
ATOM      5  O   UNL     1     -13.979   6.255  29.620  1.00  0.00    -0.550 OA
ENDBRANCH   2   3
ENDBRANCH   1   2
BRANCH   1   6
ATOM      6  C   UNL     1     -16.939   4.908  32.039  1.00  0.00     0.000 C 
BRANCH   6   7
ATOM      7  C   UNL     1     -16.342   3.577  32.529  1.00  0.00    -0.000 C 
BRANCH   7   8
ATOM      8  C   UNL     1     -17.125   2.980  33.708  1.00  0.00    -0.003 C 
ATOM      9  C   UNL     1     -16.433   1.761  34.318  1.00  0.00     0.004 C 
ENDBRANCH   7   8
ENDBRANCH   6   7
ENDBRANCH   1   6
TORSDOF 5
ENDMDL
MODEL 7
REMARK VINA RESULT:    -3.410      3.147      5.104
REMARK INTER + INTRA:          -4.555
REMARK INTER:                  -4.399
REMARK INTRA:                  -0.156
REMARK UNBOUND:                -0.149
REMARK SMILES CCCCCCC(=O)[O-]
REMARK SMILES IDX 5 1 6 2 7 3 8 4 9 5 4 6 3 7 2 8 1 9
REMARK H PARENT
REMARK Flexibility Score: inf
ROOT
ATOM      1  C   UNL     1     -14.938   7.229  29.410  1.00  0.00     0.006 C 
ENDROOT
BRANCH   1   2
ATOM      2  C   UNL     1     -14.693   8.698  29.036  1.00  0.00     0.053 C 
BRANCH   2   3
ATOM      3  C   UNL     1     -13.827   8.789  27.819  1.00  0.00     0.041 C 
ATOM      4  O   UNL     1     -12.573   8.781  27.930  1.00  0.00    -0.550 OA
ATOM      5  O   UNL     1     -14.406   8.833  26.557  1.00  0.00    -0.550 OA
ENDBRANCH   2   3
ENDBRANCH   1   2
BRANCH   1   6
ATOM      6  C   UNL     1     -16.047   7.066  30.461  1.00  0.00     0.000 C 
BRANCH   6   7
ATOM      7  C   UNL     1     -16.382   5.591  30.742  1.00  0.00    -0.000 C 
BRANCH   7   8
ATOM      8  C   UNL     1     -15.975   4.664  29.587  1.00  0.00    -0.003 C 
ATOM      9  C   UNL     1     -17.123   3.774  29.111  1.00  0.00     0.004 C 
ENDBRANCH   7   8
ENDBRANCH   6   7
ENDBRANCH   1   6
TORSDOF 5
ENDMDL
MODEL 8
REMARK VINA RESULT:    -3.362      2.260      3.617
REMARK INTER + INTRA:          -4.493
REMARK INTER:                  -4.340
REMARK INTRA:                  -0.153
REMARK UNBOUND:                -0.149
REMARK SMILES CCCCCCC(=O)[O-]
REMARK SMILES IDX 5 1 6 2 7 3 8 4 9 5 4 6 3 7 2 8 1 9
REMARK H PARENT
REMARK Flexibility Score: inf
ROOT
ATOM      1  C   UNL     1     -15.270   4.604  31.371  1.00  0.00     0.006 C 
ENDROOT
BRANCH   1   2
ATOM      2  C   UNL     1     -15.161   3.750  32.641  1.00  0.00     0.053 C 
BRANCH   2   3
ATOM      3  C   UNL     1     -14.807   2.339  32.292  1.00  0.00     0.041 C 
ATOM      4  O   UNL     1     -15.516   1.386  32.707  1.00  0.00    -0.550 OA
ATOM      5  O   UNL     1     -13.720   2.080  31.466  1.00  0.00    -0.550 OA
ENDBRANCH   2   3
ENDBRANCH   1   2
BRANCH   1   6
ATOM      6  C   UNL     1     -16.501   5.524  31.383  1.00  0.00     0.000 C 
BRANCH   6   7
ATOM      7  C   UNL     1     -16.267   6.837  30.615  1.00  0.00    -0.000 C 
BRANCH   7   8
ATOM      8  C   UNL     1     -15.014   6.782  29.727  1.00  0.00    -0.003 C 
ATOM      9  C   UNL     1     -14.687   8.131  29.085  1.00  0.00     0.004 C 
ENDBRANCH   7   8
ENDBRANCH   6   7
ENDBRANCH   1   6
TORSDOF 5
ENDMDL
MODEL 9
REMARK VINA RESULT:    -3.353      2.958      4.920
REMARK INTER + INTRA:          -4.482
REMARK INTER:                  -4.320
REMARK INTRA:                  -0.161
REMARK UNBOUND:                -0.149
REMARK SMILES CCCCCCC(=O)[O-]
REMARK SMILES IDX 5 1 6 2 7 3 8 4 9 5 4 6 3 7 2 8 1 9
REMARK H PARENT
REMARK Flexibility Score: inf
ROOT
ATOM      1  C   UNL     1     -15.092   7.126  29.686  1.00  0.00     0.006 C 
ENDROOT
BRANCH   1   2
ATOM      2  C   UNL     1     -14.895   8.609  29.342  1.00  0.00     0.053 C 
BRANCH   2   3
ATOM      3  C   UNL     1     -13.979   8.754  28.168  1.00  0.00     0.041 C 
ATOM      4  O   UNL     1     -12.740   8.576  28.303  1.00  0.00    -0.550 OA
ATOM      5  O   UNL     1     -14.500   9.038  26.911  1.00  0.00    -0.550 OA
ENDBRANCH   2   3
ENDBRANCH   1   2
BRANCH   1   6
ATOM      6  C   UNL     1     -16.370   6.874  30.500  1.00  0.00     0.000 C 
BRANCH   6   7
ATOM      7  C   UNL     1     -16.345   5.526  31.242  1.00  0.00    -0.000 C 
BRANCH   7   8
ATOM      8  C   UNL     1     -15.142   4.659  30.842  1.00  0.00    -0.003 C 
ATOM      9  C   UNL     1     -14.562   3.875  32.019  1.00  0.00     0.004 C 
ENDBRANCH   7   8
ENDBRANCH   6   7
ENDBRANCH   1   6
TORSDOF 5
ENDMDL
