MODEL 1
REMARK VINA RESULT:    -5.555      0.000      0.000
REMARK INTER + INTRA:          -5.555
REMARK INTER:                  -5.555
REMARK INTRA:                   0.000
REMARK UNBOUND:                 0.000
REMARK SMILES Cc1cccc2ccccc12
REMARK SMILES IDX 1 1 2 2 3 3 4 4 5 5 6 6 7 7 8 8 9 9 10 10 11 11
REMARK H PARENT
REMARK Flexibility Score: inf
ROOT
ATOM      1  C   UNL     1      -5.864 -15.038  -3.109  1.00  0.00     0.045 C 
ATOM      2  C   UNL     1      -6.905 -15.629  -2.192  1.00  0.00    -0.043 A 
ATOM      3  C   UNL     1      -7.968 -16.359  -2.753  1.00  0.00     0.004 A 
ATOM      4  C   UNL     1      -8.952 -16.922  -1.942  1.00  0.00     0.001 A 
ATOM      5  C   UNL     1      -8.897 -16.769  -0.558  1.00  0.00     0.009 A 
ATOM      6  C   UNL     1      -7.851 -16.047   0.032  1.00  0.00    -0.018 A 
ATOM      7  C   UNL     1      -7.801 -15.897   1.427  1.00  0.00     0.009 A 
ATOM      8  C   UNL     1      -6.762 -15.179   2.020  1.00  0.00     0.001 A 
ATOM      9  C   UNL     1      -5.766 -14.606   1.231  1.00  0.00     0.001 A 
ATOM     10  C   UNL     1      -5.799 -14.745  -0.159  1.00  0.00     0.009 A 
ATOM     11  C   UNL     1      -6.840 -15.467  -0.783  1.00  0.00    -0.015 A 
ENDROOT
TORSDOF 0
ENDMDL
MODEL 2
REMARK VINA RESULT:    -5.414      0.833      3.411
REMARK INTER + INTRA:          -5.414
REMARK INTER:                  -5.414
REMARK INTRA:                   0.000
REMARK UNBOUND:                 0.000
REMARK SMILES Cc1cccc2ccccc12
REMARK SMILES IDX 1 1 2 2 3 3 4 4 5 5 6 6 7 7 8 8 9 9 10 10 11 11
REMARK H PARENT
REMARK Flexibility Score: inf
ROOT
ATOM      1  C   UNL     1      -5.732 -14.202   1.237  1.00  0.00     0.045 C 
ATOM      2  C   UNL     1      -6.806 -15.178   0.828  1.00  0.00    -0.043 A 
ATOM      3  C   UNL     1      -7.563 -15.813   1.828  1.00  0.00     0.004 A 
ATOM      4  C   UNL     1      -8.566 -16.722   1.494  1.00  0.00     0.001 A 
ATOM      5  C   UNL     1      -8.834 -17.015   0.159  1.00  0.00     0.009 A 
ATOM      6  C   UNL     1      -8.097 -16.400  -0.861  1.00  0.00    -0.018 A 
ATOM      7  C   UNL     1      -8.374 -16.700  -2.205  1.00  0.00     0.009 A 
ATOM      8  C   UNL     1      -7.644 -16.090  -3.226  1.00  0.00     0.001 A 
ATOM      9  C   UNL     1      -6.635 -15.178  -2.918  1.00  0.00     0.001 A 
ATOM     10  C   UNL     1      -6.347 -14.867  -1.587  1.00  0.00     0.009 A 
ATOM     11  C   UNL     1      -7.071 -15.471  -0.536  1.00  0.00    -0.015 A 
ENDROOT
TORSDOF 0
ENDMDL
MODEL 3
REMARK VINA RESULT:    -5.410      1.130      2.663
REMARK INTER + INTRA:          -5.410
REMARK INTER:                  -5.410
REMARK INTRA:                   0.000
REMARK UNBOUND:                 0.000
REMARK SMILES Cc1cccc2ccccc12
REMARK SMILES IDX 1 1 2 2 3 3 4 4 5 5 6 6 7 7 8 8 9 9 10 10 11 11
REMARK H PARENT
REMARK Flexibility Score: inf
ROOT
ATOM      1  C   UNL     1      -8.789 -16.667  -1.905  1.00  0.00     0.045 C 
ATOM      2  C   UNL     1      -7.388 -16.234  -1.554  1.00  0.00    -0.043 A 
ATOM      3  C   UNL     1      -6.324 -16.649  -2.373  1.00  0.00     0.004 A 
ATOM      4  C   UNL     1      -5.012 -16.271  -2.086  1.00  0.00     0.001 A 
ATOM      5  C   UNL     1      -4.737 -15.474  -0.977  1.00  0.00     0.009 A 
ATOM      6  C   UNL     1      -5.775 -15.044  -0.140  1.00  0.00    -0.018 A 
ATOM      7  C   UNL     1      -5.490 -14.240   0.975  1.00  0.00     0.009 A 
ATOM      8  C   UNL     1      -6.520 -13.808   1.812  1.00  0.00     0.001 A 
ATOM      9  C   UNL     1      -7.839 -14.172   1.546  1.00  0.00     0.001 A 
ATOM     10  C   UNL     1      -8.141 -14.972   0.440  1.00  0.00     0.009 A 
ATOM     11  C   UNL     1      -7.117 -15.421  -0.422  1.00  0.00    -0.015 A 
ENDROOT
TORSDOF 0
ENDMDL
MODEL 4
REMARK VINA RESULT:    -5.335      2.687      3.668
REMARK INTER + INTRA:          -5.335
REMARK INTER:                  -5.335
REMARK INTRA:                   0.000
REMARK UNBOUND:                 0.000
REMARK SMILES Cc1cccc2ccccc12
REMARK SMILES IDX 1 1 2 2 3 3 4 4 5 5 6 6 7 7 8 8 9 9 10 10 11 11
REMARK H PARENT
REMARK Flexibility Score: inf
ROOT
ATOM      1  C   UNL     1      -4.545 -19.979  -2.154  1.00  0.00     0.045 C 
ATOM      2  C   UNL     1      -5.903 -19.353  -2.343  1.00  0.00    -0.043 A 
ATOM      3  C   UNL     1      -7.016 -20.190  -2.535  1.00  0.00     0.004 A 
ATOM      4  C   UNL     1      -8.290 -19.654  -2.714  1.00  0.00     0.001 A 
ATOM      5  C   UNL     1      -8.480 -18.273  -2.706  1.00  0.00     0.009 A 
ATOM      6  C   UNL     1      -7.392 -17.412  -2.517  1.00  0.00    -0.018 A 
ATOM      7  C   UNL     1      -7.591 -16.021  -2.510  1.00  0.00     0.009 A 
ATOM      8  C   UNL     1      -6.511 -15.158  -2.323  1.00  0.00     0.001 A 
ATOM      9  C   UNL     1      -5.227 -15.670  -2.142  1.00  0.00     0.001 A 
ATOM     10  C   UNL     1      -5.011 -17.050  -2.146  1.00  0.00     0.009 A 
ATOM     11  C   UNL     1      -6.087 -17.945  -2.334  1.00  0.00    -0.015 A 
ENDROOT
TORSDOF 0
ENDMDL
MODEL 5
REMARK VINA RESULT:    -5.324      0.706      4.251
REMARK INTER + INTRA:          -5.324
REMARK INTER:                  -5.324
REMARK INTRA:                   0.000
REMARK UNBOUND:                 0.000
REMARK SMILES Cc1cccc2ccccc12
REMARK SMILES IDX 1 1 2 2 3 3 4 4 5 5 6 6 7 7 8 8 9 9 10 10 11 11
REMARK H PARENT
REMARK Flexibility Score: inf
ROOT
ATOM      1  C   UNL     1      -8.990 -16.537   1.875  1.00  0.00     0.045 C 
ATOM      2  C   UNL     1      -7.756 -15.882   1.307  1.00  0.00    -0.043 A 
ATOM      3  C   UNL     1      -6.843 -15.277   2.189  1.00  0.00     0.004 A 
ATOM      4  C   UNL     1      -5.689 -14.660   1.707  1.00  0.00     0.001 A 
ATOM      5  C   UNL     1      -5.423 -14.634   0.340  1.00  0.00     0.009 A 
ATOM      6  C   UNL     1      -6.313 -15.227  -0.565  1.00  0.00    -0.018 A 
ATOM      7  C   UNL     1      -6.038 -15.198  -1.941  1.00  0.00     0.009 A 
ATOM      8  C   UNL     1      -6.921 -15.787  -2.847  1.00  0.00     0.001 A 
ATOM      9  C   UNL     1      -8.082 -16.410  -2.391  1.00  0.00     0.001 A 
ATOM     10  C   UNL     1      -8.371 -16.450  -1.024  1.00  0.00     0.009 A 
ATOM     11  C   UNL     1      -7.494 -15.860  -0.088  1.00  0.00    -0.015 A 
ENDROOT
TORSDOF 0
ENDMDL
MODEL 6
REMARK VINA RESULT:    -5.312      1.055      4.032
REMARK INTER + INTRA:          -5.312
REMARK INTER:                  -5.312
REMARK INTRA:                   0.000
REMARK UNBOUND:                 0.000
REMARK SMILES Cc1cccc2ccccc12
REMARK SMILES IDX 1 1 2 2 3 3 4 4 5 5 6 6 7 7 8 8 9 9 10 10 11 11
REMARK H PARENT
REMARK Flexibility Score: inf
ROOT
ATOM      1  C   UNL     1      -7.007 -14.473   1.963  1.00  0.00     0.045 C 
ATOM      2  C   UNL     1      -6.341 -14.952   0.698  1.00  0.00    -0.043 A 
ATOM      3  C   UNL     1      -4.966 -14.716   0.523  1.00  0.00     0.004 A 
ATOM      4  C   UNL     1      -4.310 -15.141  -0.631  1.00  0.00     0.001 A 
ATOM      5  C   UNL     1      -5.011 -15.810  -1.633  1.00  0.00     0.009 A 
ATOM      6  C   UNL     1      -6.382 -16.061  -1.489  1.00  0.00    -0.018 A 
ATOM      7  C   UNL     1      -7.081 -16.736  -2.503  1.00  0.00     0.009 A 
ATOM      8  C   UNL     1      -8.446 -16.989  -2.365  1.00  0.00     0.001 A 
ATOM      9  C   UNL     1      -9.125 -16.573  -1.221  1.00  0.00     0.001 A 
ATOM     10  C   UNL     1      -8.445 -15.901  -0.202  1.00  0.00     0.009 A 
ATOM     11  C   UNL     1      -7.063 -15.633  -0.317  1.00  0.00    -0.015 A 
ENDROOT
TORSDOF 0
ENDMDL
MODEL 7
REMARK VINA RESULT:    -4.946      3.001      4.206
REMARK INTER + INTRA:          -4.946
REMARK INTER:                  -4.946
REMARK INTRA:                   0.000
REMARK UNBOUND:                 0.000
REMARK SMILES Cc1cccc2ccccc12
REMARK SMILES IDX 1 1 2 2 3 3 4 4 5 5 6 6 7 7 8 8 9 9 10 10 11 11
REMARK H PARENT
REMARK Flexibility Score: inf
ROOT
ATOM      1  C   UNL     1      -4.809 -15.858  -1.842  1.00  0.00     0.045 C 
ATOM      2  C   UNL     1      -6.047 -16.656  -2.164  1.00  0.00    -0.043 A 
ATOM      3  C   UNL     1      -7.268 -15.979  -2.327  1.00  0.00     0.004 A 
ATOM      4  C   UNL     1      -8.437 -16.677  -2.626  1.00  0.00     0.001 A 
ATOM      5  C   UNL     1      -8.412 -18.063  -2.767  1.00  0.00     0.009 A 
ATOM      6  C   UNL     1      -7.211 -18.768  -2.610  1.00  0.00    -0.018 A 
ATOM      7  C   UNL     1      -7.194 -20.165  -2.755  1.00  0.00     0.009 A 
ATOM      8  C   UNL     1      -6.001 -20.872  -2.600  1.00  0.00     0.001 A 
ATOM      9  C   UNL     1      -4.819 -20.197  -2.301  1.00  0.00     0.001 A 
ATOM     10  C   UNL     1      -4.818 -18.807  -2.154  1.00  0.00     0.009 A 
ATOM     11  C   UNL     1      -6.011 -18.068  -2.306  1.00  0.00    -0.015 A 
ENDROOT
TORSDOF 0
ENDMDL
MODEL 8
REMARK VINA RESULT:    -4.923      1.190      2.114
REMARK INTER + INTRA:          -4.923
REMARK INTER:                  -4.923
REMARK INTRA:                   0.000
REMARK UNBOUND:                 0.000
REMARK SMILES Cc1cccc2ccccc12
REMARK SMILES IDX 1 1 2 2 3 3 4 4 5 5 6 6 7 7 8 8 9 9 10 10 11 11
REMARK H PARENT
REMARK Flexibility Score: inf
ROOT
ATOM      1  C   UNL     1      -3.927 -14.845  -0.223  1.00  0.00     0.045 C 
ATOM      2  C   UNL     1      -5.281 -15.298  -0.706  1.00  0.00    -0.043 A 
ATOM      3  C   UNL     1      -5.379 -15.925  -1.960  1.00  0.00     0.004 A 
ATOM      4  C   UNL     1      -6.612 -16.360  -2.445  1.00  0.00     0.001 A 
ATOM      5  C   UNL     1      -7.770 -16.178  -1.691  1.00  0.00     0.009 A 
ATOM      6  C   UNL     1      -7.705 -15.555  -0.438  1.00  0.00    -0.018 A 
ATOM      7  C   UNL     1      -8.876 -15.375   0.317  1.00  0.00     0.009 A 
ATOM      8  C   UNL     1      -8.818 -14.756   1.566  1.00  0.00     0.001 A 
ATOM      9  C   UNL     1      -7.598 -14.312   2.073  1.00  0.00     0.001 A 
ATOM     10  C   UNL     1      -6.423 -14.483   1.336  1.00  0.00     0.009 A 
ATOM     11  C   UNL     1      -6.455 -15.107   0.070  1.00  0.00    -0.015 A 
ENDROOT
TORSDOF 0
ENDMDL
MODEL 9
REMARK VINA RESULT:    -4.749      8.722     10.317
REMARK INTER + INTRA:          -4.749
REMARK INTER:                  -4.749
REMARK INTRA:                   0.000
REMARK UNBOUND:                 0.000
REMARK SMILES Cc1cccc2ccccc12
REMARK SMILES IDX 1 1 2 2 3 3 4 4 5 5 6 6 7 7 8 8 9 9 10 10 11 11
REMARK H PARENT
REMARK Flexibility Score: inf
ROOT
ATOM      1  C   UNL     1      -8.228 -17.647  -8.785  1.00  0.00     0.045 C 
ATOM      2  C   UNL     1      -6.849 -18.042  -9.249  1.00  0.00    -0.043 A 
ATOM      3  C   UNL     1      -6.369 -19.326  -8.936  1.00  0.00     0.004 A 
ATOM      4  C   UNL     1      -5.099 -19.732  -9.346  1.00  0.00     0.001 A 
ATOM      5  C   UNL     1      -4.284 -18.867 -10.074  1.00  0.00     0.009 A 
ATOM      6  C   UNL     1      -4.733 -17.581 -10.401  1.00  0.00    -0.018 A 
ATOM      7  C   UNL     1      -3.906 -16.715 -11.135  1.00  0.00     0.009 A 
ATOM      8  C   UNL     1      -4.347 -15.433 -11.464  1.00  0.00     0.001 A 
ATOM      9  C   UNL     1      -5.612 -15.003 -11.065  1.00  0.00     0.001 A 
ATOM     10  C   UNL     1      -6.448 -15.851 -10.335  1.00  0.00     0.009 A 
ATOM     11  C   UNL     1      -6.025 -17.153  -9.990  1.00  0.00    -0.015 A 
ENDROOT
TORSDOF 0
ENDMDL
