MODEL 1
REMARK VINA RESULT:    -4.755      0.000      0.000
REMARK INTER + INTRA:          -5.054
REMARK INTER:                  -5.033
REMARK INTRA:                  -0.021
REMARK UNBOUND:                -0.021
REMARK SMILES O=C([O-])c1cccnc1
REMARK SMILES IDX 4 1 5 2 9 3 6 4 8 5 7 6 2 7 1 8 3 9
REMARK H PARENT
REMARK Flexibility Score: inf
ROOT
ATOM      1  C   UNL     1       6.105  82.058  14.499  1.00  0.00     0.016 A 
ATOM      2  C   UNL     1       6.377  80.711  14.791  1.00  0.00     0.013 A 
ATOM      3  C   UNL     1       5.961  82.957  15.570  1.00  0.00     0.120 A 
ATOM      4  C   UNL     1       6.500  80.291  16.116  1.00  0.00     0.021 A 
ATOM      5  N   UNL     1       6.085  82.521  16.853  1.00  0.00    -0.264 NA
ATOM      6  C   UNL     1       6.349  81.220  17.145  1.00  0.00     0.111 A 
ENDROOT
BRANCH   1   7
ATOM      7  C   UNL     1       5.973  82.514  13.099  1.00  0.00     0.073 C 
ATOM      8  O   UNL     1       6.398  83.648  12.752  1.00  0.00    -0.545 OA
ATOM      9  O   UNL     1       5.377  81.696  12.145  1.00  0.00    -0.545 OA
ENDBRANCH   1   7
TORSDOF 1
ENDMDL
MODEL 2
REMARK VINA RESULT:    -4.581      1.345      1.799
REMARK INTER + INTRA:          -4.870
REMARK INTER:                  -4.853
REMARK INTRA:                  -0.016
REMARK UNBOUND:                -0.021
REMARK SMILES O=C([O-])c1cccnc1
REMARK SMILES IDX 4 1 5 2 9 3 6 4 8 5 7 6 2 7 1 8 3 9
REMARK H PARENT
REMARK Flexibility Score: inf
ROOT
ATOM      1  C   UNL     1       5.953  82.841  13.767  1.00  0.00     0.016 A 
ATOM      2  C   UNL     1       6.254  81.565  13.264  1.00  0.00     0.013 A 
ATOM      3  C   UNL     1       5.949  83.025  15.161  1.00  0.00     0.120 A 
ATOM      4  C   UNL     1       6.540  80.515  14.138  1.00  0.00     0.021 A 
ATOM      5  N   UNL     1       6.232  81.985  15.991  1.00  0.00    -0.264 NA
ATOM      6  C   UNL     1       6.524  80.747  15.513  1.00  0.00     0.111 A 
ENDROOT
BRANCH   1   7
ATOM      7  C   UNL     1       5.649  83.961  12.850  1.00  0.00     0.073 C 
ATOM      8  O   UNL     1       4.458  84.321  12.653  1.00  0.00    -0.545 OA
ATOM      9  O   UNL     1       6.674  84.631  12.192  1.00  0.00    -0.545 OA
ENDBRANCH   1   7
TORSDOF 1
ENDMDL
MODEL 3
REMARK VINA RESULT:    -4.577      2.727      3.551
REMARK INTER + INTRA:          -4.865
REMARK INTER:                  -4.843
REMARK INTRA:                  -0.022
REMARK UNBOUND:                -0.021
REMARK SMILES O=C([O-])c1cccnc1
REMARK SMILES IDX 4 1 5 2 9 3 6 4 8 5 7 6 2 7 1 8 3 9
REMARK H PARENT
REMARK Flexibility Score: inf
ROOT
ATOM      1  C   UNL     1       6.135  81.592  15.390  1.00  0.00     0.016 A 
ATOM      2  C   UNL     1       6.134  80.923  14.155  1.00  0.00     0.013 A 
ATOM      3  C   UNL     1       6.033  82.994  15.390  1.00  0.00     0.120 A 
ATOM      4  C   UNL     1       6.033  81.646  12.966  1.00  0.00     0.021 A 
ATOM      5  N   UNL     1       5.936  83.675  14.216  1.00  0.00    -0.264 NA
ATOM      6  C   UNL     1       5.934  83.037  13.017  1.00  0.00     0.111 A 
ENDROOT
BRANCH   1   7
ATOM      7  C   UNL     1       6.241  80.836  16.657  1.00  0.00     0.073 C 
ATOM      8  O   UNL     1       6.629  81.405  17.712  1.00  0.00    -0.545 OA
ATOM      9  O   UNL     1       5.914  79.485  16.700  1.00  0.00    -0.545 OA
ENDBRANCH   1   7
TORSDOF 1
ENDMDL
MODEL 4
REMARK VINA RESULT:    -4.493      0.927      1.601
REMARK INTER + INTRA:          -4.776
REMARK INTER:                  -4.755
REMARK INTRA:                  -0.021
REMARK UNBOUND:                -0.021
REMARK SMILES O=C([O-])c1cccnc1
REMARK SMILES IDX 4 1 5 2 9 3 6 4 8 5 7 6 2 7 1 8 3 9
REMARK H PARENT
REMARK Flexibility Score: inf
ROOT
ATOM      1  C   UNL     1       6.121  82.022  14.479  1.00  0.00     0.016 A 
ATOM      2  C   UNL     1       5.958  82.895  15.567  1.00  0.00     0.013 A 
ATOM      3  C   UNL     1       6.419  80.674  14.744  1.00  0.00     0.120 A 
ATOM      4  C   UNL     1       6.089  82.421  16.873  1.00  0.00     0.021 A 
ATOM      5  N   UNL     1       6.542  80.237  16.026  1.00  0.00    -0.264 NA
ATOM      6  C   UNL     1       6.385  81.074  17.085  1.00  0.00     0.111 A 
ENDROOT
BRANCH   1   7
ATOM      7  C   UNL     1       5.983  82.514  13.091  1.00  0.00     0.073 C 
ATOM      8  O   UNL     1       6.410  83.655  12.771  1.00  0.00    -0.545 OA
ATOM      9  O   UNL     1       5.380  81.722  12.121  1.00  0.00    -0.545 OA
ENDBRANCH   1   7
TORSDOF 1
ENDMDL
MODEL 5
REMARK VINA RESULT:    -4.410      2.903      3.888
REMARK INTER + INTRA:          -4.689
REMARK INTER:                  -4.666
REMARK INTRA:                  -0.023
REMARK UNBOUND:                -0.021
REMARK SMILES O=C([O-])c1cccnc1
REMARK SMILES IDX 4 1 5 2 9 3 6 4 8 5 7 6 2 7 1 8 3 9
REMARK H PARENT
REMARK Flexibility Score: inf
ROOT
ATOM      1  C   UNL     1       6.181  81.639  15.420  1.00  0.00     0.016 A 
ATOM      2  C   UNL     1       5.999  83.032  15.422  1.00  0.00     0.013 A 
ATOM      3  C   UNL     1       6.282  80.981  14.182  1.00  0.00     0.120 A 
ATOM      4  C   UNL     1       5.923  83.731  14.217  1.00  0.00     0.021 A 
ATOM      5  N   UNL     1       6.205  81.686  13.021  1.00  0.00    -0.264 NA
ATOM      6  C   UNL     1       6.029  83.034  13.014  1.00  0.00     0.111 A 
ENDROOT
BRANCH   1   7
ATOM      7  C   UNL     1       6.263  80.888  16.691  1.00  0.00     0.073 C 
ATOM      8  O   UNL     1       6.578  81.473  17.762  1.00  0.00    -0.545 OA
ATOM      9  O   UNL     1       5.994  79.524  16.722  1.00  0.00    -0.545 OA
ENDBRANCH   1   7
TORSDOF 1
ENDMDL
MODEL 6
REMARK VINA RESULT:    -4.267      2.449      3.596
REMARK INTER + INTRA:          -4.537
REMARK INTER:                  -4.515
REMARK INTRA:                  -0.022
REMARK UNBOUND:                -0.021
REMARK SMILES O=C([O-])c1cccnc1
REMARK SMILES IDX 4 1 5 2 9 3 6 4 8 5 7 6 2 7 1 8 3 9
REMARK H PARENT
REMARK Flexibility Score: inf
ROOT
ATOM      1  C   UNL     1       5.899  82.313  14.101  1.00  0.00     0.016 A 
ATOM      2  C   UNL     1       6.011  83.329  15.064  1.00  0.00     0.013 A 
ATOM      3  C   UNL     1       5.201  82.592  12.913  1.00  0.00     0.120 A 
ATOM      4  C   UNL     1       5.439  84.581  14.833  1.00  0.00     0.021 A 
ATOM      5  N   UNL     1       4.652  83.821  12.713  1.00  0.00    -0.264 NA
ATOM      6  C   UNL     1       4.755  84.810  13.638  1.00  0.00     0.111 A 
ENDROOT
BRANCH   1   7
ATOM      7  C   UNL     1       6.502  80.982  14.335  1.00  0.00     0.073 C 
ATOM      8  O   UNL     1       6.847  80.256  13.365  1.00  0.00    -0.545 OA
ATOM      9  O   UNL     1       6.696  80.515  15.630  1.00  0.00    -0.545 OA
ENDBRANCH   1   7
TORSDOF 1
ENDMDL
MODEL 7
REMARK VINA RESULT:    -4.165      2.919      3.941
REMARK INTER + INTRA:          -4.429
REMARK INTER:                  -4.405
REMARK INTRA:                  -0.024
REMARK UNBOUND:                -0.021
REMARK SMILES O=C([O-])c1cccnc1
REMARK SMILES IDX 4 1 5 2 9 3 6 4 8 5 7 6 2 7 1 8 3 9
REMARK H PARENT
REMARK Flexibility Score: inf
ROOT
ATOM      1  C   UNL     1       6.113  82.112  15.918  1.00  0.00     0.016 A 
ATOM      2  C   UNL     1       5.931  83.069  14.905  1.00  0.00     0.013 A 
ATOM      3  C   UNL     1       6.406  80.790  15.543  1.00  0.00     0.120 A 
ATOM      4  C   UNL     1       6.043  82.700  13.564  1.00  0.00     0.021 A 
ATOM      5  N   UNL     1       6.509  80.456  14.228  1.00  0.00    -0.264 NA
ATOM      6  C   UNL     1       6.336  81.375  13.241  1.00  0.00     0.111 A 
ENDROOT
BRANCH   1   7
ATOM      7  C   UNL     1       5.997  82.492  17.343  1.00  0.00     0.073 C 
ATOM      8  O   UNL     1       6.079  81.619  18.247  1.00  0.00    -0.545 OA
ATOM      9  O   UNL     1       5.796  83.820  17.703  1.00  0.00    -0.545 OA
ENDBRANCH   1   7
TORSDOF 1
ENDMDL
MODEL 8
REMARK VINA RESULT:    -4.146      8.967     10.495
REMARK INTER + INTRA:          -4.409
REMARK INTER:                  -4.385
REMARK INTRA:                  -0.024
REMARK UNBOUND:                -0.021
REMARK SMILES O=C([O-])c1cccnc1
REMARK SMILES IDX 4 1 5 2 9 3 6 4 8 5 7 6 2 7 1 8 3 9
REMARK H PARENT
REMARK Flexibility Score: inf
ROOT
ATOM      1  C   UNL     1       4.185  80.943   5.410  1.00  0.00     0.016 A 
ATOM      2  C   UNL     1       4.258  79.663   4.835  1.00  0.00     0.013 A 
ATOM      3  C   UNL     1       4.582  82.046   4.635  1.00  0.00     0.120 A 
ATOM      4  C   UNL     1       4.715  79.507   3.525  1.00  0.00     0.021 A 
ATOM      5  N   UNL     1       5.023  81.867   3.361  1.00  0.00    -0.264 NA
ATOM      6  C   UNL     1       5.097  80.634   2.796  1.00  0.00     0.111 A 
ENDROOT
BRANCH   1   7
ATOM      7  C   UNL     1       3.702  81.119   6.797  1.00  0.00     0.073 C 
ATOM      8  O   UNL     1       3.138  80.170   7.404  1.00  0.00    -0.545 OA
ATOM      9  O   UNL     1       3.864  82.336   7.449  1.00  0.00    -0.545 OA
ENDBRANCH   1   7
TORSDOF 1
ENDMDL
MODEL 9
REMARK VINA RESULT:    -3.642     10.903     12.101
REMARK INTER + INTRA:          -3.876
REMARK INTER:                  -3.856
REMARK INTRA:                  -0.020
REMARK UNBOUND:                -0.021
REMARK SMILES O=C([O-])c1cccnc1
REMARK SMILES IDX 4 1 5 2 9 3 6 4 8 5 7 6 2 7 1 8 3 9
REMARK H PARENT
REMARK Flexibility Score: inf
ROOT
ATOM      1  C   UNL     1       4.309  79.810   3.660  1.00  0.00     0.016 A 
ATOM      2  C   UNL     1       4.715  78.526   4.061  1.00  0.00     0.013 A 
ATOM      3  C   UNL     1       3.893  79.993   2.330  1.00  0.00     0.120 A 
ATOM      4  C   UNL     1       4.699  77.469   3.150  1.00  0.00     0.021 A 
ATOM      5  N   UNL     1       3.888  78.946   1.462  1.00  0.00    -0.264 NA
ATOM      6  C   UNL     1       4.278  77.701   1.841  1.00  0.00     0.111 A 
ENDROOT
BRANCH   1   7
ATOM      7  C   UNL     1       4.322  80.937   4.618  1.00  0.00     0.073 C 
ATOM      8  O   UNL     1       4.732  82.074   4.263  1.00  0.00    -0.545 OA
ATOM      9  O   UNL     1       3.881  80.756   5.924  1.00  0.00    -0.545 OA
ENDBRANCH   1   7
TORSDOF 1
ENDMDL
