MODEL 1
REMARK VINA RESULT:    -5.249      0.000      0.000
REMARK INTER + INTRA:          -5.555
REMARK INTER:                  -5.555
REMARK INTRA:                   0.000
REMARK UNBOUND:                 0.000
REMARK SMILES O=c1ccc2cc(O)c(O)cc2o1
REMARK SMILES IDX 4 1 3 2 2 3 1 4 13 5 12 6 11 7 9 8 7 9 6 10 5 11 8 12 10 14
REMARK H PARENT 8 13 10 15
REMARK Flexibility Score: inf
ROOT
ATOM      1  C   UNL     1      36.172 -29.924  -5.189  1.00  0.00     0.019 A 
ATOM      2  C   UNL     1      35.317 -29.007  -5.800  1.00  0.00     0.094 A 
ATOM      3  C   UNL     1      35.551 -28.646  -7.133  1.00  0.00     0.336 A 
ATOM      4  O   UNL     1      34.791 -27.819  -7.702  1.00  0.00    -0.246 OA
ATOM      5  O   UNL     1      36.573 -29.171  -7.803  1.00  0.00    -0.423 OA
ATOM      6  C   UNL     1      37.412 -30.049  -7.258  1.00  0.00     0.142 A 
ATOM      7  C   UNL     1      38.470 -30.567  -8.012  1.00  0.00     0.098 A 
ATOM      8  C   UNL     1      39.356 -31.493  -7.441  1.00  0.00     0.161 A 
ATOM      9  C   UNL     1      39.184 -31.902  -6.111  1.00  0.00     0.158 A 
ATOM     10  C   UNL     1      38.124 -31.385  -5.350  1.00  0.00     0.062 A 
ATOM     11  C   UNL     1      37.238 -30.460  -5.918  1.00  0.00     0.022 A 
ENDROOT
BRANCH   9  12
ATOM     12  O   UNL     1      40.070 -32.821  -5.552  1.00  0.00    -0.504 OA
ATOM     13  H   UNL     1      39.979 -33.816  -5.721  1.00  0.00     0.293 HD
ENDBRANCH   9  12
BRANCH   8  14
ATOM     14  O   UNL     1      40.411 -32.011  -8.190  1.00  0.00    -0.504 OA
ATOM     15  H   UNL     1      40.429 -31.939  -9.201  1.00  0.00     0.293 HD
ENDBRANCH   8  14
TORSDOF 2
ENDMDL
MODEL 2
REMARK VINA RESULT:    -5.001      1.635      2.258
REMARK INTER + INTRA:          -5.294
REMARK INTER:                  -5.294
REMARK INTRA:                   0.000
REMARK UNBOUND:                 0.000
REMARK SMILES O=c1ccc2cc(O)c(O)cc2o1
REMARK SMILES IDX 4 1 3 2 2 3 1 4 13 5 12 6 11 7 9 8 7 9 6 10 5 11 8 12 10 14
REMARK H PARENT 8 13 10 15
REMARK Flexibility Score: inf
ROOT
ATOM      1  C   UNL     1      34.466 -28.551  -6.585  1.00  0.00     0.019 A 
ATOM      2  C   UNL     1      34.049 -28.136  -7.849  1.00  0.00     0.094 A 
ATOM      3  C   UNL     1      34.862 -28.409  -8.955  1.00  0.00     0.336 A 
ATOM      4  O   UNL     1      34.504 -28.043 -10.105  1.00  0.00    -0.246 OA
ATOM      5  O   UNL     1      36.015 -29.056  -8.799  1.00  0.00    -0.423 OA
ATOM      6  C   UNL     1      36.449 -29.469  -7.611  1.00  0.00     0.142 A 
ATOM      7  C   UNL     1      37.670 -30.144  -7.508  1.00  0.00     0.098 A 
ATOM      8  C   UNL     1      38.132 -30.581  -6.258  1.00  0.00     0.161 A 
ATOM      9  C   UNL     1      37.370 -30.343  -5.105  1.00  0.00     0.158 A 
ATOM     10  C   UNL     1      36.144 -29.666  -5.202  1.00  0.00     0.062 A 
ATOM     11  C   UNL     1      35.682 -29.228  -6.450  1.00  0.00     0.022 A 
ENDROOT
BRANCH   9  12
ATOM     12  O   UNL     1      37.836 -30.780  -3.867  1.00  0.00    -0.504 OA
ATOM     13  H   UNL     1      38.133 -31.738  -3.719  1.00  0.00     0.293 HD
ENDBRANCH   9  12
BRANCH   8  14
ATOM     14  O   UNL     1      39.348 -31.254  -6.153  1.00  0.00    -0.504 OA
ATOM     15  H   UNL     1      40.229 -30.754  -6.121  1.00  0.00     0.293 HD
ENDBRANCH   8  14
TORSDOF 2
ENDMDL
MODEL 3
REMARK VINA RESULT:    -4.621      1.609      4.334
REMARK INTER + INTRA:          -4.892
REMARK INTER:                  -4.892
REMARK INTRA:                   0.000
REMARK UNBOUND:                 0.000
REMARK SMILES O=c1ccc2cc(O)c(O)cc2o1
REMARK SMILES IDX 4 1 3 2 2 3 1 4 13 5 12 6 11 7 9 8 7 9 6 10 5 11 8 12 10 14
REMARK H PARENT 8 13 10 15
REMARK Flexibility Score: inf
ROOT
ATOM      1  C   UNL     1      39.300 -31.979  -6.134  1.00  0.00     0.019 A 
ATOM      2  C   UNL     1      40.004 -32.140  -7.327  1.00  0.00     0.094 A 
ATOM      3  C   UNL     1      39.584 -31.437  -8.462  1.00  0.00     0.336 A 
ATOM      4  O   UNL     1      40.206 -31.568  -9.549  1.00  0.00    -0.246 OA
ATOM      5  O   UNL     1      38.529 -30.628  -8.401  1.00  0.00    -0.423 OA
ATOM      6  C   UNL     1      37.831 -30.446  -7.283  1.00  0.00     0.142 A 
ATOM      7  C   UNL     1      36.730 -29.583  -7.278  1.00  0.00     0.098 A 
ATOM      8  C   UNL     1      35.991 -29.389  -6.103  1.00  0.00     0.161 A 
ATOM      9  C   UNL     1      36.353 -30.060  -4.926  1.00  0.00     0.158 A 
ATOM     10  C   UNL     1      37.456 -30.927  -4.925  1.00  0.00     0.062 A 
ATOM     11  C   UNL     1      38.196 -31.123  -6.098  1.00  0.00     0.022 A 
ENDROOT
BRANCH   9  12
ATOM     12  O   UNL     1      35.612 -29.862  -3.763  1.00  0.00    -0.504 OA
ATOM     13  H   UNL     1      36.057 -29.796  -2.854  1.00  0.00     0.293 HD
ENDBRANCH   9  12
BRANCH   8  14
ATOM     14  O   UNL     1      34.894 -28.529  -6.095  1.00  0.00    -0.504 OA
ATOM     15  H   UNL     1      34.994 -27.542  -5.886  1.00  0.00     0.293 HD
ENDBRANCH   8  14
TORSDOF 2
ENDMDL
MODEL 4
REMARK VINA RESULT:    -4.320      1.036      2.228
REMARK INTER + INTRA:          -4.572
REMARK INTER:                  -4.572
REMARK INTRA:                   0.000
REMARK UNBOUND:                 0.000
REMARK SMILES O=c1ccc2cc(O)c(O)cc2o1
REMARK SMILES IDX 4 1 3 2 2 3 1 4 13 5 12 6 11 7 9 8 7 9 6 10 5 11 8 12 10 14
REMARK H PARENT 8 13 10 15
REMARK Flexibility Score: inf
ROOT
ATOM      1  C   UNL     1      36.602 -28.922  -8.250  1.00  0.00     0.019 A 
ATOM      2  C   UNL     1      35.490 -28.334  -7.650  1.00  0.00     0.094 A 
ATOM      3  C   UNL     1      35.173 -28.672  -6.329  1.00  0.00     0.336 A 
ATOM      4  O   UNL     1      34.173 -28.151  -5.769  1.00  0.00    -0.246 OA
ATOM      5  O   UNL     1      35.925 -29.541  -5.658  1.00  0.00    -0.423 OA
ATOM      6  C   UNL     1      36.995 -30.125  -6.193  1.00  0.00     0.142 A 
ATOM      7  C   UNL     1      37.747 -31.032  -5.439  1.00  0.00     0.098 A 
ATOM      8  C   UNL     1      38.875 -31.649  -5.999  1.00  0.00     0.161 A 
ATOM      9  C   UNL     1      39.253 -31.359  -7.317  1.00  0.00     0.158 A 
ATOM     10  C   UNL     1      38.502 -30.450  -8.078  1.00  0.00     0.062 A 
ATOM     11  C   UNL     1      37.374 -29.832  -7.521  1.00  0.00     0.022 A 
ENDROOT
BRANCH   9  12
ATOM     12  O   UNL     1      40.374 -31.978  -7.866  1.00  0.00    -0.504 OA
ATOM     13  H   UNL     1      41.148 -32.285  -7.287  1.00  0.00     0.293 HD
ENDBRANCH   9  12
BRANCH   8  14
ATOM     14  O   UNL     1      39.626 -32.553  -5.250  1.00  0.00    -0.504 OA
ATOM     15  H   UNL     1      40.107 -32.270  -4.404  1.00  0.00     0.293 HD
ENDBRANCH   8  14
TORSDOF 2
ENDMDL
MODEL 5
REMARK VINA RESULT:    -4.279      1.442      2.724
REMARK INTER + INTRA:          -4.529
REMARK INTER:                  -4.529
REMARK INTRA:                   0.000
REMARK UNBOUND:                 0.000
REMARK SMILES O=c1ccc2cc(O)c(O)cc2o1
REMARK SMILES IDX 4 1 3 2 2 3 1 4 13 5 12 6 11 7 9 8 7 9 6 10 5 11 8 12 10 14
REMARK H PARENT 8 13 10 15
REMARK Flexibility Score: inf
ROOT
ATOM      1  C   UNL     1      36.936 -29.153  -8.253  1.00  0.00     0.019 A 
ATOM      2  C   UNL     1      35.874 -28.267  -8.440  1.00  0.00     0.094 A 
ATOM      3  C   UNL     1      34.970 -28.062  -7.391  1.00  0.00     0.336 A 
ATOM      4  O   UNL     1      34.005 -27.267  -7.540  1.00  0.00    -0.246 OA
ATOM      5  O   UNL     1      35.123 -28.704  -6.235  1.00  0.00    -0.423 OA
ATOM      6  C   UNL     1      36.121 -29.557  -6.016  1.00  0.00     0.142 A 
ATOM      7  C   UNL     1      36.230 -30.203  -4.781  1.00  0.00     0.098 A 
ATOM      8  C   UNL     1      37.281 -31.102  -4.545  1.00  0.00     0.161 A 
ATOM      9  C   UNL     1      38.225 -31.356  -5.549  1.00  0.00     0.158 A 
ATOM     10  C   UNL     1      38.120 -30.711  -6.791  1.00  0.00     0.062 A 
ATOM     11  C   UNL     1      37.072 -29.813  -7.028  1.00  0.00     0.022 A 
ENDROOT
BRANCH   9  12
ATOM     12  O   UNL     1      39.265 -32.252  -5.307  1.00  0.00    -0.504 OA
ATOM     13  H   UNL     1      40.155 -32.175  -5.787  1.00  0.00     0.293 HD
ENDBRANCH   9  12
BRANCH   8  14
ATOM     14  O   UNL     1      37.392 -31.747  -3.315  1.00  0.00    -0.504 OA
ATOM     15  H   UNL     1      37.719 -32.704  -3.245  1.00  0.00     0.293 HD
ENDBRANCH   8  14
TORSDOF 2
ENDMDL
MODEL 6
REMARK VINA RESULT:    -3.868      2.074      3.086
REMARK INTER + INTRA:          -4.094
REMARK INTER:                  -4.094
REMARK INTRA:                   0.000
REMARK UNBOUND:                 0.000
REMARK SMILES O=c1ccc2cc(O)c(O)cc2o1
REMARK SMILES IDX 4 1 3 2 2 3 1 4 13 5 12 6 11 7 9 8 7 9 6 10 5 11 8 12 10 14
REMARK H PARENT 8 13 10 15
REMARK Flexibility Score: inf
ROOT
ATOM      1  C   UNL     1      36.075 -29.460  -5.581  1.00  0.00     0.019 A 
ATOM      2  C   UNL     1      35.783 -29.499  -4.218  1.00  0.00     0.094 A 
ATOM      3  C   UNL     1      36.550 -30.319  -3.383  1.00  0.00     0.336 A 
ATOM      4  O   UNL     1      36.302 -30.369  -2.149  1.00  0.00    -0.246 OA
ATOM      5  O   UNL     1      37.543 -31.050  -3.885  1.00  0.00    -0.423 OA
ATOM      6  C   UNL     1      37.855 -31.041  -5.179  1.00  0.00     0.142 A 
ATOM      7  C   UNL     1      38.909 -31.831  -5.649  1.00  0.00     0.098 A 
ATOM      8  C   UNL     1      39.242 -31.825  -7.012  1.00  0.00     0.161 A 
ATOM      9  C   UNL     1      38.517 -31.027  -7.908  1.00  0.00     0.158 A 
ATOM     10  C   UNL     1      37.458 -30.233  -7.442  1.00  0.00     0.062 A 
ATOM     11  C   UNL     1      37.124 -30.237  -6.081  1.00  0.00     0.022 A 
ENDROOT
BRANCH   9  12
ATOM     12  O   UNL     1      38.853 -31.028  -9.260  1.00  0.00    -0.504 OA
ATOM     13  H   UNL     1      38.635 -31.814  -9.861  1.00  0.00     0.293 HD
ENDBRANCH   9  12
BRANCH   8  14
ATOM     14  O   UNL     1      40.292 -32.610  -7.483  1.00  0.00    -0.504 OA
ATOM     15  H   UNL     1      41.198 -32.613  -7.029  1.00  0.00     0.293 HD
ENDBRANCH   8  14
TORSDOF 2
ENDMDL
MODEL 7
REMARK VINA RESULT:    -3.577     19.576     20.069
REMARK INTER + INTRA:          -3.786
REMARK INTER:                  -3.786
REMARK INTRA:                   0.000
REMARK UNBOUND:                 0.000
REMARK SMILES O=c1ccc2cc(O)c(O)cc2o1
REMARK SMILES IDX 4 1 3 2 2 3 1 4 13 5 12 6 11 7 9 8 7 9 6 10 5 11 8 12 10 14
REMARK H PARENT 8 13 10 15
REMARK Flexibility Score: inf
ROOT
ATOM      1  C   UNL     1      21.994 -44.310  -3.205  1.00  0.00     0.019 A 
ATOM      2  C   UNL     1      21.201 -44.522  -4.332  1.00  0.00     0.094 A 
ATOM      3  C   UNL     1      21.812 -44.928  -5.524  1.00  0.00     0.336 A 
ATOM      4  O   UNL     1      21.114 -45.125  -6.553  1.00  0.00    -0.246 OA
ATOM      5  O   UNL     1      23.130 -45.108  -5.578  1.00  0.00    -0.423 OA
ATOM      6  C   UNL     1      23.922 -44.917  -4.526  1.00  0.00     0.142 A 
ATOM      7  C   UNL     1      25.300 -45.122  -4.642  1.00  0.00     0.098 A 
ATOM      8  C   UNL     1      26.139 -44.922  -3.536  1.00  0.00     0.161 A 
ATOM      9  C   UNL     1      25.598 -44.515  -2.308  1.00  0.00     0.158 A 
ATOM     10  C   UNL     1      24.215 -44.308  -2.186  1.00  0.00     0.062 A 
ATOM     11  C   UNL     1      23.376 -44.507  -3.290  1.00  0.00     0.022 A 
ENDROOT
BRANCH   9  12
ATOM     12  O   UNL     1      26.438 -44.317  -1.215  1.00  0.00    -0.504 OA
ATOM     13  H   UNL     1      27.367 -44.721  -1.179  1.00  0.00     0.293 HD
ENDBRANCH   9  12
BRANCH   8  14
ATOM     14  O   UNL     1      27.513 -45.125  -3.649  1.00  0.00    -0.504 OA
ATOM     15  H   UNL     1      28.142 -44.943  -2.875  1.00  0.00     0.293 HD
ENDBRANCH   8  14
TORSDOF 2
ENDMDL
MODEL 8
REMARK VINA RESULT:    -3.444      2.528      4.819
REMARK INTER + INTRA:          -3.645
REMARK INTER:                  -3.645
REMARK INTRA:                   0.000
REMARK UNBOUND:                 0.000
REMARK SMILES O=c1ccc2cc(O)c(O)cc2o1
REMARK SMILES IDX 4 1 3 2 2 3 1 4 13 5 12 6 11 7 9 8 7 9 6 10 5 11 8 12 10 14
REMARK H PARENT 8 13 10 15
REMARK Flexibility Score: inf
ROOT
ATOM      1  C   UNL     1      37.932 -30.563  -6.259  1.00  0.00     0.019 A 
ATOM      2  C   UNL     1      37.952 -30.884  -4.902  1.00  0.00     0.094 A 
ATOM      3  C   UNL     1      36.910 -30.433  -4.083  1.00  0.00     0.336 A 
ATOM      4  O   UNL     1      36.910 -30.712  -2.856  1.00  0.00    -0.246 OA
ATOM      5  O   UNL     1      35.916 -29.711  -4.595  1.00  0.00    -0.423 OA
ATOM      6  C   UNL     1      35.859 -29.383  -5.883  1.00  0.00     0.142 A 
ATOM      7  C   UNL     1      34.789 -28.621  -6.364  1.00  0.00     0.098 A 
ATOM      8  C   UNL     1      34.724 -28.274  -7.721  1.00  0.00     0.161 A 
ATOM      9  C   UNL     1      35.732 -28.690  -8.602  1.00  0.00     0.158 A 
ATOM     10  C   UNL     1      36.808 -29.455  -8.125  1.00  0.00     0.062 A 
ATOM     11  C   UNL     1      36.875 -29.803  -6.770  1.00  0.00     0.022 A 
ENDROOT
BRANCH   9  12
ATOM     12  O   UNL     1      35.660 -28.340  -9.949  1.00  0.00    -0.504 OA
ATOM     13  H   UNL     1      36.436 -27.892 -10.424  1.00  0.00     0.293 HD
ENDBRANCH   9  12
BRANCH   8  14
ATOM     14  O   UNL     1      33.659 -27.515  -8.203  1.00  0.00    -0.504 OA
ATOM     15  H   UNL     1      32.814 -27.949  -8.555  1.00  0.00     0.293 HD
ENDBRANCH   8  14
TORSDOF 2
ENDMDL
MODEL 9
REMARK VINA RESULT:    -3.356     19.258     20.131
REMARK INTER + INTRA:          -3.552
REMARK INTER:                  -3.552
REMARK INTRA:                   0.000
REMARK UNBOUND:                 0.000
REMARK SMILES O=c1ccc2cc(O)c(O)cc2o1
REMARK SMILES IDX 4 1 3 2 2 3 1 4 13 5 12 6 11 7 9 8 7 9 6 10 5 11 8 12 10 14
REMARK H PARENT 8 13 10 15
REMARK Flexibility Score: inf
ROOT
ATOM      1  C   UNL     1      26.347 -45.125  -4.123  1.00  0.00     0.019 A 
ATOM      2  C   UNL     1      26.999 -44.852  -2.921  1.00  0.00     0.094 A 
ATOM      3  C   UNL     1      26.264 -44.311  -1.859  1.00  0.00     0.336 A 
ATOM      4  O   UNL     1      26.834 -44.057  -0.765  1.00  0.00    -0.246 OA
ATOM      5  O   UNL     1      24.964 -44.063  -1.997  1.00  0.00    -0.423 OA
ATOM      6  C   UNL     1      24.304 -44.309  -3.126  1.00  0.00     0.142 A 
ATOM      7  C   UNL     1      22.937 -44.027  -3.213  1.00  0.00     0.098 A 
ATOM      8  C   UNL     1      22.238 -44.285  -4.401  1.00  0.00     0.161 A 
ATOM      9  C   UNL     1      22.908 -44.827  -5.507  1.00  0.00     0.158 A 
ATOM     10  C   UNL     1      24.279 -45.112  -5.426  1.00  0.00     0.062 A 
ATOM     11  C   UNL     1      24.980 -44.855  -4.239  1.00  0.00     0.022 A 
ENDROOT
BRANCH   9  12
ATOM     12  O   UNL     1      22.205 -45.079  -6.684  1.00  0.00    -0.504 OA
ATOM     13  H   UNL     1      22.647 -45.522  -7.481  1.00  0.00     0.293 HD
ENDBRANCH   9  12
BRANCH   8  14
ATOM     14  O   UNL     1      20.875 -44.005  -4.490  1.00  0.00    -0.504 OA
ATOM     15  H   UNL     1      20.195 -44.494  -3.919  1.00  0.00     0.293 HD
ENDBRANCH   8  14
TORSDOF 2
ENDMDL
