MODEL 1
REMARK VINA RESULT:    45.397      0.000      0.000
REMARK INTER + INTRA:          61.804
REMARK INTER:                  61.320
REMARK INTRA:                   0.484
REMARK UNBOUND:                 0.484
REMARK SMILES CC[C@H](CC[C@@H](C)[C@@H]1CC[C@@H]2[C@@H]3CC(=O)C4=CC(=O)CC[C@@]4(C)[C@@H]3CC[C@@]21C)C(C)C
REMARK SMILES IDX 4 1 3 2 2 3 1 4 29 5 30 6 31 7 5 8 6 9 7 10 8 11 9 12 27 13
REMARK SMILES IDX 10 14 11 15 26 16 28 17 12 18 25 19 24 20 13 21 22 22 14 23
REMARK SMILES IDX 16 24 21 25 23 26 15 27 17 28 20 29 18 30 19 31
REMARK H PARENT
REMARK Flexibility Score: inf
ROOT
ATOM      1  C   UNL     1      -4.968  11.784   9.006  1.00  0.00     0.004 C 
ENDROOT
BRANCH   1   2
ATOM      2  C   UNL     1      -3.746  10.935   8.527  1.00  0.00    -0.009 C 
BRANCH   2   3
ATOM      3  C   UNL     1      -3.737  10.864   6.976  1.00  0.00     0.000 C 
ATOM      4  C   UNL     1      -2.335  10.909   6.366  1.00  0.00     0.004 C 
ENDBRANCH   2   3
BRANCH   2   5
ATOM      5  C   UNL     1      -2.371  11.410   9.122  1.00  0.00    -0.014 C 
ATOM      6  C   UNL     1      -2.204  12.936   9.082  1.00  0.00     0.007 C 
ATOM      7  C   UNL     1      -1.139  10.731   8.494  1.00  0.00     0.007 C 
ENDBRANCH   2   5
ENDBRANCH   1   2
BRANCH   1   8
ATOM      8  C   UNL     1      -6.080  11.953   7.940  1.00  0.00     0.004 C 
BRANCH   8   9
ATOM      9  C   UNL     1      -6.827  13.312   7.988  1.00  0.00    -0.011 C 
ATOM     10  C   UNL     1      -6.241  14.200   9.106  1.00  0.00     0.008 C 
BRANCH   9  11
ATOM     11  C   UNL     1      -6.776  14.087   6.616  1.00  0.00    -0.002 C 
ATOM     12  C   UNL     1      -6.804  13.113   5.429  1.00  0.00     0.005 C 
ATOM     13  C   UNL     1      -5.595  15.071   6.296  1.00  0.00    -0.026 C 
ATOM     14  C   UNL     1      -6.207  13.835   4.232  1.00  0.00     0.005 C 
ATOM     15  C   UNL     1      -5.658  15.176   4.742  1.00  0.00    -0.001 C 
ATOM     16  C   UNL     1      -4.196  14.553   6.792  1.00  0.00     0.007 C 
ATOM     17  C   UNL     1      -5.865  16.487   6.880  1.00  0.00     0.012 C 
ATOM     18  C   UNL     1      -4.339  15.655   4.053  1.00  0.00     0.004 C 
ATOM     19  C   UNL     1      -3.317  13.936   5.699  1.00  0.00     0.005 C 
ATOM     20  C   UNL     1      -3.016  14.979   4.600  1.00  0.00     0.003 C 
ATOM     21  C   UNL     1      -4.509  15.699   2.506  1.00  0.00     0.085 C 
ATOM     22  C   UNL     1      -1.997  14.500   3.495  1.00  0.00    -0.000 C 
ATOM     23  C   UNL     1      -3.223  15.984   1.796  1.00  0.00     0.159 C 
ATOM     24  C   UNL     1      -1.948  15.597   2.425  1.00  0.00     0.005 C 
ATOM     25  C   UNL     1      -0.562  14.221   4.075  1.00  0.00     0.020 C 
ATOM     26  C   UNL     1      -2.451  13.169   2.841  1.00  0.00     0.017 C 
ATOM     27  O   UNL     1      -3.244  16.548   0.668  1.00  0.00    -0.295 OA
ATOM     28  C   UNL     1      -0.863  16.366   2.209  1.00  0.00     0.055 C 
ATOM     29  C   UNL     1       0.257  15.485   4.329  1.00  0.00     0.081 C 
ATOM     30  C   UNL     1       0.317  16.287   3.074  1.00  0.00     0.156 C 
ATOM     31  O   UNL     1       1.347  16.958   2.799  1.00  0.00    -0.295 OA
ENDBRANCH   9  11
ENDBRANCH   8   9
ENDBRANCH   1   8
TORSDOF 6
ENDMDL
MODEL 2
REMARK VINA RESULT:    47.531      1.518      4.681
REMARK INTER + INTRA:          64.686
REMARK INTER:                  61.677
REMARK INTRA:                   3.009
REMARK UNBOUND:                 0.484
REMARK SMILES CC[C@H](CC[C@@H](C)[C@@H]1CC[C@@H]2[C@@H]3CC(=O)C4=CC(=O)CC[C@@]4(C)[C@@H]3CC[C@@]21C)C(C)C
REMARK SMILES IDX 4 1 3 2 2 3 1 4 29 5 30 6 31 7 5 8 6 9 7 10 8 11 9 12 27 13
REMARK SMILES IDX 10 14 11 15 26 16 28 17 12 18 25 19 24 20 13 21 22 22 14 23
REMARK SMILES IDX 16 24 21 25 23 26 15 27 17 28 20 29 18 30 19 31
REMARK H PARENT
REMARK Flexibility Score: inf
ROOT
ATOM      1  C   UNL     1      -4.839  13.186   9.023  1.00  0.00     0.004 C 
ENDROOT
BRANCH   1   2
ATOM      2  C   UNL     1      -6.356  13.473   8.788  1.00  0.00    -0.009 C 
BRANCH   2   3
ATOM      3  C   UNL     1      -6.553  14.969   8.420  1.00  0.00     0.000 C 
ATOM      4  C   UNL     1      -7.741  15.625   9.124  1.00  0.00     0.004 C 
ENDBRANCH   2   3
BRANCH   2   5
ATOM      5  C   UNL     1      -7.034  12.500   7.756  1.00  0.00    -0.014 C 
ATOM      6  C   UNL     1      -6.482  11.070   7.841  1.00  0.00     0.007 C 
ATOM      7  C   UNL     1      -6.994  12.993   6.297  1.00  0.00     0.007 C 
ENDBRANCH   2   5
ENDBRANCH   1   2
BRANCH   1   8
ATOM      8  C   UNL     1      -4.485  11.679   9.118  1.00  0.00     0.004 C 
BRANCH   8   9
ATOM      9  C   UNL     1      -2.965  11.367   9.124  1.00  0.00    -0.011 C 
ATOM     10  C   UNL     1      -2.728   9.875   8.807  1.00  0.00     0.008 C 
BRANCH   9  11
ATOM     11  C   UNL     1      -2.154  12.258   8.108  1.00  0.00    -0.002 C 
ATOM     12  C   UNL     1      -2.394  13.753   8.367  1.00  0.00     0.005 C 
ATOM     13  C   UNL     1      -2.350  12.087   6.559  1.00  0.00    -0.026 C 
ATOM     14  C   UNL     1      -2.071  14.497   7.082  1.00  0.00     0.005 C 
ATOM     15  C   UNL     1      -1.809  13.438   6.001  1.00  0.00    -0.001 C 
ATOM     16  C   UNL     1      -3.844  11.836   6.140  1.00  0.00     0.007 C 
ATOM     17  C   UNL     1      -1.452  10.947   5.998  1.00  0.00     0.012 C 
ATOM     18  C   UNL     1      -2.311  13.816   4.570  1.00  0.00     0.004 C 
ATOM     19  C   UNL     1      -4.571  13.068   5.592  1.00  0.00     0.005 C 
ATOM     20  C   UNL     1      -3.859  13.591   4.324  1.00  0.00     0.003 C 
ATOM     21  C   UNL     1      -1.730  15.190   4.126  1.00  0.00     0.085 C 
ATOM     22  C   UNL     1      -4.604  14.770   3.586  1.00  0.00    -0.000 C 
ATOM     23  C   UNL     1      -2.319  15.673   2.838  1.00  0.00     0.159 C 
ATOM     24  C   UNL     1      -3.679  15.249   2.461  1.00  0.00     0.005 C 
ATOM     25  C   UNL     1      -6.003  14.338   3.014  1.00  0.00     0.020 C 
ATOM     26  C   UNL     1      -4.890  15.952   4.548  1.00  0.00     0.017 C 
ATOM     27  O   UNL     1      -1.650  16.440   2.093  1.00  0.00    -0.295 OA
ATOM     28  C   UNL     1      -3.962  15.081   1.155  1.00  0.00     0.055 C 
ATOM     29  C   UNL     1      -5.919  13.536   1.717  1.00  0.00     0.081 C 
ATOM     30  C   UNL     1      -5.130  14.311   0.717  1.00  0.00     0.156 C 
ATOM     31  O   UNL     1      -5.415  14.240  -0.509  1.00  0.00    -0.295 OA
ENDBRANCH   9  11
ENDBRANCH   8   9
ENDBRANCH   1   8
TORSDOF 6
ENDMDL
