MODEL 1
REMARK VINA RESULT:    -5.574      0.000      0.000
REMARK INTER + INTRA:          -6.597
REMARK INTER:                  -6.715
REMARK INTRA:                   0.118
REMARK UNBOUND:                 0.118
REMARK SMILES OCCc1ccc(O)c(O)c1
REMARK SMILES IDX 3 1 4 2 5 3 6 4 7 5 11 6 9 7 8 8 10 10 2 12 1 13
REMARK H PARENT 8 9 10 11 1 14
REMARK Flexibility Score: inf
ROOT
ATOM      1  C   UNL     1      29.096  28.092  45.363  1.00  0.00     0.064 C 
ENDROOT
BRANCH   1   2
ATOM      2  C   UNL     1      28.190  26.891  45.400  1.00  0.00    -0.042 A 
ATOM      3  C   UNL     1      28.606  25.710  46.036  1.00  0.00     0.008 A 
ATOM      4  C   UNL     1      27.779  24.584  46.043  1.00  0.00     0.050 A 
ATOM      5  C   UNL     1      26.531  24.621  45.406  1.00  0.00     0.157 A 
ATOM      6  C   UNL     1      26.945  26.921  44.752  1.00  0.00     0.054 A 
ATOM      7  C   UNL     1      26.114  25.791  44.758  1.00  0.00     0.157 A 
BRANCH   5   8
ATOM      8  O   UNL     1      25.702  23.501  45.411  1.00  0.00    -0.504 OA
ATOM      9  H   UNL     1      25.881  22.713  46.023  1.00  0.00     0.293 HD
ENDBRANCH   5   8
BRANCH   7  10
ATOM     10  O   UNL     1      24.875  25.824  44.121  1.00  0.00    -0.504 OA
ATOM     11  H   UNL     1      24.515  26.674  43.704  1.00  0.00     0.293 HD
ENDBRANCH   7  10
ENDBRANCH   1   2
BRANCH   1  12
ATOM     12  C   UNL     1      28.796  29.032  46.532  1.00  0.00     0.161 C 
BRANCH  12  13
ATOM     13  O   UNL     1      27.461  29.458  46.482  1.00  0.00    -0.396 OA
ATOM     14  H   UNL     1      27.438  30.365  46.887  1.00  0.00     0.210 HD
ENDBRANCH  12  13
ENDBRANCH   1  12
TORSDOF 5
ENDMDL
MODEL 2
REMARK VINA RESULT:    -5.498      2.066      3.261
REMARK INTER + INTRA:          -6.505
REMARK INTER:                  -6.421
REMARK INTRA:                  -0.084
REMARK UNBOUND:                 0.118
REMARK SMILES OCCc1ccc(O)c(O)c1
REMARK SMILES IDX 3 1 4 2 5 3 6 4 7 5 11 6 9 7 8 8 10 10 2 12 1 13
REMARK H PARENT 8 9 10 11 1 14
REMARK Flexibility Score: inf
ROOT
ATOM      1  C   UNL     1      30.203  25.889  46.508  1.00  0.00     0.064 C 
ENDROOT
BRANCH   1   2
ATOM      2  C   UNL     1      28.846  25.904  45.855  1.00  0.00    -0.042 A 
ATOM      3  C   UNL     1      28.406  27.043  45.163  1.00  0.00     0.008 A 
ATOM      4  C   UNL     1      27.135  27.069  44.585  1.00  0.00     0.050 A 
ATOM      5  C   UNL     1      26.285  25.961  44.698  1.00  0.00     0.157 A 
ATOM      6  C   UNL     1      27.988  24.800  45.979  1.00  0.00     0.054 A 
ATOM      7  C   UNL     1      26.711  24.825  45.399  1.00  0.00     0.157 A 
BRANCH   5   8
ATOM      8  O   UNL     1      25.016  25.982  44.122  1.00  0.00    -0.504 OA
ATOM      9  H   UNL     1      24.383  26.761  44.263  1.00  0.00     0.293 HD
ENDBRANCH   5   8
BRANCH   7  10
ATOM     10  O   UNL     1      25.862  23.727  45.515  1.00  0.00    -0.504 OA
ATOM     11  H   UNL     1      25.661  23.304  46.414  1.00  0.00     0.293 HD
ENDBRANCH   7  10
ENDBRANCH   1   2
BRANCH   1  12
ATOM     12  C   UNL     1      30.854  24.512  46.370  1.00  0.00     0.161 C 
BRANCH  12  13
ATOM     13  O   UNL     1      31.331  24.074  47.614  1.00  0.00    -0.396 OA
ATOM     14  H   UNL     1      32.308  23.932  47.508  1.00  0.00     0.210 HD
ENDBRANCH  12  13
ENDBRANCH   1  12
TORSDOF 5
ENDMDL
MODEL 3
REMARK VINA RESULT:    -4.926      8.220     10.025
REMARK INTER + INTRA:          -5.816
REMARK INTER:                  -5.740
REMARK INTRA:                  -0.076
REMARK UNBOUND:                 0.118
REMARK SMILES OCCc1ccc(O)c(O)c1
REMARK SMILES IDX 3 1 4 2 5 3 6 4 7 5 11 6 9 7 8 8 10 10 2 12 1 13
REMARK H PARENT 8 9 10 11 1 14
REMARK Flexibility Score: inf
ROOT
ATOM      1  C   UNL     1      18.051  24.364  43.443  1.00  0.00     0.064 C 
ENDROOT
BRANCH   1   2
ATOM      2  C   UNL     1      18.178  25.674  44.174  1.00  0.00    -0.042 A 
ATOM      3  C   UNL     1      17.181  26.080  45.076  1.00  0.00     0.008 A 
ATOM      4  C   UNL     1      17.282  27.310  45.731  1.00  0.00     0.050 A 
ATOM      5  C   UNL     1      18.374  28.153  45.485  1.00  0.00     0.157 A 
ATOM      6  C   UNL     1      19.264  26.526  43.920  1.00  0.00     0.054 A 
ATOM      7  C   UNL     1      19.366  27.761  44.576  1.00  0.00     0.157 A 
BRANCH   5   8
ATOM      8  O   UNL     1      18.480  29.380  46.137  1.00  0.00    -0.504 OA
ATOM      9  H   UNL     1      17.689  30.009  46.213  1.00  0.00     0.293 HD
ENDBRANCH   5   8
BRANCH   7  10
ATOM     10  O   UNL     1      20.448  28.603  44.329  1.00  0.00    -0.504 OA
ATOM     11  H   UNL     1      20.683  28.904  43.391  1.00  0.00     0.293 HD
ENDBRANCH   7  10
ENDBRANCH   1   2
BRANCH   1  12
ATOM     12  C   UNL     1      17.351  23.322  44.317  1.00  0.00     0.161 C 
BRANCH  12  13
ATOM     13  O   UNL     1      18.197  22.226  44.538  1.00  0.00    -0.396 OA
ATOM     14  H   UNL     1      18.339  22.171  45.519  1.00  0.00     0.210 HD
ENDBRANCH  12  13
ENDBRANCH   1  12
TORSDOF 5
ENDMDL
MODEL 4
REMARK VINA RESULT:    -4.903      2.379      3.295
REMARK INTER + INTRA:          -5.788
REMARK INTER:                  -5.704
REMARK INTRA:                  -0.084
REMARK UNBOUND:                 0.118
REMARK SMILES OCCc1ccc(O)c(O)c1
REMARK SMILES IDX 3 1 4 2 5 3 6 4 7 5 11 6 9 7 8 8 10 10 2 12 1 13
REMARK H PARENT 8 9 10 11 1 14
REMARK Flexibility Score: inf
ROOT
ATOM      1  C   UNL     1      30.551  25.274  46.091  1.00  0.00     0.064 C 
ENDROOT
BRANCH   1   2
ATOM      2  C   UNL     1      29.096  25.385  45.721  1.00  0.00    -0.042 A 
ATOM      3  C   UNL     1      28.209  24.338  46.019  1.00  0.00     0.008 A 
ATOM      4  C   UNL     1      26.865  24.426  45.646  1.00  0.00     0.050 A 
ATOM      5  C   UNL     1      26.394  25.557  44.965  1.00  0.00     0.157 A 
ATOM      6  C   UNL     1      28.625  26.510  45.026  1.00  0.00     0.054 A 
ATOM      7  C   UNL     1      27.276  26.599  44.652  1.00  0.00     0.157 A 
BRANCH   5   8
ATOM      8  O   UNL     1      25.054  25.650  44.593  1.00  0.00    -0.504 OA
ATOM      9  H   UNL     1      24.603  24.920  44.053  1.00  0.00     0.293 HD
ENDBRANCH   5   8
BRANCH   7  10
ATOM     10  O   UNL     1      26.806  27.720  43.969  1.00  0.00    -0.504 OA
ATOM     11  H   UNL     1      27.157  27.967  43.052  1.00  0.00     0.293 HD
ENDBRANCH   7  10
ENDBRANCH   1   2
BRANCH   1  12
ATOM     12  C   UNL     1      30.754  24.215  47.175  1.00  0.00     0.161 C 
BRANCH  12  13
ATOM     13  O   UNL     1      31.907  23.463  46.909  1.00  0.00    -0.396 OA
ATOM     14  H   UNL     1      32.390  23.369  47.772  1.00  0.00     0.210 HD
ENDBRANCH  12  13
ENDBRANCH   1  12
TORSDOF 5
ENDMDL
MODEL 5
REMARK VINA RESULT:    -4.864      8.828     10.127
REMARK INTER + INTRA:          -5.741
REMARK INTER:                  -5.690
REMARK INTRA:                  -0.050
REMARK UNBOUND:                 0.118
REMARK SMILES OCCc1ccc(O)c(O)c1
REMARK SMILES IDX 3 1 4 2 5 3 6 4 7 5 11 6 9 7 8 8 10 10 2 12 1 13
REMARK H PARENT 8 9 10 11 1 14
REMARK Flexibility Score: inf
ROOT
ATOM      1  C   UNL     1      18.915  25.287  40.647  1.00  0.00     0.064 C 
ENDROOT
BRANCH   1   2
ATOM      2  C   UNL     1      19.436  24.123  39.847  1.00  0.00    -0.042 A 
ATOM      3  C   UNL     1      19.023  23.935  38.519  1.00  0.00     0.008 A 
ATOM      4  C   UNL     1      19.482  22.837  37.786  1.00  0.00     0.050 A 
ATOM      5  C   UNL     1      20.351  21.909  38.375  1.00  0.00     0.157 A 
ATOM      6  C   UNL     1      20.297  23.185  40.439  1.00  0.00     0.054 A 
ATOM      7  C   UNL     1      20.757  22.082  39.705  1.00  0.00     0.157 A 
BRANCH   5   8
ATOM      8  O   UNL     1      20.812  20.813  37.648  1.00  0.00    -0.504 OA
ATOM      9  H   UNL     1      21.739  20.430  37.798  1.00  0.00     0.293 HD
ENDBRANCH   5   8
BRANCH   7  10
ATOM     10  O   UNL     1      21.618  21.155  40.290  1.00  0.00    -0.504 OA
ATOM     11  H   UNL     1      22.376  20.732  39.768  1.00  0.00     0.293 HD
ENDBRANCH   7  10
ENDBRANCH   1   2
BRANCH   1  12
ATOM     12  C   UNL     1      20.034  26.286  40.941  1.00  0.00     0.161 C 
BRANCH  12  13
ATOM     13  O   UNL     1      19.494  27.523  41.321  1.00  0.00    -0.396 OA
ATOM     14  H   UNL     1      19.322  28.027  40.482  1.00  0.00     0.210 HD
ENDBRANCH  12  13
ENDBRANCH   1  12
TORSDOF 5
ENDMDL
MODEL 6
REMARK VINA RESULT:    -4.858      8.546     10.307
REMARK INTER + INTRA:          -5.734
REMARK INTER:                  -5.640
REMARK INTRA:                  -0.094
REMARK UNBOUND:                 0.118
REMARK SMILES OCCc1ccc(O)c(O)c1
REMARK SMILES IDX 3 1 4 2 5 3 6 4 7 5 11 6 9 7 8 8 10 10 2 12 1 13
REMARK H PARENT 8 9 10 11 1 14
REMARK Flexibility Score: inf
ROOT
ATOM      1  C   UNL     1      16.034  25.536  46.114  1.00  0.00     0.064 C 
ENDROOT
BRANCH   1   2
ATOM      2  C   UNL     1      17.193  26.342  45.593  1.00  0.00    -0.042 A 
ATOM      3  C   UNL     1      18.182  25.731  44.806  1.00  0.00     0.008 A 
ATOM      4  C   UNL     1      19.276  26.471  44.349  1.00  0.00     0.050 A 
ATOM      5  C   UNL     1      19.399  27.827  44.681  1.00  0.00     0.157 A 
ATOM      6  C   UNL     1      17.326  27.697  45.937  1.00  0.00     0.054 A 
ATOM      7  C   UNL     1      18.424  28.440  45.478  1.00  0.00     0.157 A 
BRANCH   5   8
ATOM      8  O   UNL     1      20.487  28.570  44.227  1.00  0.00    -0.504 OA
ATOM      9  H   UNL     1      20.860  29.345  44.762  1.00  0.00     0.293 HD
ENDBRANCH   5   8
BRANCH   7  10
ATOM     10  O   UNL     1      18.551  29.787  45.812  1.00  0.00    -0.504 OA
ATOM     11  H   UNL     1      18.901  30.467  45.148  1.00  0.00     0.293 HD
ENDBRANCH   7  10
ENDBRANCH   1   2
BRANCH   1  12
ATOM     12  C   UNL     1      15.345  26.264  47.270  1.00  0.00     0.161 C 
BRANCH  12  13
ATOM     13  O   UNL     1      15.728  25.701  48.495  1.00  0.00    -0.396 OA
ATOM     14  H   UNL     1      16.414  25.013  48.289  1.00  0.00     0.210 HD
ENDBRANCH  12  13
ENDBRANCH   1  12
TORSDOF 5
ENDMDL
MODEL 7
REMARK VINA RESULT:    -4.827      7.412      9.091
REMARK INTER + INTRA:          -5.696
REMARK INTER:                  -5.588
REMARK INTRA:                  -0.108
REMARK UNBOUND:                 0.118
REMARK SMILES OCCc1ccc(O)c(O)c1
REMARK SMILES IDX 3 1 4 2 5 3 6 4 7 5 11 6 9 7 8 8 10 10 2 12 1 13
REMARK H PARENT 8 9 10 11 1 14
REMARK Flexibility Score: inf
ROOT
ATOM      1  C   UNL     1      20.056  24.422  39.444  1.00  0.00     0.064 C 
ENDROOT
BRANCH   1   2
ATOM      2  C   UNL     1      20.148  25.380  40.601  1.00  0.00    -0.042 A 
ATOM      3  C   UNL     1      19.167  25.372  41.606  1.00  0.00     0.008 A 
ATOM      4  C   UNL     1      19.234  26.282  42.663  1.00  0.00     0.050 A 
ATOM      5  C   UNL     1      20.276  27.218  42.724  1.00  0.00     0.157 A 
ATOM      6  C   UNL     1      21.183  26.327  40.657  1.00  0.00     0.054 A 
ATOM      7  C   UNL     1      21.251  27.241  41.718  1.00  0.00     0.157 A 
BRANCH   5   8
ATOM      8  O   UNL     1      20.348  28.127  43.778  1.00  0.00    -0.504 OA
ATOM      9  H   UNL     1      19.516  28.565  44.157  1.00  0.00     0.293 HD
ENDBRANCH   5   8
BRANCH   7  10
ATOM     10  O   UNL     1      22.283  28.176  41.778  1.00  0.00    -0.504 OA
ATOM     11  H   UNL     1      22.131  29.112  42.135  1.00  0.00     0.293 HD
ENDBRANCH   7  10
ENDBRANCH   1   2
BRANCH   1  12
ATOM     12  C   UNL     1      19.944  22.980  39.942  1.00  0.00     0.161 C 
BRANCH  12  13
ATOM     13  O   UNL     1      21.204  22.499  40.322  1.00  0.00    -0.396 OA
ATOM     14  H   UNL     1      21.782  22.550  39.516  1.00  0.00     0.210 HD
ENDBRANCH  12  13
ENDBRANCH   1  12
TORSDOF 5
ENDMDL
MODEL 8
REMARK VINA RESULT:    -4.826      0.885      2.041
REMARK INTER + INTRA:          -5.695
REMARK INTER:                  -5.683
REMARK INTRA:                  -0.013
REMARK UNBOUND:                 0.118
REMARK SMILES OCCc1ccc(O)c(O)c1
REMARK SMILES IDX 3 1 4 2 5 3 6 4 7 5 11 6 9 7 8 8 10 10 2 12 1 13
REMARK H PARENT 8 9 10 11 1 14
REMARK Flexibility Score: inf
ROOT
ATOM      1  C   UNL     1      28.838  27.970  45.129  1.00  0.00     0.064 C 
ENDROOT
BRANCH   1   2
ATOM      2  C   UNL     1      27.931  26.769  45.180  1.00  0.00    -0.042 A 
ATOM      3  C   UNL     1      26.637  26.836  44.640  1.00  0.00     0.008 A 
ATOM      4  C   UNL     1      25.784  25.732  44.716  1.00  0.00     0.050 A 
ATOM      5  C   UNL     1      26.210  24.552  45.341  1.00  0.00     0.157 A 
ATOM      6  C   UNL     1      28.351  25.590  45.817  1.00  0.00     0.054 A 
ATOM      7  C   UNL     1      27.495  24.482  45.894  1.00  0.00     0.157 A 
BRANCH   5   8
ATOM      8  O   UNL     1      25.363  23.448  45.417  1.00  0.00    -0.504 OA
ATOM      9  H   UNL     1      24.512  23.471  45.967  1.00  0.00     0.293 HD
ENDBRANCH   5   8
BRANCH   7  10
ATOM     10  O   UNL     1      27.915  23.309  46.519  1.00  0.00    -0.504 OA
ATOM     11  H   UNL     1      28.066  22.455  45.996  1.00  0.00     0.293 HD
ENDBRANCH   7  10
ENDBRANCH   1   2
BRANCH   1  12
ATOM     12  C   UNL     1      28.718  28.793  46.413  1.00  0.00     0.161 C 
BRANCH  12  13
ATOM     13  O   UNL     1      27.493  29.473  46.441  1.00  0.00    -0.396 OA
ATOM     14  H   UNL     1      26.783  28.778  46.430  1.00  0.00     0.210 HD
ENDBRANCH  12  13
ENDBRANCH   1  12
TORSDOF 5
ENDMDL
MODEL 9
REMARK VINA RESULT:    -4.635      8.863     10.161
REMARK INTER + INTRA:          -5.465
REMARK INTER:                  -5.410
REMARK INTRA:                  -0.055
REMARK UNBOUND:                 0.118
REMARK SMILES OCCc1ccc(O)c(O)c1
REMARK SMILES IDX 3 1 4 2 5 3 6 4 7 5 11 6 9 7 8 8 10 10 2 12 1 13
REMARK H PARENT 8 9 10 11 1 14
REMARK Flexibility Score: inf
ROOT
ATOM      1  C   UNL     1      19.380  24.995  40.969  1.00  0.00     0.064 C 
ENDROOT
BRANCH   1   2
ATOM      2  C   UNL     1      19.718  23.856  40.045  1.00  0.00    -0.042 A 
ATOM      3  C   UNL     1      20.473  22.767  40.510  1.00  0.00     0.008 A 
ATOM      4  C   UNL     1      20.814  21.725  39.645  1.00  0.00     0.050 A 
ATOM      5  C   UNL     1      20.413  21.762  38.302  1.00  0.00     0.157 A 
ATOM      6  C   UNL     1      19.329  23.897  38.697  1.00  0.00     0.054 A 
ATOM      7  C   UNL     1      19.671  22.852  37.827  1.00  0.00     0.157 A 
BRANCH   5   8
ATOM      8  O   UNL     1      20.750  20.724  37.435  1.00  0.00    -0.504 OA
ATOM      9  H   UNL     1      20.059  20.296  36.829  1.00  0.00     0.293 HD
ENDBRANCH   5   8
BRANCH   7  10
ATOM     10  O   UNL     1      19.278  22.889  36.490  1.00  0.00    -0.504 OA
ATOM     11  H   UNL     1      19.833  22.455  35.762  1.00  0.00     0.293 HD
ENDBRANCH   7  10
ENDBRANCH   1   2
BRANCH   1  12
ATOM     12  C   UNL     1      20.282  26.199  40.696  1.00  0.00     0.161 C 
BRANCH  12  13
ATOM     13  O   UNL     1      19.684  27.373  41.174  1.00  0.00    -0.396 OA
ATOM     14  H   UNL     1      19.553  27.965  40.387  1.00  0.00     0.210 HD
ENDBRANCH  12  13
ENDBRANCH   1  12
TORSDOF 5
ENDMDL
