MODEL 1
REMARK VINA RESULT:    -4.014      0.000      0.000
REMARK INTER + INTRA:          -5.648
REMARK INTER:                  -5.422
REMARK INTRA:                  -0.226
REMARK UNBOUND:                -0.226
REMARK SMILES [NH3+]CCCC[C@H]([NH3+])C(=O)[O-]
REMARK SMILES IDX 4 1 3 2 2 3 1 4 5 8 6 9 7 10 8 14 9 15 10 16
REMARK H PARENT 1 5 1 6 1 7 7 11 7 12 7 13
REMARK Flexibility Score: inf
ROOT
ATOM      1  C   UNL     1      25.756   6.094   9.121  1.00  0.00     0.012 C 
ENDROOT
BRANCH   1   2
ATOM      2  C   UNL     1      26.140   7.562   8.841  1.00  0.00     0.061 C 
BRANCH   2   3
ATOM      3  C   UNL     1      26.549   7.823   7.380  1.00  0.00     0.258 C 
BRANCH   3   4
ATOM      4  N   UNL     1      26.626   6.591   6.594  1.00  0.00    -0.358 N 
ATOM      5  H   UNL     1      27.140   6.764   5.701  1.00  0.00     0.344 HD
ATOM      6  H   UNL     1      27.151   5.871   7.140  1.00  0.00     0.344 HD
ATOM      7  H   UNL     1      25.666   6.225   6.395  1.00  0.00     0.344 HD
ENDBRANCH   3   4
ENDBRANCH   2   3
ENDBRANCH   1   2
BRANCH   1   8
ATOM      8  C   UNL     1      26.459   5.537  10.371  1.00  0.00     0.072 C 
BRANCH   8   9
ATOM      9  C   UNL     1      27.992   5.464  10.195  1.00  0.00     0.227 C 
BRANCH   9  10
ATOM     10  N   UNL     1      28.335   4.650   9.024  1.00  0.00    -0.350 N 
ATOM     11  H   UNL     1      28.367   3.635   9.275  1.00  0.00     0.345 HD
ATOM     12  H   UNL     1      27.622   4.793   8.271  1.00  0.00     0.345 HD
ATOM     13  H   UNL     1      29.268   4.941   8.650  1.00  0.00     0.345 HD
ENDBRANCH   9  10
BRANCH   9  14
ATOM     14  C   UNL     1      28.649   4.896  11.426  1.00  0.00     0.099 C 
ATOM     15  O   UNL     1      29.042   5.662  12.345  1.00  0.00    -0.544 OA
ATOM     16  O   UNL     1      28.829   3.523  11.555  1.00  0.00    -0.544 OA
ENDBRANCH   9  14
ENDBRANCH   8   9
ENDBRANCH   1   8
TORSDOF 7
ENDMDL
MODEL 2
REMARK VINA RESULT:    -4.010      3.151      4.660
REMARK INTER + INTRA:          -5.643
REMARK INTER:                  -5.466
REMARK INTRA:                  -0.177
REMARK UNBOUND:                -0.226
REMARK SMILES [NH3+]CCCC[C@H]([NH3+])C(=O)[O-]
REMARK SMILES IDX 4 1 3 2 2 3 1 4 5 8 6 9 7 10 8 14 9 15 10 16
REMARK H PARENT 1 5 1 6 1 7 7 11 7 12 7 13
REMARK Flexibility Score: inf
ROOT
ATOM      1  C   UNL     1      27.136   5.450  10.744  1.00  0.00     0.012 C 
ENDROOT
BRANCH   1   2
ATOM      2  C   UNL     1      28.497   5.239  11.438  1.00  0.00     0.061 C 
BRANCH   2   3
ATOM      3  C   UNL     1      28.916   3.762  11.533  1.00  0.00     0.258 C 
BRANCH   3   4
ATOM      4  N   UNL     1      28.086   2.891  10.701  1.00  0.00    -0.358 N 
ATOM      5  H   UNL     1      28.661   2.465   9.939  1.00  0.00     0.344 HD
ATOM      6  H   UNL     1      27.703   2.119  11.292  1.00  0.00     0.344 HD
ATOM      7  H   UNL     1      27.286   3.430  10.294  1.00  0.00     0.344 HD
ENDBRANCH   3   4
ENDBRANCH   2   3
ENDBRANCH   1   2
BRANCH   1   8
ATOM      8  C   UNL     1      27.230   6.432   9.562  1.00  0.00     0.072 C 
BRANCH   8   9
ATOM      9  C   UNL     1      26.463   5.925   8.321  1.00  0.00     0.227 C 
BRANCH   9  10
ATOM     10  N   UNL     1      27.119   4.738   7.762  1.00  0.00    -0.350 N 
ATOM     11  H   UNL     1      28.159   4.812   7.855  1.00  0.00     0.345 HD
ATOM     12  H   UNL     1      26.791   3.881   8.265  1.00  0.00     0.345 HD
ATOM     13  H   UNL     1      26.872   4.638   6.751  1.00  0.00     0.345 HD
ENDBRANCH   9  10
BRANCH   9  14
ATOM     14  C   UNL     1      26.367   7.001   7.270  1.00  0.00     0.099 C 
ATOM     15  O   UNL     1      26.093   8.185   7.600  1.00  0.00    -0.544 OA
ATOM     16  O   UNL     1      26.579   6.695   5.931  1.00  0.00    -0.544 OA
ENDBRANCH   9  14
ENDBRANCH   8   9
ENDBRANCH   1   8
TORSDOF 7
ENDMDL
MODEL 3
REMARK VINA RESULT:    -3.876      3.016      4.369
REMARK INTER + INTRA:          -5.461
REMARK INTER:                  -5.146
REMARK INTRA:                  -0.316
REMARK UNBOUND:                -0.226
REMARK SMILES [NH3+]CCCC[C@H]([NH3+])C(=O)[O-]
REMARK SMILES IDX 4 1 3 2 2 3 1 4 5 8 6 9 7 10 8 14 9 15 10 16
REMARK H PARENT 1 5 1 6 1 7 7 11 7 12 7 13
REMARK Flexibility Score: inf
ROOT
ATOM      1  C   UNL     1      27.235   2.431   8.644  1.00  0.00     0.012 C 
ENDROOT
BRANCH   1   2
ATOM      2  C   UNL     1      27.996   1.256   7.997  1.00  0.00     0.061 C 
BRANCH   2   3
ATOM      3  C   UNL     1      28.372   0.144   8.993  1.00  0.00     0.258 C 
BRANCH   3   4
ATOM      4  N   UNL     1      28.435   0.628  10.372  1.00  0.00    -0.358 N 
ATOM      5  H   UNL     1      27.799   1.447  10.497  1.00  0.00     0.344 HD
ATOM      6  H   UNL     1      28.118  -0.133  11.015  1.00  0.00     0.344 HD
ATOM      7  H   UNL     1      29.417   0.890  10.623  1.00  0.00     0.344 HD
ENDBRANCH   3   4
ENDBRANCH   2   3
ENDBRANCH   1   2
BRANCH   1   8
ATOM      8  C   UNL     1      28.088   3.711   8.710  1.00  0.00     0.072 C 
BRANCH   8   9
ATOM      9  C   UNL     1      27.583   4.693   9.790  1.00  0.00     0.227 C 
BRANCH   9  10
ATOM     10  N   UNL     1      27.641   6.073   9.295  1.00  0.00    -0.350 N 
ATOM     11  H   UNL     1      27.769   6.088   8.257  1.00  0.00     0.345 HD
ATOM     12  H   UNL     1      26.756   6.575   9.539  1.00  0.00     0.345 HD
ATOM     13  H   UNL     1      28.438   6.579   9.747  1.00  0.00     0.345 HD
ENDBRANCH   9  10
BRANCH   9  14
ATOM     14  C   UNL     1      28.393   4.566  11.055  1.00  0.00     0.099 C 
ATOM     15  O   UNL     1      28.695   5.593  11.718  1.00  0.00    -0.544 OA
ATOM     16  O   UNL     1      28.814   3.317  11.497  1.00  0.00    -0.544 OA
ENDBRANCH   9  14
ENDBRANCH   8   9
ENDBRANCH   1   8
TORSDOF 7
ENDMDL
MODEL 4
REMARK VINA RESULT:    -3.854      9.672     10.530
REMARK INTER + INTRA:          -5.432
REMARK INTER:                  -5.011
REMARK INTRA:                  -0.421
REMARK UNBOUND:                -0.226
REMARK SMILES [NH3+]CCCC[C@H]([NH3+])C(=O)[O-]
REMARK SMILES IDX 4 1 3 2 2 3 1 4 5 8 6 9 7 10 8 14 9 15 10 16
REMARK H PARENT 1 5 1 6 1 7 7 11 7 12 7 13
REMARK Flexibility Score: inf
ROOT
ATOM      1  C   UNL     1      24.296   2.917  17.484  1.00  0.00     0.012 C 
ENDROOT
BRANCH   1   2
ATOM      2  C   UNL     1      24.307   4.011  18.571  1.00  0.00     0.061 C 
BRANCH   2   3
ATOM      3  C   UNL     1      22.902   4.491  18.975  1.00  0.00     0.258 C 
BRANCH   3   4
ATOM      4  N   UNL     1      22.174   3.492  19.758  1.00  0.00    -0.358 N 
ATOM      5  H   UNL     1      21.775   3.929  20.620  1.00  0.00     0.344 HD
ATOM      6  H   UNL     1      21.384   3.120  19.184  1.00  0.00     0.344 HD
ATOM      7  H   UNL     1      22.806   2.697  20.013  1.00  0.00     0.344 HD
ENDBRANCH   3   4
ENDBRANCH   2   3
ENDBRANCH   1   2
BRANCH   1   8
ATOM      8  C   UNL     1      25.269   1.768  17.804  1.00  0.00     0.072 C 
BRANCH   8   9
ATOM      9  C   UNL     1      24.606   0.382  17.651  1.00  0.00     0.227 C 
BRANCH   9  10
ATOM     10  N   UNL     1      24.482   0.027  16.232  1.00  0.00    -0.350 N 
ATOM     11  H   UNL     1      24.619   0.869  15.627  1.00  0.00     0.345 HD
ATOM     12  H   UNL     1      25.198  -0.694  15.983  1.00  0.00     0.345 HD
ATOM     13  H   UNL     1      23.535  -0.378  16.049  1.00  0.00     0.345 HD
ENDBRANCH   9  10
BRANCH   9  14
ATOM     14  C   UNL     1      23.249   0.358  18.306  1.00  0.00     0.099 C 
ATOM     15  O   UNL     1      23.141   0.559  19.545  1.00  0.00    -0.544 OA
ATOM     16  O   UNL     1      22.108   0.114  17.550  1.00  0.00    -0.544 OA
ENDBRANCH   9  14
ENDBRANCH   8   9
ENDBRANCH   1   8
TORSDOF 7
ENDMDL
MODEL 5
REMARK VINA RESULT:    -3.831      2.263      2.690
REMARK INTER + INTRA:          -5.400
REMARK INTER:                  -4.845
REMARK INTRA:                  -0.555
REMARK UNBOUND:                -0.226
REMARK SMILES [NH3+]CCCC[C@H]([NH3+])C(=O)[O-]
REMARK SMILES IDX 4 1 3 2 2 3 1 4 5 8 6 9 7 10 8 14 9 15 10 16
REMARK H PARENT 1 5 1 6 1 7 7 11 7 12 7 13
REMARK Flexibility Score: inf
ROOT
ATOM      1  C   UNL     1      26.087   6.986   9.369  1.00  0.00     0.012 C 
ENDROOT
BRANCH   1   2
ATOM      2  C   UNL     1      25.560   7.505   8.016  1.00  0.00     0.061 C 
BRANCH   2   3
ATOM      3  C   UNL     1      26.675   7.837   7.008  1.00  0.00     0.258 C 
BRANCH   3   4
ATOM      4  N   UNL     1      26.658   6.948   5.845  1.00  0.00    -0.358 N 
ATOM      5  H   UNL     1      27.322   6.154   5.988  1.00  0.00     0.344 HD
ATOM      6  H   UNL     1      25.696   6.555   5.732  1.00  0.00     0.344 HD
ATOM      7  H   UNL     1      26.907   7.478   4.977  1.00  0.00     0.344 HD
ENDBRANCH   3   4
ENDBRANCH   2   3
ENDBRANCH   1   2
BRANCH   1   8
ATOM      8  C   UNL     1      25.923   5.462   9.513  1.00  0.00     0.072 C 
BRANCH   8   9
ATOM      9  C   UNL     1      27.275   4.720   9.425  1.00  0.00     0.227 C 
BRANCH   9  10
ATOM     10  N   UNL     1      28.387   5.677   9.438  1.00  0.00    -0.350 N 
ATOM     11  H   UNL     1      28.157   6.519   8.860  1.00  0.00     0.345 HD
ATOM     12  H   UNL     1      28.583   5.980  10.420  1.00  0.00     0.345 HD
ATOM     13  H   UNL     1      29.250   5.224   9.058  1.00  0.00     0.345 HD
ENDBRANCH   9  10
BRANCH   9  14
ATOM     14  C   UNL     1      27.343   3.870   8.182  1.00  0.00     0.099 C 
ATOM     15  O   UNL     1      27.981   2.784   8.193  1.00  0.00    -0.544 OA
ATOM     16  O   UNL     1      26.706   4.279   7.016  1.00  0.00    -0.544 OA
ENDBRANCH   9  14
ENDBRANCH   8   9
ENDBRANCH   1   8
TORSDOF 7
ENDMDL
MODEL 6
REMARK VINA RESULT:    -3.819     10.275     10.914
REMARK INTER + INTRA:          -5.384
REMARK INTER:                  -4.885
REMARK INTRA:                  -0.499
REMARK UNBOUND:                -0.226
REMARK SMILES [NH3+]CCCC[C@H]([NH3+])C(=O)[O-]
REMARK SMILES IDX 4 1 3 2 2 3 1 4 5 8 6 9 7 10 8 14 9 15 10 16
REMARK H PARENT 1 5 1 6 1 7 7 11 7 12 7 13
REMARK Flexibility Score: inf
ROOT
ATOM      1  C   UNL     1      25.139   1.334  17.831  1.00  0.00     0.012 C 
ENDROOT
BRANCH   1   2
ATOM      2  C   UNL     1      24.143   2.425  18.273  1.00  0.00     0.061 C 
BRANCH   2   3
ATOM      3  C   UNL     1      22.691   1.926  18.378  1.00  0.00     0.258 C 
BRANCH   3   4
ATOM      4  N   UNL     1      22.058   1.769  17.068  1.00  0.00    -0.358 N 
ATOM      5  H   UNL     1      21.469   0.907  17.053  1.00  0.00     0.344 HD
ATOM      6  H   UNL     1      21.439   2.592  16.889  1.00  0.00     0.344 HD
ATOM      7  H   UNL     1      22.784   1.727  16.315  1.00  0.00     0.344 HD
ENDBRANCH   3   4
ENDBRANCH   2   3
ENDBRANCH   1   2
BRANCH   1   8
ATOM      8  C   UNL     1      24.786  -0.047  18.412  1.00  0.00     0.072 C 
BRANCH   8   9
ATOM      9  C   UNL     1      24.598  -1.113  17.310  1.00  0.00     0.227 C 
BRANCH   9  10
ATOM     10  N   UNL     1      24.531  -0.478  15.989  1.00  0.00    -0.350 N 
ATOM     11  H   UNL     1      25.317   0.202  15.865  1.00  0.00     0.345 HD
ATOM     12  H   UNL     1      24.589  -1.208  15.241  1.00  0.00     0.345 HD
ATOM     13  H   UNL     1      23.621   0.027  15.883  1.00  0.00     0.345 HD
ENDBRANCH   9  10
BRANCH   9  14
ATOM     14  C   UNL     1      23.352  -1.925  17.552  1.00  0.00     0.099 C 
ATOM     15  O   UNL     1      23.437  -3.157  17.801  1.00  0.00    -0.544 OA
ATOM     16  O   UNL     1      22.100  -1.322  17.503  1.00  0.00    -0.544 OA
ENDBRANCH   9  14
ENDBRANCH   8   9
ENDBRANCH   1   8
TORSDOF 7
ENDMDL
MODEL 7
REMARK VINA RESULT:    -3.781      2.542      3.165
REMARK INTER + INTRA:          -5.334
REMARK INTER:                  -4.846
REMARK INTRA:                  -0.488
REMARK UNBOUND:                -0.226
REMARK SMILES [NH3+]CCCC[C@H]([NH3+])C(=O)[O-]
REMARK SMILES IDX 4 1 3 2 2 3 1 4 5 8 6 9 7 10 8 14 9 15 10 16
REMARK H PARENT 1 5 1 6 1 7 7 11 7 12 7 13
REMARK Flexibility Score: inf
ROOT
ATOM      1  C   UNL     1      28.013   5.652  10.752  1.00  0.00     0.012 C 
ENDROOT
BRANCH   1   2
ATOM      2  C   UNL     1      26.588   5.900  10.218  1.00  0.00     0.061 C 
BRANCH   2   3
ATOM      3  C   UNL     1      26.501   7.069   9.220  1.00  0.00     0.258 C 
BRANCH   3   4
ATOM      4  N   UNL     1      26.862   6.669   7.860  1.00  0.00    -0.358 N 
ATOM      5  H   UNL     1      27.230   5.692   7.857  1.00  0.00     0.344 HD
ATOM      6  H   UNL     1      26.007   6.699   7.259  1.00  0.00     0.344 HD
ATOM      7  H   UNL     1      27.573   7.327   7.463  1.00  0.00     0.344 HD
ENDBRANCH   3   4
ENDBRANCH   2   3
ENDBRANCH   1   2
BRANCH   1   8
ATOM      8  C   UNL     1      28.719   4.500  10.014  1.00  0.00     0.072 C 
BRANCH   8   9
ATOM      9  C   UNL     1      27.790   3.284   9.805  1.00  0.00     0.227 C 
BRANCH   9  10
ATOM     10  N   UNL     1      28.272   2.133  10.577  1.00  0.00    -0.350 N 
ATOM     11  H   UNL     1      28.955   1.572  10.016  1.00  0.00     0.345 HD
ATOM     12  H   UNL     1      28.738   2.463  11.454  1.00  0.00     0.345 HD
ATOM     13  H   UNL     1      27.466   1.523  10.845  1.00  0.00     0.345 HD
ENDBRANCH   9  10
BRANCH   9  14
ATOM     14  C   UNL     1      27.697   2.921   8.345  1.00  0.00     0.099 C 
ATOM     15  O   UNL     1      27.285   3.767   7.508  1.00  0.00    -0.544 OA
ATOM     16  O   UNL     1      28.063   1.652   7.913  1.00  0.00    -0.544 OA
ENDBRANCH   9  14
ENDBRANCH   8   9
ENDBRANCH   1   8
TORSDOF 7
ENDMDL
MODEL 8
REMARK VINA RESULT:    -3.776      2.808      4.301
REMARK INTER + INTRA:          -5.326
REMARK INTER:                  -4.779
REMARK INTRA:                  -0.547
REMARK UNBOUND:                -0.226
REMARK SMILES [NH3+]CCCC[C@H]([NH3+])C(=O)[O-]
REMARK SMILES IDX 4 1 3 2 2 3 1 4 5 8 6 9 7 10 8 14 9 15 10 16
REMARK H PARENT 1 5 1 6 1 7 7 11 7 12 7 13
REMARK Flexibility Score: inf
ROOT
ATOM      1  C   UNL     1      26.750   5.304  10.810  1.00  0.00     0.012 C 
ENDROOT
BRANCH   1   2
ATOM      2  C   UNL     1      28.277   5.436  10.979  1.00  0.00     0.061 C 
BRANCH   2   3
ATOM      3  C   UNL     1      28.944   4.175  11.556  1.00  0.00     0.258 C 
BRANCH   3   4
ATOM      4  N   UNL     1      28.344   2.942  11.044  1.00  0.00    -0.358 N 
ATOM      5  H   UNL     1      27.302   3.013  11.064  1.00  0.00     0.344 HD
ATOM      6  H   UNL     1      28.644   2.805  10.052  1.00  0.00     0.344 HD
ATOM      7  H   UNL     1      28.663   2.119  11.607  1.00  0.00     0.344 HD
ENDBRANCH   3   4
ENDBRANCH   2   3
ENDBRANCH   1   2
BRANCH   1   8
ATOM      8  C   UNL     1      26.281   5.725   9.406  1.00  0.00     0.072 C 
BRANCH   8   9
ATOM      9  C   UNL     1      25.744   4.530   8.587  1.00  0.00     0.227 C 
BRANCH   9  10
ATOM     10  N   UNL     1      25.294   3.457   9.481  1.00  0.00    -0.350 N 
ATOM     11  H   UNL     1      25.560   2.521   9.097  1.00  0.00     0.345 HD
ATOM     12  H   UNL     1      25.729   3.576  10.425  1.00  0.00     0.345 HD
ATOM     13  H   UNL     1      24.255   3.501   9.593  1.00  0.00     0.345 HD
ENDBRANCH   9  10
BRANCH   9  14
ATOM     14  C   UNL     1      26.798   4.006   7.645  1.00  0.00     0.099 C 
ATOM     15  O   UNL     1      26.707   4.225   6.409  1.00  0.00    -0.544 OA
ATOM     16  O   UNL     1      27.876   3.276   8.134  1.00  0.00    -0.544 OA
ENDBRANCH   9  14
ENDBRANCH   8   9
ENDBRANCH   1   8
TORSDOF 7
ENDMDL
MODEL 9
REMARK VINA RESULT:    -3.749     11.042     12.557
REMARK INTER + INTRA:          -5.290
REMARK INTER:                  -5.089
REMARK INTRA:                  -0.201
REMARK UNBOUND:                -0.226
REMARK SMILES [NH3+]CCCC[C@H]([NH3+])C(=O)[O-]
REMARK SMILES IDX 4 1 3 2 2 3 1 4 5 8 6 9 7 10 8 14 9 15 10 16
REMARK H PARENT 1 5 1 6 1 7 7 11 7 12 7 13
REMARK Flexibility Score: inf
ROOT
ATOM      1  C   UNL     1      24.766  -4.492  14.418  1.00  0.00     0.012 C 
ENDROOT
BRANCH   1   2
ATOM      2  C   UNL     1      24.958  -5.995  14.701  1.00  0.00     0.061 C 
BRANCH   2   3
ATOM      3  C   UNL     1      25.559  -6.288  16.088  1.00  0.00     0.258 C 
BRANCH   3   4
ATOM      4  N   UNL     1      26.860  -6.952  16.003  1.00  0.00    -0.358 N 
ATOM      5  H   UNL     1      27.083  -7.183  15.008  1.00  0.00     0.344 HD
ATOM      6  H   UNL     1      27.596  -6.303  16.362  1.00  0.00     0.344 HD
ATOM      7  H   UNL     1      26.865  -7.821  16.587  1.00  0.00     0.344 HD
ENDBRANCH   3   4
ENDBRANCH   2   3
ENDBRANCH   1   2
BRANCH   1   8
ATOM      8  C   UNL     1      23.485  -3.936  15.066  1.00  0.00     0.072 C 
BRANCH   8   9
ATOM      9  C   UNL     1      23.712  -2.554  15.717  1.00  0.00     0.227 C 
BRANCH   9  10
ATOM     10  N   UNL     1      24.814  -1.849  15.051  1.00  0.00    -0.350 N 
ATOM     11  H   UNL     1      25.043  -0.961  15.556  1.00  0.00     0.345 HD
ATOM     12  H   UNL     1      25.664  -2.459  15.029  1.00  0.00     0.345 HD
ATOM     13  H   UNL     1      24.547  -1.624  14.065  1.00  0.00     0.345 HD
ENDBRANCH   9  10
BRANCH   9  14
ATOM     14  C   UNL     1      24.008  -2.694  17.188  1.00  0.00     0.099 C 
ATOM     15  O   UNL     1      23.613  -3.710  17.819  1.00  0.00    -0.544 OA
ATOM     16  O   UNL     1      24.716  -1.704  17.860  1.00  0.00    -0.544 OA
ENDBRANCH   9  14
ENDBRANCH   8   9
ENDBRANCH   1   8
TORSDOF 7
ENDMDL
