MODEL 1
REMARK VINA RESULT:    -3.787      0.000      0.000
REMARK INTER + INTRA:          -3.897
REMARK INTER:                  -3.897
REMARK INTRA:                   0.000
REMARK UNBOUND:                 0.000
REMARK SMILES Nc1ncnc2nc[nH]c12
REMARK SMILES IDX 8 1 7 2 6 3 5 4 4 5 3 6 2 7 10 8 9 9 1 11
REMARK H PARENT 9 10 1 12 1 13
REMARK Flexibility Score: inf
ROOT
ATOM      1  C   UNL     1      63.384  15.189  -3.165  1.00  0.00     0.199 A 
ATOM      2  N   UNL     1      62.772  14.277  -2.361  1.00  0.00    -0.217 NA
ATOM      3  C   UNL     1      63.260  14.592  -1.150  1.00  0.00     0.182 A 
ATOM      4  N   UNL     1      62.966  13.979   0.023  1.00  0.00    -0.215 NA
ATOM      5  C   UNL     1      63.565  14.445   1.161  1.00  0.00     0.226 A 
ATOM      6  N   UNL     1      64.438  15.503   1.106  1.00  0.00    -0.217 NA
ATOM      7  C   UNL     1      64.734  16.121  -0.077  1.00  0.00     0.152 A 
ATOM      8  C   UNL     1      64.116  15.636  -1.225  1.00  0.00     0.127 A 
ATOM      9  N   UNL     1      64.212  16.033  -2.500  1.00  0.00    -0.340 N 
ATOM     10  H   UNL     1      64.785  16.808  -2.901  1.00  0.00     0.168 HD
ENDROOT
BRANCH   7  11
ATOM     11  N   UNL     1      65.645  17.221  -0.110  1.00  0.00    -0.382 N 
ATOM     12  H   UNL     1      66.006  17.571  -1.025  1.00  0.00     0.158 HD
ATOM     13  H   UNL     1      65.962  17.691   0.765  1.00  0.00     0.158 HD
ENDBRANCH   7  11
TORSDOF 1
ENDMDL
MODEL 2
REMARK VINA RESULT:    -3.737     14.745     16.242
REMARK INTER + INTRA:          -3.846
REMARK INTER:                  -3.846
REMARK INTRA:                   0.000
REMARK UNBOUND:                 0.000
REMARK SMILES Nc1ncnc2nc[nH]c12
REMARK SMILES IDX 8 1 7 2 6 3 5 4 4 5 3 6 2 7 10 8 9 9 1 11
REMARK H PARENT 9 10 1 12 1 13
REMARK Flexibility Score: inf
ROOT
ATOM      1  C   UNL     1      59.439   4.077  12.015  1.00  0.00     0.199 A 
ATOM      2  N   UNL     1      59.939   3.486  10.896  1.00  0.00    -0.217 NA
ATOM      3  C   UNL     1      59.279   4.125   9.917  1.00  0.00     0.182 A 
ATOM      4  N   UNL     1      59.406   3.913   8.584  1.00  0.00    -0.215 NA
ATOM      5  C   UNL     1      58.645   4.668   7.735  1.00  0.00     0.226 A 
ATOM      6  N   UNL     1      57.779   5.611   8.228  1.00  0.00    -0.217 NA
ATOM      7  C   UNL     1      57.649   5.826   9.572  1.00  0.00     0.152 A 
ATOM      8  C   UNL     1      58.431   5.050  10.423  1.00  0.00     0.127 A 
ATOM      9  N   UNL     1      58.515   5.038  11.759  1.00  0.00    -0.340 N 
ATOM     10  H   UNL     1      57.999   5.623  12.451  1.00  0.00     0.168 HD
ENDROOT
BRANCH   7  11
ATOM     11  N   UNL     1      56.742   6.814  10.063  1.00  0.00    -0.382 N 
ATOM     12  H   UNL     1      56.838   7.171  11.039  1.00  0.00     0.158 HD
ATOM     13  H   UNL     1      55.977   7.195   9.465  1.00  0.00     0.158 HD
ENDBRANCH   7  11
TORSDOF 1
ENDMDL
MODEL 3
REMARK VINA RESULT:    -3.583      1.086      2.993
REMARK INTER + INTRA:          -3.688
REMARK INTER:                  -3.688
REMARK INTRA:                   0.000
REMARK UNBOUND:                 0.000
REMARK SMILES Nc1ncnc2nc[nH]c12
REMARK SMILES IDX 8 1 7 2 6 3 5 4 4 5 3 6 2 7 10 8 9 9 1 11
REMARK H PARENT 9 10 1 12 1 13
REMARK Flexibility Score: inf
ROOT
ATOM      1  C   UNL     1      65.401  16.899  -0.442  1.00  0.00     0.199 A 
ATOM      2  N   UNL     1      64.861  15.982   0.406  1.00  0.00    -0.217 NA
ATOM      3  C   UNL     1      64.052  15.283  -0.408  1.00  0.00     0.182 A 
ATOM      4  N   UNL     1      63.265  14.236  -0.060  1.00  0.00    -0.215 NA
ATOM      5  C   UNL     1      62.506  13.648  -1.034  1.00  0.00     0.226 A 
ATOM      6  N   UNL     1      62.547  14.113  -2.324  1.00  0.00    -0.217 NA
ATOM      7  C   UNL     1      63.339  15.170  -2.676  1.00  0.00     0.152 A 
ATOM      8  C   UNL     1      64.106  15.757  -1.674  1.00  0.00     0.127 A 
ATOM      9  N   UNL     1      64.959  16.787  -1.720  1.00  0.00    -0.340 N 
ATOM     10  H   UNL     1      65.230  17.374  -2.540  1.00  0.00     0.168 HD
ENDROOT
BRANCH   7  11
ATOM     11  N   UNL     1      63.366  15.637  -4.026  1.00  0.00    -0.382 N 
ATOM     12  H   UNL     1      63.227  16.651  -4.229  1.00  0.00     0.158 HD
ATOM     13  H   UNL     1      63.524  14.985  -4.824  1.00  0.00     0.158 HD
ENDBRANCH   7  11
TORSDOF 1
ENDMDL
MODEL 4
REMARK VINA RESULT:    -3.461      1.492      3.373
REMARK INTER + INTRA:          -3.563
REMARK INTER:                  -3.563
REMARK INTRA:                   0.000
REMARK UNBOUND:                 0.000
REMARK SMILES Nc1ncnc2nc[nH]c12
REMARK SMILES IDX 8 1 7 2 6 3 5 4 4 5 3 6 2 7 10 8 9 9 1 11
REMARK H PARENT 9 10 1 12 1 13
REMARK Flexibility Score: inf
ROOT
ATOM      1  C   UNL     1      65.538  17.106   2.336  1.00  0.00     0.199 A 
ATOM      2  N   UNL     1      64.576  16.170   2.560  1.00  0.00    -0.217 NA
ATOM      3  C   UNL     1      64.236  15.806   1.313  1.00  0.00     0.182 A 
ATOM      4  N   UNL     1      63.305  14.885   0.966  1.00  0.00    -0.215 NA
ATOM      5  C   UNL     1      63.097  14.647  -0.365  1.00  0.00     0.226 A 
ATOM      6  N   UNL     1      63.817  15.327  -1.315  1.00  0.00    -0.217 NA
ATOM      7  C   UNL     1      64.757  16.256  -0.966  1.00  0.00     0.152 A 
ATOM      8  C   UNL     1      64.957  16.486   0.393  1.00  0.00     0.127 A 
ATOM      9  N   UNL     1      65.793  17.322   1.021  1.00  0.00    -0.340 N 
ATOM     10  H   UNL     1      66.484  17.987   0.608  1.00  0.00     0.168 HD
ENDROOT
BRANCH   7  11
ATOM     11  N   UNL     1      65.496  16.952  -1.971  1.00  0.00    -0.382 N 
ATOM     12  H   UNL     1      65.021  17.257  -2.849  1.00  0.00     0.158 HD
ATOM     13  H   UNL     1      66.509  17.168  -1.851  1.00  0.00     0.158 HD
ENDBRANCH   7  11
TORSDOF 1
ENDMDL
MODEL 5
REMARK VINA RESULT:    -3.455      2.178      3.081
REMARK INTER + INTRA:          -3.556
REMARK INTER:                  -3.556
REMARK INTRA:                   0.000
REMARK UNBOUND:                 0.000
REMARK SMILES Nc1ncnc2nc[nH]c12
REMARK SMILES IDX 8 1 7 2 6 3 5 4 4 5 3 6 2 7 10 8 9 9 1 11
REMARK H PARENT 9 10 1 12 1 13
REMARK Flexibility Score: inf
ROOT
ATOM      1  C   UNL     1      61.193  17.109   0.304  1.00  0.00     0.199 A 
ATOM      2  N   UNL     1      60.539  15.921   0.184  1.00  0.00    -0.217 NA
ATOM      3  C   UNL     1      61.352  15.230  -0.630  1.00  0.00     0.182 A 
ATOM      4  N   UNL     1      61.163  13.964  -1.076  1.00  0.00    -0.215 NA
ATOM      5  C   UNL     1      62.109  13.424  -1.904  1.00  0.00     0.226 A 
ATOM      6  N   UNL     1      63.213  14.151  -2.269  1.00  0.00    -0.217 NA
ATOM      7  C   UNL     1      63.405  15.428  -1.820  1.00  0.00     0.152 A 
ATOM      8  C   UNL     1      62.434  15.963  -0.978  1.00  0.00     0.127 A 
ATOM      9  N   UNL     1      62.354  17.166  -0.394  1.00  0.00    -0.340 N 
ATOM     10  H   UNL     1      63.021  17.966  -0.454  1.00  0.00     0.168 HD
ENDROOT
BRANCH   7  11
ATOM     11  N   UNL     1      64.562  16.167  -2.212  1.00  0.00    -0.382 N 
ATOM     12  H   UNL     1      65.408  16.174  -1.601  1.00  0.00     0.158 HD
ATOM     13  H   UNL     1      64.587  16.706  -3.105  1.00  0.00     0.158 HD
ENDBRANCH   7  11
TORSDOF 1
ENDMDL
MODEL 6
REMARK VINA RESULT:    -3.342      2.718      3.126
REMARK INTER + INTRA:          -3.439
REMARK INTER:                  -3.439
REMARK INTRA:                   0.000
REMARK UNBOUND:                 0.000
REMARK SMILES Nc1ncnc2nc[nH]c12
REMARK SMILES IDX 8 1 7 2 6 3 5 4 4 5 3 6 2 7 10 8 9 9 1 11
REMARK H PARENT 9 10 1 12 1 13
REMARK Flexibility Score: inf
ROOT
ATOM      1  C   UNL     1      64.486  15.904  -0.443  1.00  0.00     0.199 A 
ATOM      2  N   UNL     1      63.804  14.777  -0.100  1.00  0.00    -0.217 NA
ATOM      3  C   UNL     1      62.549  15.234   0.041  1.00  0.00     0.182 A 
ATOM      4  N   UNL     1      61.458  14.508   0.382  1.00  0.00    -0.215 NA
ATOM      5  C   UNL     1      60.256  15.154   0.475  1.00  0.00     0.226 A 
ATOM      6  N   UNL     1      60.168  16.501   0.229  1.00  0.00    -0.217 NA
ATOM      7  C   UNL     1      61.268  17.235  -0.115  1.00  0.00     0.152 A 
ATOM      8  C   UNL     1      62.484  16.563  -0.207  1.00  0.00     0.127 A 
ATOM      9  N   UNL     1      63.707  17.012  -0.517  1.00  0.00    -0.340 N 
ATOM     10  H   UNL     1      64.003  17.982  -0.760  1.00  0.00     0.168 HD
ENDROOT
BRANCH   7  11
ATOM     11  N   UNL     1      61.154  18.636  -0.368  1.00  0.00    -0.382 N 
ATOM     12  H   UNL     1      61.419  19.323   0.373  1.00  0.00     0.158 HD
ATOM     13  H   UNL     1      60.810  18.997  -1.284  1.00  0.00     0.158 HD
ENDBRANCH   7  11
TORSDOF 1
ENDMDL
MODEL 7
REMARK VINA RESULT:    -3.306     14.972     16.245
REMARK INTER + INTRA:          -3.402
REMARK INTER:                  -3.402
REMARK INTRA:                   0.000
REMARK UNBOUND:                 0.000
REMARK SMILES Nc1ncnc2nc[nH]c12
REMARK SMILES IDX 8 1 7 2 6 3 5 4 4 5 3 6 2 7 10 8 9 9 1 11
REMARK H PARENT 9 10 1 12 1 13
REMARK Flexibility Score: inf
ROOT
ATOM      1  C   UNL     1      57.066   5.878   8.795  1.00  0.00     0.199 A 
ATOM      2  N   UNL     1      58.106   5.337   8.105  1.00  0.00    -0.217 NA
ATOM      3  C   UNL     1      58.826   4.760   9.081  1.00  0.00     0.182 A 
ATOM      4  N   UNL     1      59.984   4.072   8.932  1.00  0.00    -0.215 NA
ATOM      5  C   UNL     1      60.574   3.552  10.051  1.00  0.00     0.226 A 
ATOM      6  N   UNL     1      60.003   3.730  11.286  1.00  0.00    -0.217 NA
ATOM      7  C   UNL     1      58.835   4.423  11.438  1.00  0.00     0.152 A 
ATOM      8  C   UNL     1      58.246   4.945  10.289  1.00  0.00     0.127 A 
ATOM      9  N   UNL     1      57.123   5.656  10.132  1.00  0.00    -0.340 N 
ATOM     10  H   UNL     1      56.443   5.971  10.858  1.00  0.00     0.168 HD
ENDROOT
BRANCH   7  11
ATOM     11  N   UNL     1      58.258   4.595  12.733  1.00  0.00    -0.382 N 
ATOM     12  H   UNL     1      58.497   5.436  13.303  1.00  0.00     0.158 HD
ATOM     13  H   UNL     1      57.594   3.895  13.130  1.00  0.00     0.158 HD
ENDBRANCH   7  11
TORSDOF 1
ENDMDL
MODEL 8
REMARK VINA RESULT:    -3.296      1.858      2.380
REMARK INTER + INTRA:          -3.393
REMARK INTER:                  -3.393
REMARK INTRA:                   0.000
REMARK UNBOUND:                 0.000
REMARK SMILES Nc1ncnc2nc[nH]c12
REMARK SMILES IDX 8 1 7 2 6 3 5 4 4 5 3 6 2 7 10 8 9 9 1 11
REMARK H PARENT 9 10 1 12 1 13
REMARK Flexibility Score: inf
ROOT
ATOM      1  C   UNL     1      61.107  16.042  -0.781  1.00  0.00     0.199 A 
ATOM      2  N   UNL     1      61.272  15.937   0.566  1.00  0.00    -0.217 NA
ATOM      3  C   UNL     1      62.598  16.103   0.705  1.00  0.00     0.182 A 
ATOM      4  N   UNL     1      63.296  16.087   1.866  1.00  0.00    -0.215 NA
ATOM      5  C   UNL     1      64.649  16.278   1.807  1.00  0.00     0.226 A 
ATOM      6  N   UNL     1      65.273  16.477   0.601  1.00  0.00    -0.217 NA
ATOM      7  C   UNL     1      64.569  16.493  -0.571  1.00  0.00     0.152 A 
ATOM      8  C   UNL     1      63.193  16.299  -0.494  1.00  0.00     0.127 A 
ATOM      9  N   UNL     1      62.263  16.264  -1.456  1.00  0.00    -0.340 N 
ATOM     10  H   UNL     1      62.386  16.378  -2.486  1.00  0.00     0.168 HD
ENDROOT
BRANCH   7  11
ATOM     11  N   UNL     1      65.239  16.703  -1.814  1.00  0.00    -0.382 N 
ATOM     12  H   UNL     1      65.947  16.012  -2.148  1.00  0.00     0.158 HD
ATOM     13  H   UNL     1      65.037  17.537  -2.407  1.00  0.00     0.158 HD
ENDBRANCH   7  11
TORSDOF 1
ENDMDL
MODEL 9
REMARK VINA RESULT:    -3.277     14.124     14.753
REMARK INTER + INTRA:          -3.373
REMARK INTER:                  -3.373
REMARK INTRA:                   0.000
REMARK UNBOUND:                 0.000
REMARK SMILES Nc1ncnc2nc[nH]c12
REMARK SMILES IDX 8 1 7 2 6 3 5 4 4 5 3 6 2 7 10 8 9 9 1 11
REMARK H PARENT 9 10 1 12 1 13
REMARK Flexibility Score: inf
ROOT
ATOM      1  C   UNL     1      56.161   5.879   5.969  1.00  0.00     0.199 A 
ATOM      2  N   UNL     1      57.182   4.984   5.878  1.00  0.00    -0.217 NA
ATOM      3  C   UNL     1      57.692   5.007   7.120  1.00  0.00     0.182 A 
ATOM      4  N   UNL     1      58.745   4.284   7.575  1.00  0.00    -0.215 NA
ATOM      5  C   UNL     1      59.120   4.443   8.881  1.00  0.00     0.226 A 
ATOM      6  N   UNL     1      58.443   5.311   9.700  1.00  0.00    -0.217 NA
ATOM      7  C   UNL     1      57.381   6.040   9.242  1.00  0.00     0.152 A 
ATOM      8  C   UNL     1      57.012   5.867   7.911  1.00  0.00     0.127 A 
ATOM      9  N   UNL     1      56.031   6.436   7.199  1.00  0.00    -0.340 N 
ATOM     10  H   UNL     1      55.326   7.142   7.506  1.00  0.00     0.168 HD
ENDROOT
BRANCH   7  11
ATOM     11  N   UNL     1      56.691   6.938  10.113  1.00  0.00    -0.382 N 
ATOM     12  H   UNL     1      56.266   6.582  10.998  1.00  0.00     0.158 HD
ATOM     13  H   UNL     1      56.600   7.952   9.887  1.00  0.00     0.158 HD
ENDBRANCH   7  11
TORSDOF 1
ENDMDL
