MODEL 1
REMARK VINA RESULT:     8.836      0.000      0.000
REMARK INTER + INTRA:          20.688
REMARK INTER:                  14.519
REMARK INTRA:                   6.169
REMARK UNBOUND:                 6.169
REMARK SMILES C[C@@H]1O[C@H](OC[C@@H]2O[C@@H](Oc3c(-c4ccc(O)c(O)c4)oc4cc(O)cc(O)c4c3=O)[C@H](O)[C@@H](O)[C@H]2O)[C@H](O)[C@H](O)[C@@H]1O
REMARK SMILES IDX 7 1 36 2 34 3 32 4 9 5 8 6 6 7 5 8 4 9 1 10 2 11 42 12 3 13
REMARK SMILES IDX 40 14 38 15 43 16 41 18 39 20 37 22 35 24 10 26 11 27 12 28
REMARK SMILES IDX 30 29 21 30 29 31 31 32 22 33 27 34 23 35 26 36 24 37 13 38
REMARK SMILES IDX 20 39 14 40 18 41 15 42 16 43 19 44 17 46 28 48 25 50 33 52
REMARK H PARENT 43 17 41 19 39 21 37 23 35 25 19 45 17 47 28 49 25 51 33 53
REMARK Flexibility Score: inf
ROOT
ATOM      1  C   UNL     1      75.935  39.628  24.876  1.00  0.00     0.180 C 
ATOM      2  C   UNL     1      75.743  41.138  25.156  1.00  0.00     0.177 C 
ATOM      3  C   UNL     1      75.485  41.913  23.842  1.00  0.00     0.180 C 
ATOM      4  C   UNL     1      76.473  41.493  22.737  1.00  0.00     0.214 C 
ATOM      5  C   UNL     1      76.649  39.948  22.664  1.00  0.00     0.339 C 
ATOM      6  O   UNL     1      76.989  39.428  23.941  1.00  0.00    -0.332 OA
ENDROOT
BRANCH   1   7
ATOM      7  C   UNL     1      76.277  38.844  26.160  1.00  0.00     0.198 C 
BRANCH   7   8
ATOM      8  O   UNL     1      75.196  38.769  27.079  1.00  0.00    -0.347 OA
BRANCH   8   9
ATOM      9  C   UNL     1      75.068  39.960  27.842  1.00  0.00     0.281 C 
ATOM     10  C   UNL     1      72.204  41.320  29.690  1.00  0.00     0.041 C 
ATOM     11  C   UNL     1      73.624  41.257  29.124  1.00  0.00     0.150 C 
ATOM     12  C   UNL     1      74.689  41.570  30.204  1.00  0.00     0.174 C 
ATOM     13  O   UNL     1      73.840  39.975  28.560  1.00  0.00    -0.344 OA
ATOM     14  C   UNL     1      76.104  41.394  29.606  1.00  0.00     0.179 C 
ATOM     15  C   UNL     1      76.241  40.063  28.834  1.00  0.00     0.202 C 
BRANCH  12  16
ATOM     16  O   UNL     1      74.534  40.734  31.320  1.00  0.00    -0.388 OA
ATOM     17  H   UNL     1      75.195  39.999  31.236  1.00  0.00     0.211 HD
ENDBRANCH  12  16
BRANCH  14  18
ATOM     18  O   UNL     1      77.109  41.546  30.583  1.00  0.00    -0.387 OA
ATOM     19  H   UNL     1      77.696  40.746  30.550  1.00  0.00     0.211 HD
ENDBRANCH  14  18
BRANCH  15  20
ATOM     20  O   UNL     1      76.220  38.979  29.727  1.00  0.00    -0.385 OA
ATOM     21  H   UNL     1      75.278  38.865  30.024  1.00  0.00     0.211 HD
ENDBRANCH  15  20
ENDBRANCH   8   9
ENDBRANCH   7   8
ENDBRANCH   1   7
BRANCH   2  22
ATOM     22  O   UNL     1      74.705  41.367  26.076  1.00  0.00    -0.387 OA
ATOM     23  H   UNL     1      74.536  40.522  26.563  1.00  0.00     0.211 HD
ENDBRANCH   2  22
BRANCH   3  24
ATOM     24  O   UNL     1      74.173  41.676  23.389  1.00  0.00    -0.387 OA
ATOM     25  H   UNL     1      73.552  42.139  24.007  1.00  0.00     0.211 HD
ENDBRANCH   3  24
BRANCH   5  26
ATOM     26  O   UNL     1      75.505  39.243  22.144  1.00  0.00    -0.454 OA
BRANCH  26  27
ATOM     27  C   UNL     1      74.417  39.790  21.439  1.00  0.00     0.214 A 
ATOM     28  C   UNL     1      74.556  40.687  20.359  1.00  0.00     0.180 A 
ATOM     29  C   UNL     1      73.128  39.430  21.853  1.00  0.00     0.239 A 
ATOM     30  O   UNL     1      73.477  41.263  19.842  1.00  0.00    -0.452 OA
ATOM     31  C   UNL     1      71.999  40.078  21.297  1.00  0.00     0.111 A 
ATOM     32  O   UNL     1      73.013  38.526  22.722  1.00  0.00    -0.285 OA
ATOM     33  C   UNL     1      72.241  41.018  20.263  1.00  0.00     0.146 A 
ATOM     34  C   UNL     1      70.651  39.848  21.708  1.00  0.00     0.134 A 
ATOM     35  C   UNL     1      71.183  41.692  19.654  1.00  0.00     0.094 A 
ATOM     36  C   UNL     1      69.608  40.514  21.053  1.00  0.00     0.093 A 
ATOM     37  C   UNL     1      69.867  41.439  20.038  1.00  0.00     0.123 A 
BRANCH  28  38
ATOM     38  C   UNL     1      75.857  40.987  19.737  1.00  0.00     0.025 A 
ATOM     39  C   UNL     1      77.037  40.787  20.468  1.00  0.00     0.062 A 
ATOM     40  C   UNL     1      75.923  41.595  18.471  1.00  0.00     0.016 A 
ATOM     41  C   UNL     1      78.278  41.150  19.925  1.00  0.00     0.158 A 
ATOM     42  C   UNL     1      77.161  41.957  17.924  1.00  0.00     0.051 A 
ATOM     43  C   UNL     1      78.342  41.740  18.649  1.00  0.00     0.157 A 
BRANCH  41  44
ATOM     44  O   UNL     1      79.449  40.933  20.651  1.00  0.00    -0.504 OA
ATOM     45  H   UNL     1      79.816  40.001  20.795  1.00  0.00     0.293 HD
ENDBRANCH  41  44
BRANCH  43  46
ATOM     46  O   UNL     1      79.560  42.125  18.090  1.00  0.00    -0.504 OA
ATOM     47  H   UNL     1      80.447  41.855  18.502  1.00  0.00     0.293 HD
ENDBRANCH  43  46
ENDBRANCH  28  38
BRANCH  34  48
ATOM     48  O   UNL     1      70.282  39.005  22.764  1.00  0.00    -0.507 OA
ATOM     49  H   UNL     1      69.974  38.053  22.669  1.00  0.00     0.293 HD
ENDBRANCH  34  48
BRANCH  37  50
ATOM     50  O   UNL     1      68.827  42.117  19.408  1.00  0.00    -0.508 OA
ATOM     51  H   UNL     1      68.500  43.017  19.739  1.00  0.00     0.293 HD
ENDBRANCH  37  50
ENDBRANCH  26  27
ENDBRANCH   5  26
BRANCH   4  52
ATOM     52  O   UNL     1      77.720  42.121  22.919  1.00  0.00    -0.384 OA
ATOM     53  H   UNL     1      78.364  41.436  23.235  1.00  0.00     0.211 HD
ENDBRANCH   4  52
TORSDOF 16
ENDMDL
MODEL 2
REMARK VINA RESULT:    11.288      2.037      8.450
REMARK INTER + INTRA:          24.717
REMARK INTER:                  19.787
REMARK INTRA:                   4.930
REMARK UNBOUND:                 6.169
REMARK SMILES C[C@@H]1O[C@H](OC[C@@H]2O[C@@H](Oc3c(-c4ccc(O)c(O)c4)oc4cc(O)cc(O)c4c3=O)[C@H](O)[C@@H](O)[C@H]2O)[C@H](O)[C@H](O)[C@@H]1O
REMARK SMILES IDX 7 1 36 2 34 3 32 4 9 5 8 6 6 7 5 8 4 9 1 10 2 11 42 12 3 13
REMARK SMILES IDX 40 14 38 15 43 16 41 18 39 20 37 22 35 24 10 26 11 27 12 28
REMARK SMILES IDX 30 29 21 30 29 31 31 32 22 33 27 34 23 35 26 36 24 37 13 38
REMARK SMILES IDX 20 39 14 40 18 41 15 42 16 43 19 44 17 46 28 48 25 50 33 52
REMARK H PARENT 43 17 41 19 39 21 37 23 35 25 19 45 17 47 28 49 25 51 33 53
REMARK Flexibility Score: inf
ROOT
ATOM      1  C   UNL     1      71.773  39.241  21.710  1.00  0.00     0.180 C 
ATOM      2  C   UNL     1      71.797  38.147  20.616  1.00  0.00     0.177 C 
ATOM      3  C   UNL     1      73.142  38.165  19.850  1.00  0.00     0.180 C 
ATOM      4  C   UNL     1      73.549  39.599  19.461  1.00  0.00     0.214 C 
ATOM      5  C   UNL     1      73.351  40.603  20.633  1.00  0.00     0.339 C 
ATOM      6  O   UNL     1      72.026  40.519  21.138  1.00  0.00    -0.332 OA
ENDROOT
BRANCH   1   7
ATOM      7  C   UNL     1      70.411  39.300  22.434  1.00  0.00     0.198 C 
BRANCH   7   8
ATOM      8  O   UNL     1      70.032  40.616  22.815  1.00  0.00    -0.347 OA
BRANCH   8   9
ATOM      9  C   UNL     1      69.493  41.347  21.723  1.00  0.00     0.281 C 
ATOM     10  C   UNL     1      70.913  42.123  18.429  1.00  0.00     0.041 C 
ATOM     11  C   UNL     1      69.889  42.122  19.566  1.00  0.00     0.150 C 
ATOM     12  C   UNL     1      68.468  41.769  19.061  1.00  0.00     0.174 C 
ATOM     13  O   UNL     1      70.309  41.210  20.566  1.00  0.00    -0.344 OA
ATOM     14  C   UNL     1      67.495  41.684  20.260  1.00  0.00     0.179 C 
ATOM     15  C   UNL     1      68.075  40.831  21.411  1.00  0.00     0.202 C 
BRANCH  12  16
ATOM     16  O   UNL     1      68.471  40.553  18.360  1.00  0.00    -0.388 OA
ATOM     17  H   UNL     1      69.294  40.062  18.618  1.00  0.00     0.211 HD
ENDBRANCH  12  16
BRANCH  14  18
ATOM     18  O   UNL     1      66.216  41.242  19.866  1.00  0.00    -0.387 OA
ATOM     19  H   UNL     1      65.977  41.700  19.018  1.00  0.00     0.211 HD
ENDBRANCH  14  18
BRANCH  15  20
ATOM     20  O   UNL     1      68.120  39.478  21.040  1.00  0.00    -0.385 OA
ATOM     21  H   UNL     1      68.139  39.450  20.047  1.00  0.00     0.211 HD
ENDBRANCH  15  20
ENDBRANCH   8   9
ENDBRANCH   7   8
ENDBRANCH   1   7
BRANCH   2  22
ATOM     22  O   UNL     1      71.553  36.870  21.153  1.00  0.00    -0.387 OA
ATOM     23  H   UNL     1      72.426  36.460  21.375  1.00  0.00     0.211 HD
ENDBRANCH   2  22
BRANCH   3  24
ATOM     24  O   UNL     1      74.161  37.606  20.645  1.00  0.00    -0.387 OA
ATOM     25  H   UNL     1      74.067  37.975  21.560  1.00  0.00     0.211 HD
ENDBRANCH   3  24
BRANCH   5  26
ATOM     26  O   UNL     1      74.290  40.449  21.714  1.00  0.00    -0.454 OA
BRANCH  26  27
ATOM     27  C   UNL     1      75.687  40.607  21.656  1.00  0.00     0.214 A 
ATOM     28  C   UNL     1      76.533  40.509  22.780  1.00  0.00     0.180 A 
ATOM     29  C   UNL     1      76.257  40.894  20.409  1.00  0.00     0.239 A 
ATOM     30  O   UNL     1      77.821  40.811  22.660  1.00  0.00    -0.452 OA
ATOM     31  C   UNL     1      77.628  41.233  20.317  1.00  0.00     0.111 A 
ATOM     32  O   UNL     1      75.516  40.843  19.391  1.00  0.00    -0.285 OA
ATOM     33  C   UNL     1      78.386  41.174  21.515  1.00  0.00     0.146 A 
ATOM     34  C   UNL     1      78.286  41.624  19.112  1.00  0.00     0.134 A 
ATOM     35  C   UNL     1      79.746  41.481  21.510  1.00  0.00     0.094 A 
ATOM     36  C   UNL     1      79.660  41.892  19.133  1.00  0.00     0.093 A 
ATOM     37  C   UNL     1      80.389  41.832  20.323  1.00  0.00     0.123 A 
BRANCH  28  38
ATOM     38  C   UNL     1      76.060  40.038  24.094  1.00  0.00     0.025 A 
ATOM     39  C   UNL     1      75.764  40.972  25.097  1.00  0.00     0.062 A 
ATOM     40  C   UNL     1      76.029  38.666  24.396  1.00  0.00     0.016 A 
ATOM     41  C   UNL     1      75.396  40.541  26.381  1.00  0.00     0.158 A 
ATOM     42  C   UNL     1      75.661  38.231  25.675  1.00  0.00     0.051 A 
ATOM     43  C   UNL     1      75.348  39.165  26.673  1.00  0.00     0.157 A 
BRANCH  41  44
ATOM     44  O   UNL     1      75.088  41.474  27.370  1.00  0.00    -0.504 OA
ATOM     45  H   UNL     1      75.774  41.764  28.055  1.00  0.00     0.293 HD
ENDBRANCH  41  44
BRANCH  43  46
ATOM     46  O   UNL     1      75.001  38.708  27.944  1.00  0.00    -0.504 OA
ATOM     47  H   UNL     1      75.672  38.248  28.550  1.00  0.00     0.293 HD
ENDBRANCH  43  46
ENDBRANCH  28  38
BRANCH  34  48
ATOM     48  O   UNL     1      77.640  41.794  17.881  1.00  0.00    -0.507 OA
ATOM     49  H   UNL     1      77.695  41.161  17.101  1.00  0.00     0.293 HD
ENDBRANCH  34  48
BRANCH  37  50
ATOM     50  O   UNL     1      81.750  42.124  20.342  1.00  0.00    -0.508 OA
ATOM     51  H   UNL     1      82.186  42.586  21.131  1.00  0.00     0.293 HD
ENDBRANCH  37  50
ENDBRANCH  26  27
ENDBRANCH   5  26
BRANCH   4  52
ATOM     52  O   UNL     1      72.839  40.026  18.323  1.00  0.00    -0.384 OA
ATOM     53  H   UNL     1      73.044  39.400  17.582  1.00  0.00     0.211 HD
ENDBRANCH   4  52
TORSDOF 16
ENDMDL
MODEL 3
REMARK VINA RESULT:    11.475      2.403      7.508
REMARK INTER + INTRA:          25.024
REMARK INTER:                  21.796
REMARK INTRA:                   3.228
REMARK UNBOUND:                 6.169
REMARK SMILES C[C@@H]1O[C@H](OC[C@@H]2O[C@@H](Oc3c(-c4ccc(O)c(O)c4)oc4cc(O)cc(O)c4c3=O)[C@H](O)[C@@H](O)[C@H]2O)[C@H](O)[C@H](O)[C@@H]1O
REMARK SMILES IDX 7 1 36 2 34 3 32 4 9 5 8 6 6 7 5 8 4 9 1 10 2 11 42 12 3 13
REMARK SMILES IDX 40 14 38 15 43 16 41 18 39 20 37 22 35 24 10 26 11 27 12 28
REMARK SMILES IDX 30 29 21 30 29 31 31 32 22 33 27 34 23 35 26 36 24 37 13 38
REMARK SMILES IDX 20 39 14 40 18 41 15 42 16 43 19 44 17 46 28 48 25 50 33 52
REMARK H PARENT 43 17 41 19 39 21 37 23 35 25 19 45 17 47 28 49 25 51 33 53
REMARK Flexibility Score: inf
ROOT
ATOM      1  C   UNL     1      74.313  39.325  21.379  1.00  0.00     0.180 C 
ATOM      2  C   UNL     1      73.739  40.434  20.463  1.00  0.00     0.177 C 
ATOM      3  C   UNL     1      74.095  41.837  21.009  1.00  0.00     0.180 C 
ATOM      4  C   UNL     1      73.838  41.933  22.526  1.00  0.00     0.214 C 
ATOM      5  C   UNL     1      74.366  40.685  23.290  1.00  0.00     0.339 C 
ATOM      6  O   UNL     1      73.848  39.495  22.712  1.00  0.00    -0.332 OA
ENDROOT
BRANCH   1   7
ATOM      7  C   UNL     1      73.903  37.916  20.902  1.00  0.00     0.198 C 
BRANCH   7   8
ATOM      8  O   UNL     1      72.552  37.840  20.466  1.00  0.00    -0.347 OA
BRANCH   8   9
ATOM      9  C   UNL     1      71.915  39.109  20.500  1.00  0.00     0.281 C 
ATOM     10  C   UNL     1      70.049  40.918  17.908  1.00  0.00     0.041 C 
ATOM     11  C   UNL     1      70.691  40.661  19.273  1.00  0.00     0.150 C 
ATOM     12  C   UNL     1      69.719  40.977  20.436  1.00  0.00     0.174 C 
ATOM     13  O   UNL     1      71.127  39.314  19.333  1.00  0.00    -0.344 OA
ATOM     14  C   UNL     1      70.381  40.607  21.783  1.00  0.00     0.179 C 
ATOM     15  C   UNL     1      71.013  39.197  21.745  1.00  0.00     0.202 C 
BRANCH  12  16
ATOM     16  O   UNL     1      68.512  40.276  20.287  1.00  0.00    -0.388 OA
ATOM     17  H   UNL     1      67.898  40.584  21.003  1.00  0.00     0.211 HD
ENDBRANCH  12  16
BRANCH  14  18
ATOM     18  O   UNL     1      69.489  40.758  22.864  1.00  0.00    -0.387 OA
ATOM     19  H   UNL     1      68.706  41.282  22.549  1.00  0.00     0.211 HD
ENDBRANCH  14  18
BRANCH  15  20
ATOM     20  O   UNL     1      70.010  38.216  21.691  1.00  0.00    -0.385 OA
ATOM     21  H   UNL     1      70.410  37.415  21.259  1.00  0.00     0.211 HD
ENDBRANCH  15  20
ENDBRANCH   8   9
ENDBRANCH   7   8
ENDBRANCH   1   7
BRANCH   2  22
ATOM     22  O   UNL     1      74.184  40.294  19.137  1.00  0.00    -0.387 OA
ATOM     23  H   UNL     1      73.388  40.218  18.554  1.00  0.00     0.211 HD
ENDBRANCH   2  22
BRANCH   3  24
ATOM     24  O   UNL     1      75.450  42.125  20.762  1.00  0.00    -0.387 OA
ATOM     25  H   UNL     1      75.640  41.895  19.817  1.00  0.00     0.211 HD
ENDBRANCH   3  24
BRANCH   5  26
ATOM     26  O   UNL     1      75.802  40.599  23.368  1.00  0.00    -0.454 OA
BRANCH  26  27
ATOM     27  C   UNL     1      76.560  39.821  24.264  1.00  0.00     0.214 A 
ATOM     28  C   UNL     1      77.890  39.420  24.019  1.00  0.00     0.180 A 
ATOM     29  C   UNL     1      75.943  39.415  25.454  1.00  0.00     0.239 A 
ATOM     30  O   UNL     1      78.482  38.572  24.852  1.00  0.00    -0.452 OA
ATOM     31  C   UNL     1      76.592  38.493  26.310  1.00  0.00     0.111 A 
ATOM     32  O   UNL     1      74.809  39.891  25.728  1.00  0.00    -0.285 OA
ATOM     33  C   UNL     1      77.903  38.091  25.946  1.00  0.00     0.146 A 
ATOM     34  C   UNL     1      76.017  37.951  27.499  1.00  0.00     0.134 A 
ATOM     35  C   UNL     1      78.617  37.195  26.740  1.00  0.00     0.094 A 
ATOM     36  C   UNL     1      76.773  37.081  28.294  1.00  0.00     0.093 A 
ATOM     37  C   UNL     1      78.062  36.694  27.917  1.00  0.00     0.123 A 
BRANCH  28  38
ATOM     38  C   UNL     1      78.683  39.938  22.891  1.00  0.00     0.025 A 
ATOM     39  C   UNL     1      78.079  40.788  21.953  1.00  0.00     0.062 A 
ATOM     40  C   UNL     1      79.995  39.487  22.669  1.00  0.00     0.016 A 
ATOM     41  C   UNL     1      78.791  41.221  20.825  1.00  0.00     0.158 A 
ATOM     42  C   UNL     1      80.712  39.919  21.546  1.00  0.00     0.051 A 
ATOM     43  C   UNL     1      80.113  40.782  20.618  1.00  0.00     0.157 A 
BRANCH  41  44
ATOM     44  O   UNL     1      78.190  42.079  19.904  1.00  0.00    -0.504 OA
ATOM     45  H   UNL     1      78.141  41.846  18.921  1.00  0.00     0.293 HD
ENDBRANCH  41  44
BRANCH  43  46
ATOM     46  O   UNL     1      80.840  41.184  19.498  1.00  0.00    -0.504 OA
ATOM     47  H   UNL     1      81.463  40.551  19.008  1.00  0.00     0.293 HD
ENDBRANCH  43  46
ENDBRANCH  28  38
BRANCH  34  48
ATOM     48  O   UNL     1      74.709  38.207  27.930  1.00  0.00    -0.507 OA
ATOM     49  H   UNL     1      73.878  38.070  27.383  1.00  0.00     0.293 HD
ENDBRANCH  34  48
BRANCH  37  50
ATOM     50  O   UNL     1      78.798  35.809  28.699  1.00  0.00    -0.508 OA
ATOM     51  H   UNL     1      78.429  35.423  29.561  1.00  0.00     0.293 HD
ENDBRANCH  37  50
ENDBRANCH  26  27
ENDBRANCH   5  26
BRANCH   4  52
ATOM     52  O   UNL     1      72.467  42.125  22.787  1.00  0.00    -0.384 OA
ATOM     53  H   UNL     1      72.372  42.950  23.329  1.00  0.00     0.211 HD
ENDBRANCH   4  52
TORSDOF 16
ENDMDL
