MODEL 1
REMARK VINA RESULT:    -3.339      0.000      0.000
REMARK INTER + INTRA:          -3.763
REMARK INTER:                  -3.730
REMARK INTRA:                  -0.033
REMARK UNBOUND:                -0.033
REMARK SMILES CCCC(=O)[O-]
REMARK SMILES IDX 3 1 4 2 5 3 6 4 2 5 1 6
REMARK H PARENT
REMARK Flexibility Score: inf
ROOT
ATOM      1  C   UNL     1      40.833  40.917  17.495  1.00  0.00     0.052 C 
ENDROOT
BRANCH   1   2
ATOM      2  C   UNL     1      41.368  40.625  16.127  1.00  0.00     0.041 C 
ATOM      3  O   UNL     1      42.470  40.030  15.992  1.00  0.00    -0.550 OA
ATOM      4  O   UNL     1      40.634  40.978  15.002  1.00  0.00    -0.550 OA
ENDBRANCH   1   2
BRANCH   1   5
ATOM      5  C   UNL     1      41.955  41.019  18.536  1.00  0.00     0.003 C 
ATOM      6  C   UNL     1      41.724  40.095  19.732  1.00  0.00     0.004 C 
ENDBRANCH   1   5
TORSDOF 2
ENDMDL
MODEL 2
REMARK VINA RESULT:    -3.332      0.121      1.324
REMARK INTER + INTRA:          -3.754
REMARK INTER:                  -3.725
REMARK INTRA:                  -0.029
REMARK UNBOUND:                -0.033
REMARK SMILES CCCC(=O)[O-]
REMARK SMILES IDX 3 1 4 2 5 3 6 4 2 5 1 6
REMARK H PARENT
REMARK Flexibility Score: inf
ROOT
ATOM      1  C   UNL     1      40.828  40.962  17.408  1.00  0.00     0.052 C 
ENDROOT
BRANCH   1   2
ATOM      2  C   UNL     1      41.312  40.638  16.028  1.00  0.00     0.041 C 
ATOM      3  O   UNL     1      40.679  41.054  15.022  1.00  0.00    -0.550 OA
ATOM      4  O   UNL     1      42.480  39.908  15.853  1.00  0.00    -0.550 OA
ENDBRANCH   1   2
BRANCH   1   5
ATOM      5  C   UNL     1      41.977  40.985  18.424  1.00  0.00     0.003 C 
ATOM      6  C   UNL     1      41.687  40.120  19.650  1.00  0.00     0.004 C 
ENDBRANCH   1   5
TORSDOF 2
ENDMDL
MODEL 3
REMARK VINA RESULT:    -3.284      4.808      5.662
REMARK INTER + INTRA:          -3.701
REMARK INTER:                  -3.688
REMARK INTRA:                  -0.013
REMARK UNBOUND:                -0.033
REMARK SMILES CCCC(=O)[O-]
REMARK SMILES IDX 3 1 4 2 5 3 6 4 2 5 1 6
REMARK H PARENT
REMARK Flexibility Score: inf
ROOT
ATOM      1  C   UNL     1      40.538  37.428  13.400  1.00  0.00     0.052 C 
ENDROOT
BRANCH   1   2
ATOM      2  C   UNL     1      42.014  37.583  13.604  1.00  0.00     0.041 C 
ATOM      3  O   UNL     1      42.506  38.720  13.834  1.00  0.00    -0.550 OA
ATOM      4  O   UNL     1      42.842  36.468  13.575  1.00  0.00    -0.550 OA
ENDBRANCH   1   2
BRANCH   1   5
ATOM      5  C   UNL     1      39.886  38.739  12.942  1.00  0.00     0.003 C 
ATOM      6  C   UNL     1      38.833  38.516  11.856  1.00  0.00     0.004 C 
ENDBRANCH   1   5
TORSDOF 2
ENDMDL
MODEL 4
REMARK VINA RESULT:    -3.278     11.195     11.670
REMARK INTER + INTRA:          -3.695
REMARK INTER:                  -3.656
REMARK INTRA:                  -0.039
REMARK UNBOUND:                -0.033
REMARK SMILES CCCC(=O)[O-]
REMARK SMILES IDX 3 1 4 2 5 3 6 4 2 5 1 6
REMARK H PARENT
REMARK Flexibility Score: inf
ROOT
ATOM      1  C   UNL     1      36.299  31.875  14.248  1.00  0.00     0.052 C 
ENDROOT
BRANCH   1   2
ATOM      2  C   UNL     1      35.047  31.437  13.552  1.00  0.00     0.041 C 
ATOM      3  O   UNL     1      34.286  32.289  13.022  1.00  0.00    -0.550 OA
ATOM      4  O   UNL     1      34.739  30.086  13.458  1.00  0.00    -0.550 OA
ENDBRANCH   1   2
BRANCH   1   5
ATOM      5  C   UNL     1      36.954  30.723  15.020  1.00  0.00     0.003 C 
ATOM      6  C   UNL     1      38.237  30.230  14.351  1.00  0.00     0.004 C 
ENDBRANCH   1   5
TORSDOF 2
ENDMDL
MODEL 5
REMARK VINA RESULT:    -3.190     10.893     11.445
REMARK INTER + INTRA:          -3.596
REMARK INTER:                  -3.599
REMARK INTRA:                   0.003
REMARK UNBOUND:                -0.033
REMARK SMILES CCCC(=O)[O-]
REMARK SMILES IDX 3 1 4 2 5 3 6 4 2 5 1 6
REMARK H PARENT
REMARK Flexibility Score: inf
ROOT
ATOM      1  C   UNL     1      36.194  31.801  14.587  1.00  0.00     0.052 C 
ENDROOT
BRANCH   1   2
ATOM      2  C   UNL     1      37.515  31.207  14.204  1.00  0.00     0.041 C 
ATOM      3  O   UNL     1      37.828  31.089  12.990  1.00  0.00    -0.550 OA
ATOM      4  O   UNL     1      38.414  30.816  15.188  1.00  0.00    -0.550 OA
ENDBRANCH   1   2
BRANCH   1   5
ATOM      5  C   UNL     1      35.172  31.698  13.448  1.00  0.00     0.003 C 
ATOM      6  C   UNL     1      34.556  30.303  13.343  1.00  0.00     0.004 C 
ENDBRANCH   1   5
TORSDOF 2
ENDMDL
MODEL 6
REMARK VINA RESULT:    -3.182      2.710      3.582
REMARK INTER + INTRA:          -3.587
REMARK INTER:                  -3.582
REMARK INTRA:                  -0.005
REMARK UNBOUND:                -0.033
REMARK SMILES CCCC(=O)[O-]
REMARK SMILES IDX 3 1 4 2 5 3 6 4 2 5 1 6
REMARK H PARENT
REMARK Flexibility Score: inf
ROOT
ATOM      1  C   UNL     1      41.915  40.986  17.787  1.00  0.00     0.052 C 
ENDROOT
BRANCH   1   2
ATOM      2  C   UNL     1      41.698  40.901  19.267  1.00  0.00     0.041 C 
ATOM      3  O   UNL     1      41.743  39.786  19.850  1.00  0.00    -0.550 OA
ATOM      4  O   UNL     1      41.482  42.057  20.006  1.00  0.00    -0.550 OA
ENDBRANCH   1   2
BRANCH   1   5
ATOM      5  C   UNL     1      40.598  40.869  17.010  1.00  0.00     0.003 C 
ATOM      6  C   UNL     1      40.822  40.728  15.504  1.00  0.00     0.004 C 
ENDBRANCH   1   5
TORSDOF 2
ENDMDL
MODEL 7
REMARK VINA RESULT:    -3.145     11.054     11.616
REMARK INTER + INTRA:          -3.546
REMARK INTER:                  -3.492
REMARK INTRA:                  -0.054
REMARK UNBOUND:                -0.033
REMARK SMILES CCCC(=O)[O-]
REMARK SMILES IDX 3 1 4 2 5 3 6 4 2 5 1 6
REMARK H PARENT
REMARK Flexibility Score: inf
ROOT
ATOM      1  C   UNL     1      35.646  30.442  14.165  1.00  0.00     0.052 C 
ENDROOT
BRANCH   1   2
ATOM      2  C   UNL     1      36.866  31.300  14.016  1.00  0.00     0.041 C 
ATOM      3  O   UNL     1      37.256  32.018  14.974  1.00  0.00    -0.550 OA
ATOM      4  O   UNL     1      37.591  31.279  12.831  1.00  0.00    -0.550 OA
ENDBRANCH   1   2
BRANCH   1   5
ATOM      5  C   UNL     1      34.581  30.780  13.115  1.00  0.00     0.003 C 
ATOM      6  C   UNL     1      34.276  32.277  13.056  1.00  0.00     0.004 C 
ENDBRANCH   1   5
TORSDOF 2
ENDMDL
MODEL 8
REMARK VINA RESULT:    -3.129     10.935     11.442
REMARK INTER + INTRA:          -3.528
REMARK INTER:                  -3.490
REMARK INTRA:                  -0.038
REMARK UNBOUND:                -0.033
REMARK SMILES CCCC(=O)[O-]
REMARK SMILES IDX 3 1 4 2 5 3 6 4 2 5 1 6
REMARK H PARENT
REMARK Flexibility Score: inf
ROOT
ATOM      1  C   UNL     1      36.425  30.924  14.946  1.00  0.00     0.052 C 
ENDROOT
BRANCH   1   2
ATOM      2  C   UNL     1      37.867  30.807  14.557  1.00  0.00     0.041 C 
ATOM      3  O   UNL     1      38.768  30.893  15.433  1.00  0.00    -0.550 OA
ATOM      4  O   UNL     1      38.213  30.566  13.233  1.00  0.00    -0.550 OA
ENDBRANCH   1   2
BRANCH   1   5
ATOM      5  C   UNL     1      35.594  31.610  13.854  1.00  0.00     0.003 C 
ATOM      6  C   UNL     1      34.622  30.647  13.171  1.00  0.00     0.004 C 
ENDBRANCH   1   5
TORSDOF 2
ENDMDL
MODEL 9
REMARK VINA RESULT:    -3.098      3.129      3.928
REMARK INTER + INTRA:          -3.493
REMARK INTER:                  -3.423
REMARK INTRA:                  -0.070
REMARK UNBOUND:                -0.033
REMARK SMILES CCCC(=O)[O-]
REMARK SMILES IDX 3 1 4 2 5 3 6 4 2 5 1 6
REMARK H PARENT
REMARK Flexibility Score: inf
ROOT
ATOM      1  C   UNL     1      41.738  40.535  19.567  1.00  0.00     0.052 C 
ENDROOT
BRANCH   1   2
ATOM      2  C   UNL     1      42.093  41.862  20.164  1.00  0.00     0.041 C 
ATOM      3  O   UNL     1      43.172  42.431  19.848  1.00  0.00    -0.550 OA
ATOM      4  O   UNL     1      41.218  42.487  21.043  1.00  0.00    -0.550 OA
ENDBRANCH   1   2
BRANCH   1   5
ATOM      5  C   UNL     1      41.715  40.588  18.034  1.00  0.00     0.003 C 
ATOM      6  C   UNL     1      40.629  41.523  17.501  1.00  0.00     0.004 C 
ENDBRANCH   1   5
TORSDOF 2
ENDMDL
