MODEL 1
REMARK VINA RESULT:    -3.856      0.000      0.000
REMARK INTER + INTRA:          -4.651
REMARK INTER:                  -4.645
REMARK INTRA:                  -0.005
REMARK UNBOUND:                -0.005
REMARK SMILES CC[C@@H](C)[C@H]([NH3+])C(=O)[O-]
REMARK SMILES IDX 3 1 4 2 5 3 6 4 7 8 8 9 9 10 2 11 1 12
REMARK H PARENT 6 5 6 6 6 7
REMARK Flexibility Score: inf
ROOT
ATOM      1  C   UNL     1      31.886  58.951  24.695  1.00  0.00     0.050 C 
ATOM      2  C   UNL     1      31.474  59.719  23.423  1.00  0.00     0.014 C 
ENDROOT
BRANCH   1   3
ATOM      3  C   UNL     1      33.157  58.070  24.484  1.00  0.00     0.230 C 
BRANCH   3   4
ATOM      4  N   UNL     1      33.517  57.914  23.065  1.00  0.00    -0.350 N 
ATOM      5  H   UNL     1      34.505  58.214  22.906  1.00  0.00     0.345 HD
ATOM      6  H   UNL     1      33.445  56.907  22.796  1.00  0.00     0.345 HD
ATOM      7  H   UNL     1      32.883  58.470  22.447  1.00  0.00     0.345 HD
ENDBRANCH   3   4
BRANCH   3   8
ATOM      8  C   UNL     1      33.006  56.727  25.156  1.00  0.00     0.099 C 
ATOM      9  O   UNL     1      32.730  56.644  26.383  1.00  0.00    -0.544 OA
ATOM     10  O   UNL     1      33.219  55.565  24.426  1.00  0.00    -0.544 OA
ENDBRANCH   3   8
ENDBRANCH   1   3
BRANCH   1  11
ATOM     11  C   UNL     1      32.065  59.913  25.897  1.00  0.00     0.006 C 
ATOM     12  C   UNL     1      31.247  61.198  25.755  1.00  0.00     0.004 C 
ENDBRANCH   1  11
TORSDOF 4
ENDMDL
MODEL 2
REMARK VINA RESULT:    -3.788     14.993     15.621
REMARK INTER + INTRA:          -4.569
REMARK INTER:                  -4.458
REMARK INTRA:                  -0.110
REMARK UNBOUND:                -0.005
REMARK SMILES CC[C@@H](C)[C@H]([NH3+])C(=O)[O-]
REMARK SMILES IDX 3 1 4 2 5 3 6 4 7 8 8 9 9 10 2 11 1 12
REMARK H PARENT 6 5 6 6 6 7
REMARK Flexibility Score: inf
ROOT
ATOM      1  C   UNL     1      31.962  44.787  16.772  1.00  0.00     0.050 C 
ATOM      2  C   UNL     1      32.258  43.301  17.061  1.00  0.00     0.014 C 
ENDROOT
BRANCH   1   3
ATOM      3  C   UNL     1      30.796  45.351  17.644  1.00  0.00     0.230 C 
BRANCH   3   4
ATOM      4  N   UNL     1      30.378  44.426  18.710  1.00  0.00    -0.350 N 
ATOM      5  H   UNL     1      30.584  43.440  18.437  1.00  0.00     0.345 HD
ATOM      6  H   UNL     1      30.919  44.632  19.582  1.00  0.00     0.345 HD
ATOM      7  H   UNL     1      29.359  44.523  18.921  1.00  0.00     0.345 HD
ENDBRANCH   3   4
BRANCH   3   8
ATOM      8  C   UNL     1      29.622  45.757  16.785  1.00  0.00     0.099 C 
ATOM      9  O   UNL     1      28.453  45.380  17.066  1.00  0.00    -0.544 OA
ATOM     10  O   UNL     1      29.837  46.517  15.643  1.00  0.00    -0.544 OA
ENDBRANCH   3   8
ENDBRANCH   1   3
BRANCH   1  11
ATOM     11  C   UNL     1      33.240  45.651  16.919  1.00  0.00     0.006 C 
ATOM     12  C   UNL     1      33.286  46.815  15.928  1.00  0.00     0.004 C 
ENDBRANCH   1  11
TORSDOF 4
ENDMDL
MODEL 3
REMARK VINA RESULT:    -3.760      2.669      4.005
REMARK INTER + INTRA:          -4.535
REMARK INTER:                  -4.398
REMARK INTRA:                  -0.137
REMARK UNBOUND:                -0.005
REMARK SMILES CC[C@@H](C)[C@H]([NH3+])C(=O)[O-]
REMARK SMILES IDX 3 1 4 2 5 3 6 4 7 8 8 9 9 10 2 11 1 12
REMARK H PARENT 6 5 6 6 6 7
REMARK Flexibility Score: inf
ROOT
ATOM      1  C   UNL     1      32.532  57.311  25.135  1.00  0.00     0.050 C 
ATOM      2  C   UNL     1      32.172  56.667  26.489  1.00  0.00     0.014 C 
ENDROOT
BRANCH   1   3
ATOM      3  C   UNL     1      32.713  58.858  25.232  1.00  0.00     0.230 C 
BRANCH   3   4
ATOM      4  N   UNL     1      32.913  59.327  26.613  1.00  0.00    -0.350 N 
ATOM      5  H   UNL     1      32.750  58.547  27.289  1.00  0.00     0.345 HD
ATOM      6  H   UNL     1      33.901  59.647  26.733  1.00  0.00     0.345 HD
ATOM      7  H   UNL     1      32.276  60.124  26.842  1.00  0.00     0.345 HD
ENDBRANCH   3   4
BRANCH   3   8
ATOM      8  C   UNL     1      31.564  59.583  24.573  1.00  0.00     0.099 C 
ATOM      9  O   UNL     1      31.426  59.575  23.321  1.00  0.00    -0.544 OA
ATOM     10  O   UNL     1      30.672  60.309  25.352  1.00  0.00    -0.544 OA
ENDBRANCH   3   8
ENDBRANCH   1   3
BRANCH   1  11
ATOM     11  C   UNL     1      33.779  56.638  24.509  1.00  0.00     0.006 C 
ATOM     12  C   UNL     1      34.335  57.414  23.314  1.00  0.00     0.004 C 
ENDBRANCH   1  11
TORSDOF 4
ENDMDL
MODEL 4
REMARK VINA RESULT:    -3.747     10.456     12.173
REMARK INTER + INTRA:          -4.519
REMARK INTER:                  -4.471
REMARK INTRA:                  -0.048
REMARK UNBOUND:                -0.005
REMARK SMILES CC[C@@H](C)[C@H]([NH3+])C(=O)[O-]
REMARK SMILES IDX 3 1 4 2 5 3 6 4 7 8 8 9 9 10 2 11 1 12
REMARK H PARENT 6 5 6 6 6 7
REMARK Flexibility Score: inf
ROOT
ATOM      1  C   UNL     1      30.015  46.474  25.643  1.00  0.00     0.050 C 
ATOM      2  C   UNL     1      30.121  45.606  24.373  1.00  0.00     0.014 C 
ENDROOT
BRANCH   1   3
ATOM      3  C   UNL     1      28.755  47.396  25.641  1.00  0.00     0.230 C 
BRANCH   3   4
ATOM      4  N   UNL     1      27.991  47.319  24.385  1.00  0.00    -0.350 N 
ATOM      5  H   UNL     1      27.076  46.841  24.546  1.00  0.00     0.345 HD
ATOM      6  H   UNL     1      27.786  48.286  24.043  1.00  0.00     0.345 HD
ATOM      7  H   UNL     1      28.524  46.810  23.644  1.00  0.00     0.345 HD
ENDBRANCH   3   4
BRANCH   3   8
ATOM      8  C   UNL     1      29.125  48.823  25.966  1.00  0.00     0.099 C 
ATOM      9  O   UNL     1      29.881  49.092  26.938  1.00  0.00    -0.544 OA
ATOM     10  O   UNL     1      28.588  49.860  25.215  1.00  0.00    -0.544 OA
ENDBRANCH   3   8
ENDBRANCH   1   3
BRANCH   1  11
ATOM     11  C   UNL     1      30.070  45.603  26.923  1.00  0.00     0.006 C 
ATOM     12  C   UNL     1      30.960  44.369  26.763  1.00  0.00     0.004 C 
ENDBRANCH   1  11
TORSDOF 4
ENDMDL
MODEL 5
REMARK VINA RESULT:    -3.744     10.768     11.860
REMARK INTER + INTRA:          -4.515
REMARK INTER:                  -4.415
REMARK INTRA:                  -0.100
REMARK UNBOUND:                -0.005
REMARK SMILES CC[C@@H](C)[C@H]([NH3+])C(=O)[O-]
REMARK SMILES IDX 3 1 4 2 5 3 6 4 7 8 8 9 9 10 2 11 1 12
REMARK H PARENT 6 5 6 6 6 7
REMARK Flexibility Score: inf
ROOT
ATOM      1  C   UNL     1      28.516  47.508  25.417  1.00  0.00     0.050 C 
ATOM      2  C   UNL     1      27.843  47.157  24.075  1.00  0.00     0.014 C 
ENDROOT
BRANCH   1   3
ATOM      3  C   UNL     1      29.892  46.796  25.607  1.00  0.00     0.230 C 
BRANCH   3   4
ATOM      4  N   UNL     1      30.376  46.147  24.377  1.00  0.00    -0.350 N 
ATOM      5  H   UNL     1      31.234  45.586  24.576  1.00  0.00     0.345 HD
ATOM      6  H   UNL     1      29.645  45.490  24.019  1.00  0.00     0.345 HD
ATOM      7  H   UNL     1      30.586  46.850  23.632  1.00  0.00     0.345 HD
ENDBRANCH   3   4
BRANCH   3   8
ATOM      8  C   UNL     1      29.845  45.817  26.755  1.00  0.00     0.099 C 
ATOM      9  O   UNL     1      29.214  46.088  27.812  1.00  0.00    -0.544 OA
ATOM     10  O   UNL     1      30.544  44.620  26.668  1.00  0.00    -0.544 OA
ENDBRANCH   3   8
ENDBRANCH   1   3
BRANCH   1  11
ATOM     11  C   UNL     1      28.648  49.041  25.594  1.00  0.00     0.006 C 
ATOM     12  C   UNL     1      29.353  49.430  26.894  1.00  0.00     0.004 C 
ENDBRANCH   1  11
TORSDOF 4
ENDMDL
MODEL 6
REMARK VINA RESULT:    -3.716     15.790     16.987
REMARK INTER + INTRA:          -4.482
REMARK INTER:                  -4.330
REMARK INTRA:                  -0.152
REMARK UNBOUND:                -0.005
REMARK SMILES CC[C@@H](C)[C@H]([NH3+])C(=O)[O-]
REMARK SMILES IDX 3 1 4 2 5 3 6 4 7 8 8 9 9 10 2 11 1 12
REMARK H PARENT 6 5 6 6 6 7
REMARK Flexibility Score: inf
ROOT
ATOM      1  C   UNL     1      30.068  44.611  15.061  1.00  0.00     0.050 C 
ATOM      2  C   UNL     1      30.338  43.148  14.657  1.00  0.00     0.014 C 
ENDROOT
BRANCH   1   3
ATOM      3  C   UNL     1      28.567  44.876  15.399  1.00  0.00     0.230 C 
BRANCH   3   4
ATOM      4  N   UNL     1      27.699  43.726  15.098  1.00  0.00    -0.350 N 
ATOM      5  H   UNL     1      28.276  42.873  14.919  1.00  0.00     0.345 HD
ATOM      6  H   UNL     1      27.086  43.527  15.921  1.00  0.00     0.345 HD
ATOM      7  H   UNL     1      27.091  43.914  14.268  1.00  0.00     0.345 HD
ENDBRANCH   3   4
BRANCH   3   8
ATOM      8  C   UNL     1      28.068  46.127  14.716  1.00  0.00     0.099 C 
ATOM      9  O   UNL     1      27.367  46.059  13.671  1.00  0.00    -0.544 OA
ATOM     10  O   UNL     1      28.424  47.373  15.218  1.00  0.00    -0.544 OA
ENDBRANCH   3   8
ENDBRANCH   1   3
BRANCH   1  11
ATOM     11  C   UNL     1      30.991  45.051  16.225  1.00  0.00     0.006 C 
ATOM     12  C   UNL     1      30.272  45.080  17.574  1.00  0.00     0.004 C 
ENDBRANCH   1  11
TORSDOF 4
ENDMDL
MODEL 7
REMARK VINA RESULT:    -3.679     10.863     11.763
REMARK INTER + INTRA:          -4.437
REMARK INTER:                  -4.300
REMARK INTRA:                  -0.137
REMARK UNBOUND:                -0.005
REMARK SMILES CC[C@@H](C)[C@H]([NH3+])C(=O)[O-]
REMARK SMILES IDX 3 1 4 2 5 3 6 4 7 8 8 9 9 10 2 11 1 12
REMARK H PARENT 6 5 6 6 6 7
REMARK Flexibility Score: inf
ROOT
ATOM      1  C   UNL     1      29.209  48.393  25.926  1.00  0.00     0.050 C 
ATOM      2  C   UNL     1      29.622  49.301  27.102  1.00  0.00     0.014 C 
ENDROOT
BRANCH   1   3
ATOM      3  C   UNL     1      28.978  46.912  26.360  1.00  0.00     0.230 C 
BRANCH   3   4
ATOM      4  N   UNL     1      28.805  46.760  27.814  1.00  0.00    -0.350 N 
ATOM      5  H   UNL     1      27.917  47.214  28.124  1.00  0.00     0.345 HD
ATOM      6  H   UNL     1      28.742  45.744  28.054  1.00  0.00     0.345 HD
ATOM      7  H   UNL     1      29.608  47.177  28.339  1.00  0.00     0.345 HD
ENDBRANCH   3   4
BRANCH   3   8
ATOM      8  C   UNL     1      30.080  46.016  25.848  1.00  0.00     0.099 C 
ATOM      9  O   UNL     1      30.894  45.472  26.641  1.00  0.00    -0.544 OA
ATOM     10  O   UNL     1      30.230  45.825  24.480  1.00  0.00    -0.544 OA
ENDBRANCH   3   8
ENDBRANCH   1   3
BRANCH   1  11
ATOM     11  C   UNL     1      27.971  48.961  25.188  1.00  0.00     0.006 C 
ATOM     12  C   UNL     1      27.389  47.984  24.166  1.00  0.00     0.004 C 
ENDBRANCH   1  11
TORSDOF 4
ENDMDL
MODEL 8
REMARK VINA RESULT:    -3.636     15.620     16.696
REMARK INTER + INTRA:          -4.386
REMARK INTER:                  -4.238
REMARK INTRA:                  -0.148
REMARK UNBOUND:                -0.005
REMARK SMILES CC[C@@H](C)[C@H]([NH3+])C(=O)[O-]
REMARK SMILES IDX 3 1 4 2 5 3 6 4 7 8 8 9 9 10 2 11 1 12
REMARK H PARENT 6 5 6 6 6 7
REMARK Flexibility Score: inf
ROOT
ATOM      1  C   UNL     1      28.218  45.945  14.026  1.00  0.00     0.050 C 
ATOM      2  C   UNL     1      27.231  45.629  12.884  1.00  0.00     0.014 C 
ENDROOT
BRANCH   1   3
ATOM      3  C   UNL     1      28.722  44.664  14.760  1.00  0.00     0.230 C 
BRANCH   3   4
ATOM      4  N   UNL     1      27.639  43.716  15.068  1.00  0.00    -0.350 N 
ATOM      5  H   UNL     1      26.723  44.089  14.732  1.00  0.00     0.345 HD
ATOM      6  H   UNL     1      27.814  42.813  14.571  1.00  0.00     0.345 HD
ATOM      7  H   UNL     1      27.580  43.524  16.094  1.00  0.00     0.345 HD
ENDBRANCH   3   4
BRANCH   3   8
ATOM      8  C   UNL     1      29.503  45.020  16.002  1.00  0.00     0.099 C 
ATOM      9  O   UNL     1      28.983  45.712  16.918  1.00  0.00    -0.544 OA
ATOM     10  O   UNL     1      30.828  44.620  16.119  1.00  0.00    -0.544 OA
ENDBRANCH   3   8
ENDBRANCH   1   3
BRANCH   1  11
ATOM     11  C   UNL     1      29.404  46.804  13.518  1.00  0.00     0.006 C 
ATOM     12  C   UNL     1      29.395  48.224  14.087  1.00  0.00     0.004 C 
ENDBRANCH   1  11
TORSDOF 4
ENDMDL
MODEL 9
REMARK VINA RESULT:    -3.590      8.762      9.854
REMARK INTER + INTRA:          -4.330
REMARK INTER:                  -4.236
REMARK INTRA:                  -0.093
REMARK UNBOUND:                -0.005
REMARK SMILES CC[C@@H](C)[C@H]([NH3+])C(=O)[O-]
REMARK SMILES IDX 3 1 4 2 5 3 6 4 7 8 8 9 9 10 2 11 1 12
REMARK H PARENT 6 5 6 6 6 7
REMARK Flexibility Score: inf
ROOT
ATOM      1  C   UNL     1      31.148  58.956  15.094  1.00  0.00     0.050 C 
ATOM      2  C   UNL     1      30.970  60.297  14.355  1.00  0.00     0.014 C 
ENDROOT
BRANCH   1   3
ATOM      3  C   UNL     1      32.638  58.495  15.157  1.00  0.00     0.230 C 
BRANCH   3   4
ATOM      4  N   UNL     1      33.578  59.526  14.688  1.00  0.00    -0.350 N 
ATOM      5  H   UNL     1      34.000  59.244  13.775  1.00  0.00     0.345 HD
ATOM      6  H   UNL     1      33.063  60.423  14.535  1.00  0.00     0.345 HD
ATOM      7  H   UNL     1      34.339  59.695  15.385  1.00  0.00     0.345 HD
ENDBRANCH   3   4
BRANCH   3   8
ATOM      8  C   UNL     1      32.839  57.197  14.412  1.00  0.00     0.099 C 
ATOM      9  O   UNL     1      32.279  56.136  14.797  1.00  0.00    -0.544 OA
ATOM     10  O   UNL     1      33.688  57.160  13.313  1.00  0.00    -0.544 OA
ENDBRANCH   3   8
ENDBRANCH   1   3
BRANCH   1  11
ATOM     11  C   UNL     1      30.516  59.007  16.508  1.00  0.00     0.006 C 
ATOM     12  C   UNL     1      31.313  59.876  17.483  1.00  0.00     0.004 C 
ENDBRANCH   1  11
TORSDOF 4
ENDMDL
