MODEL 1
REMARK VINA RESULT:    -4.999      0.000      0.000
REMARK INTER + INTRA:          -5.537
REMARK INTER:                  -5.437
REMARK INTRA:                  -0.100
REMARK UNBOUND:                -0.100
REMARK SMILES Cc1ccc(C(C)C)cc1O
REMARK SMILES IDX 1 1 2 2 10 3 9 4 5 5 4 6 3 7 11 8 6 10 7 11 8 12
REMARK H PARENT 11 9
REMARK Flexibility Score: inf
ROOT
ATOM      1  C   UNL     1      19.638  49.548  48.104  1.00  0.00     0.048 C 
ATOM      2  C   UNL     1      20.052  48.641  46.980  1.00  0.00    -0.009 A 
ATOM      3  C   UNL     1      19.584  47.316  46.928  1.00  0.00     0.118 A 
ATOM      4  C   UNL     1      19.974  46.476  45.876  1.00  0.00     0.050 A 
ATOM      5  C   UNL     1      20.833  46.942  44.865  1.00  0.00    -0.042 A 
ATOM      6  C   UNL     1      21.295  48.268  44.925  1.00  0.00     0.004 A 
ATOM      7  C   UNL     1      20.908  49.109  45.972  1.00  0.00     0.007 A 
ENDROOT
BRANCH   3   8
ATOM      8  O   UNL     1      18.731  46.839  47.924  1.00  0.00    -0.508 OA
ATOM      9  H   UNL     1      19.089  46.404  48.766  1.00  0.00     0.293 HD
ENDBRANCH   3   8
BRANCH   5  10
ATOM     10  C   UNL     1      21.245  46.019  43.734  1.00  0.00     0.013 C 
ATOM     11  C   UNL     1      20.062  45.720  42.805  1.00  0.00     0.012 C 
ATOM     12  C   UNL     1      21.863  44.724  44.273  1.00  0.00     0.012 C 
ENDBRANCH   5  10
TORSDOF 2
ENDMDL
MODEL 2
REMARK VINA RESULT:    -4.973      2.735      4.510
REMARK INTER + INTRA:          -5.508
REMARK INTER:                  -5.385
REMARK INTRA:                  -0.123
REMARK UNBOUND:                -0.100
REMARK SMILES Cc1ccc(C(C)C)cc1O
REMARK SMILES IDX 1 1 2 2 10 3 9 4 5 5 4 6 3 7 11 8 6 10 7 11 8 12
REMARK H PARENT 11 9
REMARK Flexibility Score: inf
ROOT
ATOM      1  C   UNL     1      21.791  44.686  44.163  1.00  0.00     0.048 C 
ATOM      2  C   UNL     1      21.037  45.971  43.965  1.00  0.00    -0.009 A 
ATOM      3  C   UNL     1      19.922  46.014  43.109  1.00  0.00     0.118 A 
ATOM      4  C   UNL     1      19.223  47.216  42.929  1.00  0.00     0.050 A 
ATOM      5  C   UNL     1      19.624  48.386  43.596  1.00  0.00    -0.042 A 
ATOM      6  C   UNL     1      20.740  48.334  44.450  1.00  0.00     0.004 A 
ATOM      7  C   UNL     1      21.439  47.137  44.632  1.00  0.00     0.007 A 
ENDROOT
BRANCH   3   8
ATOM      8  O   UNL     1      19.511  44.860  42.441  1.00  0.00    -0.508 OA
ATOM      9  H   UNL     1      18.629  44.409  42.653  1.00  0.00     0.293 HD
ENDBRANCH   3   8
BRANCH   5  10
ATOM     10  C   UNL     1      18.856  49.679  43.390  1.00  0.00     0.013 C 
ATOM     11  C   UNL     1      18.626  50.403  44.722  1.00  0.00     0.012 C 
ATOM     12  C   UNL     1      17.531  49.425  42.663  1.00  0.00     0.012 C 
ENDBRANCH   5  10
TORSDOF 2
ENDMDL
MODEL 3
REMARK VINA RESULT:    -4.707     12.273     14.370
REMARK INTER + INTRA:          -5.219
REMARK INTER:                  -5.094
REMARK INTRA:                  -0.125
REMARK UNBOUND:                -0.100
REMARK SMILES Cc1ccc(C(C)C)cc1O
REMARK SMILES IDX 1 1 2 2 10 3 9 4 5 5 4 6 3 7 11 8 6 10 7 11 8 12
REMARK H PARENT 11 9
REMARK Flexibility Score: inf
ROOT
ATOM      1  C   UNL     1      22.742  46.148  29.875  1.00  0.00     0.048 C 
ATOM      2  C   UNL     1      23.648  46.601  30.985  1.00  0.00    -0.009 A 
ATOM      3  C   UNL     1      23.108  47.111  32.179  1.00  0.00     0.118 A 
ATOM      4  C   UNL     1      23.959  47.531  33.210  1.00  0.00     0.050 A 
ATOM      5  C   UNL     1      25.355  47.451  33.066  1.00  0.00    -0.042 A 
ATOM      6  C   UNL     1      25.887  46.940  31.869  1.00  0.00     0.004 A 
ATOM      7  C   UNL     1      25.041  46.520  30.839  1.00  0.00     0.007 A 
ENDROOT
BRANCH   3   8
ATOM      8  O   UNL     1      21.724  47.196  32.337  1.00  0.00    -0.508 OA
ATOM      9  H   UNL     1      21.088  46.690  31.732  1.00  0.00     0.293 HD
ENDBRANCH   3   8
BRANCH   5  10
ATOM     10  C   UNL     1      26.262  47.911  34.192  1.00  0.00     0.013 C 
ATOM     11  C   UNL     1      25.558  48.941  35.084  1.00  0.00     0.012 C 
ATOM     12  C   UNL     1      27.584  48.464  33.647  1.00  0.00     0.012 C 
ENDBRANCH   5  10
TORSDOF 2
ENDMDL
MODEL 4
REMARK VINA RESULT:    -4.703      1.374      2.002
REMARK INTER + INTRA:          -5.215
REMARK INTER:                  -5.090
REMARK INTRA:                  -0.125
REMARK UNBOUND:                -0.100
REMARK SMILES Cc1ccc(C(C)C)cc1O
REMARK SMILES IDX 1 1 2 2 10 3 9 4 5 5 4 6 3 7 11 8 6 10 7 11 8 12
REMARK H PARENT 11 9
REMARK Flexibility Score: inf
ROOT
ATOM      1  C   UNL     1      19.326  49.130  48.445  1.00  0.00     0.048 C 
ATOM      2  C   UNL     1      19.816  48.373  47.243  1.00  0.00    -0.009 A 
ATOM      3  C   UNL     1      20.649  49.001  46.300  1.00  0.00     0.118 A 
ATOM      4  C   UNL     1      21.102  48.288  45.181  1.00  0.00     0.050 A 
ATOM      5  C   UNL     1      20.733  46.946  44.987  1.00  0.00    -0.042 A 
ATOM      6  C   UNL     1      19.900  46.326  45.935  1.00  0.00     0.004 A 
ATOM      7  C   UNL     1      19.447  47.033  47.051  1.00  0.00     0.007 A 
ENDROOT
BRANCH   3   8
ATOM      8  O   UNL     1      21.025  50.332  46.479  1.00  0.00    -0.508 OA
ATOM      9  H   UNL     1      21.687  50.606  47.196  1.00  0.00     0.293 HD
ENDBRANCH   3   8
BRANCH   5  10
ATOM     10  C   UNL     1      21.233  46.189  43.770  1.00  0.00     0.013 C 
ATOM     11  C   UNL     1      20.125  46.036  42.721  1.00  0.00     0.012 C 
ATOM     12  C   UNL     1      21.811  44.826  44.166  1.00  0.00     0.012 C 
ENDBRANCH   5  10
TORSDOF 2
ENDMDL
MODEL 5
REMARK VINA RESULT:    -4.663      1.482      1.867
REMARK INTER + INTRA:          -5.172
REMARK INTER:                  -5.060
REMARK INTRA:                  -0.111
REMARK UNBOUND:                -0.100
REMARK SMILES Cc1ccc(C(C)C)cc1O
REMARK SMILES IDX 1 1 2 2 10 3 9 4 5 5 4 6 3 7 11 8 6 10 7 11 8 12
REMARK H PARENT 11 9
REMARK Flexibility Score: inf
ROOT
ATOM      1  C   UNL     1      17.070  48.331  48.335  1.00  0.00     0.048 C 
ATOM      2  C   UNL     1      18.185  48.009  47.381  1.00  0.00    -0.009 A 
ATOM      3  C   UNL     1      18.161  46.815  46.638  1.00  0.00     0.118 A 
ATOM      4  C   UNL     1      19.204  46.522  45.750  1.00  0.00     0.050 A 
ATOM      5  C   UNL     1      20.282  47.409  45.590  1.00  0.00    -0.042 A 
ATOM      6  C   UNL     1      20.298  48.601  46.336  1.00  0.00     0.004 A 
ATOM      7  C   UNL     1      19.260  48.897  47.223  1.00  0.00     0.007 A 
ENDROOT
BRANCH   3   8
ATOM      8  O   UNL     1      17.097  45.924  46.785  1.00  0.00    -0.508 OA
ATOM      9  H   UNL     1      16.237  46.032  46.260  1.00  0.00     0.293 HD
ENDBRANCH   3   8
BRANCH   5  10
ATOM     10  C   UNL     1      21.404  47.076  44.623  1.00  0.00     0.013 C 
ATOM     11  C   UNL     1      21.342  47.967  43.376  1.00  0.00     0.012 C 
ATOM     12  C   UNL     1      21.383  45.591  44.243  1.00  0.00     0.012 C 
ENDBRANCH   5  10
TORSDOF 2
ENDMDL
MODEL 6
REMARK VINA RESULT:    -4.570      2.339      4.553
REMARK INTER + INTRA:          -5.070
REMARK INTER:                  -4.962
REMARK INTRA:                  -0.108
REMARK UNBOUND:                -0.100
REMARK SMILES Cc1ccc(C(C)C)cc1O
REMARK SMILES IDX 1 1 2 2 10 3 9 4 5 5 4 6 3 7 11 8 6 10 7 11 8 12
REMARK H PARENT 11 9
REMARK Flexibility Score: inf
ROOT
ATOM      1  C   UNL     1      19.116  45.483  41.771  1.00  0.00     0.048 C 
ATOM      2  C   UNL     1      19.763  46.404  42.766  1.00  0.00    -0.009 A 
ATOM      3  C   UNL     1      19.245  47.694  42.980  1.00  0.00     0.118 A 
ATOM      4  C   UNL     1      19.854  48.547  43.911  1.00  0.00     0.050 A 
ATOM      5  C   UNL     1      20.982  48.130  44.638  1.00  0.00    -0.042 A 
ATOM      6  C   UNL     1      21.493  46.838  44.417  1.00  0.00     0.004 A 
ATOM      7  C   UNL     1      20.889  45.985  43.491  1.00  0.00     0.007 A 
ENDROOT
BRANCH   3   8
ATOM      8  O   UNL     1      18.125  48.122  42.267  1.00  0.00    -0.508 OA
ATOM      9  H   UNL     1      18.105  48.114  41.254  1.00  0.00     0.293 HD
ENDBRANCH   3   8
BRANCH   5  10
ATOM     10  C   UNL     1      21.628  49.067  45.641  1.00  0.00     0.013 C 
ATOM     11  C   UNL     1      20.628  50.116  46.142  1.00  0.00     0.012 C 
ATOM     12  C   UNL     1      22.878  49.731  45.052  1.00  0.00     0.012 C 
ENDBRANCH   5  10
TORSDOF 2
ENDMDL
MODEL 7
REMARK VINA RESULT:    -4.538      2.281      4.469
REMARK INTER + INTRA:          -5.035
REMARK INTER:                  -4.910
REMARK INTRA:                  -0.126
REMARK UNBOUND:                -0.100
REMARK SMILES Cc1ccc(C(C)C)cc1O
REMARK SMILES IDX 1 1 2 2 10 3 9 4 5 5 4 6 3 7 11 8 6 10 7 11 8 12
REMARK H PARENT 11 9
REMARK Flexibility Score: inf
ROOT
ATOM      1  C   UNL     1      19.143  45.500  41.854  1.00  0.00     0.048 C 
ATOM      2  C   UNL     1      19.730  46.447  42.862  1.00  0.00    -0.009 A 
ATOM      3  C   UNL     1      20.870  46.081  43.600  1.00  0.00     0.118 A 
ATOM      4  C   UNL     1      21.411  46.970  44.538  1.00  0.00     0.050 A 
ATOM      5  C   UNL     1      20.827  48.230  44.755  1.00  0.00    -0.042 A 
ATOM      6  C   UNL     1      19.688  48.588  44.012  1.00  0.00     0.004 A 
ATOM      7  C   UNL     1      19.145  47.704  43.075  1.00  0.00     0.007 A 
ENDROOT
BRANCH   3   8
ATOM      8  O   UNL     1      21.461  44.834  43.396  1.00  0.00    -0.508 OA
ATOM      9  H   UNL     1      22.250  44.716  42.771  1.00  0.00     0.293 HD
ENDBRANCH   3   8
BRANCH   5  10
ATOM     10  C   UNL     1      21.427  49.181  45.774  1.00  0.00     0.013 C 
ATOM     11  C   UNL     1      20.465  50.332  46.089  1.00  0.00     0.012 C 
ATOM     12  C   UNL     1      22.786  49.710  45.305  1.00  0.00     0.012 C 
ENDBRANCH   5  10
TORSDOF 2
ENDMDL
MODEL 8
REMARK VINA RESULT:    -4.434      1.609      4.196
REMARK INTER + INTRA:          -4.922
REMARK INTER:                  -4.798
REMARK INTRA:                  -0.124
REMARK UNBOUND:                -0.100
REMARK SMILES Cc1ccc(C(C)C)cc1O
REMARK SMILES IDX 1 1 2 2 10 3 9 4 5 5 4 6 3 7 11 8 6 10 7 11 8 12
REMARK H PARENT 11 9
REMARK Flexibility Score: inf
ROOT
ATOM      1  C   UNL     1      19.896  46.001  42.640  1.00  0.00     0.048 C 
ATOM      2  C   UNL     1      20.295  47.051  43.637  1.00  0.00    -0.009 A 
ATOM      3  C   UNL     1      19.575  47.199  44.837  1.00  0.00     0.118 A 
ATOM      4  C   UNL     1      19.953  48.182  45.763  1.00  0.00     0.050 A 
ATOM      5  C   UNL     1      21.047  49.026  45.508  1.00  0.00    -0.042 A 
ATOM      6  C   UNL     1      21.761  48.871  44.306  1.00  0.00     0.004 A 
ATOM      7  C   UNL     1      21.387  47.893  43.381  1.00  0.00     0.007 A 
ENDROOT
BRANCH   3   8
ATOM      8  O   UNL     1      18.488  46.368  45.105  1.00  0.00    -0.508 OA
ATOM      9  H   UNL     1      17.562  46.743  45.273  1.00  0.00     0.293 HD
ENDBRANCH   3   8
BRANCH   5  10
ATOM     10  C   UNL     1      21.442  50.084  46.521  1.00  0.00     0.013 C 
ATOM     11  C   UNL     1      22.967  50.177  46.658  1.00  0.00     0.012 C 
ATOM     12  C   UNL     1      20.781  49.823  47.880  1.00  0.00     0.012 C 
ENDBRANCH   5  10
TORSDOF 2
ENDMDL
MODEL 9
REMARK VINA RESULT:    -4.369      3.245      3.902
REMARK INTER + INTRA:          -4.852
REMARK INTER:                  -4.728
REMARK INTRA:                  -0.124
REMARK UNBOUND:                -0.100
REMARK SMILES Cc1ccc(C(C)C)cc1O
REMARK SMILES IDX 1 1 2 2 10 3 9 4 5 5 4 6 3 7 11 8 6 10 7 11 8 12
REMARK H PARENT 11 9
REMARK Flexibility Score: inf
ROOT
ATOM      1  C   UNL     1      15.995  50.500  44.500  1.00  0.00     0.048 C 
ATOM      2  C   UNL     1      17.376  49.918  44.389  1.00  0.00    -0.009 A 
ATOM      3  C   UNL     1      18.500  50.688  44.738  1.00  0.00     0.118 A 
ATOM      4  C   UNL     1      19.785  50.138  44.632  1.00  0.00     0.050 A 
ATOM      5  C   UNL     1      19.967  48.820  44.179  1.00  0.00    -0.042 A 
ATOM      6  C   UNL     1      18.837  48.057  43.834  1.00  0.00     0.004 A 
ATOM      7  C   UNL     1      17.555  48.602  43.938  1.00  0.00     0.007 A 
ENDROOT
BRANCH   3   8
ATOM      8  O   UNL     1      18.335  51.997  45.189  1.00  0.00    -0.508 OA
ATOM      9  H   UNL     1      17.542  52.561  44.906  1.00  0.00     0.293 HD
ENDBRANCH   3   8
BRANCH   5  10
ATOM     10  C   UNL     1      21.366  48.240  44.071  1.00  0.00     0.013 C 
ATOM     11  C   UNL     1      21.395  46.778  44.532  1.00  0.00     0.012 C 
ATOM     12  C   UNL     1      22.377  49.086  44.854  1.00  0.00     0.012 C 
ENDBRANCH   5  10
TORSDOF 2
ENDMDL
