MODEL 1
REMARK VINA RESULT:     3.745      0.000      0.000
REMARK INTER + INTRA:           4.073
REMARK INTER:                   4.073
REMARK INTRA:                   0.000
REMARK UNBOUND:                 0.000
REMARK SMILES Cc1cc(O)c2c(c1)C(=O)c1cc(O)cc(O)c1C2=O
REMARK SMILES IDX 1 1 2 2 8 3 7 4 6 5 4 6 3 7 19 8 20 9 18 10 11 11 9 12 10 13
REMARK SMILES IDX 12 14 13 15 15 16 16 17 5 18 17 20 14 22
REMARK H PARENT 5 19 17 21 14 23
REMARK Flexibility Score: inf
ROOT
ATOM      1  C   UNL     1      -2.315 -15.061 -12.432  1.00  0.00     0.044 C 
ATOM      2  C   UNL     1      -1.939 -14.946 -10.984  1.00  0.00    -0.047 A 
ATOM      3  C   UNL     1      -2.934 -14.855 -10.003  1.00  0.00     0.016 A 
ATOM      4  C   UNL     1      -2.593 -14.774  -8.642  1.00  0.00     0.038 A 
ATOM      5  C   UNL     1      -1.234 -14.785  -8.256  1.00  0.00     0.076 A 
ATOM      6  C   UNL     1      -0.234 -14.963  -9.248  1.00  0.00     0.127 A 
ATOM      7  C   UNL     1      -0.597 -15.019 -10.597  1.00  0.00     0.050 A 
ATOM      8  C   UNL     1      -0.908 -14.550  -6.826  1.00  0.00     0.201 C 
ATOM      9  O   UNL     1       0.180 -13.995  -6.514  1.00  0.00    -0.288 OA
ATOM     10  C   UNL     1      -1.939 -14.795  -5.784  1.00  0.00     0.076 A 
ATOM     11  C   UNL     1      -3.297 -14.787  -6.174  1.00  0.00     0.041 A 
ATOM     12  C   UNL     1      -3.652 -14.687  -7.610  1.00  0.00     0.194 C 
ATOM     13  O   UNL     1      -4.859 -14.552  -7.953  1.00  0.00    -0.289 OA
ATOM     14  C   UNL     1      -4.305 -14.877  -5.199  1.00  0.00     0.059 A 
ATOM     15  C   UNL     1      -3.975 -14.992  -3.846  1.00  0.00     0.120 A 
ATOM     16  C   UNL     1      -2.635 -15.042  -3.462  1.00  0.00     0.093 A 
ATOM     17  C   UNL     1      -1.613 -14.974  -4.414  1.00  0.00     0.131 A 
ENDROOT
BRANCH   6  18
ATOM     18  O   UNL     1       1.118 -15.122  -8.936  1.00  0.00    -0.507 OA
ATOM     19  H   UNL     1       1.573 -16.021  -8.869  1.00  0.00     0.293 HD
ENDBRANCH   6  18
BRANCH  17  20
ATOM     20  O   UNL     1      -0.300 -15.121  -3.962  1.00  0.00    -0.507 OA
ATOM     21  H   UNL     1       0.072 -15.989  -3.601  1.00  0.00     0.293 HD
ENDBRANCH  17  20
BRANCH  15  22
ATOM     22  O   UNL     1      -4.970 -15.069  -2.876  1.00  0.00    -0.508 OA
ATOM     23  H   UNL     1      -5.888 -14.664  -3.024  1.00  0.00     0.293 HD
ENDBRANCH  15  22
TORSDOF 3
ENDMDL
MODEL 2
REMARK VINA RESULT:     5.882      1.522      3.619
REMARK INTER + INTRA:           6.398
REMARK INTER:                   6.398
REMARK INTRA:                   0.000
REMARK UNBOUND:                 0.000
REMARK SMILES Cc1cc(O)c2c(c1)C(=O)c1cc(O)cc(O)c1C2=O
REMARK SMILES IDX 1 1 2 2 8 3 7 4 6 5 4 6 3 7 19 8 20 9 18 10 11 11 9 12 10 13
REMARK SMILES IDX 12 14 13 15 15 16 16 17 5 18 17 20 14 22
REMARK H PARENT 5 19 17 21 14 23
REMARK Flexibility Score: inf
ROOT
ATOM      1  C   UNL     1      -2.008 -13.963 -12.006  1.00  0.00     0.044 C 
ATOM      2  C   UNL     1      -2.184 -14.128 -10.525  1.00  0.00    -0.047 A 
ATOM      3  C   UNL     1      -1.082 -14.420  -9.714  1.00  0.00     0.016 A 
ATOM      4  C   UNL     1      -1.232 -14.549  -8.322  1.00  0.00     0.038 A 
ATOM      5  C   UNL     1      -2.505 -14.382  -7.733  1.00  0.00     0.076 A 
ATOM      6  C   UNL     1      -3.601 -14.003  -8.551  1.00  0.00     0.127 A 
ATOM      7  C   UNL     1      -3.432 -13.902  -9.936  1.00  0.00     0.050 A 
ATOM      8  C   UNL     1      -2.653 -14.671  -6.284  1.00  0.00     0.201 C 
ATOM      9  O   UNL     1      -3.752 -15.094  -5.838  1.00  0.00    -0.288 OA
ATOM     10  C   UNL     1      -1.458 -14.641  -5.400  1.00  0.00     0.076 A 
ATOM     11  C   UNL     1      -0.185 -14.805  -5.993  1.00  0.00     0.041 A 
ATOM     12  C   UNL     1      -0.059 -14.851  -7.468  1.00  0.00     0.194 C 
ATOM     13  O   UNL     1       1.054 -15.123  -7.998  1.00  0.00    -0.289 OA
ATOM     14  C   UNL     1       0.955 -14.920  -5.179  1.00  0.00     0.059 A 
ATOM     15  C   UNL     1       0.843 -14.857  -3.788  1.00  0.00     0.120 A 
ATOM     16  C   UNL     1      -0.407 -14.653  -3.202  1.00  0.00     0.093 A 
ATOM     17  C   UNL     1      -1.554 -14.516  -3.989  1.00  0.00     0.131 A 
ENDROOT
BRANCH   6  18
ATOM     18  O   UNL     1      -4.857 -13.685  -8.030  1.00  0.00    -0.507 OA
ATOM     19  H   UNL     1      -5.675 -14.264  -8.151  1.00  0.00     0.293 HD
ENDBRANCH   6  18
BRANCH  17  20
ATOM     20  O   UNL     1      -2.753 -14.225  -3.336  1.00  0.00    -0.507 OA
ATOM     21  H   UNL     1      -3.582 -14.799  -3.408  1.00  0.00     0.293 HD
ENDBRANCH  17  20
BRANCH  15  22
ATOM     22  O   UNL     1       1.968 -14.982  -2.978  1.00  0.00    -0.508 OA
ATOM     23  H   UNL     1       2.481 -14.171  -2.652  1.00  0.00     0.293 HD
ENDBRANCH  15  22
TORSDOF 3
ENDMDL
MODEL 3
REMARK VINA RESULT:     6.241      1.602      6.126
REMARK INTER + INTRA:           6.788
REMARK INTER:                   6.788
REMARK INTRA:                   0.000
REMARK UNBOUND:                 0.000
REMARK SMILES Cc1cc(O)c2c(c1)C(=O)c1cc(O)cc(O)c1C2=O
REMARK SMILES IDX 1 1 2 2 8 3 7 4 6 5 4 6 3 7 19 8 20 9 18 10 11 11 9 12 10 13
REMARK SMILES IDX 12 14 13 15 15 16 16 17 5 18 17 20 14 22
REMARK H PARENT 5 19 17 21 14 23
REMARK Flexibility Score: inf
ROOT
ATOM      1  C   UNL     1       0.908 -15.123  -3.289  1.00  0.00     0.044 C 
ATOM      2  C   UNL     1      -0.130 -14.978  -4.362  1.00  0.00    -0.047 A 
ATOM      3  C   UNL     1       0.252 -14.892  -5.705  1.00  0.00     0.016 A 
ATOM      4  C   UNL     1      -0.714 -14.783  -6.720  1.00  0.00     0.038 A 
ATOM      5  C   UNL     1      -2.087 -14.761  -6.384  1.00  0.00     0.076 A 
ATOM      6  C   UNL     1      -2.470 -14.934  -5.029  1.00  0.00     0.127 A 
ATOM      7  C   UNL     1      -1.490 -15.019  -4.035  1.00  0.00     0.050 A 
ATOM      8  C   UNL     1      -3.070 -14.497  -7.465  1.00  0.00     0.201 C 
ATOM      9  O   UNL     1      -4.156 -13.916  -7.197  1.00  0.00    -0.288 OA
ATOM     10  C   UNL     1      -2.695 -14.746  -8.882  1.00  0.00     0.076 A 
ATOM     11  C   UNL     1      -1.321 -14.771  -9.214  1.00  0.00     0.041 A 
ATOM     12  C   UNL     1      -0.301 -14.701  -8.140  1.00  0.00     0.194 C 
ATOM     13  O   UNL     1       0.921 -14.594  -8.437  1.00  0.00    -0.289 OA
ATOM     14  C   UNL     1      -0.929 -14.866 -10.560  1.00  0.00     0.059 A 
ATOM     15  C   UNL     1      -1.886 -14.953 -11.573  1.00  0.00     0.120 A 
ATOM     16  C   UNL     1      -3.242 -14.970 -11.246  1.00  0.00     0.093 A 
ATOM     17  C   UNL     1      -3.658 -14.897  -9.913  1.00  0.00     0.131 A 
ENDROOT
BRANCH   6  18
ATOM     18  O   UNL     1      -3.803 -15.062  -4.632  1.00  0.00    -0.507 OA
ATOM     19  H   UNL     1      -4.251 -14.444  -3.971  1.00  0.00     0.293 HD
ENDBRANCH   6  18
BRANCH  17  20
ATOM     20  O   UNL     1      -5.027 -15.011  -9.658  1.00  0.00    -0.507 OA
ATOM     21  H   UNL     1      -5.613 -14.231  -9.397  1.00  0.00     0.293 HD
ENDBRANCH  17  20
BRANCH  15  22
ATOM     22  O   UNL     1      -1.501 -15.034 -12.909  1.00  0.00    -0.508 OA
ATOM     23  H   UNL     1      -1.413 -15.926 -13.382  1.00  0.00     0.293 HD
ENDBRANCH  15  22
TORSDOF 3
ENDMDL
