MODEL 1
REMARK VINA RESULT:    -6.127      0.000      0.000
REMARK INTER + INTRA:          -7.439
REMARK INTER:                  -7.201
REMARK INTRA:                  -0.237
REMARK UNBOUND:                -0.237
REMARK SMILES O=c1c(O)c(-c2ccc(O)c(O)c2)oc2cc(O)ccc12
REMARK SMILES IDX 5 1 3 2 2 3 1 4 21 5 15 6 14 7 16 8 17 9 19 10 20 11 6 12
REMARK SMILES IDX 7 13 8 14 9 15 13 16 11 17 10 18 12 20 4 22 18 24
REMARK H PARENT 10 19 12 21 4 23 18 25
REMARK Flexibility Score: inf
ROOT
ATOM      1  C   UNL     1     162.371 164.539 161.811  1.00  0.00     0.180 A 
ATOM      2  C   UNL     1     161.843 165.415 162.783  1.00  0.00     0.208 A 
ATOM      3  C   UNL     1     161.839 165.009 164.127  1.00  0.00     0.235 A 
ATOM      4  O   UNL     1     161.362 165.770 165.013  1.00  0.00    -0.285 OA
ATOM      5  C   UNL     1     162.376 163.759 164.473  1.00  0.00     0.069 A 
ATOM      6  C   UNL     1     162.907 162.952 163.445  1.00  0.00     0.142 A 
ATOM      7  O   UNL     1     162.884 163.369 162.184  1.00  0.00    -0.452 OA
ATOM      8  C   UNL     1     163.460 161.703 163.750  1.00  0.00     0.094 A 
ATOM      9  C   UNL     1     163.489 161.249 165.072  1.00  0.00     0.119 A 
ATOM     10  C   UNL     1     162.961 162.047 166.097  1.00  0.00     0.047 A 
ATOM     11  C   UNL     1     162.407 163.297 165.802  1.00  0.00     0.020 A 
ENDROOT
BRANCH   1  12
ATOM     12  C   UNL     1     162.394 164.885 160.372  1.00  0.00     0.025 A 
ATOM     13  C   UNL     1     161.195 164.887 159.643  1.00  0.00     0.016 A 
ATOM     14  C   UNL     1     161.191 165.230 158.288  1.00  0.00     0.051 A 
ATOM     15  C   UNL     1     162.379 165.590 157.646  1.00  0.00     0.157 A 
ATOM     16  C   UNL     1     163.586 165.267 159.730  1.00  0.00     0.062 A 
ATOM     17  C   UNL     1     163.583 165.613 158.371  1.00  0.00     0.158 A 
BRANCH  15  18
ATOM     18  O   UNL     1     162.345 165.925 156.294  1.00  0.00    -0.504 OA
ATOM     19  H   UNL     1     163.126 165.744 155.674  1.00  0.00     0.293 HD
ENDBRANCH  15  18
BRANCH  17  20
ATOM     20  O   UNL     1     164.770 165.985 157.740  1.00  0.00    -0.504 OA
ATOM     21  H   UNL     1     165.201 166.886 157.909  1.00  0.00     0.293 HD
ENDBRANCH  17  20
ENDBRANCH   1  12
BRANCH   2  22
ATOM     22  O   UNL     1     161.360 166.672 162.415  1.00  0.00    -0.502 OA
ATOM     23  H   UNL     1     161.437 167.481 163.021  1.00  0.00     0.293 HD
ENDBRANCH   2  22
BRANCH   9  24
ATOM     24  O   UNL     1     164.043 160.004 165.359  1.00  0.00    -0.508 OA
ATOM     25  H   UNL     1     164.544 159.833 166.223  1.00  0.00     0.293 HD
ENDBRANCH   9  24
TORSDOF 5
ENDMDL
MODEL 2
REMARK VINA RESULT:    -6.125      5.579      9.629
REMARK INTER + INTRA:          -7.437
REMARK INTER:                  -7.127
REMARK INTRA:                  -0.310
REMARK UNBOUND:                -0.237
REMARK SMILES O=c1c(O)c(-c2ccc(O)c(O)c2)oc2cc(O)ccc12
REMARK SMILES IDX 5 1 3 2 2 3 1 4 21 5 15 6 14 7 16 8 17 9 19 10 20 11 6 12
REMARK SMILES IDX 7 13 8 14 9 15 13 16 11 17 10 18 12 20 4 22 18 24
REMARK H PARENT 10 19 12 21 4 23 18 25
REMARK Flexibility Score: inf
ROOT
ATOM      1  C   UNL     1     162.903 156.526 164.131  1.00  0.00     0.180 A 
ATOM      2  C   UNL     1     164.266 156.419 164.478  1.00  0.00     0.208 A 
ATOM      3  C   UNL     1     164.960 157.580 164.854  1.00  0.00     0.235 A 
ATOM      4  O   UNL     1     166.183 157.512 165.158  1.00  0.00    -0.285 OA
ATOM      5  C   UNL     1     164.281 158.807 164.898  1.00  0.00     0.069 A 
ATOM      6  C   UNL     1     162.911 158.826 164.560  1.00  0.00     0.142 A 
ATOM      7  O   UNL     1     162.293 157.707 164.200  1.00  0.00    -0.452 OA
ATOM      8  C   UNL     1     162.196 160.028 164.601  1.00  0.00     0.094 A 
ATOM      9  C   UNL     1     162.834 161.215 164.975  1.00  0.00     0.119 A 
ATOM     10  C   UNL     1     164.195 161.202 165.309  1.00  0.00     0.047 A 
ATOM     11  C   UNL     1     164.918 160.005 165.273  1.00  0.00     0.020 A 
ENDROOT
BRANCH   1  12
ATOM     12  C   UNL     1     162.106 155.352 163.705  1.00  0.00     0.025 A 
ATOM     13  C   UNL     1     162.148 154.940 162.365  1.00  0.00     0.016 A 
ATOM     14  C   UNL     1     161.420 153.823 161.946  1.00  0.00     0.051 A 
ATOM     15  C   UNL     1     160.653 153.094 162.859  1.00  0.00     0.157 A 
ATOM     16  C   UNL     1     161.351 154.607 164.628  1.00  0.00     0.062 A 
ATOM     17  C   UNL     1     160.621 153.484 164.209  1.00  0.00     0.158 A 
BRANCH  15  18
ATOM     18  O   UNL     1     159.936 151.987 162.412  1.00  0.00    -0.504 OA
ATOM     19  H   UNL     1     160.119 151.553 161.514  1.00  0.00     0.293 HD
ENDBRANCH  15  18
BRANCH  17  20
ATOM     20  O   UNL     1     159.870 152.754 165.129  1.00  0.00    -0.504 OA
ATOM     21  H   UNL     1     159.238 152.019 164.835  1.00  0.00     0.293 HD
ENDBRANCH  17  20
ENDBRANCH   1  12
BRANCH   2  22
ATOM     22  O   UNL     1     164.903 155.177 164.471  1.00  0.00    -0.502 OA
ATOM     23  H   UNL     1     164.428 154.325 164.195  1.00  0.00     0.293 HD
ENDBRANCH   2  22
BRANCH   9  24
ATOM     24  O   UNL     1     162.108 162.403 165.010  1.00  0.00    -0.508 OA
ATOM     25  H   UNL     1     161.304 162.551 164.410  1.00  0.00     0.293 HD
ENDBRANCH   9  24
TORSDOF 5
ENDMDL
MODEL 3
REMARK VINA RESULT:    -6.019      5.399      8.703
REMARK INTER + INTRA:          -7.312
REMARK INTER:                  -7.120
REMARK INTRA:                  -0.193
REMARK UNBOUND:                -0.237
REMARK SMILES O=c1c(O)c(-c2ccc(O)c(O)c2)oc2cc(O)ccc12
REMARK SMILES IDX 5 1 3 2 2 3 1 4 21 5 15 6 14 7 16 8 17 9 19 10 20 11 6 12
REMARK SMILES IDX 7 13 8 14 9 15 13 16 11 17 10 18 12 20 4 22 18 24
REMARK H PARENT 10 19 12 21 4 23 18 25
REMARK Flexibility Score: inf
ROOT
ATOM      1  C   UNL     1     163.296 157.414 163.682  1.00  0.00     0.180 A 
ATOM      2  C   UNL     1     164.108 156.852 162.676  1.00  0.00     0.208 A 
ATOM      3  C   UNL     1     163.937 155.498 162.347  1.00  0.00     0.235 A 
ATOM      4  O   UNL     1     164.659 154.970 161.457  1.00  0.00    -0.285 OA
ATOM      5  C   UNL     1     162.953 154.746 163.008  1.00  0.00     0.069 A 
ATOM      6  C   UNL     1     162.165 155.388 163.986  1.00  0.00     0.142 A 
ATOM      7  O   UNL     1     162.365 156.670 164.275  1.00  0.00    -0.452 OA
ATOM      8  C   UNL     1     161.168 154.675 164.661  1.00  0.00     0.094 A 
ATOM      9  C   UNL     1     160.948 153.325 164.371  1.00  0.00     0.119 A 
ATOM     10  C   UNL     1     161.730 152.682 163.401  1.00  0.00     0.047 A 
ATOM     11  C   UNL     1     162.728 153.386 162.721  1.00  0.00     0.020 A 
ENDROOT
BRANCH   1  12
ATOM     12  C   UNL     1     163.427 158.829 164.100  1.00  0.00     0.025 A 
ATOM     13  C   UNL     1     164.589 159.246 164.765  1.00  0.00     0.016 A 
ATOM     14  C   UNL     1     164.743 160.581 165.150  1.00  0.00     0.051 A 
ATOM     15  C   UNL     1     163.748 161.520 164.863  1.00  0.00     0.157 A 
ATOM     16  C   UNL     1     162.435 159.777 163.794  1.00  0.00     0.062 A 
ATOM     17  C   UNL     1     162.589 161.118 164.177  1.00  0.00     0.158 A 
BRANCH  15  18
ATOM     18  O   UNL     1     163.928 162.843 165.262  1.00  0.00    -0.504 OA
ATOM     19  H   UNL     1     164.557 163.471 164.776  1.00  0.00     0.293 HD
ENDBRANCH  15  18
BRANCH  17  20
ATOM     20  O   UNL     1     161.598 162.052 163.874  1.00  0.00    -0.504 OA
ATOM     21  H   UNL     1     160.651 161.768 163.658  1.00  0.00     0.293 HD
ENDBRANCH  17  20
ENDBRANCH   1  12
BRANCH   2  22
ATOM     22  O   UNL     1     165.045 157.638 162.001  1.00  0.00    -0.502 OA
ATOM     23  H   UNL     1     164.821 158.556 161.638  1.00  0.00     0.293 HD
ENDBRANCH   2  22
BRANCH   9  24
ATOM     24  O   UNL     1     159.951 152.630 165.052  1.00  0.00    -0.508 OA
ATOM     25  H   UNL     1     159.293 152.033 164.564  1.00  0.00     0.293 HD
ENDBRANCH   9  24
TORSDOF 5
ENDMDL
MODEL 4
REMARK VINA RESULT:    -5.916      7.003     10.983
REMARK INTER + INTRA:          -7.191
REMARK INTER:                  -6.900
REMARK INTRA:                  -0.291
REMARK UNBOUND:                -0.237
REMARK SMILES O=c1c(O)c(-c2ccc(O)c(O)c2)oc2cc(O)ccc12
REMARK SMILES IDX 5 1 3 2 2 3 1 4 21 5 15 6 14 7 16 8 17 9 19 10 20 11 6 12
REMARK SMILES IDX 7 13 8 14 9 15 13 16 11 17 10 18 12 20 4 22 18 24
REMARK H PARENT 10 19 12 21 4 23 18 25
REMARK Flexibility Score: inf
ROOT
ATOM      1  C   UNL     1     164.169 154.991 162.612  1.00  0.00     0.180 A 
ATOM      2  C   UNL     1     165.208 154.785 161.681  1.00  0.00     0.208 A 
ATOM      3  C   UNL     1     166.033 155.868 161.338  1.00  0.00     0.235 A 
ATOM      4  O   UNL     1     166.962 155.711 160.499  1.00  0.00    -0.285 OA
ATOM      5  C   UNL     1     165.818 157.117 161.941  1.00  0.00     0.069 A 
ATOM      6  C   UNL     1     164.773 157.236 162.881  1.00  0.00     0.142 A 
ATOM      7  O   UNL     1     164.009 156.188 163.171  1.00  0.00    -0.452 OA
ATOM      8  C   UNL     1     164.533 158.461 163.511  1.00  0.00     0.094 A 
ATOM      9  C   UNL     1     165.326 159.574 163.213  1.00  0.00     0.119 A 
ATOM     10  C   UNL     1     166.365 159.462 162.278  1.00  0.00     0.047 A 
ATOM     11  C   UNL     1     166.613 158.240 161.644  1.00  0.00     0.020 A 
ENDROOT
BRANCH   1  12
ATOM     12  C   UNL     1     163.245 153.905 163.012  1.00  0.00     0.025 A 
ATOM     13  C   UNL     1     163.642 152.989 163.997  1.00  0.00     0.016 A 
ATOM     14  C   UNL     1     162.778 151.969 164.405  1.00  0.00     0.051 A 
ATOM     15  C   UNL     1     161.502 151.857 163.846  1.00  0.00     0.157 A 
ATOM     16  C   UNL     1     161.954 153.804 162.464  1.00  0.00     0.062 A 
ATOM     17  C   UNL     1     161.084 152.781 162.873  1.00  0.00     0.158 A 
BRANCH  15  18
ATOM     18  O   UNL     1     160.663 150.828 164.270  1.00  0.00    -0.504 OA
ATOM     19  H   UNL     1     161.010 150.031 164.791  1.00  0.00     0.293 HD
ENDBRANCH  15  18
BRANCH  17  20
ATOM     20  O   UNL     1     159.807 152.685 162.322  1.00  0.00    -0.504 OA
ATOM     21  H   UNL     1     159.059 152.195 162.797  1.00  0.00     0.293 HD
ENDBRANCH  17  20
ENDBRANCH   1  12
BRANCH   2  22
ATOM     22  O   UNL     1     165.428 153.519 161.134  1.00  0.00    -0.502 OA
ATOM     23  H   UNL     1     166.111 152.874 161.515  1.00  0.00     0.293 HD
ENDBRANCH   2  22
BRANCH   9  24
ATOM     24  O   UNL     1     165.074 160.787 163.849  1.00  0.00    -0.508 OA
ATOM     25  H   UNL     1     165.650 161.604 163.680  1.00  0.00     0.293 HD
ENDBRANCH   9  24
TORSDOF 5
ENDMDL
MODEL 5
REMARK VINA RESULT:    -5.755      5.138      9.347
REMARK INTER + INTRA:          -7.002
REMARK INTER:                  -6.746
REMARK INTRA:                  -0.256
REMARK UNBOUND:                -0.237
REMARK SMILES O=c1c(O)c(-c2ccc(O)c(O)c2)oc2cc(O)ccc12
REMARK SMILES IDX 5 1 3 2 2 3 1 4 21 5 15 6 14 7 16 8 17 9 19 10 20 11 6 12
REMARK SMILES IDX 7 13 8 14 9 15 13 16 11 17 10 18 12 20 4 22 18 24
REMARK H PARENT 10 19 12 21 4 23 18 25
REMARK Flexibility Score: inf
ROOT
ATOM      1  C   UNL     1     163.023 157.153 163.914  1.00  0.00     0.180 A 
ATOM      2  C   UNL     1     164.387 157.253 163.567  1.00  0.00     0.208 A 
ATOM      3  C   UNL     1     164.952 158.527 163.407  1.00  0.00     0.235 A 
ATOM      4  O   UNL     1     166.167 158.642 163.085  1.00  0.00    -0.285 OA
ATOM      5  C   UNL     1     164.158 159.666 163.615  1.00  0.00     0.069 A 
ATOM      6  C   UNL     1     162.809 159.483 163.985  1.00  0.00     0.142 A 
ATOM      7  O   UNL     1     162.309 158.259 164.118  1.00  0.00    -0.452 OA
ATOM      8  C   UNL     1     161.988 160.592 164.211  1.00  0.00     0.094 A 
ATOM      9  C   UNL     1     162.498 161.887 164.072  1.00  0.00     0.119 A 
ATOM     10  C   UNL     1     163.837 162.074 163.703  1.00  0.00     0.047 A 
ATOM     11  C   UNL     1     164.666 160.971 163.476  1.00  0.00     0.020 A 
ENDROOT
BRANCH   1  12
ATOM     12  C   UNL     1     162.348 155.846 164.084  1.00  0.00     0.025 A 
ATOM     13  C   UNL     1     161.962 155.430 165.366  1.00  0.00     0.016 A 
ATOM     14  C   UNL     1     161.305 154.210 165.546  1.00  0.00     0.051 A 
ATOM     15  C   UNL     1     161.012 153.395 164.449  1.00  0.00     0.157 A 
ATOM     16  C   UNL     1     162.035 155.036 162.978  1.00  0.00     0.062 A 
ATOM     17  C   UNL     1     161.374 153.811 163.157  1.00  0.00     0.158 A 
BRANCH  15  18
ATOM     18  O   UNL     1     160.358 152.183 164.660  1.00  0.00    -0.504 OA
ATOM     19  H   UNL     1     160.303 151.469 163.942  1.00  0.00     0.293 HD
ENDBRANCH  15  18
BRANCH  17  20
ATOM     20  O   UNL     1     161.071 153.011 162.055  1.00  0.00    -0.504 OA
ATOM     21  H   UNL     1     160.160 152.585 161.943  1.00  0.00     0.293 HD
ENDBRANCH  17  20
ENDBRANCH   1  12
BRANCH   2  22
ATOM     22  O   UNL     1     165.163 156.103 163.413  1.00  0.00    -0.502 OA
ATOM     23  H   UNL     1     165.991 156.081 162.829  1.00  0.00     0.293 HD
ENDBRANCH   2  22
BRANCH   9  24
ATOM     24  O   UNL     1     161.667 162.981 164.301  1.00  0.00    -0.508 OA
ATOM     25  H   UNL     1     161.027 163.318 163.592  1.00  0.00     0.293 HD
ENDBRANCH   9  24
TORSDOF 5
ENDMDL
MODEL 6
REMARK VINA RESULT:    -5.608      5.721      9.036
REMARK INTER + INTRA:          -6.828
REMARK INTER:                  -6.513
REMARK INTRA:                  -0.316
REMARK UNBOUND:                -0.237
REMARK SMILES O=c1c(O)c(-c2ccc(O)c(O)c2)oc2cc(O)ccc12
REMARK SMILES IDX 5 1 3 2 2 3 1 4 21 5 15 6 14 7 16 8 17 9 19 10 20 11 6 12
REMARK SMILES IDX 7 13 8 14 9 15 13 16 11 17 10 18 12 20 4 22 18 24
REMARK H PARENT 10 19 12 21 4 23 18 25
REMARK Flexibility Score: inf
ROOT
ATOM      1  C   UNL     1     163.319 156.889 163.975  1.00  0.00     0.180 A 
ATOM      2  C   UNL     1     162.463 156.068 164.739  1.00  0.00     0.208 A 
ATOM      3  C   UNL     1     162.390 154.700 164.436  1.00  0.00     0.235 A 
ATOM      4  O   UNL     1     161.624 153.947 165.097  1.00  0.00    -0.285 OA
ATOM      5  C   UNL     1     163.181 154.179 163.399  1.00  0.00     0.069 A 
ATOM      6  C   UNL     1     164.030 155.062 162.698  1.00  0.00     0.142 A 
ATOM      7  O   UNL     1     164.063 156.353 163.011  1.00  0.00    -0.452 OA
ATOM      8  C   UNL     1     164.841 154.580 161.665  1.00  0.00     0.094 A 
ATOM      9  C   UNL     1     164.815 153.225 161.321  1.00  0.00     0.119 A 
ATOM     10  C   UNL     1     163.972 152.345 162.014  1.00  0.00     0.047 A 
ATOM     11  C   UNL     1     163.158 152.816 163.049  1.00  0.00     0.020 A 
ENDROOT
BRANCH   1  12
ATOM     12  C   UNL     1     163.438 158.344 164.221  1.00  0.00     0.025 A 
ATOM     13  C   UNL     1     164.370 158.812 165.159  1.00  0.00     0.016 A 
ATOM     14  C   UNL     1     164.513 160.182 165.392  1.00  0.00     0.051 A 
ATOM     15  C   UNL     1     163.741 161.105 164.681  1.00  0.00     0.157 A 
ATOM     16  C   UNL     1     162.675 159.274 163.492  1.00  0.00     0.062 A 
ATOM     17  C   UNL     1     162.819 160.650 163.723  1.00  0.00     0.158 A 
BRANCH  15  18
ATOM     18  O   UNL     1     163.904 162.465 164.936  1.00  0.00    -0.504 OA
ATOM     19  H   UNL     1     164.482 162.805 165.695  1.00  0.00     0.293 HD
ENDBRANCH  15  18
BRANCH  17  20
ATOM     20  O   UNL     1     162.055 161.566 162.999  1.00  0.00    -0.504 OA
ATOM     21  H   UNL     1     162.101 161.614 161.989  1.00  0.00     0.293 HD
ENDBRANCH  17  20
ENDBRANCH   1  12
BRANCH   2  22
ATOM     22  O   UNL     1     161.725 156.605 165.796  1.00  0.00    -0.502 OA
ATOM     23  H   UNL     1     160.713 156.556 165.831  1.00  0.00     0.293 HD
ENDBRANCH   2  22
BRANCH   9  24
ATOM     24  O   UNL     1     165.629 152.762 160.290  1.00  0.00    -0.508 OA
ATOM     25  H   UNL     1     165.571 153.148 159.355  1.00  0.00     0.293 HD
ENDBRANCH   9  24
TORSDOF 5
ENDMDL
MODEL 7
REMARK VINA RESULT:    -5.427      6.796     10.314
REMARK INTER + INTRA:          -6.616
REMARK INTER:                  -6.317
REMARK INTRA:                  -0.299
REMARK UNBOUND:                -0.237
REMARK SMILES O=c1c(O)c(-c2ccc(O)c(O)c2)oc2cc(O)ccc12
REMARK SMILES IDX 5 1 3 2 2 3 1 4 21 5 15 6 14 7 16 8 17 9 19 10 20 11 6 12
REMARK SMILES IDX 7 13 8 14 9 15 13 16 11 17 10 18 12 20 4 22 18 24
REMARK H PARENT 10 19 12 21 4 23 18 25
REMARK Flexibility Score: inf
ROOT
ATOM      1  C   UNL     1     163.345 155.767 163.351  1.00  0.00     0.180 A 
ATOM      2  C   UNL     1     162.910 156.941 163.999  1.00  0.00     0.208 A 
ATOM      3  C   UNL     1     163.643 158.124 163.819  1.00  0.00     0.235 A 
ATOM      4  O   UNL     1     163.280 159.185 164.398  1.00  0.00    -0.285 OA
ATOM      5  C   UNL     1     164.773 158.116 162.986  1.00  0.00     0.069 A 
ATOM      6  C   UNL     1     165.129 156.907 162.353  1.00  0.00     0.142 A 
ATOM      7  O   UNL     1     164.413 155.806 162.557  1.00  0.00    -0.452 OA
ATOM      8  C   UNL     1     166.243 156.860 161.508  1.00  0.00     0.094 A 
ATOM      9  C   UNL     1     167.009 158.009 161.286  1.00  0.00     0.119 A 
ATOM     10  C   UNL     1     166.660 159.212 161.914  1.00  0.00     0.047 A 
ATOM     11  C   UNL     1     165.548 159.270 162.760  1.00  0.00     0.020 A 
ENDROOT
BRANCH   1  12
ATOM     12  C   UNL     1     162.637 154.476 163.505  1.00  0.00     0.025 A 
ATOM     13  C   UNL     1     163.080 153.557 164.467  1.00  0.00     0.016 A 
ATOM     14  C   UNL     1     162.414 152.340 164.643  1.00  0.00     0.051 A 
ATOM     15  C   UNL     1     161.290 152.031 163.873  1.00  0.00     0.157 A 
ATOM     16  C   UNL     1     161.493 154.173 162.744  1.00  0.00     0.062 A 
ATOM     17  C   UNL     1     160.823 152.953 162.921  1.00  0.00     0.158 A 
BRANCH  15  18
ATOM     18  O   UNL     1     160.648 150.810 164.069  1.00  0.00    -0.504 OA
ATOM     19  H   UNL     1     160.453 150.446 164.995  1.00  0.00     0.293 HD
ENDBRANCH  15  18
BRANCH  17  20
ATOM     20  O   UNL     1     159.692 152.658 162.160  1.00  0.00    -0.504 OA
ATOM     21  H   UNL     1     159.552 151.742 161.752  1.00  0.00     0.293 HD
ENDBRANCH  17  20
ENDBRANCH   1  12
BRANCH   2  22
ATOM     22  O   UNL     1     161.754 156.930 164.783  1.00  0.00    -0.502 OA
ATOM     23  H   UNL     1     161.171 156.108 164.877  1.00  0.00     0.293 HD
ENDBRANCH   2  22
BRANCH   9  24
ATOM     24  O   UNL     1     168.114 157.945 160.442  1.00  0.00    -0.508 OA
ATOM     25  H   UNL     1     169.056 158.083 160.789  1.00  0.00     0.293 HD
ENDBRANCH   9  24
TORSDOF 5
ENDMDL
MODEL 8
REMARK VINA RESULT:    -5.388      7.216     10.040
REMARK INTER + INTRA:          -6.570
REMARK INTER:                  -6.539
REMARK INTRA:                  -0.031
REMARK UNBOUND:                -0.237
REMARK SMILES O=c1c(O)c(-c2ccc(O)c(O)c2)oc2cc(O)ccc12
REMARK SMILES IDX 5 1 3 2 2 3 1 4 21 5 15 6 14 7 16 8 17 9 19 10 20 11 6 12
REMARK SMILES IDX 7 13 8 14 9 15 13 16 11 17 10 18 12 20 4 22 18 24
REMARK H PARENT 10 19 12 21 4 23 18 25
REMARK Flexibility Score: inf
ROOT
ATOM      1  C   UNL     1     164.761 155.576 162.763  1.00  0.00     0.180 A 
ATOM      2  C   UNL     1     165.181 154.542 161.900  1.00  0.00     0.208 A 
ATOM      3  C   UNL     1     164.449 153.345 161.873  1.00  0.00     0.235 A 
ATOM      4  O   UNL     1     164.811 152.402 161.118  1.00  0.00    -0.285 OA
ATOM      5  C   UNL     1     163.309 153.214 162.683  1.00  0.00     0.069 A 
ATOM      6  C   UNL     1     162.940 154.303 163.500  1.00  0.00     0.142 A 
ATOM      7  O   UNL     1     163.667 155.416 163.504  1.00  0.00    -0.452 OA
ATOM      8  C   UNL     1     161.806 154.215 164.314  1.00  0.00     0.094 A 
ATOM      9  C   UNL     1     161.034 153.050 164.324  1.00  0.00     0.119 A 
ATOM     10  C   UNL     1     161.398 151.964 163.515  1.00  0.00     0.047 A 
ATOM     11  C   UNL     1     162.529 152.043 162.696  1.00  0.00     0.020 A 
ENDROOT
BRANCH   1  12
ATOM     12  C   UNL     1     165.491 156.861 162.864  1.00  0.00     0.025 A 
ATOM     13  C   UNL     1     165.967 157.286 164.113  1.00  0.00     0.016 A 
ATOM     14  C   UNL     1     166.676 158.486 164.228  1.00  0.00     0.051 A 
ATOM     15  C   UNL     1     166.932 159.267 163.098  1.00  0.00     0.157 A 
ATOM     16  C   UNL     1     165.766 157.637 161.725  1.00  0.00     0.062 A 
ATOM     17  C   UNL     1     166.479 158.840 161.839  1.00  0.00     0.158 A 
BRANCH  15  18
ATOM     18  O   UNL     1     167.639 160.460 163.244  1.00  0.00    -0.504 OA
ATOM     19  H   UNL     1     167.583 161.019 164.087  1.00  0.00     0.293 HD
ENDBRANCH  15  18
BRANCH  17  20
ATOM     20  O   UNL     1     166.743 159.608 160.705  1.00  0.00    -0.504 OA
ATOM     21  H   UNL     1     166.340 160.528 160.581  1.00  0.00     0.293 HD
ENDBRANCH  17  20
ENDBRANCH   1  12
BRANCH   2  22
ATOM     22  O   UNL     1     166.290 154.720 161.071  1.00  0.00    -0.502 OA
ATOM     23  H   UNL     1     167.221 154.879 161.437  1.00  0.00     0.293 HD
ENDBRANCH   2  22
BRANCH   9  24
ATOM     24  O   UNL     1     159.908 152.979 165.140  1.00  0.00    -0.508 OA
ATOM     25  H   UNL     1     159.343 152.139 165.192  1.00  0.00     0.293 HD
ENDBRANCH   9  24
TORSDOF 5
ENDMDL
MODEL 9
REMARK VINA RESULT:    -5.167      5.715      9.460
REMARK INTER + INTRA:          -6.310
REMARK INTER:                  -6.050
REMARK INTRA:                  -0.260
REMARK UNBOUND:                -0.237
REMARK SMILES O=c1c(O)c(-c2ccc(O)c(O)c2)oc2cc(O)ccc12
REMARK SMILES IDX 5 1 3 2 2 3 1 4 21 5 15 6 14 7 16 8 17 9 19 10 20 11 6 12
REMARK SMILES IDX 7 13 8 14 9 15 13 16 11 17 10 18 12 20 4 22 18 24
REMARK H PARENT 10 19 12 21 4 23 18 25
REMARK Flexibility Score: inf
ROOT
ATOM      1  C   UNL     1     164.522 156.559 163.543  1.00  0.00     0.180 A 
ATOM      2  C   UNL     1     165.774 156.958 164.056  1.00  0.00     0.208 A 
ATOM      3  C   UNL     1     165.943 158.289 164.466  1.00  0.00     0.235 A 
ATOM      4  O   UNL     1     167.057 158.673 164.918  1.00  0.00    -0.285 OA
ATOM      5  C   UNL     1     164.863 159.182 164.377  1.00  0.00     0.069 A 
ATOM      6  C   UNL     1     163.636 158.699 163.876  1.00  0.00     0.142 A 
ATOM      7  O   UNL     1     163.519 157.434 163.490  1.00  0.00    -0.452 OA
ATOM      8  C   UNL     1     162.533 159.555 163.780  1.00  0.00     0.094 A 
ATOM      9  C   UNL     1     162.641 160.891 164.179  1.00  0.00     0.119 A 
ATOM     10  C   UNL     1     163.859 161.376 164.676  1.00  0.00     0.047 A 
ATOM     11  C   UNL     1     164.967 160.528 164.777  1.00  0.00     0.020 A 
ENDROOT
BRANCH   1  12
ATOM     12  C   UNL     1     164.269 155.178 163.072  1.00  0.00     0.025 A 
ATOM     13  C   UNL     1     163.430 154.338 163.819  1.00  0.00     0.016 A 
ATOM     14  C   UNL     1     163.161 153.038 163.382  1.00  0.00     0.051 A 
ATOM     15  C   UNL     1     163.712 152.564 162.189  1.00  0.00     0.157 A 
ATOM     16  C   UNL     1     164.807 154.708 161.862  1.00  0.00     0.062 A 
ATOM     17  C   UNL     1     164.536 153.404 161.421  1.00  0.00     0.158 A 
BRANCH  15  18
ATOM     18  O   UNL     1     163.429 151.262 161.780  1.00  0.00    -0.504 OA
ATOM     19  H   UNL     1     164.152 150.560 161.678  1.00  0.00     0.293 HD
ENDBRANCH  15  18
BRANCH  17  20
ATOM     20  O   UNL     1     165.079 152.943 160.221  1.00  0.00    -0.504 OA
ATOM     21  H   UNL     1     166.077 152.828 160.100  1.00  0.00     0.293 HD
ENDBRANCH  17  20
ENDBRANCH   1  12
BRANCH   2  22
ATOM     22  O   UNL     1     166.815 156.035 164.178  1.00  0.00    -0.502 OA
ATOM     23  H   UNL     1     167.770 156.317 164.363  1.00  0.00     0.293 HD
ENDBRANCH   2  22
BRANCH   9  24
ATOM     24  O   UNL     1     161.534 161.730 164.078  1.00  0.00    -0.508 OA
ATOM     25  H   UNL     1     161.054 161.870 163.196  1.00  0.00     0.293 HD
ENDBRANCH   9  24
TORSDOF 5
ENDMDL
