MODEL 1
REMARK VINA RESULT:    26.607      0.000      0.000
REMARK INTER + INTRA:          60.308
REMARK INTER:                  60.828
REMARK INTRA:                  -0.520
REMARK UNBOUND:                -0.520
REMARK SMILES CCCCCCCCCCCCCCCCCCCCCCCC(=O)[O-]
REMARK SMILES IDX 13 1 14 2 15 3 16 4 17 5 18 6 19 7 20 8 21 9 22 10 23 11
REMARK SMILES IDX 24 12 25 13 26 14 12 15 11 16 10 17 9 18 8 19 7 20 6 21 5 22
REMARK SMILES IDX 4 23 3 24 2 25 1 26
REMARK H PARENT
REMARK Flexibility Score: inf
ROOT
ATOM      1  C   UNL     1      10.953   6.120   9.240  1.00  0.00     0.000 C 
ENDROOT
BRANCH   1   2
ATOM      2  C   UNL     1      11.843   6.711   8.125  1.00  0.00     0.000 C 
BRANCH   2   3
ATOM      3  C   UNL     1      13.209   6.013   7.980  1.00  0.00     0.000 C 
BRANCH   3   4
ATOM      4  C   UNL     1      14.361   6.920   7.517  1.00  0.00     0.000 C 
BRANCH   4   5
ATOM      5  C   UNL     1      15.292   6.306   6.451  1.00  0.00     0.000 C 
BRANCH   5   6
ATOM      6  C   UNL     1      15.818   4.901   6.817  1.00  0.00     0.000 C 
BRANCH   6   7
ATOM      7  C   UNL     1      17.337   4.886   7.036  1.00  0.00     0.000 C 
BRANCH   7   8
ATOM      8  C   UNL     1      17.750   5.912   8.101  1.00  0.00     0.000 C 
BRANCH   8   9
ATOM      9  C   UNL     1      16.736   6.019   9.254  1.00  0.00     0.000 C 
BRANCH   9  10
ATOM     10  C   UNL     1      16.706   7.378   9.980  1.00  0.00     0.006 C 
BRANCH  10  11
ATOM     11  C   UNL     1      18.095   8.017  10.175  1.00  0.00     0.053 C 
BRANCH  11  12
ATOM     12  C   UNL     1      18.107   9.472   9.814  1.00  0.00     0.041 C 
ATOM     13  O   UNL     1      18.113  10.351  10.718  1.00  0.00    -0.550 OA
ATOM     14  O   UNL     1      18.115   9.858   8.480  1.00  0.00    -0.550 OA
ENDBRANCH  11  12
ENDBRANCH  10  11
ENDBRANCH   9  10
ENDBRANCH   8   9
ENDBRANCH   7   8
ENDBRANCH   6   7
ENDBRANCH   5   6
ENDBRANCH   4   5
ENDBRANCH   3   4
ENDBRANCH   2   3
ENDBRANCH   1   2
BRANCH   1  15
ATOM     15  C   UNL     1      10.121   4.922   8.754  1.00  0.00     0.000 C 
BRANCH  15  16
ATOM     16  C   UNL     1      10.298   4.646   7.250  1.00  0.00     0.000 C 
BRANCH  16  17
ATOM     17  C   UNL     1      10.874   3.257   6.920  1.00  0.00     0.000 C 
BRANCH  17  18
ATOM     18  C   UNL     1      10.555   2.213   8.003  1.00  0.00    -0.000 C 
BRANCH  18  19
ATOM     19  C   UNL     1      10.591   0.789   7.427  1.00  0.00    -0.000 C 
BRANCH  19  20
ATOM     20  C   UNL     1      11.484  -0.166   8.241  1.00  0.00    -0.000 C 
BRANCH  20  21
ATOM     21  C   UNL     1      12.215  -1.244   7.417  1.00  0.00    -0.000 C 
BRANCH  21  22
ATOM     22  C   UNL     1      12.397  -2.561   8.186  1.00  0.00    -0.000 C 
BRANCH  22  23
ATOM     23  C   UNL     1      11.229  -3.543   7.974  1.00  0.00    -0.000 C 
BRANCH  23  24
ATOM     24  C   UNL     1      11.533  -5.012   8.322  1.00  0.00    -0.000 C 
BRANCH  24  25
ATOM     25  C   UNL     1      11.364  -5.321   9.818  1.00  0.00    -0.003 C 
ATOM     26  C   UNL     1      11.973  -6.675  10.172  1.00  0.00     0.004 C 
ENDBRANCH  24  25
ENDBRANCH  23  24
ENDBRANCH  22  23
ENDBRANCH  21  22
ENDBRANCH  20  21
ENDBRANCH  19  20
ENDBRANCH  18  19
ENDBRANCH  17  18
ENDBRANCH  16  17
ENDBRANCH  15  16
ENDBRANCH   1  15
TORSDOF 22
ENDMDL
MODEL 2
REMARK VINA RESULT:    27.777      4.979      9.954
REMARK INTER + INTRA:          62.983
REMARK INTER:                  61.970
REMARK INTRA:                   1.014
REMARK UNBOUND:                -0.520
REMARK SMILES CCCCCCCCCCCCCCCCCCCCCCCC(=O)[O-]
REMARK SMILES IDX 13 1 14 2 15 3 16 4 17 5 18 6 19 7 20 8 21 9 22 10 23 11
REMARK SMILES IDX 24 12 25 13 26 14 12 15 11 16 10 17 9 18 8 19 7 20 6 21 5 22
REMARK SMILES IDX 4 23 3 24 2 25 1 26
REMARK H PARENT
REMARK Flexibility Score: inf
ROOT
ATOM      1  C   UNL     1      10.058   3.082   9.775  1.00  0.00     0.000 C 
ENDROOT
BRANCH   1   2
ATOM      2  C   UNL     1      11.126   1.968   9.767  1.00  0.00     0.000 C 
BRANCH   2   3
ATOM      3  C   UNL     1      11.060   1.048   8.532  1.00  0.00     0.000 C 
BRANCH   3   4
ATOM      4  C   UNL     1      11.718  -0.331   8.707  1.00  0.00     0.000 C 
BRANCH   4   5
ATOM      5  C   UNL     1      12.384  -0.905   7.440  1.00  0.00     0.000 C 
BRANCH   5   6
ATOM      6  C   UNL     1      13.033  -2.290   7.648  1.00  0.00     0.000 C 
BRANCH   6   7
ATOM      7  C   UNL     1      13.821  -2.373   8.962  1.00  0.00     0.000 C 
BRANCH   7   8
ATOM      8  C   UNL     1      14.278  -3.811   9.242  1.00  0.00     0.000 C 
BRANCH   8   9
ATOM      9  C   UNL     1      15.695  -4.102   8.718  1.00  0.00     0.000 C 
BRANCH   9  10
ATOM     10  C   UNL     1      16.781  -4.246   9.803  1.00  0.00     0.006 C 
BRANCH  10  11
ATOM     11  C   UNL     1      17.782  -5.388   9.542  1.00  0.00     0.053 C 
BRANCH  11  12
ATOM     12  C   UNL     1      17.973  -5.654   8.079  1.00  0.00     0.041 C 
ATOM     13  O   UNL     1      18.004  -4.696   7.259  1.00  0.00    -0.550 OA
ATOM     14  O   UNL     1      18.122  -6.956   7.621  1.00  0.00    -0.550 OA
ENDBRANCH  11  12
ENDBRANCH  10  11
ENDBRANCH   9  10
ENDBRANCH   8   9
ENDBRANCH   7   8
ENDBRANCH   6   7
ENDBRANCH   5   6
ENDBRANCH   4   5
ENDBRANCH   3   4
ENDBRANCH   2   3
ENDBRANCH   1   2
BRANCH   1  15
ATOM     15  C   UNL     1      10.360   4.192   8.755  1.00  0.00     0.000 C 
BRANCH  15  16
ATOM     16  C   UNL     1       9.479   4.099   7.496  1.00  0.00     0.000 C 
BRANCH  16  17
ATOM     17  C   UNL     1      10.264   4.007   6.174  1.00  0.00     0.000 C 
BRANCH  17  18
ATOM     18  C   UNL     1      11.428   5.010   6.108  1.00  0.00    -0.000 C 
BRANCH  18  19
ATOM     19  C   UNL     1      11.772   5.552   7.503  1.00  0.00    -0.000 C 
BRANCH  19  20
ATOM     20  C   UNL     1      11.726   7.089   7.579  1.00  0.00    -0.000 C 
BRANCH  20  21
ATOM     21  C   UNL     1      13.075   7.799   7.348  1.00  0.00    -0.000 C 
BRANCH  21  22
ATOM     22  C   UNL     1      14.153   7.374   8.356  1.00  0.00    -0.000 C 
BRANCH  22  23
ATOM     23  C   UNL     1      15.241   6.484   7.726  1.00  0.00    -0.000 C 
BRANCH  23  24
ATOM     24  C   UNL     1      16.440   6.166   8.639  1.00  0.00    -0.000 C 
BRANCH  24  25
ATOM     25  C   UNL     1      16.544   7.112   9.845  1.00  0.00    -0.003 C 
ATOM     26  C   UNL     1      17.468   8.288   9.543  1.00  0.00     0.004 C 
ENDBRANCH  24  25
ENDBRANCH  23  24
ENDBRANCH  22  23
ENDBRANCH  21  22
ENDBRANCH  20  21
ENDBRANCH  19  20
ENDBRANCH  18  19
ENDBRANCH  17  18
ENDBRANCH  16  17
ENDBRANCH  15  16
ENDBRANCH   1  15
TORSDOF 22
ENDMDL
MODEL 3
REMARK VINA RESULT:    27.876      4.115     10.089
REMARK INTER + INTRA:          63.209
REMARK INTER:                  62.941
REMARK INTRA:                   0.268
REMARK UNBOUND:                -0.520
REMARK SMILES CCCCCCCCCCCCCCCCCCCCCCCC(=O)[O-]
REMARK SMILES IDX 13 1 14 2 15 3 16 4 17 5 18 6 19 7 20 8 21 9 22 10 23 11
REMARK SMILES IDX 24 12 25 13 26 14 12 15 11 16 10 17 9 18 8 19 7 20 6 21 5 22
REMARK SMILES IDX 4 23 3 24 2 25 1 26
REMARK H PARENT
REMARK Flexibility Score: inf
ROOT
ATOM      1  C   UNL     1      14.675   6.285   7.552  1.00  0.00     0.000 C 
ENDROOT
BRANCH   1   2
ATOM      2  C   UNL     1      14.258   7.771   7.569  1.00  0.00     0.000 C 
BRANCH   2   3
ATOM      3  C   UNL     1      12.783   8.011   7.190  1.00  0.00     0.000 C 
BRANCH   3   4
ATOM      4  C   UNL     1      11.772   7.077   7.876  1.00  0.00     0.000 C 
BRANCH   4   5
ATOM      5  C   UNL     1      11.410   5.806   7.080  1.00  0.00     0.000 C 
BRANCH   5   6
ATOM      6  C   UNL     1      11.662   4.493   7.852  1.00  0.00     0.000 C 
BRANCH   6   7
ATOM      7  C   UNL     1      10.534   4.174   8.843  1.00  0.00     0.000 C 
BRANCH   7   8
ATOM      8  C   UNL     1      10.637   2.728   9.348  1.00  0.00     0.000 C 
BRANCH   8   9
ATOM      9  C   UNL     1      10.028   1.708   8.371  1.00  0.00     0.000 C 
BRANCH   9  10
ATOM     10  C   UNL     1      10.558   0.267   8.509  1.00  0.00     0.006 C 
BRANCH  10  11
ATOM     11  C   UNL     1      10.929  -0.398   7.170  1.00  0.00     0.053 C 
BRANCH  11  12
ATOM     12  C   UNL     1      12.120  -1.300   7.293  1.00  0.00     0.041 C 
ATOM     13  O   UNL     1      12.660  -1.488   8.417  1.00  0.00    -0.550 OA
ATOM     14  O   UNL     1      12.631  -1.936   6.169  1.00  0.00    -0.550 OA
ENDBRANCH  11  12
ENDBRANCH  10  11
ENDBRANCH   9  10
ENDBRANCH   8   9
ENDBRANCH   7   8
ENDBRANCH   6   7
ENDBRANCH   5   6
ENDBRANCH   4   5
ENDBRANCH   3   4
ENDBRANCH   2   3
ENDBRANCH   1   2
BRANCH   1  15
ATOM     15  C   UNL     1      15.452   5.909   6.280  1.00  0.00     0.000 C 
BRANCH  15  16
ATOM     16  C   UNL     1      15.349   4.410   5.942  1.00  0.00     0.000 C 
BRANCH  16  17
ATOM     17  C   UNL     1      16.684   3.646   6.014  1.00  0.00     0.000 C 
BRANCH  17  18
ATOM     18  C   UNL     1      17.787   4.451   6.720  1.00  0.00    -0.000 C 
BRANCH  18  19
ATOM     19  C   UNL     1      17.247   5.145   7.979  1.00  0.00    -0.000 C 
BRANCH  19  20
ATOM     20  C   UNL     1      18.060   6.393   8.373  1.00  0.00    -0.000 C 
BRANCH  20  21
ATOM     21  C   UNL     1      17.968   6.795   9.859  1.00  0.00    -0.000 C 
BRANCH  21  22
ATOM     22  C   UNL     1      16.673   7.550  10.194  1.00  0.00    -0.000 C 
BRANCH  22  23
ATOM     23  C   UNL     1      16.727   9.036   9.791  1.00  0.00    -0.000 C 
BRANCH  23  24
ATOM     24  C   UNL     1      18.125   9.680   9.839  1.00  0.00    -0.000 C 
BRANCH  24  25
ATOM     25  C   UNL     1      18.096  11.196   9.593  1.00  0.00    -0.003 C 
ATOM     26  C   UNL     1      17.368  11.527   8.293  1.00  0.00     0.004 C 
ENDBRANCH  24  25
ENDBRANCH  23  24
ENDBRANCH  22  23
ENDBRANCH  21  22
ENDBRANCH  20  21
ENDBRANCH  19  20
ENDBRANCH  18  19
ENDBRANCH  17  18
ENDBRANCH  16  17
ENDBRANCH  15  16
ENDBRANCH   1  15
TORSDOF 22
ENDMDL
MODEL 4
REMARK VINA RESULT:    28.247      4.805     10.836
REMARK INTER + INTRA:          64.057
REMARK INTER:                  63.206
REMARK INTRA:                   0.851
REMARK UNBOUND:                -0.520
REMARK SMILES CCCCCCCCCCCCCCCCCCCCCCCC(=O)[O-]
REMARK SMILES IDX 13 1 14 2 15 3 16 4 17 5 18 6 19 7 20 8 21 9 22 10 23 11
REMARK SMILES IDX 24 12 25 13 26 14 12 15 11 16 10 17 9 18 8 19 7 20 6 21 5 22
REMARK SMILES IDX 4 23 3 24 2 25 1 26
REMARK H PARENT
REMARK Flexibility Score: inf
ROOT
ATOM      1  C   UNL     1      11.915   4.470   7.222  1.00  0.00     0.000 C 
ENDROOT
BRANCH   1   2
ATOM      2  C   UNL     1      10.459   4.766   7.640  1.00  0.00     0.000 C 
BRANCH   2   3
ATOM      3  C   UNL     1      10.152   4.436   9.113  1.00  0.00     0.000 C 
BRANCH   3   4
ATOM      4  C   UNL     1      10.727   3.101   9.618  1.00  0.00     0.000 C 
BRANCH   4   5
ATOM      5  C   UNL     1       9.800   1.880   9.443  1.00  0.00     0.000 C 
BRANCH   5   6
ATOM      6  C   UNL     1       9.783   1.309   8.009  1.00  0.00     0.000 C 
BRANCH   6   7
ATOM      7  C   UNL     1      11.021   0.452   7.709  1.00  0.00     0.000 C 
BRANCH   7   8
ATOM      8  C   UNL     1      10.625  -1.002   7.416  1.00  0.00     0.000 C 
BRANCH   8   9
ATOM      9  C   UNL     1      11.585  -1.697   6.434  1.00  0.00     0.000 C 
BRANCH   9  10
ATOM     10  C   UNL     1      11.974  -3.142   6.805  1.00  0.00     0.006 C 
BRANCH  10  11
ATOM     11  C   UNL     1      11.844  -3.463   8.306  1.00  0.00     0.053 C 
BRANCH  11  12
ATOM     12  C   UNL     1      11.434  -4.884   8.551  1.00  0.00     0.041 C 
ATOM     13  O   UNL     1      11.491  -5.370   9.713  1.00  0.00    -0.550 OA
ATOM     14  O   UNL     1      10.985  -5.670   7.498  1.00  0.00    -0.550 OA
ENDBRANCH  11  12
ENDBRANCH  10  11
ENDBRANCH   9  10
ENDBRANCH   8   9
ENDBRANCH   7   8
ENDBRANCH   6   7
ENDBRANCH   5   6
ENDBRANCH   4   5
ENDBRANCH   3   4
ENDBRANCH   2   3
ENDBRANCH   1   2
BRANCH   1  15
ATOM     15  C   UNL     1      12.903   5.520   7.756  1.00  0.00     0.000 C 
BRANCH  15  16
ATOM     16  C   UNL     1      14.225   5.550   6.966  1.00  0.00     0.000 C 
BRANCH  16  17
ATOM     17  C   UNL     1      15.299   4.574   7.481  1.00  0.00     0.000 C 
BRANCH  17  18
ATOM     18  C   UNL     1      16.348   4.233   6.410  1.00  0.00    -0.000 C 
BRANCH  18  19
ATOM     19  C   UNL     1      17.452   5.298   6.358  1.00  0.00    -0.000 C 
BRANCH  19  20
ATOM     20  C   UNL     1      17.796   5.876   7.744  1.00  0.00    -0.000 C 
BRANCH  20  21
ATOM     21  C   UNL     1      16.617   5.957   8.733  1.00  0.00    -0.000 C 
BRANCH  21  22
ATOM     22  C   UNL     1      16.360   7.385   9.239  1.00  0.00    -0.000 C 
BRANCH  22  23
ATOM     23  C   UNL     1      17.373   7.831  10.310  1.00  0.00    -0.000 C 
BRANCH  23  24
ATOM     24  C   UNL     1      18.122   9.141  10.002  1.00  0.00    -0.000 C 
BRANCH  24  25
ATOM     25  C   UNL     1      17.261  10.159   9.238  1.00  0.00    -0.003 C 
ATOM     26  C   UNL     1      18.124  11.263   8.632  1.00  0.00     0.004 C 
ENDBRANCH  24  25
ENDBRANCH  23  24
ENDBRANCH  22  23
ENDBRANCH  21  22
ENDBRANCH  20  21
ENDBRANCH  19  20
ENDBRANCH  18  19
ENDBRANCH  17  18
ENDBRANCH  16  17
ENDBRANCH  15  16
ENDBRANCH   1  15
TORSDOF 22
ENDMDL
MODEL 5
REMARK VINA RESULT:    28.582      4.810     10.369
REMARK INTER + INTRA:          64.822
REMARK INTER:                  64.772
REMARK INTRA:                   0.050
REMARK UNBOUND:                -0.520
REMARK SMILES CCCCCCCCCCCCCCCCCCCCCCCC(=O)[O-]
REMARK SMILES IDX 13 1 14 2 15 3 16 4 17 5 18 6 19 7 20 8 21 9 22 10 23 11
REMARK SMILES IDX 24 12 25 13 26 14 12 15 11 16 10 17 9 18 8 19 7 20 6 21 5 22
REMARK SMILES IDX 4 23 3 24 2 25 1 26
REMARK H PARENT
REMARK Flexibility Score: inf
ROOT
ATOM      1  C   UNL     1      11.733   5.116   7.689  1.00  0.00     0.000 C 
ENDROOT
BRANCH   1   2
ATOM      2  C   UNL     1      10.378   4.416   7.453  1.00  0.00     0.000 C 
BRANCH   2   3
ATOM      3  C   UNL     1      10.112   3.232   8.403  1.00  0.00     0.000 C 
BRANCH   3   4
ATOM      4  C   UNL     1      11.243   2.194   8.487  1.00  0.00     0.000 C 
BRANCH   4   5
ATOM      5  C   UNL     1      10.802   0.775   8.902  1.00  0.00     0.000 C 
BRANCH   5   6
ATOM      6  C   UNL     1      10.752  -0.231   7.732  1.00  0.00     0.000 C 
BRANCH   6   7
ATOM      7  C   UNL     1      12.150  -0.706   7.312  1.00  0.00     0.000 C 
BRANCH   7   8
ATOM      8  C   UNL     1      12.769  -1.613   8.385  1.00  0.00     0.000 C 
BRANCH   8   9
ATOM      9  C   UNL     1      12.523  -3.108   8.118  1.00  0.00     0.000 C 
BRANCH   9  10
ATOM     10  C   UNL     1      11.164  -3.649   8.604  1.00  0.00     0.006 C 
BRANCH  10  11
ATOM     11  C   UNL     1      11.057  -5.187   8.587  1.00  0.00     0.053 C 
BRANCH  11  12
ATOM     12  C   UNL     1      11.921  -5.829   9.630  1.00  0.00     0.041 C 
ATOM     13  O   UNL     1      11.524  -6.861  10.237  1.00  0.00    -0.550 OA
ATOM     14  O   UNL     1      13.167  -5.292   9.930  1.00  0.00    -0.550 OA
ENDBRANCH  11  12
ENDBRANCH  10  11
ENDBRANCH   9  10
ENDBRANCH   8   9
ENDBRANCH   7   8
ENDBRANCH   6   7
ENDBRANCH   5   6
ENDBRANCH   4   5
ENDBRANCH   3   4
ENDBRANCH   2   3
ENDBRANCH   1   2
BRANCH   1  15
ATOM     15  C   UNL     1      11.574   6.615   7.995  1.00  0.00     0.000 C 
BRANCH  15  16
ATOM     16  C   UNL     1      12.735   7.462   7.443  1.00  0.00     0.000 C 
BRANCH  16  17
ATOM     17  C   UNL     1      14.036   7.372   8.261  1.00  0.00     0.000 C 
BRANCH  17  18
ATOM     18  C   UNL     1      15.289   7.617   7.405  1.00  0.00    -0.000 C 
BRANCH  18  19
ATOM     19  C   UNL     1      15.508   6.472   6.404  1.00  0.00    -0.000 C 
BRANCH  19  20
ATOM     20  C   UNL     1      15.564   5.088   7.077  1.00  0.00    -0.000 C 
BRANCH  20  21
ATOM     21  C   UNL     1      16.870   4.301   6.853  1.00  0.00    -0.000 C 
BRANCH  21  22
ATOM     22  C   UNL     1      18.123   5.096   7.252  1.00  0.00    -0.000 C 
BRANCH  22  23
ATOM     23  C   UNL     1      17.792   6.368   8.055  1.00  0.00    -0.000 C 
BRANCH  23  24
ATOM     24  C   UNL     1      17.978   6.250   9.579  1.00  0.00    -0.000 C 
BRANCH  24  25
ATOM     25  C   UNL     1      17.445   7.472  10.344  1.00  0.00    -0.003 C 
ATOM     26  C   UNL     1      17.728   8.764   9.582  1.00  0.00     0.004 C 
ENDBRANCH  24  25
ENDBRANCH  23  24
ENDBRANCH  22  23
ENDBRANCH  21  22
ENDBRANCH  20  21
ENDBRANCH  19  20
ENDBRANCH  18  19
ENDBRANCH  17  18
ENDBRANCH  16  17
ENDBRANCH  15  16
ENDBRANCH   1  15
TORSDOF 22
ENDMDL
MODEL 6
REMARK VINA RESULT:    29.503      1.405      2.752
REMARK INTER + INTRA:          66.929
REMARK INTER:                  68.025
REMARK INTRA:                  -1.096
REMARK UNBOUND:                -0.520
REMARK SMILES CCCCCCCCCCCCCCCCCCCCCCCC(=O)[O-]
REMARK SMILES IDX 13 1 14 2 15 3 16 4 17 5 18 6 19 7 20 8 21 9 22 10 23 11
REMARK SMILES IDX 24 12 25 13 26 14 12 15 11 16 10 17 9 18 8 19 7 20 6 21 5 22
REMARK SMILES IDX 4 23 3 24 2 25 1 26
REMARK H PARENT
REMARK Flexibility Score: inf
ROOT
ATOM      1  C   UNL     1      11.001   3.286   9.113  1.00  0.00     0.000 C 
ENDROOT
BRANCH   1   2
ATOM      2  C   UNL     1      10.965   3.493   7.584  1.00  0.00     0.000 C 
BRANCH   2   3
ATOM      3  C   UNL     1      10.946   4.973   7.154  1.00  0.00     0.000 C 
BRANCH   3   4
ATOM      4  C   UNL     1      11.625   5.947   8.132  1.00  0.00     0.000 C 
BRANCH   4   5
ATOM      5  C   UNL     1      12.917   6.608   7.608  1.00  0.00     0.000 C 
BRANCH   5   6
ATOM      6  C   UNL     1      14.165   5.705   7.707  1.00  0.00     0.000 C 
BRANCH   6   7
ATOM      7  C   UNL     1      15.208   6.032   6.629  1.00  0.00     0.000 C 
BRANCH   7   8
ATOM      8  C   UNL     1      16.613   5.607   7.076  1.00  0.00     0.000 C 
BRANCH   8   9
ATOM      9  C   UNL     1      16.768   5.563   8.606  1.00  0.00     0.000 C 
BRANCH   9  10
ATOM     10  C   UNL     1      18.113   6.084   9.148  1.00  0.00     0.006 C 
BRANCH  10  11
ATOM     11  C   UNL     1      18.028   7.471   9.815  1.00  0.00     0.053 C 
BRANCH  11  12
ATOM     12  C   UNL     1      16.618   7.970   9.911  1.00  0.00     0.041 C 
ATOM     13  O   UNL     1      16.240   8.945   9.205  1.00  0.00    -0.550 OA
ATOM     14  O   UNL     1      15.719   7.357  10.774  1.00  0.00    -0.550 OA
ENDBRANCH  11  12
ENDBRANCH  10  11
ENDBRANCH   9  10
ENDBRANCH   8   9
ENDBRANCH   7   8
ENDBRANCH   6   7
ENDBRANCH   5   6
ENDBRANCH   4   5
ENDBRANCH   3   4
ENDBRANCH   2   3
ENDBRANCH   1   2
BRANCH   1  15
ATOM     15  C   UNL     1      10.636   1.849   9.520  1.00  0.00     0.000 C 
BRANCH  15  16
ATOM     16  C   UNL     1      10.813   0.842   8.368  1.00  0.00     0.000 C 
BRANCH  16  17
ATOM     17  C   UNL     1       9.495   0.334   7.757  1.00  0.00     0.000 C 
BRANCH  17  18
ATOM     18  C   UNL     1       9.681  -0.956   6.941  1.00  0.00    -0.000 C 
BRANCH  18  19
ATOM     19  C   UNL     1      10.910  -1.742   7.421  1.00  0.00    -0.000 C 
BRANCH  19  20
ATOM     20  C   UNL     1      10.544  -2.933   8.327  1.00  0.00    -0.000 C 
BRANCH  20  21
ATOM     21  C   UNL     1      10.944  -4.319   7.784  1.00  0.00    -0.000 C 
BRANCH  21  22
ATOM     22  C   UNL     1      12.266  -4.833   8.373  1.00  0.00    -0.000 C 
BRANCH  22  23
ATOM     23  C   UNL     1      12.139  -5.252   9.850  1.00  0.00    -0.000 C 
BRANCH  23  24
ATOM     24  C   UNL     1      12.026  -6.769  10.095  1.00  0.00    -0.000 C 
BRANCH  24  25
ATOM     25  C   UNL     1      11.814  -7.123  11.575  1.00  0.00    -0.003 C 
ATOM     26  C   UNL     1      10.346  -6.981  11.969  1.00  0.00     0.004 C 
ENDBRANCH  24  25
ENDBRANCH  23  24
ENDBRANCH  22  23
ENDBRANCH  21  22
ENDBRANCH  20  21
ENDBRANCH  19  20
ENDBRANCH  18  19
ENDBRANCH  17  18
ENDBRANCH  16  17
ENDBRANCH  15  16
ENDBRANCH   1  15
TORSDOF 22
ENDMDL
