MODEL 1
REMARK VINA RESULT:    -2.368      0.000      0.000
REMARK INTER + INTRA:          -3.113
REMARK INTER:                  -2.852
REMARK INTRA:                  -0.261
REMARK UNBOUND:                -0.261
REMARK SMILES O=c1c(O)c(-c2ccc(O)c(O)c2)oc2cc(O)cc(O)c12
REMARK SMILES IDX 5 1 3 2 2 3 1 4 22 5 20 6 19 7 17 8 16 9 15 10 14 11 6 12
REMARK SMILES IDX 7 13 8 14 9 15 13 16 11 17 10 18 12 20 4 22 21 24 18 26
REMARK H PARENT 10 19 12 21 4 23 21 25 18 27
REMARK Flexibility Score: inf
ROOT
ATOM      1  C   UNL     1      59.481   3.953  55.511  1.00  0.00     0.180 A 
ATOM      2  C   UNL     1      59.322   3.160  54.362  1.00  0.00     0.208 A 
ATOM      3  C   UNL     1      60.119   3.423  53.237  1.00  0.00     0.238 A 
ATOM      4  O   UNL     1      60.010   2.676  52.230  1.00  0.00    -0.285 OA
ATOM      5  C   UNL     1      61.054   4.486  53.269  1.00  0.00     0.111 A 
ATOM      6  C   UNL     1      61.885   4.868  52.173  1.00  0.00     0.134 A 
ATOM      7  C   UNL     1      62.866   5.850  52.359  1.00  0.00     0.093 A 
ATOM      8  C   UNL     1      63.001   6.510  53.583  1.00  0.00     0.123 A 
ATOM      9  C   UNL     1      62.155   6.186  54.641  1.00  0.00     0.094 A 
ATOM     10  C   UNL     1      61.191   5.185  54.496  1.00  0.00     0.146 A 
ATOM     11  O   UNL     1      60.412   4.900  55.534  1.00  0.00    -0.452 OA
ENDROOT
BRANCH   1  12
ATOM     12  C   UNL     1      58.660   3.752  56.727  1.00  0.00     0.025 A 
ATOM     13  C   UNL     1      57.318   4.161  56.730  1.00  0.00     0.016 A 
ATOM     14  C   UNL     1      56.518   3.961  57.860  1.00  0.00     0.051 A 
ATOM     15  C   UNL     1      57.048   3.335  58.996  1.00  0.00     0.157 A 
ATOM     16  C   UNL     1      59.181   3.105  57.863  1.00  0.00     0.062 A 
ATOM     17  C   UNL     1      58.380   2.903  58.996  1.00  0.00     0.158 A 
BRANCH  15  18
ATOM     18  O   UNL     1      56.256   3.136  60.125  1.00  0.00    -0.504 OA
ATOM     19  H   UNL     1      56.175   3.841  60.848  1.00  0.00     0.293 HD
ENDBRANCH  15  18
BRANCH  17  20
ATOM     20  O   UNL     1      58.899   2.268  60.123  1.00  0.00    -0.504 OA
ATOM     21  H   UNL     1      59.084   1.272  60.133  1.00  0.00     0.293 HD
ENDBRANCH  17  20
ENDBRANCH   1  12
BRANCH   2  22
ATOM     22  O   UNL     1      58.408   2.102  54.359  1.00  0.00    -0.502 OA
ATOM     23  H   UNL     1      58.568   1.247  53.839  1.00  0.00     0.293 HD
ENDBRANCH   2  22
BRANCH   6  24
ATOM     24  O   UNL     1      61.770   4.338  50.884  1.00  0.00    -0.507 OA
ATOM     25  H   UNL     1      61.812   4.880  50.034  1.00  0.00     0.293 HD
ENDBRANCH   6  24
BRANCH   8  26
ATOM     26  O   UNL     1      63.968   7.497  53.756  1.00  0.00    -0.508 OA
ATOM     27  H   UNL     1      64.656   7.440  54.498  1.00  0.00     0.293 HD
ENDBRANCH   8  26
TORSDOF 6
ENDMDL
MODEL 2
REMARK VINA RESULT:    -2.147      1.270      6.713
REMARK INTER + INTRA:          -2.848
REMARK INTER:                  -3.276
REMARK INTRA:                   0.428
REMARK UNBOUND:                -0.261
REMARK SMILES O=c1c(O)c(-c2ccc(O)c(O)c2)oc2cc(O)cc(O)c12
REMARK SMILES IDX 5 1 3 2 2 3 1 4 22 5 20 6 19 7 17 8 16 9 15 10 14 11 6 12
REMARK SMILES IDX 7 13 8 14 9 15 13 16 11 17 10 18 12 20 4 22 21 24 18 26
REMARK H PARENT 10 19 12 21 4 23 21 25 18 27
REMARK Flexibility Score: inf
ROOT
ATOM      1  C   UNL     1      60.002   4.655  54.816  1.00  0.00     0.180 A 
ATOM      2  C   UNL     1      59.138   3.862  54.042  1.00  0.00     0.208 A 
ATOM      3  C   UNL     1      58.033   3.256  54.660  1.00  0.00     0.238 A 
ATOM      4  O   UNL     1      57.234   2.591  53.951  1.00  0.00    -0.285 OA
ATOM      5  C   UNL     1      57.814   3.436  56.048  1.00  0.00     0.111 A 
ATOM      6  C   UNL     1      56.750   2.836  56.785  1.00  0.00     0.134 A 
ATOM      7  C   UNL     1      56.554   3.190  58.126  1.00  0.00     0.093 A 
ATOM      8  C   UNL     1      57.424   4.071  58.773  1.00  0.00     0.123 A 
ATOM      9  C   UNL     1      58.500   4.615  58.078  1.00  0.00     0.094 A 
ATOM     10  C   UNL     1      58.701   4.310  56.729  1.00  0.00     0.146 A 
ATOM     11  O   UNL     1      59.734   4.860  56.101  1.00  0.00    -0.452 OA
ENDROOT
BRANCH   1  12
ATOM     12  C   UNL     1      61.201   5.307  54.241  1.00  0.00     0.025 A 
ATOM     13  C   UNL     1      61.920   6.234  55.012  1.00  0.00     0.016 A 
ATOM     14  C   UNL     1      63.067   6.845  54.497  1.00  0.00     0.051 A 
ATOM     15  C   UNL     1      63.519   6.525  53.210  1.00  0.00     0.157 A 
ATOM     16  C   UNL     1      61.671   4.974  52.958  1.00  0.00     0.062 A 
ATOM     17  C   UNL     1      62.822   5.585  52.441  1.00  0.00     0.158 A 
BRANCH  15  18
ATOM     18  O   UNL     1      64.661   7.134  52.692  1.00  0.00    -0.504 OA
ATOM     19  H   UNL     1      65.498   6.601  52.484  1.00  0.00     0.293 HD
ENDBRANCH  15  18
BRANCH  17  20
ATOM     20  O   UNL     1      63.282   5.259  51.166  1.00  0.00    -0.504 OA
ATOM     21  H   UNL     1      63.234   4.311  50.811  1.00  0.00     0.293 HD
ENDBRANCH  17  20
ENDBRANCH   1  12
BRANCH   2  22
ATOM     22  O   UNL     1      59.361   3.715  52.670  1.00  0.00    -0.502 OA
ATOM     23  H   UNL     1      60.263   3.454  52.291  1.00  0.00     0.293 HD
ENDBRANCH   2  22
BRANCH   6  24
ATOM     24  O   UNL     1      55.881   1.875  56.260  1.00  0.00    -0.507 OA
ATOM     25  H   UNL     1      54.910   1.777  56.517  1.00  0.00     0.293 HD
ENDBRANCH   6  24
BRANCH   8  26
ATOM     26  O   UNL     1      57.231   4.405  60.112  1.00  0.00    -0.508 OA
ATOM     27  H   UNL     1      56.355   4.214  60.584  1.00  0.00     0.293 HD
ENDBRANCH   8  26
TORSDOF 6
ENDMDL
MODEL 3
REMARK VINA RESULT:     0.199      1.249      2.885
REMARK INTER + INTRA:          -0.021
REMARK INTER:                   0.306
REMARK INTRA:                  -0.328
REMARK UNBOUND:                -0.261
REMARK SMILES O=c1c(O)c(-c2ccc(O)c(O)c2)oc2cc(O)cc(O)c12
REMARK SMILES IDX 5 1 3 2 2 3 1 4 22 5 20 6 19 7 17 8 16 9 15 10 14 11 6 12
REMARK SMILES IDX 7 13 8 14 9 15 13 16 11 17 10 18 12 20 4 22 21 24 18 26
REMARK H PARENT 10 19 12 21 4 23 21 25 18 27
REMARK Flexibility Score: inf
ROOT
ATOM      1  C   UNL     1      59.375   4.261  55.870  1.00  0.00     0.180 A 
ATOM      2  C   UNL     1      60.276   5.336  55.945  1.00  0.00     0.208 A 
ATOM      3  C   UNL     1      61.109   5.605  54.847  1.00  0.00     0.238 A 
ATOM      4  O   UNL     1      61.876   6.602  54.899  1.00  0.00    -0.285 OA
ATOM      5  C   UNL     1      61.042   4.785  53.694  1.00  0.00     0.111 A 
ATOM      6  C   UNL     1      61.867   4.941  52.540  1.00  0.00     0.134 A 
ATOM      7  C   UNL     1      61.624   4.156  51.406  1.00  0.00     0.093 A 
ATOM      8  C   UNL     1      60.629   3.175  51.410  1.00  0.00     0.123 A 
ATOM      9  C   UNL     1      59.859   2.975  52.552  1.00  0.00     0.094 A 
ATOM     10  C   UNL     1      60.053   3.768  53.686  1.00  0.00     0.146 A 
ATOM     11  O   UNL     1      59.288   3.551  54.750  1.00  0.00    -0.452 OA
ENDROOT
BRANCH   1  12
ATOM     12  C   UNL     1      58.482   3.901  56.995  1.00  0.00     0.025 A 
ATOM     13  C   UNL     1      57.152   4.349  56.992  1.00  0.00     0.016 A 
ATOM     14  C   UNL     1      56.286   4.003  58.033  1.00  0.00     0.051 A 
ATOM     15  C   UNL     1      56.735   3.192  59.084  1.00  0.00     0.157 A 
ATOM     16  C   UNL     1      58.922   3.070  58.041  1.00  0.00     0.062 A 
ATOM     17  C   UNL     1      58.053   2.721  59.085  1.00  0.00     0.158 A 
BRANCH  15  18
ATOM     18  O   UNL     1      55.875   2.846  60.125  1.00  0.00    -0.504 OA
ATOM     19  H   UNL     1      55.888   1.922  60.540  1.00  0.00     0.293 HD
ENDBRANCH  15  18
BRANCH  17  20
ATOM     20  O   UNL     1      58.492   1.903  60.125  1.00  0.00    -0.504 OA
ATOM     21  H   UNL     1      58.915   0.999  59.947  1.00  0.00     0.293 HD
ENDBRANCH  17  20
ENDBRANCH   1  12
BRANCH   2  22
ATOM     22  O   UNL     1      60.311   6.146  57.084  1.00  0.00    -0.502 OA
ATOM     23  H   UNL     1      60.793   5.871  57.931  1.00  0.00     0.293 HD
ENDBRANCH   2  22
BRANCH   6  24
ATOM     24  O   UNL     1      62.946   5.827  52.466  1.00  0.00    -0.507 OA
ATOM     25  H   UNL     1      63.847   5.602  52.069  1.00  0.00     0.293 HD
ENDBRANCH   6  24
BRANCH   8  26
ATOM     26  O   UNL     1      60.404   2.386  50.283  1.00  0.00    -0.508 OA
ATOM     27  H   UNL     1      61.145   2.186  49.621  1.00  0.00     0.293 HD
ENDBRANCH   8  26
TORSDOF 6
ENDMDL
MODEL 4
REMARK VINA RESULT:     0.432      2.106      7.042
REMARK INTER + INTRA:           0.260
REMARK INTER:                  -0.180
REMARK INTRA:                   0.440
REMARK UNBOUND:                -0.261
REMARK SMILES O=c1c(O)c(-c2ccc(O)c(O)c2)oc2cc(O)cc(O)c12
REMARK SMILES IDX 5 1 3 2 2 3 1 4 22 5 20 6 19 7 17 8 16 9 15 10 14 11 6 12
REMARK SMILES IDX 7 13 8 14 9 15 13 16 11 17 10 18 12 20 4 22 21 24 18 26
REMARK H PARENT 10 19 12 21 4 23 21 25 18 27
REMARK Flexibility Score: inf
ROOT
ATOM      1  C   UNL     1      58.934   3.690  55.260  1.00  0.00     0.180 A 
ATOM      2  C   UNL     1      59.737   4.689  55.835  1.00  0.00     0.208 A 
ATOM      3  C   UNL     1      59.579   4.991  57.197  1.00  0.00     0.238 A 
ATOM      4  O   UNL     1      60.338   5.850  57.718  1.00  0.00    -0.285 OA
ATOM      5  C   UNL     1      58.608   4.301  57.964  1.00  0.00     0.111 A 
ATOM      6  C   UNL     1      58.335   4.554  59.341  1.00  0.00     0.134 A 
ATOM      7  C   UNL     1      57.445   3.722  60.033  1.00  0.00     0.093 A 
ATOM      8  C   UNL     1      56.770   2.689  59.379  1.00  0.00     0.123 A 
ATOM      9  C   UNL     1      56.986   2.472  58.021  1.00  0.00     0.094 A 
ATOM     10  C   UNL     1      57.895   3.262  57.312  1.00  0.00     0.146 A 
ATOM     11  O   UNL     1      58.079   3.014  56.021  1.00  0.00    -0.452 OA
ENDROOT
BRANCH   1  12
ATOM     12  C   UNL     1      59.026   3.333  53.827  1.00  0.00     0.025 A 
ATOM     13  C   UNL     1      57.985   2.607  53.227  1.00  0.00     0.016 A 
ATOM     14  C   UNL     1      58.040   2.277  51.870  1.00  0.00     0.051 A 
ATOM     15  C   UNL     1      59.132   2.683  51.090  1.00  0.00     0.157 A 
ATOM     16  C   UNL     1      60.109   3.755  53.035  1.00  0.00     0.062 A 
ATOM     17  C   UNL     1      60.165   3.427  51.673  1.00  0.00     0.158 A 
BRANCH  15  18
ATOM     18  O   UNL     1      59.193   2.355  49.737  1.00  0.00    -0.504 OA
ATOM     19  H   UNL     1      58.535   1.707  49.318  1.00  0.00     0.293 HD
ENDBRANCH  15  18
BRANCH  17  20
ATOM     20  O   UNL     1      61.242   3.841  50.891  1.00  0.00    -0.504 OA
ATOM     21  H   UNL     1      61.703   3.209  50.246  1.00  0.00     0.293 HD
ENDBRANCH  17  20
ENDBRANCH   1  12
BRANCH   2  22
ATOM     22  O   UNL     1      60.704   5.343  55.065  1.00  0.00    -0.502 OA
ATOM     23  H   UNL     1      60.981   5.014  54.148  1.00  0.00     0.293 HD
ENDBRANCH   2  22
BRANCH   6  24
ATOM     24  O   UNL     1      58.885   5.617  60.065  1.00  0.00    -0.507 OA
ATOM     25  H   UNL     1      59.844   5.922  59.998  1.00  0.00     0.293 HD
ENDBRANCH   6  24
BRANCH   8  26
ATOM     26  O   UNL     1      55.875   1.875  60.070  1.00  0.00    -0.508 OA
ATOM     27  H   UNL     1      54.905   1.795  59.786  1.00  0.00     0.293 HD
ENDBRANCH   8  26
TORSDOF 6
ENDMDL
