MODEL 1
REMARK VINA RESULT:    -7.980      0.000      0.000
REMARK INTER + INTRA:          -9.997
REMARK INTER:                  -9.613
REMARK INTRA:                  -0.384
REMARK UNBOUND:                -0.384
REMARK SMILES O=c1c(O)c(-c2ccc(O)cc2O)oc2cc(O)cc(O)c12
REMARK SMILES IDX 5 1 3 2 2 3 1 4 22 5 20 6 19 7 17 8 16 9 15 10 14 11 6 12
REMARK SMILES IDX 8 13 7 14 9 15 11 16 12 17 10 18 13 20 4 22 21 24 18 26
REMARK H PARENT 10 19 13 21 4 23 21 25 18 27
REMARK Flexibility Score: inf
ROOT
ATOM      1  C   UNL     1      -3.605  67.472 -20.671  1.00  0.00     0.184 A 
ATOM      2  C   UNL     1      -3.984  66.225 -20.147  1.00  0.00     0.208 A 
ATOM      3  C   UNL     1      -5.345  65.879 -20.129  1.00  0.00     0.238 A 
ATOM      4  O   UNL     1      -5.683  64.785 -19.607  1.00  0.00    -0.285 OA
ATOM      5  C   UNL     1      -6.307  66.775 -20.655  1.00  0.00     0.111 A 
ATOM      6  C   UNL     1      -7.707  66.512 -20.726  1.00  0.00     0.134 A 
ATOM      7  C   UNL     1      -8.580  67.522 -21.147  1.00  0.00     0.093 A 
ATOM      8  C   UNL     1      -8.098  68.763 -21.563  1.00  0.00     0.123 A 
ATOM      9  C   UNL     1      -6.725  69.011 -21.555  1.00  0.00     0.094 A 
ATOM     10  C   UNL     1      -5.833  68.036 -21.104  1.00  0.00     0.146 A 
ATOM     11  O   UNL     1      -4.535  68.316 -21.101  1.00  0.00    -0.451 OA
ENDROOT
BRANCH   1  12
ATOM     12  C   UNL     1      -2.185  67.891 -20.742  1.00  0.00     0.063 A 
ATOM     13  C   UNL     1       0.074  67.551 -21.580  1.00  0.00     0.047 A 
ATOM     14  C   UNL     1      -1.258  67.143 -21.490  1.00  0.00     0.020 A 
ATOM     15  C   UNL     1       0.498  68.716 -20.936  1.00  0.00     0.119 A 
ATOM     16  C   UNL     1      -0.418  69.476 -20.199  1.00  0.00     0.093 A 
ATOM     17  C   UNL     1      -1.759  69.072 -20.101  1.00  0.00     0.130 A 
BRANCH  15  18
ATOM     18  O   UNL     1       1.830  69.111 -21.035  1.00  0.00    -0.508 OA
ATOM     19  H   UNL     1       2.494  68.929 -20.292  1.00  0.00     0.293 HD
ENDBRANCH  15  18
BRANCH  17  20
ATOM     20  O   UNL     1      -2.661  69.835 -19.359  1.00  0.00    -0.507 OA
ATOM     21  H   UNL     1      -3.662  69.760 -19.498  1.00  0.00     0.293 HD
ENDBRANCH  17  20
ENDBRANCH   1  12
BRANCH   2  22
ATOM     22  O   UNL     1      -3.018  65.362 -19.621  1.00  0.00    -0.502 OA
ATOM     23  H   UNL     1      -2.817  64.458 -20.031  1.00  0.00     0.293 HD
ENDBRANCH   2  22
BRANCH   6  24
ATOM     24  O   UNL     1      -8.285  65.276 -20.420  1.00  0.00    -0.507 OA
ATOM     25  H   UNL     1      -9.267  65.128 -20.242  1.00  0.00     0.293 HD
ENDBRANCH   6  24
BRANCH   8  26
ATOM     26  O   UNL     1      -8.994  69.740 -21.991  1.00  0.00    -0.508 OA
ATOM     27  H   UNL     1      -9.575  70.252 -21.337  1.00  0.00     0.293 HD
ENDBRANCH   8  26
TORSDOF 6
ENDMDL
MODEL 2
REMARK VINA RESULT:    -7.865      1.792      2.580
REMARK INTER + INTRA:          -9.858
REMARK INTER:                  -9.435
REMARK INTRA:                  -0.423
REMARK UNBOUND:                -0.384
REMARK SMILES O=c1c(O)c(-c2ccc(O)cc2O)oc2cc(O)cc(O)c12
REMARK SMILES IDX 5 1 3 2 2 3 1 4 22 5 20 6 19 7 17 8 16 9 15 10 14 11 6 12
REMARK SMILES IDX 8 13 7 14 9 15 11 16 12 17 10 18 13 20 4 22 21 24 18 26
REMARK H PARENT 10 19 13 21 4 23 21 25 18 27
REMARK Flexibility Score: inf
ROOT
ATOM      1  C   UNL     1      -3.144  68.303 -21.363  1.00  0.00     0.184 A 
ATOM      2  C   UNL     1      -3.948  68.295 -20.212  1.00  0.00     0.208 A 
ATOM      3  C   UNL     1      -5.345  68.318 -20.356  1.00  0.00     0.238 A 
ATOM      4  O   UNL     1      -6.058  68.368 -19.319  1.00  0.00    -0.285 OA
ATOM      5  C   UNL     1      -5.919  68.328 -21.649  1.00  0.00     0.111 A 
ATOM      6  C   UNL     1      -7.322  68.310 -21.914  1.00  0.00     0.134 A 
ATOM      7  C   UNL     1      -7.779  68.451 -23.230  1.00  0.00     0.093 A 
ATOM      8  C   UNL     1      -6.885  68.543 -24.296  1.00  0.00     0.123 A 
ATOM      9  C   UNL     1      -5.512  68.501 -24.055  1.00  0.00     0.094 A 
ATOM     10  C   UNL     1      -5.025  68.398 -22.750  1.00  0.00     0.146 A 
ATOM     11  O   UNL     1      -3.711  68.373 -22.562  1.00  0.00    -0.451 OA
ENDROOT
BRANCH   1  12
ATOM     12  C   UNL     1      -1.665  68.256 -21.285  1.00  0.00     0.063 A 
ATOM     13  C   UNL     1       0.460  69.360 -20.853  1.00  0.00     0.047 A 
ATOM     14  C   UNL     1      -0.932  69.409 -20.954  1.00  0.00     0.020 A 
ATOM     15  C   UNL     1       1.139  68.158 -21.069  1.00  0.00     0.119 A 
ATOM     16  C   UNL     1       0.419  67.000 -21.387  1.00  0.00     0.093 A 
ATOM     17  C   UNL     1      -0.980  67.041 -21.492  1.00  0.00     0.130 A 
BRANCH  15  18
ATOM     18  O   UNL     1       2.528  68.124 -20.965  1.00  0.00    -0.508 OA
ATOM     19  H   UNL     1       3.119  68.680 -21.572  1.00  0.00     0.293 HD
ENDBRANCH  15  18
BRANCH  17  20
ATOM     20  O   UNL     1      -1.685  65.881 -21.815  1.00  0.00    -0.507 OA
ATOM     21  H   UNL     1      -1.338  65.220 -22.500  1.00  0.00     0.293 HD
ENDBRANCH  17  20
ENDBRANCH   1  12
BRANCH   2  22
ATOM     22  O   UNL     1      -3.358  68.299 -18.945  1.00  0.00    -0.502 OA
ATOM     23  H   UNL     1      -3.582  67.608 -18.239  1.00  0.00     0.293 HD
ENDBRANCH   2  22
BRANCH   6  24
ATOM     24  O   UNL     1      -8.299  68.132 -20.930  1.00  0.00    -0.507 OA
ATOM     25  H   UNL     1      -9.270  68.386 -21.031  1.00  0.00     0.293 HD
ENDBRANCH   6  24
BRANCH   8  26
ATOM     26  O   UNL     1      -7.374  68.666 -25.595  1.00  0.00    -0.508 OA
ATOM     27  H   UNL     1      -8.327  68.410 -25.830  1.00  0.00     0.293 HD
ENDBRANCH   8  26
TORSDOF 6
ENDMDL
MODEL 3
REMARK VINA RESULT:    -7.827      1.844      3.138
REMARK INTER + INTRA:          -9.813
REMARK INTER:                  -9.396
REMARK INTRA:                  -0.416
REMARK UNBOUND:                -0.384
REMARK SMILES O=c1c(O)c(-c2ccc(O)cc2O)oc2cc(O)cc(O)c12
REMARK SMILES IDX 5 1 3 2 2 3 1 4 22 5 20 6 19 7 17 8 16 9 15 10 14 11 6 12
REMARK SMILES IDX 8 13 7 14 9 15 11 16 12 17 10 18 13 20 4 22 21 24 18 26
REMARK H PARENT 10 19 13 21 4 23 21 25 18 27
REMARK Flexibility Score: inf
ROOT
ATOM      1  C   UNL     1      -2.902  68.301 -21.731  1.00  0.00     0.184 A 
ATOM      2  C   UNL     1      -3.422  68.501 -23.021  1.00  0.00     0.208 A 
ATOM      3  C   UNL     1      -4.814  68.557 -23.193  1.00  0.00     0.238 A 
ATOM      4  O   UNL     1      -5.274  68.680 -24.358  1.00  0.00    -0.285 OA
ATOM      5  C   UNL     1      -5.668  68.434 -22.071  1.00  0.00     0.111 A 
ATOM      6  C   UNL     1      -7.092  68.518 -22.122  1.00  0.00     0.134 A 
ATOM      7  C   UNL     1      -7.842  68.253 -20.970  1.00  0.00     0.093 A 
ATOM      8  C   UNL     1      -7.220  67.975 -19.754  1.00  0.00     0.123 A 
ATOM      9  C   UNL     1      -5.827  67.950 -19.678  1.00  0.00     0.094 A 
ATOM     10  C   UNL     1      -5.052  68.172 -20.819  1.00  0.00     0.146 A 
ATOM     11  O   UNL     1      -3.729  68.128 -20.707  1.00  0.00    -0.451 OA
ENDROOT
BRANCH   1  12
ATOM     12  C   UNL     1      -1.444  68.254 -21.474  1.00  0.00     0.063 A 
ATOM     13  C   UNL     1       0.626  69.378 -20.860  1.00  0.00     0.047 A 
ATOM     14  C   UNL     1      -0.744  69.424 -21.129  1.00  0.00     0.020 A 
ATOM     15  C   UNL     1       1.314  68.164 -20.920  1.00  0.00     0.119 A 
ATOM     16  C   UNL     1       0.625  66.990 -21.249  1.00  0.00     0.093 A 
ATOM     17  C   UNL     1      -0.751  67.028 -21.524  1.00  0.00     0.130 A 
BRANCH  15  18
ATOM     18  O   UNL     1       2.680  68.133 -20.649  1.00  0.00    -0.508 OA
ATOM     19  H   UNL     1       3.058  67.570 -19.896  1.00  0.00     0.293 HD
ENDBRANCH  15  18
BRANCH  17  20
ATOM     20  O   UNL     1      -1.424  65.852 -21.857  1.00  0.00    -0.507 OA
ATOM     21  H   UNL     1      -2.150  65.837 -22.563  1.00  0.00     0.293 HD
ENDBRANCH  17  20
ENDBRANCH   1  12
BRANCH   2  22
ATOM     22  O   UNL     1      -2.559  68.606 -24.115  1.00  0.00    -0.502 OA
ATOM     23  H   UNL     1      -2.425  69.474 -24.620  1.00  0.00     0.293 HD
ENDBRANCH   2  22
BRANCH   6  24
ATOM     24  O   UNL     1      -7.812  68.878 -23.266  1.00  0.00    -0.507 OA
ATOM     25  H   UNL     1      -7.595  69.665 -23.858  1.00  0.00     0.293 HD
ENDBRANCH   6  24
BRANCH   8  26
ATOM     26  O   UNL     1      -7.996  67.733 -18.623  1.00  0.00    -0.508 OA
ATOM     27  H   UNL     1      -7.764  68.137 -17.723  1.00  0.00     0.293 HD
ENDBRANCH   8  26
TORSDOF 6
ENDMDL
MODEL 4
REMARK VINA RESULT:    -7.554      6.649      8.963
REMARK INTER + INTRA:          -9.484
REMARK INTER:                  -9.056
REMARK INTRA:                  -0.428
REMARK UNBOUND:                -0.384
REMARK SMILES O=c1c(O)c(-c2ccc(O)cc2O)oc2cc(O)cc(O)c12
REMARK SMILES IDX 5 1 3 2 2 3 1 4 22 5 20 6 19 7 17 8 16 9 15 10 14 11 6 12
REMARK SMILES IDX 8 13 7 14 9 15 11 16 12 17 10 18 13 20 4 22 21 24 18 26
REMARK H PARENT 10 19 13 21 4 23 21 25 18 27
REMARK Flexibility Score: inf
ROOT
ATOM      1  C   UNL     1      -3.304  62.367 -16.172  1.00  0.00     0.184 A 
ATOM      2  C   UNL     1      -4.251  61.358 -15.927  1.00  0.00     0.208 A 
ATOM      3  C   UNL     1      -4.350  60.817 -14.635  1.00  0.00     0.238 A 
ATOM      4  O   UNL     1      -5.161  59.875 -14.436  1.00  0.00    -0.285 OA
ATOM      5  C   UNL     1      -3.516  61.305 -13.601  1.00  0.00     0.111 A 
ATOM      6  C   UNL     1      -3.559  60.859 -12.246  1.00  0.00     0.134 A 
ATOM      7  C   UNL     1      -2.600  61.321 -11.335  1.00  0.00     0.093 A 
ATOM      8  C   UNL     1      -1.642  62.261 -11.713  1.00  0.00     0.123 A 
ATOM      9  C   UNL     1      -1.629  62.750 -13.020  1.00  0.00     0.094 A 
ATOM     10  C   UNL     1      -2.548  62.280 -13.961  1.00  0.00     0.146 A 
ATOM     11  O   UNL     1      -2.494  62.762 -15.197  1.00  0.00    -0.451 OA
ENDROOT
BRANCH   1  12
ATOM     12  C   UNL     1      -3.162  62.998 -17.505  1.00  0.00     0.063 A 
ATOM     13  C   UNL     1      -4.068  64.384 -19.289  1.00  0.00     0.047 A 
ATOM     14  C   UNL     1      -4.210  63.766 -18.045  1.00  0.00     0.020 A 
ATOM     15  C   UNL     1      -2.876  64.255 -20.006  1.00  0.00     0.119 A 
ATOM     16  C   UNL     1      -1.821  63.505 -19.473  1.00  0.00     0.093 A 
ATOM     17  C   UNL     1      -1.956  62.878 -18.225  1.00  0.00     0.130 A 
BRANCH  15  18
ATOM     18  O   UNL     1      -2.749  64.878 -21.246  1.00  0.00    -0.508 OA
ATOM     19  H   UNL     1      -3.491  65.451 -21.630  1.00  0.00     0.293 HD
ENDBRANCH  15  18
BRANCH  17  20
ATOM     20  O   UNL     1      -0.899  62.128 -17.708  1.00  0.00    -0.507 OA
ATOM     21  H   UNL     1      -0.804  61.139 -17.904  1.00  0.00     0.293 HD
ENDBRANCH  17  20
ENDBRANCH   1  12
BRANCH   2  22
ATOM     22  O   UNL     1      -5.054  60.883 -16.967  1.00  0.00    -0.502 OA
ATOM     23  H   UNL     1      -5.675  60.090 -16.855  1.00  0.00     0.293 HD
ENDBRANCH   2  22
BRANCH   6  24
ATOM     24  O   UNL     1      -4.530  59.990 -11.741  1.00  0.00    -0.507 OA
ATOM     25  H   UNL     1      -5.395  60.281 -11.310  1.00  0.00     0.293 HD
ENDBRANCH   6  24
BRANCH   8  26
ATOM     26  O   UNL     1      -0.713  62.711 -10.778  1.00  0.00    -0.508 OA
ATOM     27  H   UNL     1      -0.786  62.465  -9.797  1.00  0.00     0.293 HD
ENDBRANCH   8  26
TORSDOF 6
ENDMDL
MODEL 5
REMARK VINA RESULT:    -7.544      3.282      5.523
REMARK INTER + INTRA:          -9.471
REMARK INTER:                  -9.231
REMARK INTRA:                  -0.240
REMARK UNBOUND:                -0.384
REMARK SMILES O=c1c(O)c(-c2ccc(O)cc2O)oc2cc(O)cc(O)c12
REMARK SMILES IDX 5 1 3 2 2 3 1 4 22 5 20 6 19 7 17 8 16 9 15 10 14 11 6 12
REMARK SMILES IDX 8 13 7 14 9 15 11 16 12 17 10 18 13 20 4 22 21 24 18 26
REMARK H PARENT 10 19 13 21 4 23 21 25 18 27
REMARK Flexibility Score: inf
ROOT
ATOM      1  C   UNL     1      -5.262  65.475 -21.341  1.00  0.00     0.184 A 
ATOM      2  C   UNL     1      -6.611  65.864 -21.368  1.00  0.00     0.208 A 
ATOM      3  C   UNL     1      -7.009  66.886 -22.245  1.00  0.00     0.238 A 
ATOM      4  O   UNL     1      -8.208  67.268 -22.223  1.00  0.00    -0.285 OA
ATOM      5  C   UNL     1      -6.056  67.491 -23.099  1.00  0.00     0.111 A 
ATOM      6  C   UNL     1      -6.354  68.507 -24.056  1.00  0.00     0.134 A 
ATOM      7  C   UNL     1      -5.311  69.124 -24.757  1.00  0.00     0.093 A 
ATOM      8  C   UNL     1      -3.988  68.717 -24.585  1.00  0.00     0.123 A 
ATOM      9  C   UNL     1      -3.691  67.684 -23.696  1.00  0.00     0.094 A 
ATOM     10  C   UNL     1      -4.706  67.075 -22.954  1.00  0.00     0.146 A 
ATOM     11  O   UNL     1      -4.380  66.103 -22.110  1.00  0.00    -0.451 OA
ENDROOT
BRANCH   1  12
ATOM     12  C   UNL     1      -4.778  64.388 -20.458  1.00  0.00     0.063 A 
ATOM     13  C   UNL     1      -3.463  63.651 -18.547  1.00  0.00     0.047 A 
ATOM     14  C   UNL     1      -3.899  64.670 -19.397  1.00  0.00     0.020 A 
ATOM     15  C   UNL     1      -3.908  62.340 -18.735  1.00  0.00     0.119 A 
ATOM     16  C   UNL     1      -4.794  62.049 -19.779  1.00  0.00     0.093 A 
ATOM     17  C   UNL     1      -5.235  63.067 -20.640  1.00  0.00     0.130 A 
BRANCH  15  18
ATOM     18  O   UNL     1      -3.465  61.334 -17.879  1.00  0.00    -0.508 OA
ATOM     19  H   UNL     1      -3.985  61.080 -17.047  1.00  0.00     0.293 HD
ENDBRANCH  15  18
BRANCH  17  20
ATOM     20  O   UNL     1      -6.114  62.763 -21.680  1.00  0.00    -0.507 OA
ATOM     21  H   UNL     1      -6.128  61.847 -22.114  1.00  0.00     0.293 HD
ENDBRANCH  17  20
ENDBRANCH   1  12
BRANCH   2  22
ATOM     22  O   UNL     1      -7.532  65.260 -20.505  1.00  0.00    -0.502 OA
ATOM     23  H   UNL     1      -8.050  64.429 -20.760  1.00  0.00     0.293 HD
ENDBRANCH   2  22
BRANCH   6  24
ATOM     24  O   UNL     1      -7.650  68.925 -24.371  1.00  0.00    -0.507 OA
ATOM     25  H   UNL     1      -8.030  68.969 -25.305  1.00  0.00     0.293 HD
ENDBRANCH   6  24
BRANCH   8  26
ATOM     26  O   UNL     1      -2.977  69.342 -25.310  1.00  0.00    -0.508 OA
ATOM     27  H   UNL     1      -2.305  69.956 -24.864  1.00  0.00     0.293 HD
ENDBRANCH   8  26
TORSDOF 6
ENDMDL
MODEL 6
REMARK VINA RESULT:    -7.439      2.927      5.561
REMARK INTER + INTRA:          -9.345
REMARK INTER:                  -9.018
REMARK INTRA:                  -0.327
REMARK UNBOUND:                -0.384
REMARK SMILES O=c1c(O)c(-c2ccc(O)cc2O)oc2cc(O)cc(O)c12
REMARK SMILES IDX 5 1 3 2 2 3 1 4 22 5 20 6 19 7 17 8 16 9 15 10 14 11 6 12
REMARK SMILES IDX 8 13 7 14 9 15 11 16 12 17 10 18 13 20 4 22 21 24 18 26
REMARK H PARENT 10 19 13 21 4 23 21 25 18 27
REMARK Flexibility Score: inf
ROOT
ATOM      1  C   UNL     1      -3.900  65.128 -20.944  1.00  0.00     0.184 A 
ATOM      2  C   UNL     1      -2.660  65.654 -21.342  1.00  0.00     0.208 A 
ATOM      3  C   UNL     1      -2.636  66.768 -22.197  1.00  0.00     0.238 A 
ATOM      4  O   UNL     1      -1.521  67.199 -22.594  1.00  0.00    -0.285 OA
ATOM      5  C   UNL     1      -3.851  67.354 -22.626  1.00  0.00     0.111 A 
ATOM      6  C   UNL     1      -3.944  68.509 -23.459  1.00  0.00     0.134 A 
ATOM      7  C   UNL     1      -5.197  68.925 -23.925  1.00  0.00     0.093 A 
ATOM      8  C   UNL     1      -6.364  68.269 -23.537  1.00  0.00     0.123 A 
ATOM      9  C   UNL     1      -6.290  67.175 -22.674  1.00  0.00     0.094 A 
ATOM     10  C   UNL     1      -5.051  66.713 -22.222  1.00  0.00     0.146 A 
ATOM     11  O   UNL     1      -5.023  65.661 -21.412  1.00  0.00    -0.451 OA
ENDROOT
BRANCH   1  12
ATOM     12  C   UNL     1      -4.000  63.970 -20.026  1.00  0.00     0.063 A 
ATOM     13  C   UNL     1      -3.493  62.925 -17.887  1.00  0.00     0.047 A 
ATOM     14  C   UNL     1      -3.378  64.005 -18.765  1.00  0.00     0.020 A 
ATOM     15  C   UNL     1      -4.239  61.801 -18.248  1.00  0.00     0.119 A 
ATOM     16  C   UNL     1      -4.875  61.760 -19.496  1.00  0.00     0.093 A 
ATOM     17  C   UNL     1      -4.762  62.839 -20.385  1.00  0.00     0.130 A 
BRANCH  15  18
ATOM     18  O   UNL     1      -4.346  60.731 -17.362  1.00  0.00    -0.508 OA
ATOM     19  H   UNL     1      -5.170  60.599 -16.789  1.00  0.00     0.293 HD
ENDBRANCH  15  18
BRANCH  17  20
ATOM     20  O   UNL     1      -5.395  62.783 -21.628  1.00  0.00    -0.507 OA
ATOM     21  H   UNL     1      -6.288  62.321 -21.749  1.00  0.00     0.293 HD
ENDBRANCH  17  20
ENDBRANCH   1  12
BRANCH   2  22
ATOM     22  O   UNL     1      -1.474  65.050 -20.916  1.00  0.00    -0.502 OA
ATOM     23  H   UNL     1      -0.710  64.846 -21.550  1.00  0.00     0.293 HD
ENDBRANCH   2  22
BRANCH   6  24
ATOM     24  O   UNL     1      -2.848  69.292 -23.833  1.00  0.00    -0.507 OA
ATOM     25  H   UNL     1      -2.645  70.210 -23.468  1.00  0.00     0.293 HD
ENDBRANCH   6  24
BRANCH   8  26
ATOM     26  O   UNL     1      -7.596  68.719 -24.007  1.00  0.00    -0.508 OA
ATOM     27  H   UNL     1      -7.796  68.777 -24.999  1.00  0.00     0.293 HD
ENDBRANCH   8  26
TORSDOF 6
ENDMDL
MODEL 7
REMARK VINA RESULT:    -7.396      2.750      3.431
REMARK INTER + INTRA:          -9.293
REMARK INTER:                  -8.875
REMARK INTRA:                  -0.418
REMARK UNBOUND:                -0.384
REMARK SMILES O=c1c(O)c(-c2ccc(O)cc2O)oc2cc(O)cc(O)c12
REMARK SMILES IDX 5 1 3 2 2 3 1 4 22 5 20 6 19 7 17 8 16 9 15 10 14 11 6 12
REMARK SMILES IDX 8 13 7 14 9 15 11 16 12 17 10 18 13 20 4 22 21 24 18 26
REMARK H PARENT 10 19 13 21 4 23 21 25 18 27
REMARK Flexibility Score: inf
ROOT
ATOM      1  C   UNL     1      -2.862  67.935 -22.281  1.00  0.00     0.184 A 
ATOM      2  C   UNL     1      -3.909  68.195 -21.380  1.00  0.00     0.208 A 
ATOM      3  C   UNL     1      -5.184  68.494 -21.886  1.00  0.00     0.238 A 
ATOM      4  O   UNL     1      -6.103  68.781 -21.075  1.00  0.00    -0.285 OA
ATOM      5  C   UNL     1      -5.402  68.509 -23.285  1.00  0.00     0.111 A 
ATOM      6  C   UNL     1      -6.662  68.759 -23.906  1.00  0.00     0.134 A 
ATOM      7  C   UNL     1      -6.733  68.876 -25.300  1.00  0.00     0.093 A 
ATOM      8  C   UNL     1      -5.605  68.687 -26.097  1.00  0.00     0.123 A 
ATOM      9  C   UNL     1      -4.380  68.382 -25.504  1.00  0.00     0.094 A 
ATOM     10  C   UNL     1      -4.269  68.296 -24.114  1.00  0.00     0.146 A 
ATOM     11  O   UNL     1      -3.082  68.016 -23.588  1.00  0.00    -0.451 OA
ENDROOT
BRANCH   1  12
ATOM     12  C   UNL     1      -1.498  67.589 -21.816  1.00  0.00     0.063 A 
ATOM     13  C   UNL     1       0.161  65.917 -21.207  1.00  0.00     0.047 A 
ATOM     14  C   UNL     1      -1.132  66.246 -21.619  1.00  0.00     0.020 A 
ATOM     15  C   UNL     1       1.110  66.921 -20.997  1.00  0.00     0.119 A 
ATOM     16  C   UNL     1       0.760  68.261 -21.203  1.00  0.00     0.093 A 
ATOM     17  C   UNL     1      -0.537  68.601 -21.615  1.00  0.00     0.130 A 
BRANCH  15  18
ATOM     18  O   UNL     1       2.396  66.577 -20.587  1.00  0.00    -0.508 OA
ATOM     19  H   UNL     1       2.658  66.581 -19.608  1.00  0.00     0.293 HD
ENDBRANCH  15  18
BRANCH  17  20
ATOM     20  O   UNL     1      -0.874  69.941 -21.810  1.00  0.00    -0.507 OA
ATOM     21  H   UNL     1      -1.839  70.252 -21.813  1.00  0.00     0.293 HD
ENDBRANCH  17  20
ENDBRANCH   1  12
BRANCH   2  22
ATOM     22  O   UNL     1      -3.666  68.187 -20.003  1.00  0.00    -0.502 OA
ATOM     23  H   UNL     1      -2.730  68.191 -19.617  1.00  0.00     0.293 HD
ENDBRANCH   2  22
BRANCH   6  24
ATOM     24  O   UNL     1      -7.867  68.874 -23.208  1.00  0.00    -0.507 OA
ATOM     25  H   UNL     1      -7.956  69.229 -22.268  1.00  0.00     0.293 HD
ENDBRANCH   6  24
BRANCH   8  26
ATOM     26  O   UNL     1      -5.716  68.794 -27.482  1.00  0.00    -0.508 OA
ATOM     27  H   UNL     1      -5.294  69.564 -27.990  1.00  0.00     0.293 HD
ENDBRANCH   8  26
TORSDOF 6
ENDMDL
MODEL 8
REMARK VINA RESULT:    -7.392      2.313      6.599
REMARK INTER + INTRA:          -9.289
REMARK INTER:                  -8.990
REMARK INTRA:                  -0.300
REMARK UNBOUND:                -0.384
REMARK SMILES O=c1c(O)c(-c2ccc(O)cc2O)oc2cc(O)cc(O)c12
REMARK SMILES IDX 5 1 3 2 2 3 1 4 22 5 20 6 19 7 17 8 16 9 15 10 14 11 6 12
REMARK SMILES IDX 8 13 7 14 9 15 11 16 12 17 10 18 13 20 4 22 21 24 18 26
REMARK H PARENT 10 19 13 21 4 23 21 25 18 27
REMARK Flexibility Score: inf
ROOT
ATOM      1  C   UNL     1      -5.014  66.329 -20.639  1.00  0.00     0.184 A 
ATOM      2  C   UNL     1      -3.709  66.618 -21.074  1.00  0.00     0.208 A 
ATOM      3  C   UNL     1      -2.666  65.745 -20.726  1.00  0.00     0.238 A 
ATOM      4  O   UNL     1      -1.492  66.039 -21.071  1.00  0.00    -0.285 OA
ATOM      5  C   UNL     1      -2.943  64.583 -19.966  1.00  0.00     0.111 A 
ATOM      6  C   UNL     1      -1.971  63.608 -19.592  1.00  0.00     0.134 A 
ATOM      7  C   UNL     1      -2.334  62.566 -18.730  1.00  0.00     0.093 A 
ATOM      8  C   UNL     1      -3.647  62.425 -18.283  1.00  0.00     0.123 A 
ATOM      9  C   UNL     1      -4.620  63.338 -18.692  1.00  0.00     0.094 A 
ATOM     10  C   UNL     1      -4.280  64.410 -19.520  1.00  0.00     0.146 A 
ATOM     11  O   UNL     1      -5.233  65.264 -19.876  1.00  0.00    -0.451 OA
ENDROOT
BRANCH   1  12
ATOM     12  C   UNL     1      -6.164  67.193 -20.990  1.00  0.00     0.063 A 
ATOM     13  C   UNL     1      -7.227  69.383 -21.014  1.00  0.00     0.047 A 
ATOM     14  C   UNL     1      -6.155  68.561 -20.661  1.00  0.00     0.020 A 
ATOM     15  C   UNL     1      -8.317  68.856 -21.710  1.00  0.00     0.119 A 
ATOM     16  C   UNL     1      -8.333  67.499 -22.055  1.00  0.00     0.093 A 
ATOM     17  C   UNL     1      -7.261  66.665 -21.702  1.00  0.00     0.130 A 
BRANCH  15  18
ATOM     18  O   UNL     1      -9.379  69.688 -22.057  1.00  0.00    -0.508 OA
ATOM     19  H   UNL     1      -9.903  69.550 -22.913  1.00  0.00     0.293 HD
ENDBRANCH  15  18
BRANCH  17  20
ATOM     20  O   UNL     1      -7.291  65.313 -22.046  1.00  0.00    -0.507 OA
ATOM     21  H   UNL     1      -7.723  64.992 -22.904  1.00  0.00     0.293 HD
ENDBRANCH  17  20
ENDBRANCH   1  12
BRANCH   2  22
ATOM     22  O   UNL     1      -3.458  67.778 -21.813  1.00  0.00    -0.502 OA
ATOM     23  H   UNL     1      -4.053  68.596 -21.758  1.00  0.00     0.293 HD
ENDBRANCH   2  22
BRANCH   6  24
ATOM     24  O   UNL     1      -0.652  63.604 -20.055  1.00  0.00    -0.507 OA
ATOM     25  H   UNL     1      -0.277  62.943 -20.718  1.00  0.00     0.293 HD
ENDBRANCH   6  24
BRANCH   8  26
ATOM     26  O   UNL     1      -3.977  61.366 -17.440  1.00  0.00    -0.508 OA
ATOM     27  H   UNL     1      -4.049  61.490 -16.437  1.00  0.00     0.293 HD
ENDBRANCH   8  26
TORSDOF 6
ENDMDL
