MODEL 1
REMARK VINA RESULT:    76.709      0.000      0.000
REMARK INTER + INTRA:         110.688
REMARK INTER:                 110.343
REMARK INTRA:                   0.345
REMARK UNBOUND:                 0.345
REMARK SMILES O=c1cc(-c2ccc(O)c(O)c2)oc2cc(O[C@H]3O[C@H](CO)[C@H](O)[C@H](O)[C@H]3O)cc(O)c12
REMARK SMILES IDX 17 1 16 2 4 3 3 4 13 5 2 6 14 7 1 8 32 9 15 10 30 11 29 12
REMARK SMILES IDX 5 13 6 14 7 15 8 16 12 17 10 18 9 19 11 21 31 23 18 25 27 26
REMARK SMILES IDX 19 27 25 28 20 29 23 30 28 31 26 33 21 35 22 36 24 38
REMARK H PARENT 9 20 11 22 31 24 28 32 26 34 22 37 24 39
REMARK Flexibility Score: inf
ROOT
ATOM      1  O   UNL     1     -41.655  39.482 -21.199  1.00  0.00    -0.462 OA
ENDROOT
BRANCH   1   2
ATOM      2  C   UNL     1     -40.375  39.800 -20.712  1.00  0.00     0.130 A 
ATOM      3  C   UNL     1     -35.802  40.564 -21.837  1.00  0.00     0.138 A 
ATOM      4  C   UNL     1     -35.447  40.801 -20.498  1.00  0.00     0.100 A 
ATOM      5  O   UNL     1     -37.066  40.271 -22.135  1.00  0.00    -0.456 OA
ATOM      6  C   UNL     1     -36.427  40.740 -19.507  1.00  0.00     0.197 A 
ATOM      7  C   UNL     1     -38.034  40.201 -21.227  1.00  0.00     0.146 A 
ATOM      8  O   UNL     1     -36.099  40.955 -18.309  1.00  0.00    -0.289 OA
ATOM      9  C   UNL     1     -37.757  40.437 -19.861  1.00  0.00     0.107 A 
ATOM     10  C   UNL     1     -39.332  39.888 -21.637  1.00  0.00     0.094 A 
ATOM     11  C   UNL     1     -38.810  40.360 -18.922  1.00  0.00     0.134 A 
ATOM     12  C   UNL     1     -40.109  40.046 -19.352  1.00  0.00     0.093 A 
BRANCH   3  13
ATOM     13  C   UNL     1     -34.804  40.614 -22.933  1.00  0.00     0.021 A 
ATOM     14  C   UNL     1     -35.244  40.684 -24.267  1.00  0.00     0.016 A 
ATOM     15  C   UNL     1     -34.324  40.740 -25.316  1.00  0.00     0.051 A 
ATOM     16  C   UNL     1     -32.951  40.738 -25.056  1.00  0.00     0.157 A 
ATOM     17  C   UNL     1     -33.419  40.626 -22.675  1.00  0.00     0.062 A 
ATOM     18  C   UNL     1     -32.495  40.684 -23.729  1.00  0.00     0.158 A 
BRANCH  16  19
ATOM     19  O   UNL     1     -32.058  40.793 -26.125  1.00  0.00    -0.504 OA
ATOM     20  H   UNL     1     -31.177  40.295 -26.115  1.00  0.00     0.293 HD
ENDBRANCH  16  19
BRANCH  18  21
ATOM     21  O   UNL     1     -31.127  40.693 -23.461  1.00  0.00    -0.504 OA
ATOM     22  H   UNL     1     -30.760  40.428 -22.554  1.00  0.00     0.293 HD
ENDBRANCH  18  21
ENDBRANCH   3  13
BRANCH  11  23
ATOM     23  O   UNL     1     -38.577  40.592 -17.565  1.00  0.00    -0.507 OA
ATOM     24  H   UNL     1     -38.091  39.919 -16.983  1.00  0.00     0.293 HD
ENDBRANCH  11  23
ENDBRANCH   1   2
BRANCH   1  25
ATOM     25  C   UNL     1     -42.437  38.325 -20.873  1.00  0.00     0.339 C 
ATOM     26  C   UNL     1     -43.928  38.509 -21.253  1.00  0.00     0.214 C 
ATOM     27  O   UNL     1     -42.308  38.023 -19.490  1.00  0.00    -0.332 OA
ATOM     28  C   UNL     1     -44.566  39.593 -20.365  1.00  0.00     0.180 C 
ATOM     29  C   UNL     1     -42.785  39.083 -18.672  1.00  0.00     0.179 C 
ATOM     30  C   UNL     1     -44.304  39.291 -18.878  1.00  0.00     0.177 C 
BRANCH  26  31
ATOM     31  O   UNL     1     -44.062  38.873 -22.601  1.00  0.00    -0.384 OA
ATOM     32  H   UNL     1     -44.536  38.129 -23.055  1.00  0.00     0.211 HD
ENDBRANCH  26  31
BRANCH  28  33
ATOM     33  O   UNL     1     -45.943  39.726 -20.623  1.00  0.00    -0.387 OA
ATOM     34  H   UNL     1     -46.071  40.515 -21.210  1.00  0.00     0.211 HD
ENDBRANCH  28  33
BRANCH  29  35
ATOM     35  C   UNL     1     -42.445  38.758 -17.208  1.00  0.00     0.191 C 
BRANCH  35  36
ATOM     36  O   UNL     1     -43.562  38.940 -16.378  1.00  0.00    -0.394 OA
ATOM     37  H   UNL     1     -44.191  38.200 -16.583  1.00  0.00     0.210 HD
ENDBRANCH  35  36
ENDBRANCH  29  35
BRANCH  30  38
ATOM     38  O   UNL     1     -45.013  38.138 -18.492  1.00  0.00    -0.387 OA
ATOM     39  H   UNL     1     -45.954  38.412 -18.334  1.00  0.00     0.211 HD
ENDBRANCH  30  38
ENDBRANCH   1  25
TORSDOF 11
ENDMDL
MODEL 2
REMARK VINA RESULT:    78.956     10.121     13.443
REMARK INTER + INTRA:         113.920
REMARK INTER:                 114.914
REMARK INTRA:                  -0.994
REMARK UNBOUND:                 0.345
REMARK SMILES O=c1cc(-c2ccc(O)c(O)c2)oc2cc(O[C@H]3O[C@H](CO)[C@H](O)[C@H](O)[C@H]3O)cc(O)c12
REMARK SMILES IDX 17 1 16 2 4 3 3 4 13 5 2 6 14 7 1 8 32 9 15 10 30 11 29 12
REMARK SMILES IDX 5 13 6 14 7 15 8 16 12 17 10 18 9 19 11 21 31 23 18 25 27 26
REMARK SMILES IDX 19 27 25 28 20 29 23 30 28 31 26 33 21 35 22 36 24 38
REMARK H PARENT 9 20 11 22 31 24 28 32 26 34 22 37 24 39
REMARK Flexibility Score: inf
ROOT
ATOM      1  O   UNL     1     -34.951  29.966 -19.487  1.00  0.00    -0.462 OA
ENDROOT
BRANCH   1   2
ATOM      2  C   UNL     1     -36.010  29.250 -20.074  1.00  0.00     0.130 A 
ATOM      3  C   UNL     1     -40.519  29.436 -21.620  1.00  0.00     0.138 A 
ATOM      4  C   UNL     1     -40.508  28.085 -22.006  1.00  0.00     0.100 A 
ATOM      5  O   UNL     1     -39.427  29.967 -21.074  1.00  0.00    -0.456 OA
ATOM      6  C   UNL     1     -39.351  27.327 -21.823  1.00  0.00     0.197 A 
ATOM      7  C   UNL     1     -38.302  29.287 -20.879  1.00  0.00     0.146 A 
ATOM      8  O   UNL     1     -39.352  26.116 -22.171  1.00  0.00    -0.289 OA
ATOM      9  C   UNL     1     -38.211  27.926 -21.250  1.00  0.00     0.107 A 
ATOM     10  C   UNL     1     -37.207  29.933 -20.299  1.00  0.00     0.094 A 
ATOM     11  C   UNL     1     -36.999  27.233 -21.033  1.00  0.00     0.134 A 
ATOM     12  C   UNL     1     -35.908  27.898 -20.451  1.00  0.00     0.093 A 
BRANCH   3  13
ATOM     13  C   UNL     1     -41.720  30.290 -21.790  1.00  0.00     0.021 A 
ATOM     14  C   UNL     1     -41.942  30.935 -23.020  1.00  0.00     0.016 A 
ATOM     15  C   UNL     1     -43.068  31.738 -23.208  1.00  0.00     0.051 A 
ATOM     16  C   UNL     1     -43.999  31.905 -22.179  1.00  0.00     0.157 A 
ATOM     17  C   UNL     1     -42.667  30.451 -20.760  1.00  0.00     0.062 A 
ATOM     18  C   UNL     1     -43.800  31.256 -20.949  1.00  0.00     0.158 A 
BRANCH  16  19
ATOM     19  O   UNL     1     -45.112  32.715 -22.396  1.00  0.00    -0.504 OA
ATOM     20  H   UNL     1     -45.571  32.768 -23.298  1.00  0.00     0.293 HD
ENDBRANCH  16  19
BRANCH  18  21
ATOM     21  O   UNL     1     -44.730  31.410 -19.922  1.00  0.00    -0.504 OA
ATOM     22  H   UNL     1     -45.415  32.156 -19.933  1.00  0.00     0.293 HD
ENDBRANCH  18  21
ENDBRANCH   3  13
BRANCH  11  23
ATOM     23  O   UNL     1     -36.868  25.890 -21.392  1.00  0.00    -0.507 OA
ATOM     24  H   UNL     1     -37.626  25.228 -21.268  1.00  0.00     0.293 HD
ENDBRANCH  11  23
ENDBRANCH   1   2
BRANCH   1  25
ATOM     25  C   UNL     1     -34.838  30.365 -18.114  1.00  0.00     0.339 C 
ATOM     26  C   UNL     1     -34.516  31.874 -17.976  1.00  0.00     0.214 C 
ATOM     27  O   UNL     1     -33.851  29.582 -17.458  1.00  0.00    -0.332 OA
ATOM     28  C   UNL     1     -33.103  32.161 -18.514  1.00  0.00     0.180 C 
ATOM     29  C   UNL     1     -32.567  29.755 -18.040  1.00  0.00     0.179 C 
ATOM     30  C   UNL     1     -32.078  31.213 -17.863  1.00  0.00     0.177 C 
BRANCH  26  31
ATOM     31  O   UNL     1     -35.449  32.654 -18.678  1.00  0.00    -0.384 OA
ATOM     32  H   UNL     1     -36.084  32.025 -19.109  1.00  0.00     0.211 HD
ENDBRANCH  26  31
BRANCH  28  33
ATOM     33  O   UNL     1     -32.741  33.507 -18.325  1.00  0.00    -0.387 OA
ATOM     34  H   UNL     1     -32.883  33.733 -17.369  1.00  0.00     0.211 HD
ENDBRANCH  28  33
BRANCH  29  35
ATOM     35  C   UNL     1     -31.601  28.746 -17.397  1.00  0.00     0.191 C 
BRANCH  35  36
ATOM     36  O   UNL     1     -31.707  28.766 -15.998  1.00  0.00    -0.394 OA
ATOM     37  H   UNL     1     -32.535  28.268 -15.769  1.00  0.00     0.210 HD
ENDBRANCH  35  36
ENDBRANCH  29  35
BRANCH  30  38
ATOM     38  O   UNL     1     -31.943  31.521 -16.497  1.00  0.00    -0.387 OA
ATOM     39  H   UNL     1     -30.973  31.630 -16.316  1.00  0.00     0.211 HD
ENDBRANCH  30  38
ENDBRANCH   1  25
TORSDOF 11
ENDMDL
