MODEL 1
REMARK VINA RESULT:    -6.285      0.000      0.000
REMARK INTER + INTRA:          -8.960
REMARK INTER:                  -7.754
REMARK INTRA:                  -1.206
REMARK UNBOUND:                -1.206
REMARK SMILES C=C(CCC=C(C)C)[C@H]1CC=C(C)CC1
REMARK SMILES IDX 3 1 2 2 1 3 9 4 13 5 12 6 11 7 14 8 10 9 15 10 4 11 5 12
REMARK SMILES IDX 6 13 7 14 8 15
REMARK H PARENT
REMARK Flexibility Score: inf
ROOT
ATOM      1  C   UNL     1     109.257 110.645 111.653  1.00  0.00     0.035 C 
ENDROOT
BRANCH   1   2
ATOM      2  C   UNL     1     109.270 111.836 112.593  1.00  0.00    -0.074 C 
ATOM      3  C   UNL     1     109.397 113.070 112.077  1.00  0.00     0.008 C 
BRANCH   2   4
ATOM      4  C   UNL     1     109.064 111.661 114.092  1.00  0.00     0.018 C 
ATOM      5  C   UNL     1     109.475 110.640 118.329  1.00  0.00     0.039 C 
ATOM      6  C   UNL     1     109.475 110.947 116.856  1.00  0.00    -0.077 C 
ATOM      7  C   UNL     1     109.096 109.985 115.987  1.00  0.00    -0.027 C 
ATOM      8  C   UNL     1     109.773 112.363 116.403  1.00  0.00     0.031 C 
ATOM      9  C   UNL     1     109.114 110.176 114.490  1.00  0.00     0.035 C 
ATOM     10  C   UNL     1     110.094 112.456 114.907  1.00  0.00     0.013 C 
ENDBRANCH   2   4
ENDBRANCH   1   2
BRANCH   1  11
ATOM     11  C   UNL     1     110.644 110.405 111.045  1.00  0.00     0.032 C 
BRANCH  11  12
ATOM     12  C   UNL     1     111.657 110.068 112.112  1.00  0.00    -0.028 C 
ATOM     13  C   UNL     1     112.691 110.878 112.427  1.00  0.00    -0.080 C 
ATOM     14  C   UNL     1     113.646 110.445 113.511  1.00  0.00     0.039 C 
ATOM     15  C   UNL     1     112.907 112.195 111.721  1.00  0.00     0.039 C 
ENDBRANCH  11  12
ENDBRANCH   1  11
TORSDOF 4
ENDMDL
MODEL 2
REMARK VINA RESULT:    -6.251      1.994      3.908
REMARK INTER + INTRA:          -8.918
REMARK INTER:                  -7.697
REMARK INTRA:                  -1.221
REMARK UNBOUND:                -1.206
REMARK SMILES C=C(CCC=C(C)C)[C@H]1CC=C(C)CC1
REMARK SMILES IDX 3 1 2 2 1 3 9 4 13 5 12 6 11 7 14 8 10 9 15 10 4 11 5 12
REMARK SMILES IDX 6 13 7 14 8 15
REMARK H PARENT
REMARK Flexibility Score: inf
ROOT
ATOM      1  C   UNL     1     113.009 111.590 111.600  1.00  0.00     0.035 C 
ENDROOT
BRANCH   1   2
ATOM      2  C   UNL     1     112.997 110.421 112.566  1.00  0.00    -0.074 C 
ATOM      3  C   UNL     1     112.876 109.175 112.079  1.00  0.00     0.008 C 
BRANCH   2   4
ATOM      4  C   UNL     1     113.198 110.631 114.062  1.00  0.00     0.018 C 
ATOM      5  C   UNL     1     112.792 111.785 118.264  1.00  0.00     0.039 C 
ATOM      6  C   UNL     1     112.792 111.437 116.801  1.00  0.00    -0.077 C 
ATOM      7  C   UNL     1     113.210 112.360 115.909  1.00  0.00    -0.027 C 
ATOM      8  C   UNL     1     112.449 110.020 116.385  1.00  0.00     0.031 C 
ATOM      9  C   UNL     1     113.196 112.128 114.417  1.00  0.00     0.035 C 
ATOM     10  C   UNL     1     112.135 109.895 114.890  1.00  0.00     0.013 C 
ENDBRANCH   2   4
ENDBRANCH   1   2
BRANCH   1  11
ATOM     11  C   UNL     1     111.615 111.835 111.010  1.00  0.00     0.032 C 
BRANCH  11  12
ATOM     12  C   UNL     1     110.615 112.168 112.091  1.00  0.00    -0.028 C 
ATOM     13  C   UNL     1     109.567 111.372 112.395  1.00  0.00    -0.080 C 
ATOM     14  C   UNL     1     108.629 111.799 113.495  1.00  0.00     0.039 C 
ATOM     15  C   UNL     1     109.320 110.076 111.662  1.00  0.00     0.039 C 
ENDBRANCH  11  12
ENDBRANCH   1  11
TORSDOF 4
ENDMDL
MODEL 3
REMARK VINA RESULT:    -6.243      3.262      4.691
REMARK INTER + INTRA:          -8.908
REMARK INTER:                  -7.668
REMARK INTRA:                  -1.241
REMARK UNBOUND:                -1.206
REMARK SMILES C=C(CCC=C(C)C)[C@H]1CC=C(C)CC1
REMARK SMILES IDX 3 1 2 2 1 3 9 4 13 5 12 6 11 7 14 8 10 9 15 10 4 11 5 12
REMARK SMILES IDX 6 13 7 14 8 15
REMARK H PARENT
REMARK Flexibility Score: inf
ROOT
ATOM      1  C   UNL     1     109.169 110.462 107.074  1.00  0.00     0.035 C 
ENDROOT
BRANCH   1   2
ATOM      2  C   UNL     1     109.174 111.679 107.979  1.00  0.00    -0.074 C 
ATOM      3  C   UNL     1     109.192 112.903 107.424  1.00  0.00     0.008 C 
BRANCH   2   4
ATOM      4  C   UNL     1     109.080 111.538 109.493  1.00  0.00     0.018 C 
ATOM      5  C   UNL     1     109.816 110.634 113.712  1.00  0.00     0.039 C 
ATOM      6  C   UNL     1     109.704 110.903 112.236  1.00  0.00    -0.077 C 
ATOM      7  C   UNL     1     109.286 109.912 111.420  1.00  0.00    -0.027 C 
ATOM      8  C   UNL     1     109.936 112.313 111.729  1.00  0.00     0.031 C 
ATOM      9  C   UNL     1     109.192 110.065 109.921  1.00  0.00     0.035 C 
ATOM     10  C   UNL     1     110.147 112.375 110.213  1.00  0.00     0.013 C 
ENDBRANCH   2   4
ENDBRANCH   1   2
BRANCH   1  11
ATOM     11  C   UNL     1     110.518 110.294 106.365  1.00  0.00     0.032 C 
BRANCH  11  12
ATOM     12  C   UNL     1     111.625 110.023 107.354  1.00  0.00    -0.028 C 
ATOM     13  C   UNL     1     112.644 110.884 107.573  1.00  0.00    -0.080 C 
ATOM     14  C   UNL     1     113.698 110.515 108.584  1.00  0.00     0.039 C 
ATOM     15  C   UNL     1     112.744 112.194 106.830  1.00  0.00     0.039 C 
ENDBRANCH  11  12
ENDBRANCH   1  11
TORSDOF 4
ENDMDL
MODEL 4
REMARK VINA RESULT:    -6.226      3.619      6.349
REMARK INTER + INTRA:          -8.888
REMARK INTER:                  -7.651
REMARK INTRA:                  -1.236
REMARK UNBOUND:                -1.206
REMARK SMILES C=C(CCC=C(C)C)[C@H]1CC=C(C)CC1
REMARK SMILES IDX 3 1 2 2 1 3 9 4 13 5 12 6 11 7 14 8 10 9 15 10 4 11 5 12
REMARK SMILES IDX 6 13 7 14 8 15
REMARK H PARENT
REMARK Flexibility Score: inf
ROOT
ATOM      1  C   UNL     1     112.925 111.582 106.601  1.00  0.00     0.035 C 
ENDROOT
BRANCH   1   2
ATOM      2  C   UNL     1     112.968 110.422 107.578  1.00  0.00    -0.074 C 
ATOM      3  C   UNL     1     112.881 109.168 107.104  1.00  0.00     0.008 C 
BRANCH   2   4
ATOM      4  C   UNL     1     113.184 110.653 109.068  1.00  0.00     0.018 C 
ATOM      5  C   UNL     1     112.802 111.830 113.267  1.00  0.00     0.039 C 
ATOM      6  C   UNL     1     112.792 111.469 111.807  1.00  0.00    -0.077 C 
ATOM      7  C   UNL     1     113.163 112.399 110.900  1.00  0.00    -0.027 C 
ATOM      8  C   UNL     1     112.493 110.037 111.408  1.00  0.00     0.031 C 
ATOM      9  C   UNL     1     113.134 112.152 109.411  1.00  0.00     0.035 C 
ATOM     10  C   UNL     1     112.160 109.888 109.920  1.00  0.00     0.013 C 
ENDBRANCH   2   4
ENDBRANCH   1   2
BRANCH   1  11
ATOM     11  C   UNL     1     111.515 111.774 106.030  1.00  0.00     0.032 C 
BRANCH  11  12
ATOM     12  C   UNL     1     110.531 112.135 107.116  1.00  0.00    -0.028 C 
ATOM     13  C   UNL     1     109.519 111.322 107.492  1.00  0.00    -0.080 C 
ATOM     14  C   UNL     1     108.592 111.780 108.589  1.00  0.00     0.039 C 
ATOM     15  C   UNL     1     109.301 109.978 106.839  1.00  0.00     0.039 C 
ENDBRANCH  11  12
ENDBRANCH   1  11
TORSDOF 4
ENDMDL
MODEL 5
REMARK VINA RESULT:    -6.225      1.513      4.698
REMARK INTER + INTRA:          -8.886
REMARK INTER:                  -7.673
REMARK INTRA:                  -1.213
REMARK UNBOUND:                -1.206
REMARK SMILES C=C(CCC=C(C)C)[C@H]1CC=C(C)CC1
REMARK SMILES IDX 3 1 2 2 1 3 9 4 13 5 12 6 11 7 14 8 10 9 15 10 4 11 5 12
REMARK SMILES IDX 6 13 7 14 8 15
REMARK H PARENT
REMARK Flexibility Score: inf
ROOT
ATOM      1  C   UNL     1     110.069 112.769 114.989  1.00  0.00     0.035 C 
ENDROOT
BRANCH   1   2
ATOM      2  C   UNL     1     109.360 111.555 114.418  1.00  0.00    -0.074 C 
ATOM      3  C   UNL     1     108.926 110.601 115.257  1.00  0.00     0.008 C 
BRANCH   2   4
ATOM      4  C   UNL     1     109.067 111.442 112.927  1.00  0.00     0.018 C 
ATOM      5  C   UNL     1     109.352 111.073 108.575  1.00  0.00     0.039 C 
ATOM      6  C   UNL     1     109.401 111.172 110.075  1.00  0.00    -0.077 C 
ATOM      7  C   UNL     1     109.640 112.372 110.645  1.00  0.00    -0.027 C 
ATOM      8  C   UNL     1     109.049 109.949 110.900  1.00  0.00     0.031 C 
ATOM      9  C   UNL     1     109.762 112.564 112.137  1.00  0.00     0.035 C 
ATOM     10  C   UNL     1     109.481 110.074 112.365  1.00  0.00     0.013 C 
ENDBRANCH   2   4
ENDBRANCH   1   2
BRANCH   1  11
ATOM     11  C   UNL     1     111.474 112.407 115.485  1.00  0.00     0.032 C 
BRANCH  11  12
ATOM     12  C   UNL     1     112.341 111.909 114.355  1.00  0.00    -0.028 C 
ATOM     13  C   UNL     1     112.766 110.630 114.260  1.00  0.00    -0.080 C 
ATOM     14  C   UNL     1     113.629 110.238 113.088  1.00  0.00     0.039 C 
ATOM     15  C   UNL     1     112.396 109.597 115.297  1.00  0.00     0.039 C 
ENDBRANCH  11  12
ENDBRANCH   1  11
TORSDOF 4
ENDMDL
MODEL 6
REMARK VINA RESULT:    -6.200      1.573      5.490
REMARK INTER + INTRA:          -8.856
REMARK INTER:                  -7.667
REMARK INTRA:                  -1.189
REMARK UNBOUND:                -1.206
REMARK SMILES C=C(CCC=C(C)C)[C@H]1CC=C(C)CC1
REMARK SMILES IDX 3 1 2 2 1 3 9 4 13 5 12 6 11 7 14 8 10 9 15 10 4 11 5 12
REMARK SMILES IDX 6 13 7 14 8 15
REMARK H PARENT
REMARK Flexibility Score: inf
ROOT
ATOM      1  C   UNL     1     112.135 109.555 115.107  1.00  0.00     0.035 C 
ENDROOT
BRANCH   1   2
ATOM      2  C   UNL     1     112.881 110.734 114.510  1.00  0.00    -0.074 C 
ATOM      3  C   UNL     1     113.358 111.685 115.329  1.00  0.00     0.008 C 
BRANCH   2   4
ATOM      4  C   UNL     1     113.163 110.813 113.014  1.00  0.00     0.018 C 
ATOM      5  C   UNL     1     112.846 111.094 108.658  1.00  0.00     0.039 C 
ATOM      6  C   UNL     1     112.809 111.027 110.160  1.00  0.00    -0.077 C 
ATOM      7  C   UNL     1     112.562 109.842 110.757  1.00  0.00    -0.027 C 
ATOM      8  C   UNL     1     113.180 112.263 110.957  1.00  0.00     0.031 C 
ATOM      9  C   UNL     1     112.451 109.682 112.254  1.00  0.00     0.035 C 
ATOM     10  C   UNL     1     112.758 112.174 112.428  1.00  0.00     0.013 C 
ENDBRANCH   2   4
ENDBRANCH   1   2
BRANCH   1  11
ATOM     11  C   UNL     1     110.737 109.969 115.583  1.00  0.00     0.032 C 
BRANCH  11  12
ATOM     12  C   UNL     1     109.916 110.528 114.446  1.00  0.00    -0.028 C 
ATOM     13  C   UNL     1     109.555 111.828 114.369  1.00  0.00    -0.080 C 
ATOM     14  C   UNL     1     108.734 112.282 113.189  1.00  0.00     0.039 C 
ATOM     15  C   UNL     1     109.952 112.823 115.432  1.00  0.00     0.039 C 
ENDBRANCH  11  12
ENDBRANCH   1  11
TORSDOF 4
ENDMDL
MODEL 7
REMARK VINA RESULT:    -6.189      3.983      7.133
REMARK INTER + INTRA:          -8.841
REMARK INTER:                  -7.581
REMARK INTRA:                  -1.260
REMARK UNBOUND:                -1.206
REMARK SMILES C=C(CCC=C(C)C)[C@H]1CC=C(C)CC1
REMARK SMILES IDX 3 1 2 2 1 3 9 4 13 5 12 6 11 7 14 8 10 9 15 10 4 11 5 12
REMARK SMILES IDX 6 13 7 14 8 15
REMARK H PARENT
REMARK Flexibility Score: inf
ROOT
ATOM      1  C   UNL     1     109.924 112.509 110.583  1.00  0.00     0.035 C 
ENDROOT
BRANCH   1   2
ATOM      2  C   UNL     1     109.272 111.319 109.905  1.00  0.00    -0.074 C 
ATOM      3  C   UNL     1     108.852 110.290 110.659  1.00  0.00     0.008 C 
BRANCH   2   4
ATOM      4  C   UNL     1     109.018 111.308 108.403  1.00  0.00     0.018 C 
ATOM      5  C   UNL     1     109.417 111.324 104.044  1.00  0.00     0.039 C 
ATOM      6  C   UNL     1     109.428 111.301 105.548  1.00  0.00    -0.077 C 
ATOM      7  C   UNL     1     109.565 112.464 106.220  1.00  0.00    -0.027 C 
ATOM      8  C   UNL     1     109.153 109.991 106.262  1.00  0.00     0.031 C 
ATOM      9  C   UNL     1     109.642 112.540 107.725  1.00  0.00     0.035 C 
ATOM     10  C   UNL     1     109.545 110.025 107.743  1.00  0.00     0.013 C 
ENDBRANCH   2   4
ENDBRANCH   1   2
BRANCH   1  11
ATOM     11  C   UNL     1     111.338 112.165 111.065  1.00  0.00     0.032 C 
BRANCH  11  12
ATOM     12  C   UNL     1     112.263 111.903 109.902  1.00  0.00    -0.028 C 
ATOM     13  C   UNL     1     112.732 110.673 109.597  1.00  0.00    -0.080 C 
ATOM     14  C   UNL     1     113.650 110.521 108.412  1.00  0.00     0.039 C 
ATOM     15  C   UNL     1     112.357 109.460 110.414  1.00  0.00     0.039 C 
ENDBRANCH  11  12
ENDBRANCH   1  11
TORSDOF 4
ENDMDL
MODEL 8
REMARK VINA RESULT:    -6.117      4.141      7.906
REMARK INTER + INTRA:          -8.753
REMARK INTER:                  -7.578
REMARK INTRA:                  -1.175
REMARK UNBOUND:                -1.206
REMARK SMILES C=C(CCC=C(C)C)[C@H]1CC=C(C)CC1
REMARK SMILES IDX 3 1 2 2 1 3 9 4 13 5 12 6 11 7 14 8 10 9 15 10 4 11 5 12
REMARK SMILES IDX 6 13 7 14 8 15
REMARK H PARENT
REMARK Flexibility Score: inf
ROOT
ATOM      1  C   UNL     1     112.092 109.512 110.155  1.00  0.00     0.035 C 
ENDROOT
BRANCH   1   2
ATOM      2  C   UNL     1     112.844 110.692 109.569  1.00  0.00    -0.074 C 
ATOM      3  C   UNL     1     113.314 111.640 110.397  1.00  0.00     0.008 C 
BRANCH   2   4
ATOM      4  C   UNL     1     113.140 110.777 108.077  1.00  0.00     0.018 C 
ATOM      5  C   UNL     1     112.865 111.085 103.720  1.00  0.00     0.039 C 
ATOM      6  C   UNL     1     112.814 111.010 105.221  1.00  0.00    -0.077 C 
ATOM      7  C   UNL     1     112.549 109.824 105.809  1.00  0.00    -0.027 C 
ATOM      8  C   UNL     1     113.191 112.238 106.028  1.00  0.00     0.031 C 
ATOM      9  C   UNL     1     112.422 109.657 107.304  1.00  0.00     0.035 C 
ATOM     10  C   UNL     1     112.755 112.145 107.495  1.00  0.00     0.013 C 
ENDBRANCH   2   4
ENDBRANCH   1   2
BRANCH   1  11
ATOM     11  C   UNL     1     110.688 109.924 110.616  1.00  0.00     0.032 C 
BRANCH  11  12
ATOM     12  C   UNL     1     109.881 110.486 109.471  1.00  0.00    -0.028 C 
ATOM     13  C   UNL     1     109.525 111.787 109.390  1.00  0.00    -0.080 C 
ATOM     14  C   UNL     1     108.718 112.244 108.201  1.00  0.00     0.039 C 
ATOM     15  C   UNL     1     109.915 112.781 110.457  1.00  0.00     0.039 C 
ENDBRANCH  11  12
ENDBRANCH   1  11
TORSDOF 4
ENDMDL
MODEL 9
REMARK VINA RESULT:    -5.948      2.900      6.716
REMARK INTER + INTRA:          -8.544
REMARK INTER:                  -7.365
REMARK INTRA:                  -1.179
REMARK UNBOUND:                -1.206
REMARK SMILES C=C(CCC=C(C)C)[C@H]1CC=C(C)CC1
REMARK SMILES IDX 3 1 2 2 1 3 9 4 13 5 12 6 11 7 14 8 10 9 15 10 4 11 5 12
REMARK SMILES IDX 6 13 7 14 8 15
REMARK H PARENT
REMARK Flexibility Score: inf
ROOT
ATOM      1  C   UNL     1     112.116 109.508 119.767  1.00  0.00     0.035 C 
ENDROOT
BRANCH   1   2
ATOM      2  C   UNL     1     112.888 110.676 119.184  1.00  0.00    -0.074 C 
ATOM      3  C   UNL     1     113.372 111.615 120.015  1.00  0.00     0.008 C 
BRANCH   2   4
ATOM      4  C   UNL     1     113.186 110.760 117.693  1.00  0.00     0.018 C 
ATOM      5  C   UNL     1     112.919 111.091 113.337  1.00  0.00     0.039 C 
ATOM      6  C   UNL     1     112.866 111.012 114.838  1.00  0.00    -0.077 C 
ATOM      7  C   UNL     1     112.574 109.830 115.421  1.00  0.00    -0.027 C 
ATOM      8  C   UNL     1     113.269 112.228 115.650  1.00  0.00     0.031 C 
ATOM      9  C   UNL     1     112.444 109.660 116.915  1.00  0.00     0.035 C 
ATOM     10  C   UNL     1     112.831 112.139 117.116  1.00  0.00     0.013 C 
ENDBRANCH   2   4
ENDBRANCH   1   2
BRANCH   1  11
ATOM     11  C   UNL     1     110.740 109.953 120.279  1.00  0.00     0.032 C 
BRANCH  11  12
ATOM     12  C   UNL     1     109.921 110.575 119.174  1.00  0.00    -0.028 C 
ATOM     13  C   UNL     1     109.581 111.882 119.156  1.00  0.00    -0.080 C 
ATOM     14  C   UNL     1     108.760 112.401 118.004  1.00  0.00     0.039 C 
ATOM     15  C   UNL     1     110.004 112.823 120.259  1.00  0.00     0.039 C 
ENDBRANCH  11  12
ENDBRANCH   1  11
TORSDOF 4
ENDMDL
