MODEL 1
REMARK VINA RESULT:    -3.604      0.000      0.000
REMARK INTER + INTRA:          -5.307
REMARK INTER:                  -5.500
REMARK INTRA:                   0.193
REMARK UNBOUND:                 0.193
REMARK SMILES CC1=CCC[C@@H](C)C(=O)C[C@@H](C(C)C)C(=O)C1
REMARK SMILES IDX 8 1 9 2 6 3 7 4 5 5 4 6 3 7 2 8 1 9 10 11 11 12 15 13 16 14
REMARK SMILES IDX 17 15 12 17 13 18 14 19
REMARK H PARENT
REMARK Flexibility Score: 70.00
ROOT
ATOM      1  C   UNL     1      -8.596  73.004  25.545  1.00  0.00     0.136 C 
ATOM      2  O   UNL     1      -8.444  73.105  26.754  1.00  0.00    -0.299 OA
ENDROOT
BRANCH   1   3
ATOM      3  C   UNL     1      -9.501  73.995  24.838  1.00  0.00     0.053 C 
ATOM      4  C   UNL     1     -10.617  73.268  24.080  1.00  0.00     0.016 C 
BRANCH   3   5
ATOM      5  C   UNL     1      -8.705  74.921  23.898  1.00  0.00     0.015 C 
BRANCH   5   6
ATOM      6  C   UNL     1      -8.698  74.404  22.449  1.00  0.00     0.028 C 
BRANCH   6   7
ATOM      7  C   UNL     1      -7.381  74.704  21.783  1.00  0.00    -0.028 C 
ATOM      8  C   UNL     1      -6.332  73.850  21.735  1.00  0.00    -0.070 CG0
ATOM      9  C   UNL     1      -5.106  74.276  20.969  1.00  0.00     0.039 C 
ATOM     10  G   UNL     1      -6.337  72.497  22.432  1.00  0.00     0.000 G0
ENDBRANCH   6   7
ENDBRANCH   5   6
ENDBRANCH   3   5
ENDBRANCH   1   3
BRANCH   1  11
ATOM     11  C   UNL     1      -7.900  71.875  24.818  1.00  0.00     0.087 C 
BRANCH  11  12
ATOM     12  C   UNL     1      -6.358  71.920  25.001  1.00  0.00     0.066 C 
BRANCH  12  13
ATOM     13  C   UNL     1      -5.669  72.510  23.777  1.00  0.00     0.140 C 
ATOM     14  O   UNL     1      -4.582  73.058  23.896  1.00  0.00    -0.299 OA
BRANCH  13  15
ATOM     15  C   UNL     1      -6.335  72.489  22.423  1.00  0.00     0.106 CG0
ATOM     16  G   UNL     1      -6.300  73.850  21.743  1.00  0.00     0.000 G0
ENDBRANCH  13  15
ENDBRANCH  12  13
BRANCH  12  17
ATOM     17  C   UNL     1      -5.778  70.524  25.391  1.00  0.00    -0.006 C 
ATOM     18  C   UNL     1      -5.062  70.500  26.752  1.00  0.00     0.008 C 
ATOM     19  C   UNL     1      -6.857  69.432  25.342  1.00  0.00     0.008 C 
ENDBRANCH  12  17
ENDBRANCH  11  12
ENDBRANCH   1  11
TORSDOF 1
ENDMDL
MODEL 2
REMARK VINA RESULT:    -3.454     10.593     13.388
REMARK INTER + INTRA:          -5.078
REMARK INTER:                  -4.847
REMARK INTRA:                  -0.231
REMARK UNBOUND:                 0.193
REMARK SMILES CC1=CCC[C@@H](C)C(=O)C[C@@H](C(C)C)C(=O)C1
REMARK SMILES IDX 8 1 9 2 6 3 7 4 5 5 4 6 3 7 2 8 1 9 10 11 11 12 15 13 16 14
REMARK SMILES IDX 17 15 12 17 13 18 14 19
REMARK H PARENT
REMARK Flexibility Score: 70.00
ROOT
ATOM      1  C   UNL     1      -3.548  69.197  34.960  1.00  0.00     0.136 C 
ATOM      2  O   UNL     1      -3.025  69.614  33.937  1.00  0.00    -0.299 OA
ENDROOT
BRANCH   1   3
ATOM      3  C   UNL     1      -3.634  70.115  36.164  1.00  0.00     0.053 C 
ATOM      4  C   UNL     1      -3.092  69.420  37.418  1.00  0.00     0.016 C 
BRANCH   3   5
ATOM      5  C   UNL     1      -5.070  70.624  36.390  1.00  0.00     0.015 C 
BRANCH   5   6
ATOM      6  C   UNL     1      -5.711  70.006  37.645  1.00  0.00     0.028 C 
BRANCH   6   7
ATOM      7  C   UNL     1      -7.133  69.593  37.367  1.00  0.00    -0.028 C 
ATOM      8  C   UNL     1      -7.510  68.355  36.971  1.00  0.00    -0.070 CG0
ATOM      9  C   UNL     1      -8.983  68.083  36.802  1.00  0.00     0.039 C 
ATOM     10  G   UNL     1      -6.514  67.243  36.677  1.00  0.00     0.000 G0
ENDBRANCH   6   7
ENDBRANCH   5   6
ENDBRANCH   3   5
ENDBRANCH   1   3
BRANCH   1  11
ATOM     11  C   UNL     1      -4.058  67.772  34.984  1.00  0.00     0.087 C 
BRANCH  11  12
ATOM     12  C   UNL     1      -5.450  67.634  34.309  1.00  0.00     0.066 C 
BRANCH  12  13
ATOM     13  C   UNL     1      -6.436  66.900  35.210  1.00  0.00     0.140 C 
ATOM     14  O   UNL     1      -7.206  66.081  34.729  1.00  0.00    -0.299 OA
BRANCH  13  15
ATOM     15  C   UNL     1      -6.525  67.213  36.683  1.00  0.00     0.106 CG0
ATOM     16  G   UNL     1      -7.492  68.352  36.973  1.00  0.00     0.000 G0
ENDBRANCH  13  15
ENDBRANCH  12  13
BRANCH  12  17
ATOM     17  C   UNL     1      -5.347  66.985  32.893  1.00  0.00    -0.006 C 
ATOM     18  C   UNL     1      -5.895  67.866  31.758  1.00  0.00     0.008 C 
ATOM     19  C   UNL     1      -3.908  66.548  32.577  1.00  0.00     0.008 C 
ENDBRANCH  12  17
ENDBRANCH  11  12
ENDBRANCH   1  11
TORSDOF 1
ENDMDL
MODEL 3
REMARK VINA RESULT:    -3.373      3.957      6.914
REMARK INTER + INTRA:          -4.955
REMARK INTER:                  -4.537
REMARK INTRA:                  -0.418
REMARK UNBOUND:                 0.193
REMARK SMILES CC1=CCC[C@@H](C)C(=O)C[C@@H](C(C)C)C(=O)C1
REMARK SMILES IDX 8 1 9 2 6 3 7 4 5 5 4 6 3 7 2 8 1 9 10 11 11 12 15 13 16 14
REMARK SMILES IDX 17 15 12 17 13 18 14 19
REMARK H PARENT
REMARK Flexibility Score: 70.00
ROOT
ATOM      1  C   UNL     1      -3.250  69.966  27.469  1.00  0.00     0.136 C 
ATOM      2  O   UNL     1      -2.286  70.433  28.059  1.00  0.00    -0.299 OA
ENDROOT
BRANCH   1   3
ATOM      3  C   UNL     1      -4.262  69.152  28.252  1.00  0.00     0.053 C 
ATOM      4  C   UNL     1      -4.836  69.970  29.415  1.00  0.00     0.016 C 
BRANCH   3   5
ATOM      5  C   UNL     1      -3.659  67.825  28.753  1.00  0.00     0.015 C 
BRANCH   5   6
ATOM      6  C   UNL     1      -3.567  66.775  27.632  1.00  0.00     0.028 C 
BRANCH   6   7
ATOM      7  C   UNL     1      -4.931  66.478  27.067  1.00  0.00    -0.028 C 
ATOM      8  C   UNL     1      -5.316  66.764  25.801  1.00  0.00    -0.070 CG0
ATOM      9  C   UNL     1      -6.696  66.339  25.369  1.00  0.00     0.039 C 
ATOM     10  G   UNL     1      -4.427  67.504  24.814  1.00  0.00     0.000 G0
ENDBRANCH   6   7
ENDBRANCH   5   6
ENDBRANCH   3   5
ENDBRANCH   1   3
BRANCH   1  11
ATOM     11  C   UNL     1      -3.370  70.198  25.978  1.00  0.00     0.087 C 
BRANCH  11  12
ATOM     12  C   UNL     1      -4.831  70.042  25.475  1.00  0.00     0.066 C 
BRANCH  12  13
ATOM     13  C   UNL     1      -4.957  68.896  24.480  1.00  0.00     0.140 C 
ATOM     14  O   UNL     1      -5.538  69.073  23.418  1.00  0.00    -0.299 OA
BRANCH  13  15
ATOM     15  C   UNL     1      -4.433  67.519  24.808  1.00  0.00     0.106 CG0
ATOM     16  G   UNL     1      -5.325  66.784  25.797  1.00  0.00     0.000 G0
ENDBRANCH  13  15
ENDBRANCH  12  13
BRANCH  12  17
ATOM     17  C   UNL     1      -5.396  71.382  24.909  1.00  0.00    -0.006 C 
ATOM     18  C   UNL     1      -6.465  72.038  25.799  1.00  0.00     0.008 C 
ATOM     19  C   UNL     1      -4.273  72.385  24.605  1.00  0.00     0.008 C 
ENDBRANCH  12  17
ENDBRANCH  11  12
ENDBRANCH   1  11
TORSDOF 1
ENDMDL
MODEL 4
REMARK VINA RESULT:    -3.362      3.340      6.408
REMARK INTER + INTRA:          -4.937
REMARK INTER:                  -5.269
REMARK INTRA:                   0.332
REMARK UNBOUND:                 0.193
REMARK SMILES CC1=CCC[C@@H](C)C(=O)C[C@@H](C(C)C)C(=O)C1
REMARK SMILES IDX 8 1 9 2 6 3 7 4 5 5 4 6 3 7 2 8 1 9 10 11 11 12 15 13 16 14
REMARK SMILES IDX 17 15 12 17 13 18 14 19
REMARK H PARENT
REMARK Flexibility Score: 70.00
ROOT
ATOM      1  C   UNL     1      -4.134  69.391  27.499  1.00  0.00     0.136 C 
ATOM      2  O   UNL     1      -3.643  70.105  28.362  1.00  0.00    -0.299 OA
ENDROOT
BRANCH   1   3
ATOM      3  C   UNL     1      -4.553  67.981  27.870  1.00  0.00     0.053 C 
ATOM      4  C   UNL     1      -3.624  67.401  28.943  1.00  0.00     0.016 C 
BRANCH   3   5
ATOM      5  C   UNL     1      -4.613  67.062  26.635  1.00  0.00     0.015 C 
BRANCH   5   6
ATOM      6  C   UNL     1      -6.007  66.439  26.447  1.00  0.00     0.028 C 
BRANCH   6   7
ATOM      7  C   UNL     1      -6.273  66.157  24.991  1.00  0.00    -0.028 C 
ATOM      8  C   UNL     1      -6.806  67.047  24.122  1.00  0.00    -0.070 CG0
ATOM      9  C   UNL     1      -6.944  66.631  22.680  1.00  0.00     0.039 C 
ATOM     10  G   UNL     1      -7.284  68.428  24.543  1.00  0.00     0.000 G0
ENDBRANCH   6   7
ENDBRANCH   5   6
ENDBRANCH   3   5
ENDBRANCH   1   3
BRANCH   1  11
ATOM     11  C   UNL     1      -4.271  69.938  26.095  1.00  0.00     0.087 C 
BRANCH  11  12
ATOM     12  C   UNL     1      -5.750  70.230  25.720  1.00  0.00     0.066 C 
BRANCH  12  13
ATOM     13  C   UNL     1      -6.170  69.462  24.473  1.00  0.00     0.140 C 
ATOM     14  O   UNL     1      -5.642  69.713  23.398  1.00  0.00    -0.299 OA
BRANCH  13  15
ATOM     15  C   UNL     1      -7.276  68.438  24.525  1.00  0.00     0.106 CG0
ATOM     16  G   UNL     1      -6.795  67.049  24.130  1.00  0.00     0.000 G0
ENDBRANCH  13  15
ENDBRANCH  12  13
BRANCH  12  17
ATOM     17  C   UNL     1      -6.026  71.761  25.594  1.00  0.00    -0.006 C 
ATOM     18  C   UNL     1      -4.989  72.518  24.747  1.00  0.00     0.008 C 
ATOM     19  C   UNL     1      -7.443  72.037  25.066  1.00  0.00     0.008 C 
ENDBRANCH  12  17
ENDBRANCH  11  12
ENDBRANCH   1  11
TORSDOF 1
ENDMDL
MODEL 5
REMARK VINA RESULT:    -3.346      3.611      5.883
REMARK INTER + INTRA:          -4.913
REMARK INTER:                  -4.866
REMARK INTRA:                  -0.047
REMARK UNBOUND:                 0.193
REMARK SMILES CC1=CCC[C@@H](C)C(=O)C[C@@H](C(C)C)C(=O)C1
REMARK SMILES IDX 8 1 9 2 6 3 7 4 5 5 4 6 3 7 2 8 1 9 10 11 11 12 15 13 16 14
REMARK SMILES IDX 17 15 12 17 13 18 14 19
REMARK H PARENT
REMARK Flexibility Score: 70.00
ROOT
ATOM      1  C   UNL     1      -5.241  70.885  25.615  1.00  0.00     0.136 C 
ATOM      2  O   UNL     1      -4.221  71.509  25.360  1.00  0.00    -0.299 OA
ENDROOT
BRANCH   1   3
ATOM      3  C   UNL     1      -6.461  71.091  24.738  1.00  0.00     0.053 C 
ATOM      4  C   UNL     1      -7.365  72.189  25.311  1.00  0.00     0.016 C 
BRANCH   3   5
ATOM      5  C   UNL     1      -7.244  69.780  24.535  1.00  0.00     0.015 C 
BRANCH   5   6
ATOM      6  C   UNL     1      -6.519  68.818  23.577  1.00  0.00     0.028 C 
BRANCH   6   7
ATOM      7  C   UNL     1      -6.658  67.394  24.048  1.00  0.00    -0.028 C 
ATOM      8  C   UNL     1      -5.709  66.717  24.737  1.00  0.00    -0.070 CG0
ATOM      9  C   UNL     1      -6.031  65.318  25.197  1.00  0.00     0.039 C 
ATOM     10  G   UNL     1      -4.338  67.300  25.046  1.00  0.00     0.000 G0
ENDBRANCH   6   7
ENDBRANCH   5   6
ENDBRANCH   3   5
ENDBRANCH   1   3
BRANCH   1  11
ATOM     11  C   UNL     1      -5.247  69.961  26.813  1.00  0.00     0.087 C 
BRANCH  11  12
ATOM     12  C   UNL     1      -3.940  69.129  26.921  1.00  0.00     0.066 C 
BRANCH  12  13
ATOM     13  C   UNL     1      -4.170  67.678  26.516  1.00  0.00     0.140 C 
ATOM     14  O   UNL     1      -4.182  66.803  27.371  1.00  0.00    -0.299 OA
BRANCH  13  15
ATOM     15  C   UNL     1      -4.318  67.288  25.066  1.00  0.00     0.106 CG0
ATOM     16  G   UNL     1      -5.702  66.736  24.757  1.00  0.00     0.000 G0
ENDBRANCH  13  15
ENDBRANCH  12  13
BRANCH  12  17
ATOM     17  C   UNL     1      -3.286  69.253  28.332  1.00  0.00    -0.006 C 
ATOM     18  C   UNL     1      -2.010  70.112  28.359  1.00  0.00     0.008 C 
ATOM     19  C   UNL     1      -4.291  69.765  29.376  1.00  0.00     0.008 C 
ENDBRANCH  12  17
ENDBRANCH  11  12
ENDBRANCH   1  11
TORSDOF 1
ENDMDL
MODEL 6
REMARK VINA RESULT:    -3.256      3.303      5.895
REMARK INTER + INTRA:          -4.776
REMARK INTER:                  -4.544
REMARK INTRA:                  -0.232
REMARK UNBOUND:                 0.193
REMARK SMILES CC1=CCC[C@@H](C)C(=O)C[C@@H](C(C)C)C(=O)C1
REMARK SMILES IDX 8 1 9 2 6 3 7 4 5 5 4 6 3 7 2 8 1 9 10 11 11 12 15 13 16 14
REMARK SMILES IDX 17 15 12 17 13 18 14 19
REMARK H PARENT
REMARK Flexibility Score: 70.00
ROOT
ATOM      1  C   UNL     1      -6.554  68.503  24.316  1.00  0.00     0.136 C 
ATOM      2  O   UNL     1      -6.612  67.494  25.004  1.00  0.00    -0.299 OA
ENDROOT
BRANCH   1   3
ATOM      3  C   UNL     1      -6.059  68.386  22.887  1.00  0.00     0.053 C 
ATOM      4  C   UNL     1      -7.075  67.635  22.019  1.00  0.00     0.016 C 
BRANCH   3   5
ATOM      5  C   UNL     1      -4.672  67.718  22.819  1.00  0.00     0.015 C 
BRANCH   5   6
ATOM      6  C   UNL     1      -3.555  68.655  23.312  1.00  0.00     0.028 C 
BRANCH   6   7
ATOM      7  C   UNL     1      -2.979  68.158  24.612  1.00  0.00    -0.028 C 
ATOM      8  C   UNL     1      -2.911  68.887  25.750  1.00  0.00    -0.070 CG0
ATOM      9  C   UNL     1      -2.368  68.218  26.987  1.00  0.00     0.039 C 
ATOM     10  G   UNL     1      -3.340  70.345  25.825  1.00  0.00     0.000 G0
ENDBRANCH   6   7
ENDBRANCH   5   6
ENDBRANCH   3   5
ENDBRANCH   1   3
BRANCH   1  11
ATOM     11  C   UNL     1      -6.951  69.826  24.934  1.00  0.00     0.087 C 
BRANCH  11  12
ATOM     12  C   UNL     1      -5.775  70.841  24.955  1.00  0.00     0.066 C 
BRANCH  12  13
ATOM     13  C   UNL     1      -4.802  70.543  26.089  1.00  0.00     0.140 C 
ATOM     14  O   UNL     1      -5.207  70.498  27.242  1.00  0.00    -0.299 OA
BRANCH  13  15
ATOM     15  C   UNL     1      -3.328  70.364  25.822  1.00  0.00     0.106 CG0
ATOM     16  G   UNL     1      -2.926  68.898  25.765  1.00  0.00     0.000 G0
ENDBRANCH  13  15
ENDBRANCH  12  13
BRANCH  12  17
ATOM     17  C   UNL     1      -6.283  72.316  24.983  1.00  0.00    -0.006 C 
ATOM     18  C   UNL     1      -6.298  73.002  23.606  1.00  0.00     0.008 C 
ATOM     19  C   UNL     1      -7.666  72.425  25.643  1.00  0.00     0.008 C 
ENDBRANCH  12  17
ENDBRANCH  11  12
ENDBRANCH   1  11
TORSDOF 1
ENDMDL
MODEL 7
REMARK VINA RESULT:    -3.251     11.446     14.313
REMARK INTER + INTRA:          -4.769
REMARK INTER:                  -4.313
REMARK INTRA:                  -0.456
REMARK UNBOUND:                 0.193
REMARK SMILES CC1=CCC[C@@H](C)C(=O)C[C@@H](C(C)C)C(=O)C1
REMARK SMILES IDX 8 1 9 2 6 3 7 4 5 5 4 6 3 7 2 8 1 9 10 11 11 12 15 13 16 14
REMARK SMILES IDX 17 15 12 17 13 18 14 19
REMARK H PARENT
REMARK Flexibility Score: 70.00
ROOT
ATOM      1  C   UNL     1      -7.968  67.567  36.412  1.00  0.00     0.136 C 
ATOM      2  O   UNL     1      -9.188  67.619  36.479  1.00  0.00    -0.299 OA
ENDROOT
BRANCH   1   3
ATOM      3  C   UNL     1      -7.227  66.608  37.324  1.00  0.00     0.053 C 
ATOM      4  C   UNL     1      -7.504  65.154  36.926  1.00  0.00     0.016 C 
BRANCH   3   5
ATOM      5  C   UNL     1      -7.571  66.852  38.806  1.00  0.00     0.015 C 
BRANCH   5   6
ATOM      6  C   UNL     1      -7.073  68.223  39.296  1.00  0.00     0.028 C 
BRANCH   6   7
ATOM      7  C   UNL     1      -5.567  68.254  39.349  1.00  0.00    -0.028 C 
ATOM      8  C   UNL     1      -4.787  69.036  38.568  1.00  0.00    -0.070 CG0
ATOM      9  C   UNL     1      -3.297  69.000  38.793  1.00  0.00     0.039 C 
ATOM     10  G   UNL     1      -5.348  69.929  37.471  1.00  0.00     0.000 G0
ENDBRANCH   6   7
ENDBRANCH   5   6
ENDBRANCH   3   5
ENDBRANCH   1   3
BRANCH   1  11
ATOM     11  C   UNL     1      -7.255  68.484  35.442  1.00  0.00     0.087 C 
BRANCH  11  12
ATOM     12  C   UNL     1      -5.718  68.262  35.446  1.00  0.00     0.066 C 
BRANCH  12  13
ATOM     13  C   UNL     1      -4.986  69.444  36.070  1.00  0.00     0.140 C 
ATOM     14  O   UNL     1      -4.062  69.974  35.468  1.00  0.00    -0.299 OA
BRANCH  13  15
ATOM     15  C   UNL     1      -5.338  69.935  37.452  1.00  0.00     0.106 CG0
ATOM     16  G   UNL     1      -4.770  69.041  38.544  1.00  0.00     0.000 G0
ENDBRANCH  13  15
ENDBRANCH  12  13
BRANCH  12  17
ATOM     17  C   UNL     1      -5.177  67.916  34.023  1.00  0.00    -0.006 C 
ATOM     18  C   UNL     1      -4.285  66.663  33.979  1.00  0.00     0.008 C 
ATOM     19  C   UNL     1      -6.318  67.788  33.002  1.00  0.00     0.008 C 
ENDBRANCH  12  17
ENDBRANCH  11  12
ENDBRANCH   1  11
TORSDOF 1
ENDMDL
MODEL 8
REMARK VINA RESULT:    -3.212     11.403     13.053
REMARK INTER + INTRA:          -4.709
REMARK INTER:                  -4.368
REMARK INTRA:                  -0.341
REMARK UNBOUND:                 0.193
REMARK SMILES CC1=CCC[C@@H](C)C(=O)C[C@@H](C(C)C)C(=O)C1
REMARK SMILES IDX 8 1 9 2 6 3 7 4 5 5 4 6 3 7 2 8 1 9 10 11 11 12 15 13 16 14
REMARK SMILES IDX 17 15 12 17 13 18 14 19
REMARK H PARENT
REMARK Flexibility Score: 70.00
ROOT
ATOM      1  C   UNL     1      -5.660  69.670  36.634  1.00  0.00     0.136 C 
ATOM      2  O   UNL     1      -5.723  70.873  36.841  1.00  0.00    -0.299 OA
ENDROOT
BRANCH   1   3
ATOM      3  C   UNL     1      -4.483  68.894  37.192  1.00  0.00     0.053 C 
ATOM      4  C   UNL     1      -4.306  69.174  38.689  1.00  0.00     0.016 C 
BRANCH   3   5
ATOM      5  C   UNL     1      -3.186  69.192  36.415  1.00  0.00     0.015 C 
BRANCH   5   6
ATOM      6  C   UNL     1      -3.436  69.320  34.903  1.00  0.00     0.028 C 
BRANCH   6   7
ATOM      7  C   UNL     1      -3.152  68.015  34.205  1.00  0.00    -0.028 C 
ATOM      8  C   UNL     1      -4.063  67.311  33.492  1.00  0.00    -0.070 CG0
ATOM      9  C   UNL     1      -3.601  66.057  32.796  1.00  0.00     0.039 C 
ATOM     10  G   UNL     1      -5.524  67.723  33.383  1.00  0.00     0.000 G0
ENDBRANCH   6   7
ENDBRANCH   5   6
ENDBRANCH   3   5
ENDBRANCH   1   3
BRANCH   1  11
ATOM     11  C   UNL     1      -6.746  69.018  35.806  1.00  0.00     0.087 C 
BRANCH  11  12
ATOM     12  C   UNL     1      -6.609  67.472  35.768  1.00  0.00     0.066 C 
BRANCH  12  13
ATOM     13  C   UNL     1      -6.412  66.964  34.345  1.00  0.00     0.140 C 
ATOM     14  O   UNL     1      -6.930  65.912  33.998  1.00  0.00    -0.299 OA
BRANCH  13  15
ATOM     15  C   UNL     1      -5.534  67.707  33.368  1.00  0.00     0.106 CG0
ATOM     16  G   UNL     1      -4.070  67.312  33.494  1.00  0.00     0.000 G0
ENDBRANCH  13  15
ENDBRANCH  12  13
BRANCH  12  17
ATOM     17  C   UNL     1      -7.798  66.765  36.489  1.00  0.00    -0.006 C 
ATOM     18  C   UNL     1      -7.423  66.119  37.834  1.00  0.00     0.008 C 
ATOM     19  C   UNL     1      -8.991  67.716  36.674  1.00  0.00     0.008 C 
ENDBRANCH  12  17
ENDBRANCH  11  12
ENDBRANCH   1  11
TORSDOF 1
ENDMDL
MODEL 9
REMARK VINA RESULT:    -3.033      4.202      6.641
REMARK INTER + INTRA:          -4.436
REMARK INTER:                  -4.172
REMARK INTRA:                  -0.264
REMARK UNBOUND:                 0.193
REMARK SMILES CC1=CCC[C@@H](C)C(=O)C[C@@H](C(C)C)C(=O)C1
REMARK SMILES IDX 8 1 9 2 6 3 7 4 5 5 4 6 3 7 2 8 1 9 10 11 11 12 15 13 16 14
REMARK SMILES IDX 17 15 12 17 13 18 14 19
REMARK H PARENT
REMARK Flexibility Score: 70.00
ROOT
ATOM      1  C   UNL     1      -6.387  69.377  24.914  1.00  0.00     0.136 C 
ATOM      2  O   UNL     1      -7.526  69.575  24.514  1.00  0.00    -0.299 OA
ENDROOT
BRANCH   1   3
ATOM      3  C   UNL     1      -5.730  68.043  24.618  1.00  0.00     0.053 C 
ATOM      4  C   UNL     1      -5.746  67.751  23.114  1.00  0.00     0.016 C 
BRANCH   3   5
ATOM      5  C   UNL     1      -6.386  66.897  25.412  1.00  0.00     0.015 C 
BRANCH   5   6
ATOM      6  C   UNL     1      -5.805  66.772  26.832  1.00  0.00     0.028 C 
BRANCH   6   7
ATOM      7  C   UNL     1      -4.303  66.668  26.785  1.00  0.00    -0.028 C 
ATOM      8  C   UNL     1      -3.453  67.617  27.242  1.00  0.00    -0.070 CG0
ATOM      9  C   UNL     1      -1.975  67.330  27.185  1.00  0.00     0.039 C 
ATOM     10  G   UNL     1      -3.926  68.956  27.789  1.00  0.00     0.000 G0
ENDBRANCH   6   7
ENDBRANCH   5   6
ENDBRANCH   3   5
ENDBRANCH   1   3
BRANCH   1  11
ATOM     11  C   UNL     1      -5.701  70.463  25.714  1.00  0.00     0.087 C 
BRANCH  11  12
ATOM     12  C   UNL     1      -4.154  70.395  25.592  1.00  0.00     0.066 C 
BRANCH  12  13
ATOM     13  C   UNL     1      -3.501  70.120  26.941  1.00  0.00     0.140 C 
ATOM     14  O   UNL     1      -2.577  70.824  27.323  1.00  0.00    -0.299 OA
BRANCH  13  15
ATOM     15  C   UNL     1      -3.932  68.950  27.791  1.00  0.00     0.106 CG0
ATOM     16  G   UNL     1      -3.449  67.621  27.229  1.00  0.00     0.000 G0
ENDBRANCH  13  15
ENDBRANCH  12  13
BRANCH  12  17
ATOM     17  C   UNL     1      -3.569  71.664  24.899  1.00  0.00    -0.006 C 
ATOM     18  C   UNL     1      -2.500  71.362  23.835  1.00  0.00     0.008 C 
ATOM     19  C   UNL     1      -4.679  72.542  24.299  1.00  0.00     0.008 C 
ENDBRANCH  12  17
ENDBRANCH  11  12
ENDBRANCH   1  11
TORSDOF 1
ENDMDL
