MODEL 1
REMARK VINA RESULT:    -5.905      0.000      0.000
REMARK INTER + INTRA:         -11.619
REMARK INTER:                 -10.738
REMARK INTRA:                  -0.881
REMARK UNBOUND:                -0.881
REMARK SMILES CCCCCCCCCCCCCC[C@H](C)C(=O)[O-]
REMARK SMILES IDX 9 1 10 2 11 3 12 4 13 5 14 6 15 7 16 8 17 9 18 10 19 11 8 12
REMARK SMILES IDX 7 13 6 14 5 15 4 16 3 17 2 18 1 19
REMARK H PARENT
REMARK Flexibility Score: inf
ROOT
ATOM      1  C   UNL     1      58.163 144.266 -30.073  1.00  0.00     0.000 C 
ENDROOT
BRANCH   1   2
ATOM      2  C   UNL     1      56.742 143.717 -29.848  1.00  0.00     0.000 C 
BRANCH   2   3
ATOM      3  C   UNL     1      56.201 144.023 -28.444  1.00  0.00     0.000 C 
BRANCH   3   4
ATOM      4  C   UNL     1      55.148 142.990 -28.024  1.00  0.00     0.000 C 
BRANCH   4   5
ATOM      5  C   UNL     1      55.423 142.468 -26.606  1.00  0.00     0.001 C 
BRANCH   5   6
ATOM      6  C   UNL     1      56.154 143.487 -25.711  1.00  0.00     0.009 C 
BRANCH   6   7
ATOM      7  C   UNL     1      55.444 143.763 -24.364  1.00  0.00     0.032 C 
ATOM      8  C   UNL     1      54.705 142.510 -23.879  1.00  0.00     0.014 C 
BRANCH   7   9
ATOM      9  C   UNL     1      54.465 144.900 -24.467  1.00  0.00     0.044 C 
ATOM     10  O   UNL     1      54.058 145.283 -25.596  1.00  0.00    -0.550 OA
ATOM     11  O   UNL     1      54.029 145.563 -23.325  1.00  0.00    -0.550 OA
ENDBRANCH   7   9
ENDBRANCH   6   7
ENDBRANCH   5   6
ENDBRANCH   4   5
ENDBRANCH   3   4
ENDBRANCH   2   3
ENDBRANCH   1   2
BRANCH   1  12
ATOM     12  C   UNL     1      58.942 143.599 -31.226  1.00  0.00     0.000 C 
BRANCH  12  13
ATOM     13  C   UNL     1      59.155 144.483 -32.471  1.00  0.00    -0.000 C 
BRANCH  13  14
ATOM     14  C   UNL     1      60.194 143.952 -33.474  1.00  0.00    -0.000 C 
BRANCH  14  15
ATOM     15  C   UNL     1      60.318 144.832 -34.726  1.00  0.00    -0.000 C 
BRANCH  15  16
ATOM     16  C   UNL     1      61.453 145.852 -34.569  1.00  0.00    -0.000 C 
BRANCH  16  17
ATOM     17  C   UNL     1      60.989 147.258 -34.979  1.00  0.00    -0.000 C 
BRANCH  17  18
ATOM     18  C   UNL     1      59.681 147.673 -34.290  1.00  0.00    -0.003 C 
ATOM     19  C   UNL     1      59.881 148.065 -32.826  1.00  0.00     0.004 C 
ENDBRANCH  17  18
ENDBRANCH  16  17
ENDBRANCH  15  16
ENDBRANCH  14  15
ENDBRANCH  13  14
ENDBRANCH  12  13
ENDBRANCH   1  12
TORSDOF 14
ENDMDL
MODEL 2
REMARK VINA RESULT:    -5.155      1.851      2.222
REMARK INTER + INTRA:         -10.254
REMARK INTER:                  -9.471
REMARK INTRA:                  -0.783
REMARK UNBOUND:                -0.881
REMARK SMILES CCCCCCCCCCCCCC[C@H](C)C(=O)[O-]
REMARK SMILES IDX 9 1 10 2 11 3 12 4 13 5 14 6 15 7 16 8 17 9 18 10 19 11 8 12
REMARK SMILES IDX 7 13 6 14 5 15 4 16 3 17 2 18 1 19
REMARK H PARENT
REMARK Flexibility Score: inf
ROOT
ATOM      1  C   UNL     1      58.093 144.218 -30.021  1.00  0.00     0.000 C 
ENDROOT
BRANCH   1   2
ATOM      2  C   UNL     1      56.673 143.644 -29.865  1.00  0.00     0.000 C 
BRANCH   2   3
ATOM      3  C   UNL     1      55.902 144.270 -28.694  1.00  0.00     0.000 C 
BRANCH   3   4
ATOM      4  C   UNL     1      56.640 144.046 -27.368  1.00  0.00     0.000 C 
BRANCH   4   5
ATOM      5  C   UNL     1      55.651 143.774 -26.225  1.00  0.00     0.001 C 
BRANCH   5   6
ATOM      6  C   UNL     1      55.638 142.304 -25.766  1.00  0.00     0.009 C 
BRANCH   6   7
ATOM      7  C   UNL     1      55.150 142.104 -24.310  1.00  0.00     0.032 C 
ATOM      8  C   UNL     1      56.344 141.926 -23.364  1.00  0.00     0.014 C 
BRANCH   7   9
ATOM      9  C   UNL     1      54.241 140.913 -24.181  1.00  0.00     0.044 C 
ATOM     10  O   UNL     1      54.489 140.018 -23.329  1.00  0.00    -0.550 OA
ATOM     11  O   UNL     1      53.143 140.768 -25.021  1.00  0.00    -0.550 OA
ENDBRANCH   7   9
ENDBRANCH   6   7
ENDBRANCH   5   6
ENDBRANCH   4   5
ENDBRANCH   3   4
ENDBRANCH   2   3
ENDBRANCH   1   2
BRANCH   1  12
ATOM     12  C   UNL     1      58.986 143.478 -31.038  1.00  0.00     0.000 C 
BRANCH  12  13
ATOM     13  C   UNL     1      59.258 144.241 -32.349  1.00  0.00    -0.000 C 
BRANCH  13  14
ATOM     14  C   UNL     1      60.204 143.528 -33.332  1.00  0.00    -0.000 C 
BRANCH  14  15
ATOM     15  C   UNL     1      60.618 144.418 -34.512  1.00  0.00    -0.000 C 
BRANCH  15  16
ATOM     16  C   UNL     1      59.817 145.726 -34.521  1.00  0.00    -0.000 C 
BRANCH  16  17
ATOM     17  C   UNL     1      60.716 146.918 -34.883  1.00  0.00    -0.000 C 
BRANCH  17  18
ATOM     18  C   UNL     1      60.361 148.186 -34.091  1.00  0.00    -0.003 C 
ATOM     19  C   UNL     1      60.083 147.904 -32.615  1.00  0.00     0.004 C 
ENDBRANCH  17  18
ENDBRANCH  16  17
ENDBRANCH  15  16
ENDBRANCH  14  15
ENDBRANCH  13  14
ENDBRANCH  12  13
ENDBRANCH   1  12
TORSDOF 14
ENDMDL
MODEL 3
REMARK VINA RESULT:    -5.022      4.133      9.909
REMARK INTER + INTRA:         -10.013
REMARK INTER:                  -9.390
REMARK INTRA:                  -0.623
REMARK UNBOUND:                -0.881
REMARK SMILES CCCCCCCCCCCCCC[C@H](C)C(=O)[O-]
REMARK SMILES IDX 9 1 10 2 11 3 12 4 13 5 14 6 15 7 16 8 17 9 18 10 19 11 8 12
REMARK SMILES IDX 7 13 6 14 5 15 4 16 3 17 2 18 1 19
REMARK H PARENT
REMARK Flexibility Score: inf
ROOT
ATOM      1  C   UNL     1      55.862 143.827 -29.612  1.00  0.00     0.000 C 
ENDROOT
BRANCH   1   2
ATOM      2  C   UNL     1      57.399 143.749 -29.623  1.00  0.00     0.000 C 
BRANCH   2   3
ATOM      3  C   UNL     1      58.005 144.099 -30.989  1.00  0.00     0.000 C 
BRANCH   3   4
ATOM      4  C   UNL     1      59.330 143.359 -31.209  1.00  0.00     0.000 C 
BRANCH   4   5
ATOM      5  C   UNL     1      59.864 143.593 -32.630  1.00  0.00     0.001 C 
BRANCH   5   6
ATOM      6  C   UNL     1      59.423 144.941 -33.233  1.00  0.00     0.009 C 
BRANCH   6   7
ATOM      7  C   UNL     1      60.318 145.432 -34.397  1.00  0.00     0.032 C 
ATOM      8  C   UNL     1      61.177 144.282 -34.936  1.00  0.00     0.014 C 
BRANCH   7   9
ATOM      9  C   UNL     1      61.219 146.560 -33.975  1.00  0.00     0.044 C 
ATOM     10  O   UNL     1      62.301 146.314 -33.379  1.00  0.00    -0.550 OA
ATOM     11  O   UNL     1      60.852 147.881 -34.205  1.00  0.00    -0.550 OA
ENDBRANCH   7   9
ENDBRANCH   6   7
ENDBRANCH   5   6
ENDBRANCH   4   5
ENDBRANCH   3   4
ENDBRANCH   2   3
ENDBRANCH   1   2
BRANCH   1  12
ATOM     12  C   UNL     1      55.214 143.691 -28.219  1.00  0.00     0.000 C 
BRANCH  12  13
ATOM     13  C   UNL     1      56.098 144.137 -27.038  1.00  0.00    -0.000 C 
BRANCH  13  14
ATOM     14  C   UNL     1      55.453 143.983 -25.649  1.00  0.00    -0.000 C 
BRANCH  14  15
ATOM     15  C   UNL     1      55.678 142.593 -25.038  1.00  0.00    -0.000 C 
BRANCH  15  16
ATOM     16  C   UNL     1      56.112 142.702 -23.571  1.00  0.00    -0.000 C 
BRANCH  16  17
ATOM     17  C   UNL     1      56.766 141.396 -23.093  1.00  0.00    -0.000 C 
BRANCH  17  18
ATOM     18  C   UNL     1      57.703 141.609 -21.894  1.00  0.00    -0.003 C 
ATOM     19  C   UNL     1      58.262 143.030 -21.825  1.00  0.00     0.004 C 
ENDBRANCH  17  18
ENDBRANCH  16  17
ENDBRANCH  15  16
ENDBRANCH  14  15
ENDBRANCH  13  14
ENDBRANCH  12  13
ENDBRANCH   1  12
TORSDOF 14
ENDMDL
MODEL 4
REMARK VINA RESULT:    -4.864      1.746      2.253
REMARK INTER + INTRA:          -9.726
REMARK INTER:                  -8.861
REMARK INTRA:                  -0.865
REMARK UNBOUND:                -0.881
REMARK SMILES CCCCCCCCCCCCCC[C@H](C)C(=O)[O-]
REMARK SMILES IDX 9 1 10 2 11 3 12 4 13 5 14 6 15 7 16 8 17 9 18 10 19 11 8 12
REMARK SMILES IDX 7 13 6 14 5 15 4 16 3 17 2 18 1 19
REMARK H PARENT
REMARK Flexibility Score: inf
ROOT
ATOM      1  C   UNL     1      56.615 143.696 -30.241  1.00  0.00     0.000 C 
ENDROOT
BRANCH   1   2
ATOM      2  C   UNL     1      55.684 143.546 -29.024  1.00  0.00     0.000 C 
BRANCH   2   3
ATOM      3  C   UNL     1      55.893 144.646 -27.974  1.00  0.00     0.000 C 
BRANCH   3   4
ATOM      4  C   UNL     1      56.146 144.041 -26.587  1.00  0.00     0.000 C 
BRANCH   4   5
ATOM      5  C   UNL     1      55.830 142.538 -26.576  1.00  0.00     0.001 C 
BRANCH   5   6
ATOM      6  C   UNL     1      55.229 142.050 -25.243  1.00  0.00     0.009 C 
BRANCH   6   7
ATOM      7  C   UNL     1      56.270 141.462 -24.261  1.00  0.00     0.032 C 
ATOM      8  C   UNL     1      55.607 140.454 -23.316  1.00  0.00     0.014 C 
BRANCH   7   9
ATOM      9  C   UNL     1      56.939 142.533 -23.443  1.00  0.00     0.044 C 
ATOM     10  O   UNL     1      58.117 142.368 -23.029  1.00  0.00    -0.550 OA
ATOM     11  O   UNL     1      56.253 143.694 -23.105  1.00  0.00    -0.550 OA
ENDBRANCH   7   9
ENDBRANCH   6   7
ENDBRANCH   5   6
ENDBRANCH   4   5
ENDBRANCH   3   4
ENDBRANCH   2   3
ENDBRANCH   1   2
BRANCH   1  12
ATOM     12  C   UNL     1      58.080 144.040 -29.900  1.00  0.00     0.000 C 
BRANCH  12  13
ATOM     13  C   UNL     1      59.108 143.678 -30.991  1.00  0.00    -0.000 C 
BRANCH  13  14
ATOM     14  C   UNL     1      58.913 144.404 -32.333  1.00  0.00    -0.000 C 
BRANCH  14  15
ATOM     15  C   UNL     1      60.069 144.163 -33.315  1.00  0.00    -0.000 C 
BRANCH  15  16
ATOM     16  C   UNL     1      59.975 145.109 -34.518  1.00  0.00    -0.000 C 
BRANCH  16  17
ATOM     17  C   UNL     1      61.172 146.071 -34.556  1.00  0.00    -0.000 C 
BRANCH  17  18
ATOM     18  C   UNL     1      61.226 146.995 -33.330  1.00  0.00    -0.003 C 
ATOM     19  C   UNL     1      59.967 147.847 -33.174  1.00  0.00     0.004 C 
ENDBRANCH  17  18
ENDBRANCH  16  17
ENDBRANCH  15  16
ENDBRANCH  14  15
ENDBRANCH  13  14
ENDBRANCH  12  13
ENDBRANCH   1  12
TORSDOF 14
ENDMDL
MODEL 5
REMARK VINA RESULT:    -4.664      3.653      9.638
REMARK INTER + INTRA:          -9.362
REMARK INTER:                  -8.636
REMARK INTRA:                  -0.727
REMARK UNBOUND:                -0.881
REMARK SMILES CCCCCCCCCCCCCC[C@H](C)C(=O)[O-]
REMARK SMILES IDX 9 1 10 2 11 3 12 4 13 5 14 6 15 7 16 8 17 9 18 10 19 11 8 12
REMARK SMILES IDX 7 13 6 14 5 15 4 16 3 17 2 18 1 19
REMARK H PARENT
REMARK Flexibility Score: inf
ROOT
ATOM      1  C   UNL     1      56.056 143.257 -28.737  1.00  0.00     0.000 C 
ENDROOT
BRANCH   1   2
ATOM      2  C   UNL     1      56.627 143.747 -30.080  1.00  0.00     0.000 C 
BRANCH   2   3
ATOM      3  C   UNL     1      58.121 144.091 -30.003  1.00  0.00     0.000 C 
BRANCH   3   4
ATOM      4  C   UNL     1      58.847 143.678 -31.289  1.00  0.00     0.000 C 
BRANCH   4   5
ATOM      5  C   UNL     1      59.105 144.893 -32.192  1.00  0.00     0.001 C 
BRANCH   5   6
ATOM      6  C   UNL     1      59.908 144.552 -33.462  1.00  0.00     0.009 C 
BRANCH   6   7
ATOM      7  C   UNL     1      60.480 145.789 -34.196  1.00  0.00     0.032 C 
ATOM      8  C   UNL     1      61.853 146.164 -33.626  1.00  0.00     0.014 C 
BRANCH   7   9
ATOM      9  C   UNL     1      59.565 146.978 -34.091  1.00  0.00     0.044 C 
ATOM     10  O   UNL     1      58.563 147.073 -34.849  1.00  0.00    -0.550 OA
ATOM     11  O   UNL     1      59.835 147.999 -33.186  1.00  0.00    -0.550 OA
ENDBRANCH   7   9
ENDBRANCH   6   7
ENDBRANCH   5   6
ENDBRANCH   4   5
ENDBRANCH   3   4
ENDBRANCH   2   3
ENDBRANCH   1   2
BRANCH   1  12
ATOM     12  C   UNL     1      56.137 144.278 -27.584  1.00  0.00     0.000 C 
BRANCH  12  13
ATOM     13  C   UNL     1      55.143 144.044 -26.430  1.00  0.00    -0.000 C 
BRANCH  13  14
ATOM     14  C   UNL     1      55.758 144.103 -25.020  1.00  0.00    -0.000 C 
BRANCH  14  15
ATOM     15  C   UNL     1      54.820 143.554 -23.937  1.00  0.00    -0.000 C 
BRANCH  15  16
ATOM     16  C   UNL     1      54.923 142.027 -23.842  1.00  0.00    -0.000 C 
BRANCH  16  17
ATOM     17  C   UNL     1      56.279 141.534 -24.372  1.00  0.00    -0.000 C 
BRANCH  17  18
ATOM     18  C   UNL     1      56.234 140.070 -24.836  1.00  0.00    -0.003 C 
ATOM     19  C   UNL     1      55.350 139.865 -26.065  1.00  0.00     0.004 C 
ENDBRANCH  17  18
ENDBRANCH  16  17
ENDBRANCH  15  16
ENDBRANCH  14  15
ENDBRANCH  13  14
ENDBRANCH  12  13
ENDBRANCH   1  12
TORSDOF 14
ENDMDL
MODEL 6
REMARK VINA RESULT:    -4.476     11.243     12.881
REMARK INTER + INTRA:          -9.020
REMARK INTER:                  -7.101
REMARK INTRA:                  -1.919
REMARK UNBOUND:                -0.881
REMARK SMILES CCCCCCCCCCCCCC[C@H](C)C(=O)[O-]
REMARK SMILES IDX 9 1 10 2 11 3 12 4 13 5 14 6 15 7 16 8 17 9 18 10 19 11 8 12
REMARK SMILES IDX 7 13 6 14 5 15 4 16 3 17 2 18 1 19
REMARK H PARENT
REMARK Flexibility Score: inf
ROOT
ATOM      1  C   UNL     1      49.963 153.620 -29.156  1.00  0.00     0.000 C 
ENDROOT
BRANCH   1   2
ATOM      2  C   UNL     1      49.399 155.034 -28.925  1.00  0.00     0.000 C 
BRANCH   2   3
ATOM      3  C   UNL     1      49.300 155.400 -27.438  1.00  0.00     0.000 C 
BRANCH   3   4
ATOM      4  C   UNL     1      50.415 156.375 -27.037  1.00  0.00     0.000 C 
BRANCH   4   5
ATOM      5  C   UNL     1      51.512 155.659 -26.236  1.00  0.00     0.001 C 
BRANCH   5   6
ATOM      6  C   UNL     1      50.965 154.815 -25.069  1.00  0.00     0.009 C 
BRANCH   6   7
ATOM      7  C   UNL     1      51.833 153.581 -24.723  1.00  0.00     0.032 C 
ATOM      8  C   UNL     1      52.301 152.878 -26.002  1.00  0.00     0.014 C 
BRANCH   7   9
ATOM      9  C   UNL     1      51.090 152.594 -23.865  1.00  0.00     0.044 C 
ATOM     10  O   UNL     1      50.703 152.925 -22.713  1.00  0.00    -0.550 OA
ATOM     11  O   UNL     1      50.858 151.300 -24.318  1.00  0.00    -0.550 OA
ENDBRANCH   7   9
ENDBRANCH   6   7
ENDBRANCH   5   6
ENDBRANCH   4   5
ENDBRANCH   3   4
ENDBRANCH   2   3
ENDBRANCH   1   2
BRANCH   1  12
ATOM     12  C   UNL     1      49.131 152.735 -30.106  1.00  0.00     0.000 C 
BRANCH  12  13
ATOM     13  C   UNL     1      47.667 153.178 -30.299  1.00  0.00    -0.000 C 
BRANCH  13  14
ATOM     14  C   UNL     1      47.303 153.609 -31.731  1.00  0.00    -0.000 C 
BRANCH  14  15
ATOM     15  C   UNL     1      47.357 155.131 -31.927  1.00  0.00    -0.000 C 
BRANCH  15  16
ATOM     16  C   UNL     1      48.324 155.505 -33.056  1.00  0.00    -0.000 C 
BRANCH  16  17
ATOM     17  C   UNL     1      49.738 155.754 -32.510  1.00  0.00    -0.000 C 
BRANCH  17  18
ATOM     18  C   UNL     1      50.719 154.630 -32.877  1.00  0.00    -0.003 C 
ATOM     19  C   UNL     1      50.235 153.783 -34.053  1.00  0.00     0.004 C 
ENDBRANCH  17  18
ENDBRANCH  16  17
ENDBRANCH  15  16
ENDBRANCH  14  15
ENDBRANCH  13  14
ENDBRANCH  12  13
ENDBRANCH   1  12
TORSDOF 14
ENDMDL
MODEL 7
REMARK VINA RESULT:    -4.374     12.034     14.721
REMARK INTER + INTRA:          -8.835
REMARK INTER:                  -7.292
REMARK INTRA:                  -1.543
REMARK UNBOUND:                -0.881
REMARK SMILES CCCCCCCCCCCCCC[C@H](C)C(=O)[O-]
REMARK SMILES IDX 9 1 10 2 11 3 12 4 13 5 14 6 15 7 16 8 17 9 18 10 19 11 8 12
REMARK SMILES IDX 7 13 6 14 5 15 4 16 3 17 2 18 1 19
REMARK H PARENT
REMARK Flexibility Score: inf
ROOT
ATOM      1  C   UNL     1      49.030 154.998 -26.601  1.00  0.00     0.000 C 
ENDROOT
BRANCH   1   2
ATOM      2  C   UNL     1      48.116 155.539 -27.715  1.00  0.00     0.000 C 
BRANCH   2   3
ATOM      3  C   UNL     1      48.665 155.267 -29.122  1.00  0.00     0.000 C 
BRANCH   3   4
ATOM      4  C   UNL     1      49.647 154.088 -29.110  1.00  0.00     0.000 C 
BRANCH   4   5
ATOM      5  C   UNL     1      49.290 153.061 -30.194  1.00  0.00     0.001 C 
BRANCH   5   6
ATOM      6  C   UNL     1      48.804 153.703 -31.508  1.00  0.00     0.009 C 
BRANCH   6   7
ATOM      7  C   UNL     1      49.945 154.237 -32.407  1.00  0.00     0.032 C 
ATOM      8  C   UNL     1      49.879 155.766 -32.507  1.00  0.00     0.014 C 
BRANCH   7   9
ATOM      9  C   UNL     1      49.889 153.653 -33.792  1.00  0.00     0.044 C 
ATOM     10  O   UNL     1      48.879 152.997 -34.160  1.00  0.00    -0.550 OA
ATOM     11  O   UNL     1      50.963 153.797 -34.663  1.00  0.00    -0.550 OA
ENDBRANCH   7   9
ENDBRANCH   6   7
ENDBRANCH   5   6
ENDBRANCH   4   5
ENDBRANCH   3   4
ENDBRANCH   2   3
ENDBRANCH   1   2
BRANCH   1  12
ATOM     12  C   UNL     1      49.943 156.051 -25.941  1.00  0.00     0.000 C 
BRANCH  12  13
ATOM     13  C   UNL     1      51.414 156.023 -26.400  1.00  0.00    -0.000 C 
BRANCH  13  14
ATOM     14  C   UNL     1      52.357 155.194 -25.509  1.00  0.00    -0.000 C 
BRANCH  14  15
ATOM     15  C   UNL     1      52.321 153.695 -25.837  1.00  0.00    -0.000 C 
BRANCH  15  16
ATOM     16  C   UNL     1      51.682 152.898 -24.693  1.00  0.00    -0.000 C 
BRANCH  16  17
ATOM     17  C   UNL     1      51.516 153.770 -23.439  1.00  0.00    -0.000 C 
BRANCH  17  18
ATOM     18  C   UNL     1      50.570 153.143 -22.405  1.00  0.00    -0.003 C 
ATOM     19  C   UNL     1      49.138 153.004 -22.920  1.00  0.00     0.004 C 
ENDBRANCH  17  18
ENDBRANCH  16  17
ENDBRANCH  15  16
ENDBRANCH  14  15
ENDBRANCH  13  14
ENDBRANCH  12  13
ENDBRANCH   1  12
TORSDOF 14
ENDMDL
MODEL 8
REMARK VINA RESULT:    -4.363     12.736     14.390
REMARK INTER + INTRA:          -8.815
REMARK INTER:                  -7.952
REMARK INTRA:                  -0.863
REMARK UNBOUND:                -0.881
REMARK SMILES CCCCCCCCCCCCCC[C@H](C)C(=O)[O-]
REMARK SMILES IDX 9 1 10 2 11 3 12 4 13 5 14 6 15 7 16 8 17 9 18 10 19 11 8 12
REMARK SMILES IDX 7 13 6 14 5 15 4 16 3 17 2 18 1 19
REMARK H PARENT
REMARK Flexibility Score: inf
ROOT
ATOM      1  C   UNL     1      50.975 153.075 -21.926  1.00  0.00     0.000 C 
ENDROOT
BRANCH   1   2
ATOM      2  C   UNL     1      49.462 153.068 -21.640  1.00  0.00     0.000 C 
BRANCH   2   3
ATOM      3  C   UNL     1      49.138 153.138 -20.141  1.00  0.00     0.000 C 
BRANCH   3   4
ATOM      4  C   UNL     1      50.236 153.889 -19.377  1.00  0.00     0.000 C 
BRANCH   4   5
ATOM      5  C   UNL     1      49.859 154.061 -17.898  1.00  0.00     0.001 C 
BRANCH   5   6
ATOM      6  C   UNL     1      49.158 152.827 -17.298  1.00  0.00     0.009 C 
BRANCH   6   7
ATOM      7  C   UNL     1      49.218 152.757 -15.753  1.00  0.00     0.032 C 
ATOM      8  C   UNL     1      49.637 154.112 -15.171  1.00  0.00     0.014 C 
BRANCH   7   9
ATOM      9  C   UNL     1      50.176 151.701 -15.275  1.00  0.00     0.044 C 
ATOM     10  O   UNL     1      49.741 150.586 -14.881  1.00  0.00    -0.550 OA
ATOM     11  O   UNL     1      51.542 151.956 -15.227  1.00  0.00    -0.550 OA
ENDBRANCH   7   9
ENDBRANCH   6   7
ENDBRANCH   5   6
ENDBRANCH   4   5
ENDBRANCH   3   4
ENDBRANCH   2   3
ENDBRANCH   1   2
BRANCH   1  12
ATOM     12  C   UNL     1      51.378 153.694 -23.280  1.00  0.00     0.000 C 
BRANCH  12  13
ATOM     13  C   UNL     1      50.209 154.233 -24.128  1.00  0.00    -0.000 C 
BRANCH  13  14
ATOM     14  C   UNL     1      50.595 154.701 -25.543  1.00  0.00    -0.000 C 
BRANCH  14  15
ATOM     15  C   UNL     1      52.104 154.930 -25.704  1.00  0.00    -0.000 C 
BRANCH  15  16
ATOM     16  C   UNL     1      52.407 156.402 -26.008  1.00  0.00    -0.000 C 
BRANCH  16  17
ATOM     17  C   UNL     1      53.657 156.874 -25.250  1.00  0.00    -0.000 C 
BRANCH  17  18
ATOM     18  C   UNL     1      54.822 157.220 -26.190  1.00  0.00    -0.003 C 
ATOM     19  C   UNL     1      56.108 156.471 -25.841  1.00  0.00     0.004 C 
ENDBRANCH  17  18
ENDBRANCH  16  17
ENDBRANCH  15  16
ENDBRANCH  14  15
ENDBRANCH  13  14
ENDBRANCH  12  13
ENDBRANCH   1  12
TORSDOF 14
ENDMDL
MODEL 9
REMARK VINA RESULT:    -4.308      6.014     12.439
REMARK INTER + INTRA:          -8.714
REMARK INTER:                  -7.717
REMARK INTRA:                  -0.996
REMARK UNBOUND:                -0.881
REMARK SMILES CCCCCCCCCCCCCC[C@H](C)C(=O)[O-]
REMARK SMILES IDX 9 1 10 2 11 3 12 4 13 5 14 6 15 7 16 8 17 9 18 10 19 11 8 12
REMARK SMILES IDX 7 13 6 14 5 15 4 16 3 17 2 18 1 19
REMARK H PARENT
REMARK Flexibility Score: inf
ROOT
ATOM      1  C   UNL     1      50.831 139.616 -23.596  1.00  0.00     0.000 C 
ENDROOT
BRANCH   1   2
ATOM      2  C   UNL     1      51.947 139.000 -22.732  1.00  0.00     0.000 C 
BRANCH   2   3
ATOM      3  C   UNL     1      53.352 139.412 -23.191  1.00  0.00     0.000 C 
BRANCH   3   4
ATOM      4  C   UNL     1      53.329 140.793 -23.859  1.00  0.00     0.000 C 
BRANCH   4   5
ATOM      5  C   UNL     1      54.728 141.428 -23.859  1.00  0.00     0.001 C 
BRANCH   5   6
ATOM      6  C   UNL     1      55.144 141.988 -25.233  1.00  0.00     0.009 C 
BRANCH   6   7
ATOM      7  C   UNL     1      55.705 143.429 -25.182  1.00  0.00     0.032 C 
ATOM      8  C   UNL     1      55.026 144.230 -24.065  1.00  0.00     0.014 C 
BRANCH   7   9
ATOM      9  C   UNL     1      55.518 144.152 -26.487  1.00  0.00     0.044 C 
ATOM     10  O   UNL     1      56.491 144.301 -27.272  1.00  0.00    -0.550 OA
ATOM     11  O   UNL     1      54.282 144.695 -26.822  1.00  0.00    -0.550 OA
ENDBRANCH   7   9
ENDBRANCH   6   7
ENDBRANCH   5   6
ENDBRANCH   4   5
ENDBRANCH   3   4
ENDBRANCH   2   3
ENDBRANCH   1   2
BRANCH   1  12
ATOM     12  C   UNL     1      49.482 139.812 -22.873  1.00  0.00     0.000 C 
BRANCH  12  13
ATOM     13  C   UNL     1      49.512 140.794 -21.686  1.00  0.00    -0.000 C 
BRANCH  13  14
ATOM     14  C   UNL     1      48.631 140.393 -20.489  1.00  0.00    -0.000 C 
BRANCH  14  15
ATOM     15  C   UNL     1      49.394 139.583 -19.432  1.00  0.00    -0.000 C 
BRANCH  15  16
ATOM     16  C   UNL     1      50.746 140.233 -19.113  1.00  0.00    -0.000 C 
BRANCH  16  17
ATOM     17  C   UNL     1      50.560 141.507 -18.276  1.00  0.00    -0.000 C 
BRANCH  17  18
ATOM     18  C   UNL     1      51.855 141.948 -17.576  1.00  0.00    -0.003 C 
ATOM     19  C   UNL     1      51.882 143.445 -17.268  1.00  0.00     0.004 C 
ENDBRANCH  17  18
ENDBRANCH  16  17
ENDBRANCH  15  16
ENDBRANCH  14  15
ENDBRANCH  13  14
ENDBRANCH  12  13
ENDBRANCH   1  12
TORSDOF 14
ENDMDL
