MODEL 1
REMARK VINA RESULT:    -6.711      0.000      0.000
REMARK INTER + INTRA:          -8.400
REMARK INTER:                  -8.085
REMARK INTRA:                  -0.315
REMARK UNBOUND:                -0.315
REMARK SMILES O=c1c(O)c(-c2ccc(O)c(O)c2)oc2cc(O)cc(O)c12
REMARK SMILES IDX 5 1 3 2 2 3 1 4 22 5 20 6 19 7 17 8 16 9 15 10 14 11 6 12
REMARK SMILES IDX 7 13 8 14 9 15 13 16 11 17 10 18 12 20 4 22 21 24 18 26
REMARK H PARENT 10 19 12 21 4 23 21 25 18 27
REMARK Flexibility Score: inf
ROOT
ATOM      1  C   UNL     1      17.999  20.092  -8.143  1.00  0.00     0.180 A 
ATOM      2  C   UNL     1      18.958  19.087  -8.374  1.00  0.00     0.208 A 
ATOM      3  C   UNL     1      19.134  18.082  -7.410  1.00  0.00     0.238 A 
ATOM      4  O   UNL     1      19.982  17.170  -7.611  1.00  0.00    -0.285 OA
ATOM      5  C   UNL     1      18.368  18.110  -6.226  1.00  0.00     0.111 A 
ATOM      6  C   UNL     1      18.486  17.138  -5.203  1.00  0.00     0.134 A 
ATOM      7  C   UNL     1      17.693  17.241  -4.051  1.00  0.00     0.093 A 
ATOM      8  C   UNL     1      16.787  18.292  -3.901  1.00  0.00     0.123 A 
ATOM      9  C   UNL     1      16.664  19.255  -4.908  1.00  0.00     0.094 A 
ATOM     10  C   UNL     1      17.445  19.170  -6.065  1.00  0.00     0.146 A 
ATOM     11  O   UNL     1      17.305  20.094  -7.008  1.00  0.00    -0.452 OA
ENDROOT
BRANCH   1  12
ATOM     12  C   UNL     1      17.743  21.174  -9.119  1.00  0.00     0.025 A 
ATOM     13  C   UNL     1      16.922  20.969 -10.241  1.00  0.00     0.016 A 
ATOM     14  C   UNL     1      16.676  22.011 -11.135  1.00  0.00     0.051 A 
ATOM     15  C   UNL     1      17.229  23.279 -10.925  1.00  0.00     0.157 A 
ATOM     16  C   UNL     1      18.280  22.451  -8.894  1.00  0.00     0.062 A 
ATOM     17  C   UNL     1      18.039  23.504  -9.787  1.00  0.00     0.158 A 
BRANCH  15  18
ATOM     18  O   UNL     1      16.946  24.277 -11.860  1.00  0.00    -0.504 OA
ATOM     19  H   UNL     1      17.605  24.988 -12.143  1.00  0.00     0.293 HD
ENDBRANCH  15  18
BRANCH  17  20
ATOM     20  O   UNL     1      18.617  24.743  -9.505  1.00  0.00    -0.504 OA
ATOM     21  H   UNL     1      18.265  25.622  -9.855  1.00  0.00     0.293 HD
ENDBRANCH  17  20
ENDBRANCH   1  12
BRANCH   2  22
ATOM     22  O   UNL     1      19.740  19.110  -9.531  1.00  0.00    -0.502 OA
ATOM     23  H   UNL     1      20.571  18.539  -9.637  1.00  0.00     0.293 HD
ENDBRANCH   2  22
BRANCH   6  24
ATOM     24  O   UNL     1      19.383  16.076  -5.323  1.00  0.00    -0.507 OA
ATOM     25  H   UNL     1      19.597  15.468  -4.540  1.00  0.00     0.293 HD
ENDBRANCH   6  24
BRANCH   8  26
ATOM     26  O   UNL     1      16.011  18.371  -2.746  1.00  0.00    -0.508 OA
ATOM     27  H   UNL     1      15.143  18.894  -2.726  1.00  0.00     0.293 HD
ENDBRANCH   8  26
TORSDOF 6
ENDMDL
MODEL 2
REMARK VINA RESULT:    -6.415      2.050      3.673
REMARK INTER + INTRA:          -8.043
REMARK INTER:                  -7.719
REMARK INTRA:                  -0.324
REMARK UNBOUND:                -0.315
REMARK SMILES O=c1c(O)c(-c2ccc(O)c(O)c2)oc2cc(O)cc(O)c12
REMARK SMILES IDX 5 1 3 2 2 3 1 4 22 5 20 6 19 7 17 8 16 9 15 10 14 11 6 12
REMARK SMILES IDX 7 13 8 14 9 15 13 16 11 17 10 18 12 20 4 22 21 24 18 26
REMARK H PARENT 10 19 12 21 4 23 21 25 18 27
REMARK Flexibility Score: inf
ROOT
ATOM      1  C   UNL     1      17.259  21.613  -6.899  1.00  0.00     0.180 A 
ATOM      2  C   UNL     1      16.213  21.969  -6.027  1.00  0.00     0.208 A 
ATOM      3  C   UNL     1      16.142  21.357  -4.766  1.00  0.00     0.238 A 
ATOM      4  O   UNL     1      15.216  21.675  -3.971  1.00  0.00    -0.285 OA
ATOM      5  C   UNL     1      17.103  20.388  -4.407  1.00  0.00     0.111 A 
ATOM      6  C   UNL     1      17.101  19.722  -3.157  1.00  0.00     0.134 A 
ATOM      7  C   UNL     1      18.087  18.763  -2.880  1.00  0.00     0.093 A 
ATOM      8  C   UNL     1      19.071  18.459  -3.823  1.00  0.00     0.123 A 
ATOM      9  C   UNL     1      19.079  19.115  -5.058  1.00  0.00     0.094 A 
ATOM     10  C   UNL     1      18.105  20.074  -5.354  1.00  0.00     0.146 A 
ATOM     11  O   UNL     1      18.138  20.685  -6.532  1.00  0.00    -0.452 OA
ENDROOT
BRANCH   1  12
ATOM     12  C   UNL     1      17.411  22.228  -8.237  1.00  0.00     0.025 A 
ATOM     13  C   UNL     1      18.254  23.332  -8.444  1.00  0.00     0.016 A 
ATOM     14  C   UNL     1      18.399  23.880  -9.719  1.00  0.00     0.051 A 
ATOM     15  C   UNL     1      17.721  23.332 -10.814  1.00  0.00     0.157 A 
ATOM     16  C   UNL     1      16.747  21.663  -9.337  1.00  0.00     0.062 A 
ATOM     17  C   UNL     1      16.886  22.206 -10.621  1.00  0.00     0.158 A 
BRANCH  15  18
ATOM     18  O   UNL     1      17.907  23.930 -12.062  1.00  0.00    -0.504 OA
ATOM     19  H   UNL     1      18.742  24.430 -12.329  1.00  0.00     0.293 HD
ENDBRANCH  15  18
BRANCH  17  20
ATOM     20  O   UNL     1      16.186  21.599 -11.665  1.00  0.00    -0.504 OA
ATOM     21  H   UNL     1      15.706  20.715 -11.583  1.00  0.00     0.293 HD
ENDBRANCH  17  20
ENDBRANCH   1  12
BRANCH   2  22
ATOM     22  O   UNL     1      15.244  22.894  -6.425  1.00  0.00    -0.502 OA
ATOM     23  H   UNL     1      15.477  23.741  -6.930  1.00  0.00     0.293 HD
ENDBRANCH   2  22
BRANCH   6  24
ATOM     24  O   UNL     1      16.131  20.002  -2.195  1.00  0.00    -0.507 OA
ATOM     25  H   UNL     1      15.305  19.424  -2.087  1.00  0.00     0.293 HD
ENDBRANCH   6  24
BRANCH   8  26
ATOM     26  O   UNL     1      20.039  17.503  -3.521  1.00  0.00    -0.508 OA
ATOM     27  H   UNL     1      20.798  17.298  -4.161  1.00  0.00     0.293 HD
ENDBRANCH   8  26
TORSDOF 6
ENDMDL
MODEL 3
REMARK VINA RESULT:    -6.376      1.707      3.265
REMARK INTER + INTRA:          -7.996
REMARK INTER:                  -7.869
REMARK INTRA:                  -0.127
REMARK UNBOUND:                -0.315
REMARK SMILES O=c1c(O)c(-c2ccc(O)c(O)c2)oc2cc(O)cc(O)c12
REMARK SMILES IDX 5 1 3 2 2 3 1 4 22 5 20 6 19 7 17 8 16 9 15 10 14 11 6 12
REMARK SMILES IDX 7 13 8 14 9 15 13 16 11 17 10 18 12 20 4 22 21 24 18 26
REMARK H PARENT 10 19 12 21 4 23 21 25 18 27
REMARK Flexibility Score: inf
ROOT
ATOM      1  C   UNL     1      18.310  20.540  -7.491  1.00  0.00     0.180 A 
ATOM      2  C   UNL     1      18.124  20.938  -6.153  1.00  0.00     0.208 A 
ATOM      3  C   UNL     1      18.500  20.059  -5.125  1.00  0.00     0.238 A 
ATOM      4  O   UNL     1      18.347  20.408  -3.923  1.00  0.00    -0.285 OA
ATOM      5  C   UNL     1      19.036  18.795  -5.450  1.00  0.00     0.111 A 
ATOM      6  C   UNL     1      19.437  17.851  -4.475  1.00  0.00     0.134 A 
ATOM      7  C   UNL     1      19.953  16.611  -4.879  1.00  0.00     0.093 A 
ATOM      8  C   UNL     1      20.076  16.298  -6.235  1.00  0.00     0.123 A 
ATOM      9  C   UNL     1      19.683  17.227  -7.202  1.00  0.00     0.094 A 
ATOM     10  C   UNL     1      19.167  18.469  -6.820  1.00  0.00     0.146 A 
ATOM     11  O   UNL     1      18.806  19.336  -7.759  1.00  0.00    -0.452 OA
ENDROOT
BRANCH   1  12
ATOM     12  C   UNL     1      17.956  21.418  -8.629  1.00  0.00     0.025 A 
ATOM     13  C   UNL     1      18.528  22.692  -8.777  1.00  0.00     0.016 A 
ATOM     14  C   UNL     1      18.196  23.492  -9.871  1.00  0.00     0.051 A 
ATOM     15  C   UNL     1      17.300  23.035 -10.845  1.00  0.00     0.157 A 
ATOM     16  C   UNL     1      17.075  20.949  -9.616  1.00  0.00     0.062 A 
ATOM     17  C   UNL     1      16.735  21.745 -10.718  1.00  0.00     0.158 A 
BRANCH  15  18
ATOM     18  O   UNL     1      17.007  23.886 -11.913  1.00  0.00    -0.504 OA
ATOM     19  H   UNL     1      16.662  24.829 -11.804  1.00  0.00     0.293 HD
ENDBRANCH  15  18
BRANCH  17  20
ATOM     20  O   UNL     1      15.842  21.216 -11.653  1.00  0.00    -0.504 OA
ATOM     21  H   UNL     1      15.774  20.234 -11.875  1.00  0.00     0.293 HD
ENDBRANCH  17  20
ENDBRANCH   1  12
BRANCH   2  22
ATOM     22  O   UNL     1      17.544  22.174  -5.858  1.00  0.00    -0.502 OA
ATOM     23  H   UNL     1      17.496  22.540  -4.915  1.00  0.00     0.293 HD
ENDBRANCH   2  22
BRANCH   6  24
ATOM     24  O   UNL     1      19.325  18.133  -3.113  1.00  0.00    -0.507 OA
ATOM     25  H   UNL     1      18.425  18.167  -2.648  1.00  0.00     0.293 HD
ENDBRANCH   6  24
BRANCH   8  26
ATOM     26  O   UNL     1      20.593  15.058  -6.609  1.00  0.00    -0.508 OA
ATOM     27  H   UNL     1      21.403  14.983  -7.214  1.00  0.00     0.293 HD
ENDBRANCH   8  26
TORSDOF 6
ENDMDL
MODEL 4
REMARK VINA RESULT:    -6.345      1.605      2.962
REMARK INTER + INTRA:          -7.959
REMARK INTER:                  -7.948
REMARK INTRA:                  -0.011
REMARK UNBOUND:                -0.315
REMARK SMILES O=c1c(O)c(-c2ccc(O)c(O)c2)oc2cc(O)cc(O)c12
REMARK SMILES IDX 5 1 3 2 2 3 1 4 22 5 20 6 19 7 17 8 16 9 15 10 14 11 6 12
REMARK SMILES IDX 7 13 8 14 9 15 13 16 11 17 10 18 12 20 4 22 21 24 18 26
REMARK H PARENT 10 19 12 21 4 23 21 25 18 27
REMARK Flexibility Score: inf
ROOT
ATOM      1  C   UNL     1      18.328  20.310  -7.338  1.00  0.00     0.180 A 
ATOM      2  C   UNL     1      18.092  20.734  -6.016  1.00  0.00     0.208 A 
ATOM      3  C   UNL     1      18.488  19.903  -4.956  1.00  0.00     0.238 A 
ATOM      4  O   UNL     1      18.293  20.276  -3.767  1.00  0.00    -0.285 OA
ATOM      5  C   UNL     1      19.092  18.658  -5.234  1.00  0.00     0.111 A 
ATOM      6  C   UNL     1      19.518  17.761  -4.225  1.00  0.00     0.134 A 
ATOM      7  C   UNL     1      20.102  16.538  -4.584  1.00  0.00     0.093 A 
ATOM      8  C   UNL     1      20.270  16.195  -5.927  1.00  0.00     0.123 A 
ATOM      9  C   UNL     1      19.853  17.078  -6.929  1.00  0.00     0.094 A 
ATOM     10  C   UNL     1      19.269  18.303  -6.592  1.00  0.00     0.146 A 
ATOM     11  O   UNL     1      18.886  19.125  -7.562  1.00  0.00    -0.452 OA
ENDROOT
BRANCH   1  12
ATOM     12  C   UNL     1      17.955  21.139  -8.507  1.00  0.00     0.025 A 
ATOM     13  C   UNL     1      17.135  20.634  -9.530  1.00  0.00     0.016 A 
ATOM     14  C   UNL     1      16.779  21.442 -10.610  1.00  0.00     0.051 A 
ATOM     15  C   UNL     1      17.219  22.768 -10.688  1.00  0.00     0.157 A 
ATOM     16  C   UNL     1      18.380  22.475  -8.571  1.00  0.00     0.062 A 
ATOM     17  C   UNL     1      18.027  23.293  -9.652  1.00  0.00     0.158 A 
BRANCH  15  18
ATOM     18  O   UNL     1      16.829  23.521 -11.797  1.00  0.00    -0.504 OA
ATOM     19  H   UNL     1      17.397  24.243 -12.217  1.00  0.00     0.293 HD
ENDBRANCH  15  18
BRANCH  17  20
ATOM     20  O   UNL     1      18.496  24.608  -9.654  1.00  0.00    -0.504 OA
ATOM     21  H   UNL     1      18.302  25.275 -10.387  1.00  0.00     0.293 HD
ENDBRANCH  17  20
ENDBRANCH   1  12
BRANCH   2  22
ATOM     22  O   UNL     1      17.447  21.947  -5.767  1.00  0.00    -0.502 OA
ATOM     23  H   UNL     1      16.967  22.139  -4.895  1.00  0.00     0.293 HD
ENDBRANCH   2  22
BRANCH   6  24
ATOM     24  O   UNL     1      19.363  18.074  -2.874  1.00  0.00    -0.507 OA
ATOM     25  H   UNL     1      19.934  17.640  -2.158  1.00  0.00     0.293 HD
ENDBRANCH   6  24
BRANCH   8  26
ATOM     26  O   UNL     1      20.854  14.973  -6.257  1.00  0.00    -0.508 OA
ATOM     27  H   UNL     1      21.189  14.782  -7.194  1.00  0.00     0.293 HD
ENDBRANCH   8  26
TORSDOF 6
ENDMDL
MODEL 5
REMARK VINA RESULT:    -6.302      2.266      6.913
REMARK INTER + INTRA:          -7.906
REMARK INTER:                  -7.709
REMARK INTRA:                  -0.197
REMARK UNBOUND:                -0.315
REMARK SMILES O=c1c(O)c(-c2ccc(O)c(O)c2)oc2cc(O)cc(O)c12
REMARK SMILES IDX 5 1 3 2 2 3 1 4 22 5 20 6 19 7 17 8 16 9 15 10 14 11 6 12
REMARK SMILES IDX 7 13 8 14 9 15 13 16 11 17 10 18 12 20 4 22 21 24 18 26
REMARK H PARENT 10 19 12 21 4 23 21 25 18 27
REMARK Flexibility Score: inf
ROOT
ATOM      1  C   UNL     1      18.864  18.856  -7.581  1.00  0.00     0.180 A 
ATOM      2  C   UNL     1      19.038  19.619  -6.410  1.00  0.00     0.208 A 
ATOM      3  C   UNL     1      18.941  21.017  -6.490  1.00  0.00     0.238 A 
ATOM      4  O   UNL     1      19.084  21.710  -5.446  1.00  0.00    -0.285 OA
ATOM      5  C   UNL     1      18.691  21.628  -7.737  1.00  0.00     0.111 A 
ATOM      6  C   UNL     1      18.581  23.030  -7.903  1.00  0.00     0.134 A 
ATOM      7  C   UNL     1      18.340  23.561  -9.179  1.00  0.00     0.093 A 
ATOM      8  C   UNL     1      18.207  22.722 -10.287  1.00  0.00     0.123 A 
ATOM      9  C   UNL     1      18.313  21.337 -10.129  1.00  0.00     0.094 A 
ATOM     10  C   UNL     1      18.552  20.787  -8.865  1.00  0.00     0.146 A 
ATOM     11  O   UNL     1      18.644  19.468  -8.741  1.00  0.00    -0.452 OA
ENDROOT
BRANCH   1  12
ATOM     12  C   UNL     1      18.934  17.377  -7.575  1.00  0.00     0.025 A 
ATOM     13  C   UNL     1      20.138  16.703  -7.314  1.00  0.00     0.016 A 
ATOM     14  C   UNL     1      20.175  15.309  -7.290  1.00  0.00     0.051 A 
ATOM     15  C   UNL     1      19.013  14.559  -7.510  1.00  0.00     0.157 A 
ATOM     16  C   UNL     1      17.764  16.629  -7.774  1.00  0.00     0.062 A 
ATOM     17  C   UNL     1      17.791  15.228  -7.751  1.00  0.00     0.158 A 
BRANCH  15  18
ATOM     18  O   UNL     1      19.119  13.167  -7.476  1.00  0.00    -0.504 OA
ATOM     19  H   UNL     1      19.290  12.594  -8.290  1.00  0.00     0.293 HD
ENDBRANCH  15  18
BRANCH  17  20
ATOM     20  O   UNL     1      16.590  14.550  -7.970  1.00  0.00    -0.504 OA
ATOM     21  H   UNL     1      15.679  14.934  -7.763  1.00  0.00     0.293 HD
ENDBRANCH  17  20
ENDBRANCH   1  12
BRANCH   2  22
ATOM     22  O   UNL     1      19.335  18.993  -5.197  1.00  0.00    -0.502 OA
ATOM     23  H   UNL     1      19.108  19.409  -4.302  1.00  0.00     0.293 HD
ENDBRANCH   2  22
BRANCH   6  24
ATOM     24  O   UNL     1      18.710  23.895  -6.817  1.00  0.00    -0.507 OA
ATOM     25  H   UNL     1      18.434  23.619  -5.881  1.00  0.00     0.293 HD
ENDBRANCH   6  24
BRANCH   8  26
ATOM     26  O   UNL     1      17.968  23.276 -11.544  1.00  0.00    -0.508 OA
ATOM     27  H   UNL     1      18.560  24.007 -11.921  1.00  0.00     0.293 HD
ENDBRANCH   8  26
TORSDOF 6
ENDMDL
MODEL 6
REMARK VINA RESULT:    -6.289      4.581      6.309
REMARK INTER + INTRA:          -7.891
REMARK INTER:                  -7.633
REMARK INTRA:                  -0.258
REMARK UNBOUND:                -0.315
REMARK SMILES O=c1c(O)c(-c2ccc(O)c(O)c2)oc2cc(O)cc(O)c12
REMARK SMILES IDX 5 1 3 2 2 3 1 4 22 5 20 6 19 7 17 8 16 9 15 10 14 11 6 12
REMARK SMILES IDX 7 13 8 14 9 15 13 16 11 17 10 18 12 20 4 22 21 24 18 26
REMARK H PARENT 10 19 12 21 4 23 21 25 18 27
REMARK Flexibility Score: inf
ROOT
ATOM      1  C   UNL     1      15.540  22.291  -7.763  1.00  0.00     0.180 A 
ATOM      2  C   UNL     1      14.239  22.149  -8.283  1.00  0.00     0.208 A 
ATOM      3  C   UNL     1      13.183  22.842  -7.670  1.00  0.00     0.238 A 
ATOM      4  O   UNL     1      12.015  22.731  -8.133  1.00  0.00    -0.285 OA
ATOM      5  C   UNL     1      13.440  23.645  -6.539  1.00  0.00     0.111 A 
ATOM      6  C   UNL     1      12.433  24.373  -5.860  1.00  0.00     0.134 A 
ATOM      7  C   UNL     1      12.769  25.142  -4.737  1.00  0.00     0.093 A 
ATOM      8  C   UNL     1      14.087  25.199  -4.280  1.00  0.00     0.123 A 
ATOM      9  C   UNL     1      15.087  24.484  -4.947  1.00  0.00     0.094 A 
ATOM     10  C   UNL     1      14.773  23.712  -6.069  1.00  0.00     0.146 A 
ATOM     11  O   UNL     1      15.742  23.046  -6.687  1.00  0.00    -0.452 OA
ENDROOT
BRANCH   1  12
ATOM     12  C   UNL     1      16.707  21.608  -8.366  1.00  0.00     0.025 A 
ATOM     13  C   UNL     1      17.274  20.468  -7.773  1.00  0.00     0.016 A 
ATOM     14  C   UNL     1      18.358  19.827  -8.373  1.00  0.00     0.051 A 
ATOM     15  C   UNL     1      18.891  20.299  -9.578  1.00  0.00     0.157 A 
ATOM     16  C   UNL     1      17.224  22.070  -9.586  1.00  0.00     0.062 A 
ATOM     17  C   UNL     1      18.314  21.434 -10.195  1.00  0.00     0.158 A 
BRANCH  15  18
ATOM     18  O   UNL     1      19.979  19.615 -10.123  1.00  0.00    -0.504 OA
ATOM     19  H   UNL     1      20.926  19.695  -9.780  1.00  0.00     0.293 HD
ENDBRANCH  15  18
BRANCH  17  20
ATOM     20  O   UNL     1      18.783  21.957 -11.401  1.00  0.00    -0.504 OA
ATOM     21  H   UNL     1      19.761  22.077 -11.622  1.00  0.00     0.293 HD
ENDBRANCH  17  20
ENDBRANCH   1  12
BRANCH   2  22
ATOM     22  O   UNL     1      14.002  21.308  -9.373  1.00  0.00    -0.502 OA
ATOM     23  H   UNL     1      13.072  21.144  -9.740  1.00  0.00     0.293 HD
ENDBRANCH   2  22
BRANCH   6  24
ATOM     24  O   UNL     1      11.107  24.335  -6.291  1.00  0.00    -0.507 OA
ATOM     25  H   UNL     1      10.794  23.676  -6.994  1.00  0.00     0.293 HD
ENDBRANCH   6  24
BRANCH   8  26
ATOM     26  O   UNL     1      14.394  25.972  -3.161  1.00  0.00    -0.508 OA
ATOM     27  H   UNL     1      15.311  25.940  -2.731  1.00  0.00     0.293 HD
ENDBRANCH   8  26
TORSDOF 6
ENDMDL
MODEL 7
REMARK VINA RESULT:    -6.268      1.668      2.118
REMARK INTER + INTRA:          -7.866
REMARK INTER:                  -7.792
REMARK INTRA:                  -0.074
REMARK UNBOUND:                -0.315
REMARK SMILES O=c1c(O)c(-c2ccc(O)c(O)c2)oc2cc(O)cc(O)c12
REMARK SMILES IDX 5 1 3 2 2 3 1 4 22 5 20 6 19 7 17 8 16 9 15 10 14 11 6 12
REMARK SMILES IDX 7 13 8 14 9 15 13 16 11 17 10 18 12 20 4 22 21 24 18 26
REMARK H PARENT 10 19 12 21 4 23 21 25 18 27
REMARK Flexibility Score: inf
ROOT
ATOM      1  C   UNL     1      18.340  20.643  -7.626  1.00  0.00     0.180 A 
ATOM      2  C   UNL     1      18.936  19.382  -7.816  1.00  0.00     0.208 A 
ATOM      3  C   UNL     1      19.278  18.616  -6.690  1.00  0.00     0.238 A 
ATOM      4  O   UNL     1      19.804  17.480  -6.847  1.00  0.00    -0.285 OA
ATOM      5  C   UNL     1      19.038  19.130  -5.398  1.00  0.00     0.111 A 
ATOM      6  C   UNL     1      19.355  18.424  -4.213  1.00  0.00     0.134 A 
ATOM      7  C   UNL     1      19.092  19.008  -2.965  1.00  0.00     0.093 A 
ATOM      8  C   UNL     1      18.520  20.278  -2.879  1.00  0.00     0.123 A 
ATOM      9  C   UNL     1      18.203  20.980  -4.046  1.00  0.00     0.094 A 
ATOM     10  C   UNL     1      18.456  20.415  -5.300  1.00  0.00     0.146 A 
ATOM     11  O   UNL     1      18.141  21.100  -6.393  1.00  0.00    -0.452 OA
ENDROOT
BRANCH   1  12
ATOM     12  C   UNL     1      17.934  21.501  -8.762  1.00  0.00     0.025 A 
ATOM     13  C   UNL     1      18.469  22.788  -8.934  1.00  0.00     0.016 A 
ATOM     14  C   UNL     1      18.089  23.569 -10.026  1.00  0.00     0.051 A 
ATOM     15  C   UNL     1      17.183  23.080 -10.974  1.00  0.00     0.157 A 
ATOM     16  C   UNL     1      17.043  21.000  -9.723  1.00  0.00     0.062 A 
ATOM     17  C   UNL     1      16.656  21.777 -10.823  1.00  0.00     0.158 A 
BRANCH  15  18
ATOM     18  O   UNL     1      16.842  23.914 -12.041  1.00  0.00    -0.504 OA
ATOM     19  H   UNL     1      16.644  23.583 -12.975  1.00  0.00     0.293 HD
ENDBRANCH  15  18
BRANCH  17  20
ATOM     20  O   UNL     1      15.755  21.217 -11.731  1.00  0.00    -0.504 OA
ATOM     21  H   UNL     1      14.770  21.437 -11.758  1.00  0.00     0.293 HD
ENDBRANCH  17  20
ENDBRANCH   1  12
BRANCH   2  22
ATOM     22  O   UNL     1      19.211  18.917  -9.104  1.00  0.00    -0.502 OA
ATOM     23  H   UNL     1      19.484  19.537  -9.858  1.00  0.00     0.293 HD
ENDBRANCH   2  22
BRANCH   6  24
ATOM     24  O   UNL     1      19.929  17.153  -4.265  1.00  0.00    -0.507 OA
ATOM     25  H   UNL     1      20.896  16.995  -4.008  1.00  0.00     0.293 HD
ENDBRANCH   6  24
BRANCH   8  26
ATOM     26  O   UNL     1      18.269  20.835  -1.626  1.00  0.00    -0.508 OA
ATOM     27  H   UNL     1      17.460  20.564  -1.079  1.00  0.00     0.293 HD
ENDBRANCH   8  26
TORSDOF 6
ENDMDL
MODEL 8
REMARK VINA RESULT:    -6.176      3.988      6.574
REMARK INTER + INTRA:          -7.754
REMARK INTER:                  -7.809
REMARK INTRA:                   0.055
REMARK UNBOUND:                -0.315
REMARK SMILES O=c1c(O)c(-c2ccc(O)c(O)c2)oc2cc(O)cc(O)c12
REMARK SMILES IDX 5 1 3 2 2 3 1 4 22 5 20 6 19 7 17 8 16 9 15 10 14 11 6 12
REMARK SMILES IDX 7 13 8 14 9 15 13 16 11 17 10 18 12 20 4 22 21 24 18 26
REMARK H PARENT 10 19 12 21 4 23 21 25 18 27
REMARK Flexibility Score: inf
ROOT
ATOM      1  C   UNL     1      14.120  23.219 -10.930  1.00  0.00     0.180 A 
ATOM      2  C   UNL     1      13.616  23.123  -9.618  1.00  0.00     0.208 A 
ATOM      3  C   UNL     1      14.408  22.519  -8.629  1.00  0.00     0.238 A 
ATOM      4  O   UNL     1      13.972  22.437  -7.448  1.00  0.00    -0.285 OA
ATOM      5  C   UNL     1      15.677  22.006  -8.970  1.00  0.00     0.111 A 
ATOM      6  C   UNL     1      16.536  21.381  -8.034  1.00  0.00     0.134 A 
ATOM      7  C   UNL     1      17.780  20.888  -8.454  1.00  0.00     0.093 A 
ATOM      8  C   UNL     1      18.182  21.008  -9.786  1.00  0.00     0.123 A 
ATOM      9  C   UNL     1      17.339  21.625 -10.714  1.00  0.00     0.094 A 
ATOM     10  C   UNL     1      16.094  22.124 -10.316  1.00  0.00     0.146 A 
ATOM     11  O   UNL     1      15.315  22.711 -11.217  1.00  0.00    -0.452 OA
ENDROOT
BRANCH   1  12
ATOM     12  C   UNL     1      13.352  23.857 -12.023  1.00  0.00     0.025 A 
ATOM     13  C   UNL     1      13.166  23.215 -13.258  1.00  0.00     0.016 A 
ATOM     14  C   UNL     1      12.418  23.827 -14.265  1.00  0.00     0.051 A 
ATOM     15  C   UNL     1      11.831  25.081 -14.058  1.00  0.00     0.157 A 
ATOM     16  C   UNL     1      12.746  25.104 -11.805  1.00  0.00     0.062 A 
ATOM     17  C   UNL     1      11.994  25.726 -12.810  1.00  0.00     0.158 A 
BRANCH  15  18
ATOM     18  O   UNL     1      11.099  25.639 -15.108  1.00  0.00    -0.504 OA
ATOM     19  H   UNL     1      10.117  25.464 -15.267  1.00  0.00     0.293 HD
ENDBRANCH  15  18
BRANCH  17  20
ATOM     20  O   UNL     1      11.432  26.973 -12.526  1.00  0.00    -0.504 OA
ATOM     21  H   UNL     1      10.619  27.105 -11.942  1.00  0.00     0.293 HD
ENDBRANCH  17  20
ENDBRANCH   1  12
BRANCH   2  22
ATOM     22  O   UNL     1      12.335  23.593  -9.318  1.00  0.00    -0.502 OA
ATOM     23  H   UNL     1      11.496  23.084  -9.570  1.00  0.00     0.293 HD
ENDBRANCH   2  22
BRANCH   6  24
ATOM     24  O   UNL     1      16.164  21.245  -6.696  1.00  0.00    -0.507 OA
ATOM     25  H   UNL     1      16.830  20.973  -5.983  1.00  0.00     0.293 HD
ENDBRANCH   6  24
BRANCH   8  26
ATOM     26  O   UNL     1      19.424  20.509 -10.177  1.00  0.00    -0.508 OA
ATOM     27  H   UNL     1      19.778  20.648 -11.116  1.00  0.00     0.293 HD
ENDBRANCH   8  26
TORSDOF 6
ENDMDL
MODEL 9
REMARK VINA RESULT:    -6.173      2.377      3.277
REMARK INTER + INTRA:          -7.752
REMARK INTER:                  -7.468
REMARK INTRA:                  -0.284
REMARK UNBOUND:                -0.315
REMARK SMILES O=c1c(O)c(-c2ccc(O)c(O)c2)oc2cc(O)cc(O)c12
REMARK SMILES IDX 5 1 3 2 2 3 1 4 22 5 20 6 19 7 17 8 16 9 15 10 14 11 6 12
REMARK SMILES IDX 7 13 8 14 9 15 13 16 11 17 10 18 12 20 4 22 21 24 18 26
REMARK H PARENT 10 19 12 21 4 23 21 25 18 27
REMARK Flexibility Score: inf
ROOT
ATOM      1  C   UNL     1      17.867  19.216  -8.205  1.00  0.00     0.180 A 
ATOM      2  C   UNL     1      16.662  18.523  -8.432  1.00  0.00     0.208 A 
ATOM      3  C   UNL     1      16.577  17.171  -8.066  1.00  0.00     0.238 A 
ATOM      4  O   UNL     1      15.500  16.542  -8.254  1.00  0.00    -0.285 OA
ATOM      5  C   UNL     1      17.699  16.530  -7.499  1.00  0.00     0.111 A 
ATOM      6  C   UNL     1      17.698  15.170  -7.105  1.00  0.00     0.134 A 
ATOM      7  C   UNL     1      18.859  14.605  -6.557  1.00  0.00     0.093 A 
ATOM      8  C   UNL     1      20.016  15.369  -6.395  1.00  0.00     0.123 A 
ATOM      9  C   UNL     1      20.023  16.713  -6.781  1.00  0.00     0.094 A 
ATOM     10  C   UNL     1      18.876  17.296  -7.328  1.00  0.00     0.146 A 
ATOM     11  O   UNL     1      18.908  18.576  -7.682  1.00  0.00    -0.452 OA
ENDROOT
BRANCH   1  12
ATOM     12  C   UNL     1      18.028  20.647  -8.547  1.00  0.00     0.025 A 
ATOM     13  C   UNL     1      18.238  21.063  -9.872  1.00  0.00     0.016 A 
ATOM     14  C   UNL     1      18.362  22.420 -10.174  1.00  0.00     0.051 A 
ATOM     15  C   UNL     1      18.268  23.388  -9.167  1.00  0.00     0.157 A 
ATOM     16  C   UNL     1      17.910  21.616  -7.539  1.00  0.00     0.062 A 
ATOM     17  C   UNL     1      18.035  22.981  -7.833  1.00  0.00     0.158 A 
BRANCH  15  18
ATOM     18  O   UNL     1      18.406  24.728  -9.535  1.00  0.00    -0.504 OA
ATOM     19  H   UNL     1      18.502  25.487  -8.876  1.00  0.00     0.293 HD
ENDBRANCH  15  18
BRANCH  17  20
ATOM     20  O   UNL     1      17.919  23.887  -6.777  1.00  0.00    -0.504 OA
ATOM     21  H   UNL     1      18.631  24.031  -6.076  1.00  0.00     0.293 HD
ENDBRANCH  17  20
ENDBRANCH   1  12
BRANCH   2  22
ATOM     22  O   UNL     1      15.582  19.166  -9.041  1.00  0.00    -0.502 OA
ATOM     23  H   UNL     1      14.835  18.657  -9.500  1.00  0.00     0.293 HD
ENDBRANCH   2  22
BRANCH   6  24
ATOM     24  O   UNL     1      16.558  14.381  -7.255  1.00  0.00    -0.507 OA
ATOM     25  H   UNL     1      16.055  14.333  -8.134  1.00  0.00     0.293 HD
ENDBRANCH   6  24
BRANCH   8  26
ATOM     26  O   UNL     1      21.156  14.782  -5.847  1.00  0.00    -0.508 OA
ATOM     27  H   UNL     1      22.086  15.048  -6.150  1.00  0.00     0.293 HD
ENDBRANCH   8  26
TORSDOF 6
ENDMDL
