MODEL 1
REMARK VINA RESULT:    -3.953      0.000      0.000
REMARK INTER + INTRA:          -7.305
REMARK INTER:                  -6.033
REMARK INTRA:                  -1.272
REMARK UNBOUND:                -1.272
REMARK SMILES OC[C@H]1O[C@H](O[C@]2(CO)O[C@H](CO)[C@H](O)[C@H]2O)[C@@H](O)[C@@H](O)[C@H]1O
REMARK SMILES IDX 6 1 5 2 3 3 22 4 4 5 20 6 18 7 2 8 1 9 23 11 21 13 19 15
REMARK SMILES IDX 7 17 16 18 10 19 14 20 11 21 8 22 9 23 17 25 15 27 12 29
REMARK SMILES IDX 13 30
REMARK H PARENT 1 10 23 12 21 14 19 16 9 24 17 26 15 28 13 31
REMARK Flexibility Score: inf
ROOT
ATOM      1  O   UNL     1       8.369  -3.516  -9.227  1.00  0.00    -0.313 OA
ENDROOT
BRANCH   1   2
ATOM      2  C   UNL     1       8.257  -4.156  -7.959  1.00  0.00     0.285 C 
ATOM      3  C   UNL     1       6.001  -4.691  -8.363  1.00  0.00     0.178 C 
ATOM      4  C   UNL     1       6.265  -6.218  -8.456  1.00  0.00     0.177 C 
ATOM      5  O   UNL     1       6.922  -4.068  -7.480  1.00  0.00    -0.341 OA
ATOM      6  C   UNL     1       7.724  -6.481  -8.873  1.00  0.00     0.179 C 
ATOM      7  C   UNL     1       8.723  -5.634  -8.057  1.00  0.00     0.202 C 
BRANCH   3   8
ATOM      8  C   UNL     1       4.575  -4.388  -7.879  1.00  0.00     0.191 C 
BRANCH   8   9
ATOM      9  O   UNL     1       4.567  -4.045  -6.519  1.00  0.00    -0.394 OA
ATOM     10  H   UNL     1       5.101  -4.736  -6.047  1.00  0.00     0.210 HD
ENDBRANCH   8   9
ENDBRANCH   3   8
BRANCH   4  11
ATOM     11  O   UNL     1       5.940  -6.901  -7.267  1.00  0.00    -0.387 OA
ATOM     12  H   UNL     1       5.892  -6.243  -6.529  1.00  0.00     0.211 HD
ENDBRANCH   4  11
BRANCH   6  13
ATOM     13  O   UNL     1       8.016  -7.849  -8.754  1.00  0.00    -0.387 OA
ATOM     14  H   UNL     1       9.003  -7.938  -8.822  1.00  0.00     0.211 HD
ENDBRANCH   6  13
BRANCH   7  15
ATOM     15  O   UNL     1       8.962  -6.215  -6.793  1.00  0.00    -0.385 OA
ATOM     16  H   UNL     1       9.787  -6.761  -6.832  1.00  0.00     0.211 HD
ENDBRANCH   7  15
ENDBRANCH   1   2
BRANCH   1  17
ATOM     17  C   UNL     1       9.056  -2.269  -9.202  1.00  0.00     0.224 C 
ATOM     18  C   UNL     1       8.083  -1.128  -8.844  1.00  0.00     0.208 C 
ATOM     19  O   UNL     1      10.105  -2.273  -8.250  1.00  0.00    -0.337 OA
ATOM     20  C   UNL     1       8.959  -0.149  -8.104  1.00  0.00     0.180 C 
ATOM     21  C   UNL     1      10.125  -1.018  -7.593  1.00  0.00     0.179 C 
BRANCH  17  22
ATOM     22  C   UNL     1       9.694  -2.097 -10.601  1.00  0.00     0.225 C 
BRANCH  22  23
ATOM     23  O   UNL     1       8.840  -2.564 -11.609  1.00  0.00    -0.391 OA
ATOM     24  H   UNL     1       7.973  -2.759 -11.168  1.00  0.00     0.210 HD
ENDBRANCH  22  23
ENDBRANCH  17  22
BRANCH  18  25
ATOM     25  O   UNL     1       7.497  -0.525  -9.970  1.00  0.00    -0.385 OA
ATOM     26  H   UNL     1       6.859  -1.188 -10.342  1.00  0.00     0.211 HD
ENDBRANCH  18  25
BRANCH  20  27
ATOM     27  O   UNL     1       8.251   0.483  -7.068  1.00  0.00    -0.387 OA
ATOM     28  H   UNL     1       8.463  -0.015  -6.235  1.00  0.00     0.211 HD
ENDBRANCH  20  27
BRANCH  21  29
ATOM     29  C   UNL     1      10.121  -1.254  -6.072  1.00  0.00     0.191 C 
BRANCH  29  30
ATOM     30  O   UNL     1       9.003  -2.008  -5.687  1.00  0.00    -0.394 OA
ATOM     31  H   UNL     1       8.225  -1.637  -6.179  1.00  0.00     0.210 HD
ENDBRANCH  29  30
ENDBRANCH  21  29
ENDBRANCH   1  17
TORSDOF 13
ENDMDL
MODEL 2
REMARK VINA RESULT:    -3.796      1.629      5.397
REMARK INTER + INTRA:          -7.064
REMARK INTER:                  -5.358
REMARK INTRA:                  -1.706
REMARK UNBOUND:                -1.272
REMARK SMILES OC[C@H]1O[C@H](O[C@]2(CO)O[C@H](CO)[C@H](O)[C@H]2O)[C@@H](O)[C@@H](O)[C@H]1O
REMARK SMILES IDX 6 1 5 2 3 3 22 4 4 5 20 6 18 7 2 8 1 9 23 11 21 13 19 15
REMARK SMILES IDX 7 17 16 18 10 19 14 20 11 21 8 22 9 23 17 25 15 27 12 29
REMARK SMILES IDX 13 30
REMARK H PARENT 1 10 23 12 21 14 19 16 9 24 17 26 15 28 13 31
REMARK Flexibility Score: inf
ROOT
ATOM      1  O   UNL     1       8.639  -3.639  -9.932  1.00  0.00    -0.313 OA
ENDROOT
BRANCH   1   2
ATOM      2  C   UNL     1       7.692  -2.619  -9.628  1.00  0.00     0.285 C 
ATOM      3  C   UNL     1       8.796  -2.114  -7.611  1.00  0.00     0.178 C 
ATOM      4  C   UNL     1       9.272  -0.718  -8.093  1.00  0.00     0.177 C 
ATOM      5  O   UNL     1       7.564  -2.471  -8.221  1.00  0.00    -0.341 OA
ATOM      6  C   UNL     1       9.364  -0.688  -9.629  1.00  0.00     0.179 C 
ATOM      7  C   UNL     1       8.107  -1.280 -10.298  1.00  0.00     0.202 C 
BRANCH   3   8
ATOM      8  C   UNL     1       8.621  -2.163  -6.086  1.00  0.00     0.191 C 
BRANCH   8   9
ATOM      9  O   UNL     1       7.390  -2.738  -5.737  1.00  0.00    -0.394 OA
ATOM     10  H   UNL     1       7.220  -3.465  -6.391  1.00  0.00     0.210 HD
ENDBRANCH   8   9
ENDBRANCH   3   8
BRANCH   4  11
ATOM     11  O   UNL     1       8.465   0.331  -7.606  1.00  0.00    -0.387 OA
ATOM     12  H   UNL     1       9.051   1.011  -7.189  1.00  0.00     0.211 HD
ENDBRANCH   4  11
BRANCH   6  13
ATOM     13  O   UNL     1       9.591   0.627 -10.069  1.00  0.00    -0.387 OA
ATOM     14  H   UNL     1      10.535   0.667 -10.375  1.00  0.00     0.211 HD
ENDBRANCH   6  13
BRANCH   7  15
ATOM     15  O   UNL     1       7.057  -0.337 -10.326  1.00  0.00    -0.385 OA
ATOM     16  H   UNL     1       7.434   0.572 -10.444  1.00  0.00     0.211 HD
ENDBRANCH   7  15
ENDBRANCH   1   2
BRANCH   1  17
ATOM     17  C   UNL     1       8.090  -4.951 -10.007  1.00  0.00     0.224 C 
ATOM     18  C   UNL     1       8.636  -5.827  -8.861  1.00  0.00     0.208 C 
ATOM     19  O   UNL     1       6.677  -4.930  -9.915  1.00  0.00    -0.337 OA
ATOM     20  C   UNL     1       7.494  -6.769  -8.575  1.00  0.00     0.180 C 
ATOM     21  C   UNL     1       6.259  -6.017  -9.108  1.00  0.00     0.179 C 
BRANCH  17  22
ATOM     22  C   UNL     1       8.460  -5.496 -11.406  1.00  0.00     0.225 C 
BRANCH  22  23
ATOM     23  O   UNL     1       9.740  -5.077 -11.793  1.00  0.00    -0.391 OA
ATOM     24  H   UNL     1      10.129  -4.618 -11.004  1.00  0.00     0.210 HD
ENDBRANCH  22  23
ENDBRANCH  17  22
BRANCH  18  25
ATOM     25  O   UNL     1       9.797  -6.537  -9.211  1.00  0.00    -0.385 OA
ATOM     26  H   UNL     1      10.478  -5.857  -9.453  1.00  0.00     0.211 HD
ENDBRANCH  18  25
BRANCH  20  27
ATOM     27  O   UNL     1       7.408  -7.061  -7.203  1.00  0.00    -0.387 OA
ATOM     28  H   UNL     1       7.090  -7.999  -7.133  1.00  0.00     0.211 HD
ENDBRANCH  20  27
BRANCH  21  29
ATOM     29  C   UNL     1       5.316  -5.488  -8.012  1.00  0.00     0.191 C 
BRANCH  29  30
ATOM     30  O   UNL     1       5.928  -4.459  -7.282  1.00  0.00    -0.394 OA
ATOM     31  H   UNL     1       5.932  -3.657  -7.868  1.00  0.00     0.210 HD
ENDBRANCH  29  30
ENDBRANCH  21  29
ENDBRANCH   1  17
TORSDOF 13
ENDMDL
MODEL 3
REMARK VINA RESULT:    -3.424     14.291     16.246
REMARK INTER + INTRA:          -6.498
REMARK INTER:                  -6.446
REMARK INTRA:                  -0.051
REMARK UNBOUND:                -1.272
REMARK SMILES OC[C@H]1O[C@H](O[C@]2(CO)O[C@H](CO)[C@H](O)[C@H]2O)[C@@H](O)[C@@H](O)[C@H]1O
REMARK SMILES IDX 6 1 5 2 3 3 22 4 4 5 20 6 18 7 2 8 1 9 23 11 21 13 19 15
REMARK SMILES IDX 7 17 16 18 10 19 14 20 11 21 8 22 9 23 17 25 15 27 12 29
REMARK SMILES IDX 13 30
REMARK H PARENT 1 10 23 12 21 14 19 16 9 24 17 26 15 28 13 31
REMARK Flexibility Score: inf
ROOT
ATOM      1  O   UNL     1       2.108  -5.142   6.007  1.00  0.00    -0.313 OA
ENDROOT
BRANCH   1   2
ATOM      2  C   UNL     1       1.697  -5.845   7.176  1.00  0.00     0.285 C 
ATOM      3  C   UNL     1      -0.313  -4.624   7.272  1.00  0.00     0.178 C 
ATOM      4  C   UNL     1      -1.203  -5.849   6.931  1.00  0.00     0.177 C 
ATOM      5  O   UNL     1       0.855  -5.023   7.973  1.00  0.00    -0.341 OA
ATOM      6  C   UNL     1      -0.391  -6.892   6.141  1.00  0.00     0.179 C 
ATOM      7  C   UNL     1       0.983  -7.168   6.786  1.00  0.00     0.202 C 
BRANCH   3   8
ATOM      8  C   UNL     1      -1.068  -3.591   8.123  1.00  0.00     0.191 C 
BRANCH   8   9
ATOM      9  O   UNL     1      -2.450  -3.663   7.897  1.00  0.00    -0.394 OA
ATOM     10  H   UNL     1      -2.892  -3.377   8.738  1.00  0.00     0.210 HD
ENDBRANCH   8   9
ENDBRANCH   3   8
BRANCH   4  11
ATOM     11  O   UNL     1      -1.804  -6.421   8.070  1.00  0.00    -0.387 OA
ATOM     12  H   UNL     1      -1.423  -7.325   8.207  1.00  0.00     0.211 HD
ENDBRANCH   4  11
BRANCH   6  13
ATOM     13  O   UNL     1      -1.131  -8.079   6.016  1.00  0.00    -0.387 OA
ATOM     14  H   UNL     1      -0.635  -8.779   6.517  1.00  0.00     0.211 HD
ENDBRANCH   6  13
BRANCH   7  15
ATOM     15  O   UNL     1       0.860  -8.061   7.872  1.00  0.00    -0.385 OA
ATOM     16  H   UNL     1       0.071  -8.644   7.733  1.00  0.00     0.211 HD
ENDBRANCH   7  15
ENDBRANCH   1   2
BRANCH   1  17
ATOM     17  C   UNL     1       3.041  -4.093   6.246  1.00  0.00     0.224 C 
ATOM     18  C   UNL     1       4.416  -4.451   5.646  1.00  0.00     0.208 C 
ATOM     19  O   UNL     1       2.610  -2.872   5.671  1.00  0.00    -0.337 OA
ATOM     20  C   UNL     1       4.980  -3.108   5.256  1.00  0.00     0.180 C 
ATOM     21  C   UNL     1       3.731  -2.219   5.103  1.00  0.00     0.179 C 
BRANCH  17  22
ATOM     22  C   UNL     1       3.088  -3.897   7.779  1.00  0.00     0.225 C 
BRANCH  22  23
ATOM     23  O   UNL     1       2.935  -2.547   8.125  1.00  0.00    -0.391 OA
ATOM     24  H   UNL     1       3.360  -2.026   7.395  1.00  0.00     0.210 HD
ENDBRANCH  22  23
ENDBRANCH  17  22
BRANCH  18  25
ATOM     25  O   UNL     1       5.264  -5.106   6.555  1.00  0.00    -0.385 OA
ATOM     26  H   UNL     1       4.783  -5.123   7.423  1.00  0.00     0.211 HD
ENDBRANCH  18  25
BRANCH  20  27
ATOM     27  O   UNL     1       5.737  -3.199   4.075  1.00  0.00    -0.387 OA
ATOM     28  H   UNL     1       6.023  -4.146   3.995  1.00  0.00     0.211 HD
ENDBRANCH  20  27
BRANCH  21  29
ATOM     29  C   UNL     1       3.398  -1.837   3.648  1.00  0.00     0.191 C 
BRANCH  29  30
ATOM     30  O   UNL     1       4.145  -0.722   3.242  1.00  0.00    -0.394 OA
ATOM     31  H   UNL     1       5.091  -0.912   3.475  1.00  0.00     0.210 HD
ENDBRANCH  29  30
ENDBRANCH  21  29
ENDBRANCH   1  17
TORSDOF 13
ENDMDL
MODEL 4
REMARK VINA RESULT:    -3.376      1.887      3.641
REMARK INTER + INTRA:          -6.424
REMARK INTER:                  -5.503
REMARK INTRA:                  -0.921
REMARK UNBOUND:                -1.272
REMARK SMILES OC[C@H]1O[C@H](O[C@]2(CO)O[C@H](CO)[C@H](O)[C@H]2O)[C@@H](O)[C@@H](O)[C@H]1O
REMARK SMILES IDX 6 1 5 2 3 3 22 4 4 5 20 6 18 7 2 8 1 9 23 11 21 13 19 15
REMARK SMILES IDX 7 17 16 18 10 19 14 20 11 21 8 22 9 23 17 25 15 27 12 29
REMARK SMILES IDX 13 30
REMARK H PARENT 1 10 23 12 21 14 19 16 9 24 17 26 15 28 13 31
REMARK Flexibility Score: inf
ROOT
ATOM      1  O   UNL     1       7.482  -4.140  -7.860  1.00  0.00    -0.313 OA
ENDROOT
BRANCH   1   2
ATOM      2  C   UNL     1       8.815  -4.334  -8.322  1.00  0.00     0.285 C 
ATOM      3  C   UNL     1       8.670  -6.652  -7.941  1.00  0.00     0.178 C 
ATOM      4  C   UNL     1       8.716  -7.015  -9.449  1.00  0.00     0.177 C 
ATOM      5  O   UNL     1       9.398  -5.461  -7.681  1.00  0.00    -0.341 OA
ATOM      6  C   UNL     1       8.202  -5.836 -10.295  1.00  0.00     0.179 C 
ATOM      7  C   UNL     1       8.833  -4.495  -9.867  1.00  0.00     0.202 C 
BRANCH   3   8
ATOM      8  C   UNL     1       9.244  -7.778  -7.066  1.00  0.00     0.191 C 
BRANCH   8   9
ATOM      9  O   UNL     1       9.957  -7.256  -5.976  1.00  0.00    -0.394 OA
ATOM     10  H   UNL     1      10.819  -7.746  -5.939  1.00  0.00     0.210 HD
ENDBRANCH   8   9
ENDBRANCH   3   8
BRANCH   4  11
ATOM     11  O   UNL     1       9.994  -7.432  -9.871  1.00  0.00    -0.387 OA
ATOM     12  H   UNL     1      10.510  -6.633 -10.149  1.00  0.00     0.211 HD
ENDBRANCH   4  11
BRANCH   6  13
ATOM     13  O   UNL     1       8.438  -6.087 -11.657  1.00  0.00    -0.387 OA
ATOM     14  H   UNL     1       8.874  -5.274 -12.025  1.00  0.00     0.211 HD
ENDBRANCH   6  13
BRANCH   7  15
ATOM     15  O   UNL     1      10.125  -4.347 -10.415  1.00  0.00    -0.385 OA
ATOM     16  H   UNL     1      10.639  -3.693  -9.877  1.00  0.00     0.211 HD
ENDBRANCH   7  15
ENDBRANCH   1   2
BRANCH   1  17
ATOM     17  C   UNL     1       7.173  -2.798  -7.492  1.00  0.00     0.224 C 
ATOM     18  C   UNL     1       8.062  -2.347  -6.315  1.00  0.00     0.208 C 
ATOM     19  O   UNL     1       7.378  -1.904  -8.571  1.00  0.00    -0.337 OA
ATOM     20  C   UNL     1       8.229  -0.869  -6.559  1.00  0.00     0.180 C 
ATOM     21  C   UNL     1       7.966  -0.716  -8.070  1.00  0.00     0.179 C 
BRANCH  17  22
ATOM     22  C   UNL     1       5.666  -2.779  -7.148  1.00  0.00     0.225 C 
BRANCH  22  23
ATOM     23  O   UNL     1       4.948  -1.981  -8.049  1.00  0.00    -0.391 OA
ATOM     24  H   UNL     1       5.531  -1.871  -8.844  1.00  0.00     0.210 HD
ENDBRANCH  22  23
ENDBRANCH  17  22
BRANCH  18  25
ATOM     25  O   UNL     1       7.481  -2.586  -5.059  1.00  0.00    -0.385 OA
ATOM     26  H   UNL     1       6.721  -1.952  -4.977  1.00  0.00     0.211 HD
ENDBRANCH  18  25
BRANCH  20  27
ATOM     27  O   UNL     1       9.511  -0.434  -6.179  1.00  0.00    -0.387 OA
ATOM     28  H   UNL     1       9.902   0.021  -6.971  1.00  0.00     0.211 HD
ENDBRANCH  20  27
BRANCH  21  29
ATOM     29  C   UNL     1       9.219  -0.393  -8.903  1.00  0.00     0.191 C 
BRANCH  29  30
ATOM     30  O   UNL     1      10.113  -1.473  -8.900  1.00  0.00    -0.394 OA
ATOM     31  H   UNL     1      10.202  -1.773  -9.842  1.00  0.00     0.210 HD
ENDBRANCH  29  30
ENDBRANCH  21  29
ENDBRANCH   1  17
TORSDOF 13
ENDMDL
MODEL 5
REMARK VINA RESULT:    -3.282      1.741      3.509
REMARK INTER + INTRA:          -6.281
REMARK INTER:                  -5.319
REMARK INTRA:                  -0.962
REMARK UNBOUND:                -1.272
REMARK SMILES OC[C@H]1O[C@H](O[C@]2(CO)O[C@H](CO)[C@H](O)[C@H]2O)[C@@H](O)[C@@H](O)[C@H]1O
REMARK SMILES IDX 6 1 5 2 3 3 22 4 4 5 20 6 18 7 2 8 1 9 23 11 21 13 19 15
REMARK SMILES IDX 7 17 16 18 10 19 14 20 11 21 8 22 9 23 17 25 15 27 12 29
REMARK SMILES IDX 13 30
REMARK H PARENT 1 10 23 12 21 14 19 16 9 24 17 26 15 28 13 31
REMARK Flexibility Score: inf
ROOT
ATOM      1  O   UNL     1       7.818  -2.401  -6.830  1.00  0.00    -0.313 OA
ENDROOT
BRANCH   1   2
ATOM      2  C   UNL     1       6.874  -2.326  -7.894  1.00  0.00     0.285 C 
ATOM      3  C   UNL     1       6.863  -4.669  -8.126  1.00  0.00     0.178 C 
ATOM      4  C   UNL     1       5.404  -4.823  -7.621  1.00  0.00     0.177 C 
ATOM      5  O   UNL     1       7.046  -3.422  -8.782  1.00  0.00    -0.341 OA
ATOM      6  C   UNL     1       5.029  -3.639  -6.712  1.00  0.00     0.179 C 
ATOM      7  C   UNL     1       5.427  -2.283  -7.330  1.00  0.00     0.202 C 
BRANCH   3   8
ATOM      8  C   UNL     1       7.253  -5.795  -9.096  1.00  0.00     0.191 C 
BRANCH   8   9
ATOM      9  O   UNL     1       8.422  -5.472  -9.800  1.00  0.00    -0.394 OA
ATOM     10  H   UNL     1       9.057  -6.222  -9.658  1.00  0.00     0.210 HD
ENDBRANCH   8   9
ENDBRANCH   3   8
BRANCH   4  11
ATOM     11  O   UNL     1       4.477  -4.979  -8.671  1.00  0.00    -0.387 OA
ATOM     12  H   UNL     1       4.976  -5.122  -9.514  1.00  0.00     0.211 HD
ENDBRANCH   4  11
BRANCH   6  13
ATOM     13  O   UNL     1       3.653  -3.672  -6.427  1.00  0.00    -0.387 OA
ATOM     14  H   UNL     1       3.279  -2.801  -6.724  1.00  0.00     0.211 HD
ENDBRANCH   6  13
BRANCH   7  15
ATOM     15  O   UNL     1       4.481  -1.867  -8.290  1.00  0.00    -0.385 OA
ATOM     16  H   UNL     1       4.937  -1.706  -9.155  1.00  0.00     0.211 HD
ENDBRANCH   7  15
ENDBRANCH   1   2
BRANCH   1  17
ATOM     17  C   UNL     1       9.103  -1.872  -7.142  1.00  0.00     0.224 C 
ATOM     18  C   UNL     1       9.165  -1.454  -8.625  1.00  0.00     0.208 C 
ATOM     19  O   UNL     1       9.405  -0.738  -6.348  1.00  0.00    -0.337 OA
ATOM     20  C   UNL     1      10.121  -0.287  -8.613  1.00  0.00     0.180 C 
ATOM     21  C   UNL     1      10.052   0.225  -7.161  1.00  0.00     0.179 C 
BRANCH  17  22
ATOM     22  C   UNL     1      10.125  -2.977  -6.787  1.00  0.00     0.225 C 
BRANCH  22  23
ATOM     23  O   UNL     1       9.784  -4.197  -7.387  1.00  0.00    -0.391 OA
ATOM     24  H   UNL     1      10.228  -4.201  -8.274  1.00  0.00     0.210 HD
ENDBRANCH  22  23
ENDBRANCH  17  22
BRANCH  18  25
ATOM     25  O   UNL     1       9.630  -2.475  -9.469  1.00  0.00    -0.385 OA
ATOM     26  H   UNL     1      10.463  -2.134  -9.887  1.00  0.00     0.211 HD
ENDBRANCH  18  25
BRANCH  20  27
ATOM     27  O   UNL     1       9.746   0.685  -9.556  1.00  0.00    -0.387 OA
ATOM     28  H   UNL     1       9.751   0.237 -10.442  1.00  0.00     0.211 HD
ENDBRANCH  20  27
BRANCH  21  29
ATOM     29  C   UNL     1       9.333   1.576  -6.998  1.00  0.00     0.191 C 
BRANCH  29  30
ATOM     30  O   UNL     1       8.657   1.637  -5.771  1.00  0.00    -0.394 OA
ATOM     31  H   UNL     1       8.750   0.743  -5.350  1.00  0.00     0.210 HD
ENDBRANCH  29  30
ENDBRANCH  21  29
ENDBRANCH   1  17
TORSDOF 13
ENDMDL
MODEL 6
REMARK VINA RESULT:    -3.282      1.890      2.995
REMARK INTER + INTRA:          -6.280
REMARK INTER:                  -6.765
REMARK INTRA:                   0.485
REMARK UNBOUND:                -1.272
REMARK SMILES OC[C@H]1O[C@H](O[C@]2(CO)O[C@H](CO)[C@H](O)[C@H]2O)[C@@H](O)[C@@H](O)[C@H]1O
REMARK SMILES IDX 6 1 5 2 3 3 22 4 4 5 20 6 18 7 2 8 1 9 23 11 21 13 19 15
REMARK SMILES IDX 7 17 16 18 10 19 14 20 11 21 8 22 9 23 17 25 15 27 12 29
REMARK SMILES IDX 13 30
REMARK H PARENT 1 10 23 12 21 14 19 16 9 24 17 26 15 28 13 31
REMARK Flexibility Score: inf
ROOT
ATOM      1  O   UNL     1       7.426  -1.448  -7.314  1.00  0.00    -0.313 OA
ENDROOT
BRANCH   1   2
ATOM      2  C   UNL     1       7.286  -2.791  -6.859  1.00  0.00     0.285 C 
ATOM      3  C   UNL     1       5.248  -3.030  -8.012  1.00  0.00     0.178 C 
ATOM      4  C   UNL     1       5.818  -4.053  -9.031  1.00  0.00     0.177 C 
ATOM      5  O   UNL     1       5.910  -3.136  -6.760  1.00  0.00    -0.341 OA
ATOM      6  C   UNL     1       7.340  -3.870  -9.173  1.00  0.00     0.179 C 
ATOM      7  C   UNL     1       8.042  -3.764  -7.804  1.00  0.00     0.202 C 
BRANCH   3   8
ATOM      8  C   UNL     1       3.741  -3.229  -7.787  1.00  0.00     0.191 C 
BRANCH   8   9
ATOM      9  O   UNL     1       3.037  -2.037  -8.010  1.00  0.00    -0.394 OA
ATOM     10  H   UNL     1       2.164  -2.130  -7.546  1.00  0.00     0.210 HD
ENDBRANCH   8   9
ENDBRANCH   3   8
BRANCH   4  11
ATOM     11  O   UNL     1       5.489  -5.385  -8.710  1.00  0.00    -0.387 OA
ATOM     12  H   UNL     1       4.542  -5.543  -8.953  1.00  0.00     0.211 HD
ENDBRANCH   4  11
BRANCH   6  13
ATOM     13  O   UNL     1       7.879  -4.922  -9.931  1.00  0.00    -0.387 OA
ATOM     14  H   UNL     1       7.895  -5.721  -9.339  1.00  0.00     0.211 HD
ENDBRANCH   6  13
BRANCH   7  15
ATOM     15  O   UNL     1       8.232  -5.040  -7.233  1.00  0.00    -0.385 OA
ATOM     16  H   UNL     1       9.203  -5.220  -7.142  1.00  0.00     0.211 HD
ENDBRANCH   7  15
ENDBRANCH   1   2
BRANCH   1  17
ATOM     17  C   UNL     1       8.728  -0.898  -7.140  1.00  0.00     0.224 C 
ATOM     18  C   UNL     1       9.255  -0.335  -8.475  1.00  0.00     0.208 C 
ATOM     19  O   UNL     1       8.727   0.149  -6.187  1.00  0.00    -0.337 OA
ATOM     20  C   UNL     1      10.124   0.818  -8.042  1.00  0.00     0.180 C 
ATOM     21  C   UNL     1       9.576   1.184  -6.649  1.00  0.00     0.179 C 
BRANCH  17  22
ATOM     22  C   UNL     1       9.609  -2.039  -6.580  1.00  0.00     0.225 C 
BRANCH  22  23
ATOM     23  O   UNL     1      10.098  -1.726  -5.305  1.00  0.00    -0.391 OA
ATOM     24  H   UNL     1      11.086  -1.707  -5.385  1.00  0.00     0.210 HD
ENDBRANCH  22  23
ENDBRANCH  17  22
BRANCH  18  25
ATOM     25  O   UNL     1       9.995  -1.270  -9.217  1.00  0.00    -0.385 OA
ATOM     26  H   UNL     1       9.992  -0.949 -10.156  1.00  0.00     0.211 HD
ENDBRANCH  18  25
BRANCH  20  27
ATOM     27  O   UNL     1      10.048   1.882  -8.958  1.00  0.00    -0.387 OA
ATOM     28  H   UNL     1       9.392   1.612  -9.653  1.00  0.00     0.211 HD
ENDBRANCH  20  27
BRANCH  21  29
ATOM     29  C   UNL     1       8.808   2.517  -6.599  1.00  0.00     0.191 C 
BRANCH  29  30
ATOM     30  O   UNL     1       8.617   2.934  -5.274  1.00  0.00    -0.394 OA
ATOM     31  H   UNL     1       8.755   3.917  -5.261  1.00  0.00     0.210 HD
ENDBRANCH  29  30
ENDBRANCH  21  29
ENDBRANCH   1  17
TORSDOF 13
ENDMDL
MODEL 7
REMARK VINA RESULT:    -3.022      2.013      5.172
REMARK INTER + INTRA:          -5.884
REMARK INTER:                  -5.187
REMARK INTRA:                  -0.697
REMARK UNBOUND:                -1.272
REMARK SMILES OC[C@H]1O[C@H](O[C@]2(CO)O[C@H](CO)[C@H](O)[C@H]2O)[C@@H](O)[C@@H](O)[C@H]1O
REMARK SMILES IDX 6 1 5 2 3 3 22 4 4 5 20 6 18 7 2 8 1 9 23 11 21 13 19 15
REMARK SMILES IDX 7 17 16 18 10 19 14 20 11 21 8 22 9 23 17 25 15 27 12 29
REMARK SMILES IDX 13 30
REMARK H PARENT 1 10 23 12 21 14 19 16 9 24 17 26 15 28 13 31
REMARK Flexibility Score: inf
ROOT
ATOM      1  O   UNL     1       7.816  -5.149  -8.267  1.00  0.00    -0.313 OA
ENDROOT
BRANCH   1   2
ATOM      2  C   UNL     1       7.041  -4.334  -9.142  1.00  0.00     0.285 C 
ATOM      3  C   UNL     1       5.544  -3.795  -7.407  1.00  0.00     0.178 C 
ATOM      4  C   UNL     1       5.975  -2.305  -7.349  1.00  0.00     0.177 C 
ATOM      5  O   UNL     1       5.684  -4.314  -8.722  1.00  0.00    -0.341 OA
ATOM      6  C   UNL     1       7.413  -2.147  -7.875  1.00  0.00     0.179 C 
ATOM      7  C   UNL     1       7.631  -2.898  -9.206  1.00  0.00     0.202 C 
BRANCH   3   8
ATOM      8  C   UNL     1       4.088  -3.985  -6.957  1.00  0.00     0.191 C 
BRANCH   8   9
ATOM      9  O   UNL     1       3.205  -3.291  -7.798  1.00  0.00    -0.394 OA
ATOM     10  H   UNL     1       3.130  -2.370  -7.433  1.00  0.00     0.210 HD
ENDBRANCH   8   9
ENDBRANCH   3   8
BRANCH   4  11
ATOM     11  O   UNL     1       5.083  -1.452  -8.027  1.00  0.00    -0.387 OA
ATOM     12  H   UNL     1       4.198  -1.894  -8.075  1.00  0.00     0.211 HD
ENDBRANCH   4  11
BRANCH   6  13
ATOM     13  O   UNL     1       7.724  -0.784  -8.016  1.00  0.00    -0.387 OA
ATOM     14  H   UNL     1       7.544  -0.547  -8.964  1.00  0.00     0.211 HD
ENDBRANCH   6  13
BRANCH   7  15
ATOM     15  O   UNL     1       7.131  -2.152 -10.294  1.00  0.00    -0.385 OA
ATOM     16  H   UNL     1       6.294  -1.695 -10.025  1.00  0.00     0.211 HD
ENDBRANCH   7  15
ENDBRANCH   1   2
BRANCH   1  17
ATOM     17  C   UNL     1       9.037  -5.623  -8.828  1.00  0.00     0.224 C 
ATOM     18  C   UNL     1       8.797  -6.936  -9.601  1.00  0.00     0.208 C 
ATOM     19  O   UNL     1       9.600  -4.679  -9.720  1.00  0.00    -0.337 OA
ATOM     20  C   UNL     1       9.823  -6.876 -10.704  1.00  0.00     0.180 C 
ATOM     21  C   UNL     1      10.125  -5.371 -10.840  1.00  0.00     0.179 C 
BRANCH  17  22
ATOM     22  C   UNL     1      10.018  -5.794  -7.645  1.00  0.00     0.225 C 
BRANCH  22  23
ATOM     23  O   UNL     1       9.384  -6.371  -6.537  1.00  0.00    -0.391 OA
ATOM     24  H   UNL     1      10.034  -7.011  -6.149  1.00  0.00     0.210 HD
ENDBRANCH  22  23
ENDBRANCH  17  22
BRANCH  18  25
ATOM     25  O   UNL     1       8.976  -8.084  -8.812  1.00  0.00    -0.385 OA
ATOM     26  H   UNL     1       8.283  -8.733  -9.101  1.00  0.00     0.211 HD
ENDBRANCH  18  25
BRANCH  20  27
ATOM     27  O   UNL     1       9.326  -7.444 -11.890  1.00  0.00    -0.387 OA
ATOM     28  H   UNL     1       8.605  -6.843 -12.212  1.00  0.00     0.211 HD
ENDBRANCH  20  27
BRANCH  21  29
ATOM     29  C   UNL     1       9.574  -4.726 -12.125  1.00  0.00     0.191 C 
BRANCH  29  30
ATOM     30  O   UNL     1       9.420  -3.342 -11.962  1.00  0.00    -0.394 OA
ATOM     31  H   UNL     1       8.562  -3.204 -11.481  1.00  0.00     0.210 HD
ENDBRANCH  29  30
ENDBRANCH  21  29
ENDBRANCH   1  17
TORSDOF 13
ENDMDL
MODEL 8
REMARK VINA RESULT:    -2.882      1.900      3.952
REMARK INTER + INTRA:          -5.671
REMARK INTER:                  -4.766
REMARK INTRA:                  -0.905
REMARK UNBOUND:                -1.272
REMARK SMILES OC[C@H]1O[C@H](O[C@]2(CO)O[C@H](CO)[C@H](O)[C@H]2O)[C@@H](O)[C@@H](O)[C@H]1O
REMARK SMILES IDX 6 1 5 2 3 3 22 4 4 5 20 6 18 7 2 8 1 9 23 11 21 13 19 15
REMARK SMILES IDX 7 17 16 18 10 19 14 20 11 21 8 22 9 23 17 25 15 27 12 29
REMARK SMILES IDX 13 30
REMARK H PARENT 1 10 23 12 21 14 19 16 9 24 17 26 15 28 13 31
REMARK Flexibility Score: inf
ROOT
ATOM      1  O   UNL     1       8.549  -3.916  -7.957  1.00  0.00    -0.313 OA
ENDROOT
BRANCH   1   2
ATOM      2  C   UNL     1       7.837  -5.041  -8.465  1.00  0.00     0.285 C 
ATOM      3  C   UNL     1       9.672  -5.675  -9.795  1.00  0.00     0.178 C 
ATOM      4  C   UNL     1       9.960  -6.962  -8.978  1.00  0.00     0.177 C 
ATOM      5  O   UNL     1       8.288  -5.358  -9.774  1.00  0.00    -0.341 OA
ATOM      6  C   UNL     1       9.431  -6.810  -7.540  1.00  0.00     0.179 C 
ATOM      7  C   UNL     1       7.992  -6.254  -7.508  1.00  0.00     0.202 C 
BRANCH   3   8
ATOM      8  C   UNL     1      10.122  -5.814 -11.257  1.00  0.00     0.191 C 
BRANCH   8   9
ATOM      9  O   UNL     1       9.118  -6.404 -12.039  1.00  0.00    -0.394 OA
ATOM     10  H   UNL     1       9.014  -7.336 -11.714  1.00  0.00     0.210 HD
ENDBRANCH   8   9
ENDBRANCH   3   8
BRANCH   4  11
ATOM     11  O   UNL     1       9.452  -8.124  -9.592  1.00  0.00    -0.387 OA
ATOM     12  H   UNL     1       8.516  -7.950  -9.868  1.00  0.00     0.211 HD
ENDBRANCH   4  11
BRANCH   6  13
ATOM     13  O   UNL     1       9.505  -8.042  -6.870  1.00  0.00    -0.387 OA
ATOM     14  H   UNL     1       9.389  -7.848  -5.903  1.00  0.00     0.211 HD
ENDBRANCH   6  13
BRANCH   7  15
ATOM     15  O   UNL     1       7.051  -7.274  -7.765  1.00  0.00    -0.385 OA
ATOM     16  H   UNL     1       7.512  -8.057  -8.161  1.00  0.00     0.211 HD
ENDBRANCH   7  15
ENDBRANCH   1   2
BRANCH   1  17
ATOM     17  C   UNL     1       7.840  -2.683  -8.037  1.00  0.00     0.224 C 
ATOM     18  C   UNL     1       8.768  -1.506  -7.673  1.00  0.00     0.208 C 
ATOM     19  O   UNL     1       7.329  -2.460  -9.339  1.00  0.00    -0.337 OA
ATOM     20  C   UNL     1       8.232  -0.374  -8.513  1.00  0.00     0.180 C 
ATOM     21  C   UNL     1       7.496  -1.091  -9.662  1.00  0.00     0.179 C 
BRANCH  17  22
ATOM     22  C   UNL     1       6.634  -2.814  -7.077  1.00  0.00     0.225 C 
BRANCH  22  23
ATOM     23  O   UNL     1       7.054  -3.082  -5.767  1.00  0.00    -0.391 OA
ATOM     24  H   UNL     1       6.263  -2.930  -5.188  1.00  0.00     0.210 HD
ENDBRANCH  22  23
ENDBRANCH  17  22
BRANCH  18  25
ATOM     25  O   UNL     1       8.736  -1.176  -6.309  1.00  0.00    -0.385 OA
ATOM     26  H   UNL     1       8.635  -2.032  -5.816  1.00  0.00     0.211 HD
ENDBRANCH  18  25
BRANCH  20  27
ATOM     27  O   UNL     1       9.271   0.459  -8.963  1.00  0.00    -0.387 OA
ATOM     28  H   UNL     1       9.042   0.720  -9.894  1.00  0.00     0.211 HD
ENDBRANCH  20  27
BRANCH  21  29
ATOM     29  C   UNL     1       8.197  -0.985 -11.029  1.00  0.00     0.191 C 
BRANCH  29  30
ATOM     30  O   UNL     1       7.434  -0.222 -11.924  1.00  0.00    -0.394 OA
ATOM     31  H   UNL     1       7.535  -0.643 -12.817  1.00  0.00     0.210 HD
ENDBRANCH  29  30
ENDBRANCH  21  29
ENDBRANCH   1  17
TORSDOF 13
ENDMDL
