MODEL 1
REMARK VINA RESULT:    -4.250      0.000      0.000
REMARK INTER + INTRA:          -7.470
REMARK INTER:                  -6.734
REMARK INTRA:                  -0.737
REMARK UNBOUND:                -0.737
REMARK SMILES CCCCCCCCCCCC(=O)[O-]
REMARK SMILES IDX 7 1 8 2 9 3 10 4 11 5 12 6 13 7 14 8 6 9 5 10 4 11 3 12 2 13
REMARK SMILES IDX 1 14
REMARK H PARENT
REMARK Flexibility Score: inf
ROOT
ATOM      1  C   UNL     1      16.667  30.889  67.924  1.00  0.00     0.000 C 
ENDROOT
BRANCH   1   2
ATOM      2  C   UNL     1      16.037  32.275  67.739  1.00  0.00     0.000 C 
BRANCH   2   3
ATOM      3  C   UNL     1      14.700  32.376  68.488  1.00  0.00     0.000 C 
BRANCH   3   4
ATOM      4  C   UNL     1      13.882  33.617  68.084  1.00  0.00     0.006 C 
BRANCH   4   5
ATOM      5  C   UNL     1      14.500  34.437  66.940  1.00  0.00     0.053 C 
BRANCH   5   6
ATOM      6  C   UNL     1      14.791  35.847  67.353  1.00  0.00     0.041 C 
ATOM      7  O   UNL     1      15.981  36.252  67.429  1.00  0.00    -0.550 OA
ATOM      8  O   UNL     1      13.748  36.724  67.622  1.00  0.00    -0.550 OA
ENDBRANCH   5   6
ENDBRANCH   4   5
ENDBRANCH   3   4
ENDBRANCH   2   3
ENDBRANCH   1   2
BRANCH   1   9
ATOM      9  C   UNL     1      17.770  30.925  68.993  1.00  0.00     0.000 C 
BRANCH   9  10
ATOM     10  C   UNL     1      17.577  29.856  70.082  1.00  0.00    -0.000 C 
BRANCH  10  11
ATOM     11  C   UNL     1      16.603  30.307  71.184  1.00  0.00    -0.000 C 
BRANCH  11  12
ATOM     12  C   UNL     1      15.226  29.626  71.080  1.00  0.00    -0.000 C 
BRANCH  12  13
ATOM     13  C   UNL     1      15.033  28.405  71.997  1.00  0.00    -0.003 C 
ATOM     14  C   UNL     1      16.114  28.285  73.070  1.00  0.00     0.004 C 
ENDBRANCH  12  13
ENDBRANCH  11  12
ENDBRANCH  10  11
ENDBRANCH   9  10
ENDBRANCH   1   9
TORSDOF 10
ENDMDL
MODEL 2
REMARK VINA RESULT:    -4.234      1.044      2.448
REMARK INTER + INTRA:          -7.446
REMARK INTER:                  -6.383
REMARK INTRA:                  -1.063
REMARK UNBOUND:                -0.737
REMARK SMILES CCCCCCCCCCCC(=O)[O-]
REMARK SMILES IDX 7 1 8 2 9 3 10 4 11 5 12 6 13 7 14 8 6 9 5 10 4 11 3 12 2 13
REMARK SMILES IDX 1 14
REMARK H PARENT
REMARK Flexibility Score: inf
ROOT
ATOM      1  C   UNL     1      14.730  29.934  68.843  1.00  0.00     0.000 C 
ENDROOT
BRANCH   1   2
ATOM      2  C   UNL     1      15.346  30.966  67.891  1.00  0.00     0.000 C 
BRANCH   2   3
ATOM      3  C   UNL     1      15.303  32.375  68.502  1.00  0.00     0.000 C 
BRANCH   3   4
ATOM      4  C   UNL     1      14.137  33.223  67.964  1.00  0.00     0.006 C 
BRANCH   4   5
ATOM      5  C   UNL     1      14.525  34.184  66.828  1.00  0.00     0.053 C 
BRANCH   5   6
ATOM      6  C   UNL     1      14.789  35.570  67.330  1.00  0.00     0.041 C 
ATOM      7  O   UNL     1      15.967  36.012  67.377  1.00  0.00    -0.550 OA
ATOM      8  O   UNL     1      13.732  36.386  67.714  1.00  0.00    -0.550 OA
ENDBRANCH   5   6
ENDBRANCH   4   5
ENDBRANCH   3   4
ENDBRANCH   2   3
ENDBRANCH   1   2
BRANCH   1   9
ATOM      9  C   UNL     1      14.830  30.403  70.302  1.00  0.00     0.000 C 
BRANCH   9  10
ATOM     10  C   UNL     1      15.290  29.288  71.256  1.00  0.00    -0.000 C 
BRANCH  10  11
ATOM     11  C   UNL     1      16.715  29.518  71.789  1.00  0.00    -0.000 C 
BRANCH  11  12
ATOM     12  C   UNL     1      17.315  30.859  71.328  1.00  0.00    -0.000 C 
BRANCH  12  13
ATOM     13  C   UNL     1      18.742  30.773  70.760  1.00  0.00    -0.003 C 
ATOM     14  C   UNL     1      18.820  31.136  69.278  1.00  0.00     0.004 C 
ENDBRANCH  12  13
ENDBRANCH  11  12
ENDBRANCH  10  11
ENDBRANCH   9  10
ENDBRANCH   1   9
TORSDOF 10
ENDMDL
MODEL 3
REMARK VINA RESULT:    -4.113      2.381      3.495
REMARK INTER + INTRA:          -7.254
REMARK INTER:                  -5.922
REMARK INTRA:                  -1.332
REMARK UNBOUND:                -0.737
REMARK SMILES CCCCCCCCCCCC(=O)[O-]
REMARK SMILES IDX 7 1 8 2 9 3 10 4 11 5 12 6 13 7 14 8 6 9 5 10 4 11 3 12 2 13
REMARK SMILES IDX 1 14
REMARK H PARENT
REMARK Flexibility Score: inf
ROOT
ATOM      1  C   UNL     1      14.763  29.898  68.841  1.00  0.00     0.000 C 
ENDROOT
BRANCH   1   2
ATOM      2  C   UNL     1      15.415  30.884  67.864  1.00  0.00     0.000 C 
BRANCH   2   3
ATOM      3  C   UNL     1      15.405  32.311  68.433  1.00  0.00     0.000 C 
BRANCH   3   4
ATOM      4  C   UNL     1      14.434  33.244  67.688  1.00  0.00     0.006 C 
BRANCH   4   5
ATOM      5  C   UNL     1      13.161  33.592  68.475  1.00  0.00     0.053 C 
BRANCH   5   6
ATOM      6  C   UNL     1      12.047  32.630  68.196  1.00  0.00     0.041 C 
ATOM      7  O   UNL     1      11.726  31.767  69.055  1.00  0.00    -0.550 OA
ATOM      8  O   UNL     1      11.342  32.708  67.002  1.00  0.00    -0.550 OA
ENDBRANCH   5   6
ENDBRANCH   4   5
ENDBRANCH   3   4
ENDBRANCH   2   3
ENDBRANCH   1   2
BRANCH   1   9
ATOM      9  C   UNL     1      14.835  30.421  70.282  1.00  0.00     0.000 C 
BRANCH   9  10
ATOM     10  C   UNL     1      15.295  29.348  71.283  1.00  0.00    -0.000 C 
BRANCH  10  11
ATOM     11  C   UNL     1      16.707  29.617  71.830  1.00  0.00    -0.000 C 
BRANCH  11  12
ATOM     12  C   UNL     1      17.305  30.939  71.315  1.00  0.00    -0.000 C 
BRANCH  12  13
ATOM     13  C   UNL     1      18.749  30.841  70.791  1.00  0.00    -0.003 C 
ATOM     14  C   UNL     1      18.863  31.123  69.294  1.00  0.00     0.004 C 
ENDBRANCH  12  13
ENDBRANCH  11  12
ENDBRANCH  10  11
ENDBRANCH   9  10
ENDBRANCH   1   9
TORSDOF 10
ENDMDL
MODEL 4
REMARK VINA RESULT:    -4.086      1.115      2.077
REMARK INTER + INTRA:          -7.211
REMARK INTER:                  -6.329
REMARK INTRA:                  -0.882
REMARK UNBOUND:                -0.737
REMARK SMILES CCCCCCCCCCCC(=O)[O-]
REMARK SMILES IDX 7 1 8 2 9 3 10 4 11 5 12 6 13 7 14 8 6 9 5 10 4 11 3 12 2 13
REMARK SMILES IDX 1 14
REMARK H PARENT
REMARK Flexibility Score: inf
ROOT
ATOM      1  C   UNL     1      16.218  32.131  67.584  1.00  0.00     0.000 C 
ENDROOT
BRANCH   1   2
ATOM      2  C   UNL     1      14.983  31.889  68.461  1.00  0.00     0.000 C 
BRANCH   2   3
ATOM      3  C   UNL     1      13.799  32.750  67.997  1.00  0.00     0.000 C 
BRANCH   3   4
ATOM      4  C   UNL     1      14.243  34.030  67.264  1.00  0.00     0.006 C 
BRANCH   4   5
ATOM      5  C   UNL     1      13.733  35.332  67.901  1.00  0.00     0.053 C 
BRANCH   5   6
ATOM      6  C   UNL     1      14.462  36.534  67.384  1.00  0.00     0.041 C 
ATOM      7  O   UNL     1      13.820  37.544  66.992  1.00  0.00    -0.550 OA
ATOM      8  O   UNL     1      15.851  36.552  67.365  1.00  0.00    -0.550 OA
ENDBRANCH   5   6
ENDBRANCH   4   5
ENDBRANCH   3   4
ENDBRANCH   2   3
ENDBRANCH   1   2
BRANCH   1   9
ATOM      9  C   UNL     1      17.182  30.938  67.649  1.00  0.00     0.000 C 
BRANCH   9  10
ATOM     10  C   UNL     1      18.471  31.256  68.426  1.00  0.00    -0.000 C 
BRANCH  10  11
ATOM     11  C   UNL     1      18.672  30.331  69.639  1.00  0.00    -0.000 C 
BRANCH  11  12
ATOM     12  C   UNL     1      18.270  30.994  70.969  1.00  0.00    -0.000 C 
BRANCH  12  13
ATOM     13  C   UNL     1      16.810  30.762  71.397  1.00  0.00    -0.003 C 
ATOM     14  C   UNL     1      16.239  29.439  70.887  1.00  0.00     0.004 C 
ENDBRANCH  12  13
ENDBRANCH  11  12
ENDBRANCH  10  11
ENDBRANCH   9  10
ENDBRANCH   1   9
TORSDOF 10
ENDMDL
MODEL 5
REMARK VINA RESULT:    -4.084      1.539      3.487
REMARK INTER + INTRA:          -7.208
REMARK INTER:                  -5.967
REMARK INTRA:                  -1.241
REMARK UNBOUND:                -0.737
REMARK SMILES CCCCCCCCCCCC(=O)[O-]
REMARK SMILES IDX 7 1 8 2 9 3 10 4 11 5 12 6 13 7 14 8 6 9 5 10 4 11 3 12 2 13
REMARK SMILES IDX 1 14
REMARK H PARENT
REMARK Flexibility Score: inf
ROOT
ATOM      1  C   UNL     1      15.583  30.704  70.564  1.00  0.00     0.000 C 
ENDROOT
BRANCH   1   2
ATOM      2  C   UNL     1      15.718  30.045  69.186  1.00  0.00     0.000 C 
BRANCH   2   3
ATOM      3  C   UNL     1      15.182  30.966  68.080  1.00  0.00     0.000 C 
BRANCH   3   4
ATOM      4  C   UNL     1      15.209  32.453  68.476  1.00  0.00     0.006 C 
BRANCH   4   5
ATOM      5  C   UNL     1      13.887  33.198  68.232  1.00  0.00     0.053 C 
BRANCH   5   6
ATOM      6  C   UNL     1      14.094  34.481  67.487  1.00  0.00     0.041 C 
ATOM      7  O   UNL     1      14.651  34.475  66.359  1.00  0.00    -0.550 OA
ATOM      8  O   UNL     1      13.640  35.679  68.025  1.00  0.00    -0.550 OA
ENDBRANCH   5   6
ENDBRANCH   4   5
ENDBRANCH   3   4
ENDBRANCH   2   3
ENDBRANCH   1   2
BRANCH   1   9
ATOM      9  C   UNL     1      16.742  30.295  71.485  1.00  0.00     0.000 C 
BRANCH   9  10
ATOM     10  C   UNL     1      18.001  29.877  70.707  1.00  0.00    -0.000 C 
BRANCH  10  11
ATOM     11  C   UNL     1      18.981  31.045  70.500  1.00  0.00    -0.000 C 
BRANCH  11  12
ATOM     12  C   UNL     1      19.708  30.981  69.144  1.00  0.00    -0.000 C 
BRANCH  12  13
ATOM     13  C   UNL     1      18.991  31.699  67.986  1.00  0.00    -0.003 C 
ATOM     14  C   UNL     1      18.744  30.792  66.781  1.00  0.00     0.004 C 
ENDBRANCH  12  13
ENDBRANCH  11  12
ENDBRANCH  10  11
ENDBRANCH   9  10
ENDBRANCH   1   9
TORSDOF 10
ENDMDL
MODEL 6
REMARK VINA RESULT:    -4.083     13.089     14.933
REMARK INTER + INTRA:          -7.206
REMARK INTER:                  -5.801
REMARK INTRA:                  -1.405
REMARK UNBOUND:                -0.737
REMARK SMILES CCCCCCCCCCCC(=O)[O-]
REMARK SMILES IDX 7 1 8 2 9 3 10 4 11 5 12 6 13 7 14 8 6 9 5 10 4 11 3 12 2 13
REMARK SMILES IDX 1 14
REMARK H PARENT
REMARK Flexibility Score: inf
ROOT
ATOM      1  C   UNL     1      16.194  43.999  63.563  1.00  0.00     0.000 C 
ENDROOT
BRANCH   1   2
ATOM      2  C   UNL     1      17.499  43.194  63.521  1.00  0.00     0.000 C 
BRANCH   2   3
ATOM      3  C   UNL     1      17.549  42.289  62.281  1.00  0.00     0.000 C 
BRANCH   3   4
ATOM      4  C   UNL     1      18.308  42.930  61.105  1.00  0.00     0.006 C 
BRANCH   4   5
ATOM      5  C   UNL     1      19.684  43.505  61.479  1.00  0.00     0.053 C 
BRANCH   5   6
ATOM      6  C   UNL     1      20.805  42.618  61.031  1.00  0.00     0.041 C 
ATOM      7  O   UNL     1      20.623  41.378  60.916  1.00  0.00    -0.550 OA
ATOM      8  O   UNL     1      22.040  43.165  60.709  1.00  0.00    -0.550 OA
ENDBRANCH   5   6
ENDBRANCH   4   5
ENDBRANCH   3   4
ENDBRANCH   2   3
ENDBRANCH   1   2
BRANCH   1   9
ATOM      9  C   UNL     1      16.449  45.478  63.237  1.00  0.00     0.000 C 
BRANCH   9  10
ATOM     10  C   UNL     1      16.097  45.836  61.784  1.00  0.00    -0.000 C 
BRANCH  10  11
ATOM     11  C   UNL     1      14.622  45.556  61.449  1.00  0.00    -0.000 C 
BRANCH  11  12
ATOM     12  C   UNL     1      14.436  44.912  60.063  1.00  0.00    -0.000 C 
BRANCH  12  13
ATOM     13  C   UNL     1      14.782  43.414  59.990  1.00  0.00    -0.003 C 
ATOM     14  C   UNL     1      14.067  42.581  61.053  1.00  0.00     0.004 C 
ENDBRANCH  12  13
ENDBRANCH  11  12
ENDBRANCH  10  11
ENDBRANCH   9  10
ENDBRANCH   1   9
TORSDOF 10
ENDMDL
MODEL 7
REMARK VINA RESULT:    -4.027     13.465     14.681
REMARK INTER + INTRA:          -7.117
REMARK INTER:                  -5.871
REMARK INTRA:                  -1.246
REMARK UNBOUND:                -0.737
REMARK SMILES CCCCCCCCCCCC(=O)[O-]
REMARK SMILES IDX 7 1 8 2 9 3 10 4 11 5 12 6 13 7 14 8 6 9 5 10 4 11 3 12 2 13
REMARK SMILES IDX 1 14
REMARK H PARENT
REMARK Flexibility Score: inf
ROOT
ATOM      1  C   UNL     1      15.752  44.024  60.073  1.00  0.00     0.000 C 
ENDROOT
BRANCH   1   2
ATOM      2  C   UNL     1      17.232  43.673  59.875  1.00  0.00     0.000 C 
BRANCH   2   3
ATOM      3  C   UNL     1      17.775  42.880  61.073  1.00  0.00     0.000 C 
BRANCH   3   4
ATOM      4  C   UNL     1      19.250  43.197  61.380  1.00  0.00     0.006 C 
BRANCH   4   5
ATOM      5  C   UNL     1      19.985  42.094  62.158  1.00  0.00     0.053 C 
BRANCH   5   6
ATOM      6  C   UNL     1      21.129  41.522  61.377  1.00  0.00     0.041 C 
ATOM      7  O   UNL     1      20.915  40.914  60.296  1.00  0.00    -0.550 OA
ATOM      8  O   UNL     1      22.432  41.689  61.828  1.00  0.00    -0.550 OA
ENDBRANCH   5   6
ENDBRANCH   4   5
ENDBRANCH   3   4
ENDBRANCH   2   3
ENDBRANCH   1   2
BRANCH   1   9
ATOM      9  C   UNL     1      14.998  42.869  60.749  1.00  0.00     0.000 C 
BRANCH   9  10
ATOM     10  C   UNL     1      13.838  43.353  61.634  1.00  0.00    -0.000 C 
BRANCH  10  11
ATOM     11  C   UNL     1      14.198  44.613  62.441  1.00  0.00    -0.000 C 
BRANCH  11  12
ATOM     12  C   UNL     1      14.937  44.291  63.753  1.00  0.00    -0.000 C 
BRANCH  12  13
ATOM     13  C   UNL     1      16.374  44.837  63.841  1.00  0.00    -0.003 C 
ATOM     14  C   UNL     1      16.592  46.089  62.993  1.00  0.00     0.004 C 
ENDBRANCH  12  13
ENDBRANCH  11  12
ENDBRANCH  10  11
ENDBRANCH   9  10
ENDBRANCH   1   9
TORSDOF 10
ENDMDL
MODEL 8
REMARK VINA RESULT:    -3.967     12.009     14.263
REMARK INTER + INTRA:          -7.023
REMARK INTER:                  -5.643
REMARK INTRA:                  -1.380
REMARK UNBOUND:                -0.737
REMARK SMILES CCCCCCCCCCCC(=O)[O-]
REMARK SMILES IDX 7 1 8 2 9 3 10 4 11 5 12 6 13 7 14 8 6 9 5 10 4 11 3 12 2 13
REMARK SMILES IDX 1 14
REMARK H PARENT
REMARK Flexibility Score: inf
ROOT
ATOM      1  C   UNL     1      16.058  44.295  59.986  1.00  0.00     0.000 C 
ENDROOT
BRANCH   1   2
ATOM      2  C   UNL     1      17.429  43.616  59.886  1.00  0.00     0.000 C 
BRANCH   2   3
ATOM      3  C   UNL     1      18.165  43.658  61.234  1.00  0.00     0.000 C 
BRANCH   3   4
ATOM      4  C   UNL     1      18.060  42.333  62.012  1.00  0.00     0.006 C 
BRANCH   4   5
ATOM      5  C   UNL     1      17.839  42.503  63.523  1.00  0.00     0.053 C 
BRANCH   5   6
ATOM      6  C   UNL     1      19.003  42.001  64.322  1.00  0.00     0.041 C 
ATOM      7  O   UNL     1      19.957  41.412  63.749  1.00  0.00    -0.550 OA
ATOM      8  O   UNL     1      19.050  42.213  65.694  1.00  0.00    -0.550 OA
ENDBRANCH   5   6
ENDBRANCH   4   5
ENDBRANCH   3   4
ENDBRANCH   2   3
ENDBRANCH   1   2
BRANCH   1   9
ATOM      9  C   UNL     1      14.926  43.259  59.943  1.00  0.00     0.000 C 
BRANCH   9  10
ATOM     10  C   UNL     1      14.151  43.170  61.268  1.00  0.00    -0.000 C 
BRANCH  10  11
ATOM     11  C   UNL     1      14.063  44.524  61.992  1.00  0.00    -0.000 C 
BRANCH  11  12
ATOM     12  C   UNL     1      14.120  44.387  63.525  1.00  0.00    -0.000 C 
BRANCH  12  13
ATOM     13  C   UNL     1      15.395  44.945  64.182  1.00  0.00    -0.003 C 
ATOM     14  C   UNL     1      16.146  45.932  63.289  1.00  0.00     0.004 C 
ENDBRANCH  12  13
ENDBRANCH  11  12
ENDBRANCH  10  11
ENDBRANCH   9  10
ENDBRANCH   1   9
TORSDOF 10
ENDMDL
MODEL 9
REMARK VINA RESULT:    -3.921      2.281      4.489
REMARK INTER + INTRA:          -6.949
REMARK INTER:                  -5.872
REMARK INTRA:                  -1.077
REMARK UNBOUND:                -0.737
REMARK SMILES CCCCCCCCCCCC(=O)[O-]
REMARK SMILES IDX 7 1 8 2 9 3 10 4 11 5 12 6 13 7 14 8 6 9 5 10 4 11 3 12 2 13
REMARK SMILES IDX 1 14
REMARK H PARENT
REMARK Flexibility Score: inf
ROOT
ATOM      1  C   UNL     1      17.574  30.085  70.371  1.00  0.00     0.000 C 
ENDROOT
BRANCH   1   2
ATOM      2  C   UNL     1      16.378  30.874  70.919  1.00  0.00     0.000 C 
BRANCH   2   3
ATOM      3  C   UNL     1      15.155  30.730  70.002  1.00  0.00     0.000 C 
BRANCH   3   4
ATOM      4  C   UNL     1      15.490  30.973  68.519  1.00  0.00     0.006 C 
BRANCH   4   5
ATOM      5  C   UNL     1      15.671  32.453  68.145  1.00  0.00     0.053 C 
BRANCH   5   6
ATOM      6  C   UNL     1      14.411  33.055  67.603  1.00  0.00     0.041 C 
ATOM      7  O   UNL     1      14.184  33.039  66.365  1.00  0.00    -0.550 OA
ATOM      8  O   UNL     1      13.473  33.604  68.468  1.00  0.00    -0.550 OA
ENDBRANCH   5   6
ENDBRANCH   4   5
ENDBRANCH   3   4
ENDBRANCH   2   3
ENDBRANCH   1   2
BRANCH   1   9
ATOM      9  C   UNL     1      18.864  30.913  70.456  1.00  0.00     0.000 C 
BRANCH   9  10
ATOM     10  C   UNL     1      19.711  30.828  69.175  1.00  0.00    -0.000 C 
BRANCH  10  11
ATOM     11  C   UNL     1      19.049  29.965  68.087  1.00  0.00    -0.000 C 
BRANCH  11  12
ATOM     12  C   UNL     1      19.397  30.431  66.661  1.00  0.00    -0.000 C 
BRANCH  12  13
ATOM     13  C   UNL     1      18.189  30.824  65.792  1.00  0.00    -0.003 C 
ATOM     14  C   UNL     1      18.567  31.119  64.341  1.00  0.00     0.004 C 
ENDBRANCH  12  13
ENDBRANCH  11  12
ENDBRANCH  10  11
ENDBRANCH   9  10
ENDBRANCH   1   9
TORSDOF 10
ENDMDL
