MODEL 1
REMARK VINA RESULT:    -7.845      0.000      0.000
REMARK INTER + INTRA:          -9.450
REMARK INTER:                  -9.450
REMARK INTRA:                   0.000
REMARK UNBOUND:                 0.000
REMARK SMILES O=c1c(O)c(-c2ccc(O)c(O)c2)oc2cc(O)cc(O)c12
REMARK SMILES IDX 5 1 3 2 2 3 1 4 22 5 20 6 19 7 17 8 16 9 15 10 14 11 6 12
REMARK SMILES IDX 7 13 8 14 9 15 13 16 11 17 10 18 12 20 4 22 21 24 18 26
REMARK H PARENT 10 19 12 21 4 23 21 25 18 27
REMARK Flexibility Score: inf
ROOT
ATOM      1  C   UNL     1     -11.245  32.009  27.746  1.00  0.00     0.180 A 
ATOM      2  C   UNL     1     -10.681  30.723  27.792  1.00  0.00     0.208 A 
ATOM      3  C   UNL     1     -11.208  29.779  28.688  1.00  0.00     0.238 A 
ATOM      4  O   UNL     1     -10.650  28.654  28.776  1.00  0.00    -0.285 OA
ATOM      5  C   UNL     1     -12.327  30.115  29.488  1.00  0.00     0.111 A 
ATOM      6  C   UNL     1     -12.972  29.224  30.398  1.00  0.00     0.134 A 
ATOM      7  C   UNL     1     -14.006  29.699  31.215  1.00  0.00     0.093 A 
ATOM      8  C   UNL     1     -14.460  31.015  31.109  1.00  0.00     0.123 A 
ATOM      9  C   UNL     1     -13.875  31.876  30.185  1.00  0.00     0.094 A 
ATOM     10  C   UNL     1     -12.817  31.444  29.383  1.00  0.00     0.146 A 
ATOM     11  O   UNL     1     -12.273  32.305  28.532  1.00  0.00    -0.452 OA
ENDROOT
BRANCH   1  12
ATOM     12  C   UNL     1     -10.735  33.062  26.838  1.00  0.00     0.025 A 
ATOM     13  C   UNL     1      -9.363  33.358  26.757  1.00  0.00     0.016 A 
ATOM     14  C   UNL     1      -8.909  34.373  25.911  1.00  0.00     0.051 A 
ATOM     15  C   UNL     1      -9.817  35.114  25.144  1.00  0.00     0.157 A 
ATOM     16  C   UNL     1     -11.644  33.822  26.084  1.00  0.00     0.062 A 
ATOM     17  C   UNL     1     -11.192  34.839  25.234  1.00  0.00     0.158 A 
BRANCH  15  18
ATOM     18  O   UNL     1      -9.360  36.125  24.300  1.00  0.00    -0.504 OA
ATOM     19  H   UNL     1      -8.543  36.680  24.528  1.00  0.00     0.293 HD
ENDBRANCH  15  18
BRANCH  17  20
ATOM     20  O   UNL     1     -12.122  35.563  24.491  1.00  0.00    -0.504 OA
ATOM     21  H   UNL     1     -12.156  36.576  24.511  1.00  0.00     0.293 HD
ENDBRANCH  17  20
ENDBRANCH   1  12
BRANCH   2  22
ATOM     22  O   UNL     1      -9.626  30.386  26.939  1.00  0.00    -0.502 OA
ATOM     23  H   UNL     1      -9.578  29.497  26.457  1.00  0.00     0.293 HD
ENDBRANCH   2  22
BRANCH   6  24
ATOM     24  O   UNL     1     -12.657  27.867  30.522  1.00  0.00    -0.507 OA
ATOM     25  H   UNL     1     -13.163  27.206  31.091  1.00  0.00     0.293 HD
ENDBRANCH   6  24
BRANCH   8  26
ATOM     26  O   UNL     1     -15.500  31.474  31.914  1.00  0.00    -0.508 OA
ATOM     27  H   UNL     1     -15.465  32.384  32.358  1.00  0.00     0.293 HD
ENDBRANCH   8  26
TORSDOF 6
ENDMDL
MODEL 2
REMARK VINA RESULT:    -7.552      1.497      3.314
REMARK INTER + INTRA:          -9.097
REMARK INTER:                  -9.540
REMARK INTRA:                   0.443
REMARK UNBOUND:                 0.000
REMARK SMILES O=c1c(O)c(-c2ccc(O)c(O)c2)oc2cc(O)cc(O)c12
REMARK SMILES IDX 5 1 3 2 2 3 1 4 22 5 20 6 19 7 17 8 16 9 15 10 14 11 6 12
REMARK SMILES IDX 7 13 8 14 9 15 13 16 11 17 10 18 12 20 4 22 21 24 18 26
REMARK H PARENT 10 19 12 21 4 23 21 25 18 27
REMARK Flexibility Score: inf
ROOT
ATOM      1  C   UNL     1     -12.229  33.070  28.290  1.00  0.00     0.180 A 
ATOM      2  C   UNL     1     -13.487  33.548  28.694  1.00  0.00     0.208 A 
ATOM      3  C   UNL     1     -14.236  32.801  29.616  1.00  0.00     0.238 A 
ATOM      4  O   UNL     1     -15.393  33.198  29.916  1.00  0.00    -0.285 OA
ATOM      5  C   UNL     1     -13.695  31.614  30.167  1.00  0.00     0.111 A 
ATOM      6  C   UNL     1     -14.346  30.801  31.143  1.00  0.00     0.134 A 
ATOM      7  C   UNL     1     -13.760  29.591  31.537  1.00  0.00     0.093 A 
ATOM      8  C   UNL     1     -12.518  29.196  31.037  1.00  0.00     0.123 A 
ATOM      9  C   UNL     1     -11.849  30.009  30.125  1.00  0.00     0.094 A 
ATOM     10  C   UNL     1     -12.424  31.203  29.685  1.00  0.00     0.146 A 
ATOM     11  O   UNL     1     -11.762  31.936  28.798  1.00  0.00    -0.452 OA
ENDROOT
BRANCH   1  12
ATOM     12  C   UNL     1     -11.387  33.794  27.310  1.00  0.00     0.025 A 
ATOM     13  C   UNL     1     -11.885  34.892  26.587  1.00  0.00     0.016 A 
ATOM     14  C   UNL     1     -11.079  35.543  25.650  1.00  0.00     0.051 A 
ATOM     15  C   UNL     1      -9.772  35.101  25.411  1.00  0.00     0.157 A 
ATOM     16  C   UNL     1     -10.083  33.341  27.053  1.00  0.00     0.062 A 
ATOM     17  C   UNL     1      -9.273  33.992  26.115  1.00  0.00     0.158 A 
BRANCH  15  18
ATOM     18  O   UNL     1      -8.969  35.755  24.477  1.00  0.00    -0.504 OA
ATOM     19  H   UNL     1      -9.298  36.571  23.973  1.00  0.00     0.293 HD
ENDBRANCH  15  18
BRANCH  17  20
ATOM     20  O   UNL     1      -7.979  33.521  25.896  1.00  0.00    -0.504 OA
ATOM     21  H   UNL     1      -7.290  34.060  25.384  1.00  0.00     0.293 HD
ENDBRANCH  17  20
ENDBRANCH   1  12
BRANCH   2  22
ATOM     22  O   UNL     1     -13.971  34.762  28.197  1.00  0.00    -0.502 OA
ATOM     23  H   UNL     1     -14.960  34.952  28.094  1.00  0.00     0.293 HD
ENDBRANCH   2  22
BRANCH   6  24
ATOM     24  O   UNL     1     -15.547  31.143  31.773  1.00  0.00    -0.507 OA
ATOM     25  H   UNL     1     -16.322  30.514  31.917  1.00  0.00     0.293 HD
ENDBRANCH   6  24
BRANCH   8  26
ATOM     26  O   UNL     1     -11.935  27.999  31.446  1.00  0.00    -0.508 OA
ATOM     27  H   UNL     1     -10.952  27.942  31.686  1.00  0.00     0.293 HD
ENDBRANCH   8  26
TORSDOF 6
ENDMDL
MODEL 3
REMARK VINA RESULT:    -7.404      1.629      6.720
REMARK INTER + INTRA:          -8.919
REMARK INTER:                  -8.671
REMARK INTRA:                  -0.248
REMARK UNBOUND:                 0.000
REMARK SMILES O=c1c(O)c(-c2ccc(O)c(O)c2)oc2cc(O)cc(O)c12
REMARK SMILES IDX 5 1 3 2 2 3 1 4 22 5 20 6 19 7 17 8 16 9 15 10 14 11 6 12
REMARK SMILES IDX 7 13 8 14 9 15 13 16 11 17 10 18 12 20 4 22 21 24 18 26
REMARK H PARENT 10 19 12 21 4 23 21 25 18 27
REMARK Flexibility Score: inf
ROOT
ATOM      1  C   UNL     1     -11.826  32.049  28.063  1.00  0.00     0.180 A 
ATOM      2  C   UNL     1     -10.589  32.715  28.008  1.00  0.00     0.208 A 
ATOM      3  C   UNL     1     -10.419  33.764  27.091  1.00  0.00     0.238 A 
ATOM      4  O   UNL     1      -9.287  34.305  26.996  1.00  0.00    -0.285 OA
ATOM      5  C   UNL     1     -11.505  34.172  26.279  1.00  0.00     0.111 A 
ATOM      6  C   UNL     1     -11.461  35.253  25.346  1.00  0.00     0.134 A 
ATOM      7  C   UNL     1     -12.565  35.498  24.520  1.00  0.00     0.093 A 
ATOM      8  C   UNL     1     -13.734  34.743  24.637  1.00  0.00     0.123 A 
ATOM      9  C   UNL     1     -13.806  33.723  25.582  1.00  0.00     0.094 A 
ATOM     10  C   UNL     1     -12.709  33.429  26.394  1.00  0.00     0.146 A 
ATOM     11  O   UNL     1     -12.815  32.434  27.265  1.00  0.00    -0.452 OA
ENDROOT
BRANCH   1  12
ATOM     12  C   UNL     1     -12.076  30.924  28.993  1.00  0.00     0.025 A 
ATOM     13  C   UNL     1     -11.482  29.666  28.797  1.00  0.00     0.016 A 
ATOM     14  C   UNL     1     -11.752  28.613  29.674  1.00  0.00     0.051 A 
ATOM     15  C   UNL     1     -12.628  28.797  30.752  1.00  0.00     0.157 A 
ATOM     16  C   UNL     1     -12.969  31.099  30.062  1.00  0.00     0.062 A 
ATOM     17  C   UNL     1     -13.242  30.047  30.944  1.00  0.00     0.158 A 
BRANCH  15  18
ATOM     18  O   UNL     1     -12.895  27.746  31.627  1.00  0.00    -0.504 OA
ATOM     19  H   UNL     1     -12.746  27.835  32.626  1.00  0.00     0.293 HD
ENDBRANCH  15  18
BRANCH  17  20
ATOM     20  O   UNL     1     -14.125  30.261  32.002  1.00  0.00    -0.504 OA
ATOM     21  H   UNL     1     -13.813  30.613  32.900  1.00  0.00     0.293 HD
ENDBRANCH  17  20
ENDBRANCH   1  12
BRANCH   2  22
ATOM     22  O   UNL     1      -9.553  32.347  28.873  1.00  0.00    -0.502 OA
ATOM     23  H   UNL     1      -8.606  32.193  28.552  1.00  0.00     0.293 HD
ENDBRANCH   2  22
BRANCH   6  24
ATOM     24  O   UNL     1     -10.376  36.125  25.209  1.00  0.00    -0.507 OA
ATOM     25  H   UNL     1     -10.437  37.072  24.867  1.00  0.00     0.293 HD
ENDBRANCH   6  24
BRANCH   8  26
ATOM     26  O   UNL     1     -14.833  35.005  23.822  1.00  0.00    -0.508 OA
ATOM     27  H   UNL     1     -15.048  34.426  23.019  1.00  0.00     0.293 HD
ENDBRANCH   8  26
TORSDOF 6
ENDMDL
MODEL 4
REMARK VINA RESULT:    -6.664      3.763      8.148
REMARK INTER + INTRA:          -8.028
REMARK INTER:                  -7.700
REMARK INTRA:                  -0.327
REMARK UNBOUND:                 0.000
REMARK SMILES O=c1c(O)c(-c2ccc(O)c(O)c2)oc2cc(O)cc(O)c12
REMARK SMILES IDX 5 1 3 2 2 3 1 4 22 5 20 6 19 7 17 8 16 9 15 10 14 11 6 12
REMARK SMILES IDX 7 13 8 14 9 15 13 16 11 17 10 18 12 20 4 22 21 24 18 26
REMARK H PARENT 10 19 12 21 4 23 21 25 18 27
REMARK Flexibility Score: inf
ROOT
ATOM      1  C   UNL     1     -13.971  28.686  31.286  1.00  0.00     0.180 A 
ATOM      2  C   UNL     1     -12.605  28.904  31.039  1.00  0.00     0.208 A 
ATOM      3  C   UNL     1     -12.179  30.182  30.644  1.00  0.00     0.238 A 
ATOM      4  O   UNL     1     -10.966  30.351  30.354  1.00  0.00    -0.285 OA
ATOM      5  C   UNL     1     -13.116  31.241  30.554  1.00  0.00     0.111 A 
ATOM      6  C   UNL     1     -12.790  32.587  30.207  1.00  0.00     0.134 A 
ATOM      7  C   UNL     1     -13.815  33.527  30.045  1.00  0.00     0.093 A 
ATOM      8  C   UNL     1     -15.149  33.185  30.280  1.00  0.00     0.123 A 
ATOM      9  C   UNL     1     -15.471  31.889  30.673  1.00  0.00     0.094 A 
ATOM     10  C   UNL     1     -14.476  30.919  30.806  1.00  0.00     0.146 A 
ATOM     11  O   UNL     1     -14.831  29.691  31.161  1.00  0.00    -0.452 OA
ENDROOT
BRANCH   1  12
ATOM     12  C   UNL     1     -14.498  27.363  31.692  1.00  0.00     0.025 A 
ATOM     13  C   UNL     1     -14.821  26.380  30.741  1.00  0.00     0.016 A 
ATOM     14  C   UNL     1     -15.339  25.148  31.147  1.00  0.00     0.051 A 
ATOM     15  C   UNL     1     -15.555  24.885  32.506  1.00  0.00     0.157 A 
ATOM     16  C   UNL     1     -14.736  27.103  33.052  1.00  0.00     0.062 A 
ATOM     17  C   UNL     1     -15.255  25.869  33.462  1.00  0.00     0.158 A 
BRANCH  15  18
ATOM     18  O   UNL     1     -16.071  23.654  32.908  1.00  0.00    -0.504 OA
ATOM     19  H   UNL     1     -15.824  23.241  33.800  1.00  0.00     0.293 HD
ENDBRANCH  15  18
BRANCH  17  20
ATOM     20  O   UNL     1     -15.465  25.642  34.821  1.00  0.00    -0.504 OA
ATOM     21  H   UNL     1     -15.005  26.193  35.536  1.00  0.00     0.293 HD
ENDBRANCH  17  20
ENDBRANCH   1  12
BRANCH   2  22
ATOM     22  O   UNL     1     -11.685  27.866  31.209  1.00  0.00    -0.502 OA
ATOM     23  H   UNL     1     -11.182  27.452  30.434  1.00  0.00     0.293 HD
ENDBRANCH   2  22
BRANCH   6  24
ATOM     24  O   UNL     1     -11.484  33.057  30.035  1.00  0.00    -0.507 OA
ATOM     25  H   UNL     1     -11.023  33.716  30.644  1.00  0.00     0.293 HD
ENDBRANCH   6  24
BRANCH   8  26
ATOM     26  O   UNL     1     -16.161  34.131  30.133  1.00  0.00    -0.508 OA
ATOM     27  H   UNL     1     -16.571  34.332  29.229  1.00  0.00     0.293 HD
ENDBRANCH   8  26
TORSDOF 6
ENDMDL
MODEL 5
REMARK VINA RESULT:    -6.519      2.701      8.441
REMARK INTER + INTRA:          -7.852
REMARK INTER:                  -7.671
REMARK INTRA:                  -0.181
REMARK UNBOUND:                 0.000
REMARK SMILES O=c1c(O)c(-c2ccc(O)c(O)c2)oc2cc(O)cc(O)c12
REMARK SMILES IDX 5 1 3 2 2 3 1 4 22 5 20 6 19 7 17 8 16 9 15 10 14 11 6 12
REMARK SMILES IDX 7 13 8 14 9 15 13 16 11 17 10 18 12 20 4 22 21 24 18 26
REMARK H PARENT 10 19 12 21 4 23 21 25 18 27
REMARK Flexibility Score: inf
ROOT
ATOM      1  C   UNL     1     -13.618  28.630  30.756  1.00  0.00     0.180 A 
ATOM      2  C   UNL     1     -14.044  29.956  30.945  1.00  0.00     0.208 A 
ATOM      3  C   UNL     1     -13.390  30.987  30.252  1.00  0.00     0.238 A 
ATOM      4  O   UNL     1     -13.728  32.177  30.482  1.00  0.00    -0.285 OA
ATOM      5  C   UNL     1     -12.357  30.675  29.335  1.00  0.00     0.111 A 
ATOM      6  C   UNL     1     -11.655  31.634  28.544  1.00  0.00     0.134 A 
ATOM      7  C   UNL     1     -10.578  31.221  27.750  1.00  0.00     0.093 A 
ATOM      8  C   UNL     1     -10.218  29.874  27.670  1.00  0.00     0.123 A 
ATOM      9  C   UNL     1     -10.932  28.923  28.395  1.00  0.00     0.094 A 
ATOM     10  C   UNL     1     -11.986  29.309  29.225  1.00  0.00     0.146 A 
ATOM     11  O   UNL     1     -12.624  28.372  29.915  1.00  0.00    -0.452 OA
ENDROOT
BRANCH   1  12
ATOM     12  C   UNL     1     -14.248  27.491  31.463  1.00  0.00     0.025 A 
ATOM     13  C   UNL     1     -15.023  26.540  30.777  1.00  0.00     0.016 A 
ATOM     14  C   UNL     1     -15.626  25.489  31.470  1.00  0.00     0.051 A 
ATOM     15  C   UNL     1     -15.477  25.378  32.859  1.00  0.00     0.157 A 
ATOM     16  C   UNL     1     -14.117  27.388  32.858  1.00  0.00     0.062 A 
ATOM     17  C   UNL     1     -14.721  26.335  33.556  1.00  0.00     0.158 A 
BRANCH  15  18
ATOM     18  O   UNL     1     -16.079  24.326  33.547  1.00  0.00    -0.504 OA
ATOM     19  H   UNL     1     -16.146  24.323  34.559  1.00  0.00     0.293 HD
ENDBRANCH  15  18
BRANCH  17  20
ATOM     20  O   UNL     1     -14.558  26.259  34.938  1.00  0.00    -0.504 OA
ATOM     21  H   UNL     1     -14.040  26.957  35.459  1.00  0.00     0.293 HD
ENDBRANCH  17  20
ENDBRANCH   1  12
BRANCH   2  22
ATOM     22  O   UNL     1     -15.118  30.236  31.795  1.00  0.00    -0.502 OA
ATOM     23  H   UNL     1     -16.070  29.972  31.575  1.00  0.00     0.293 HD
ENDBRANCH   2  22
BRANCH   6  24
ATOM     24  O   UNL     1     -11.988  32.991  28.481  1.00  0.00    -0.507 OA
ATOM     25  H   UNL     1     -12.834  33.360  28.075  1.00  0.00     0.293 HD
ENDBRANCH   6  24
BRANCH   8  26
ATOM     26  O   UNL     1      -9.156  29.470  26.864  1.00  0.00    -0.508 OA
ATOM     27  H   UNL     1      -8.540  30.141  26.422  1.00  0.00     0.293 HD
ENDBRANCH   8  26
TORSDOF 6
ENDMDL
MODEL 6
REMARK VINA RESULT:    -6.510      2.684      6.677
REMARK INTER + INTRA:          -7.842
REMARK INTER:                  -7.705
REMARK INTRA:                  -0.137
REMARK UNBOUND:                 0.000
REMARK SMILES O=c1c(O)c(-c2ccc(O)c(O)c2)oc2cc(O)cc(O)c12
REMARK SMILES IDX 5 1 3 2 2 3 1 4 22 5 20 6 19 7 17 8 16 9 15 10 14 11 6 12
REMARK SMILES IDX 7 13 8 14 9 15 13 16 11 17 10 18 12 20 4 22 21 24 18 26
REMARK H PARENT 10 19 12 21 4 23 21 25 18 27
REMARK Flexibility Score: inf
ROOT
ATOM      1  C   UNL     1     -13.047  34.116  29.359  1.00  0.00     0.180 A 
ATOM      2  C   UNL     1     -12.647  32.768  29.376  1.00  0.00     0.208 A 
ATOM      3  C   UNL     1     -11.734  32.317  28.411  1.00  0.00     0.238 A 
ATOM      4  O   UNL     1     -11.437  31.094  28.387  1.00  0.00    -0.285 OA
ATOM      5  C   UNL     1     -11.189  33.229  27.475  1.00  0.00     0.111 A 
ATOM      6  C   UNL     1     -10.221  32.892  26.480  1.00  0.00     0.134 A 
ATOM      7  C   UNL     1      -9.833  33.854  25.539  1.00  0.00     0.093 A 
ATOM      8  C   UNL     1     -10.329  35.158  25.596  1.00  0.00     0.123 A 
ATOM      9  C   UNL     1     -11.231  35.512  26.597  1.00  0.00     0.094 A 
ATOM     10  C   UNL     1     -11.667  34.565  27.526  1.00  0.00     0.146 A 
ATOM     11  O   UNL     1     -12.544  34.940  28.448  1.00  0.00    -0.452 OA
ENDROOT
BRANCH   1  12
ATOM     12  C   UNL     1     -14.018  34.662  30.335  1.00  0.00     0.025 A 
ATOM     13  C   UNL     1     -13.644  35.642  31.270  1.00  0.00     0.016 A 
ATOM     14  C   UNL     1     -14.572  36.125  32.196  1.00  0.00     0.051 A 
ATOM     15  C   UNL     1     -15.881  35.627  32.211  1.00  0.00     0.157 A 
ATOM     16  C   UNL     1     -15.326  34.150  30.367  1.00  0.00     0.062 A 
ATOM     17  C   UNL     1     -16.258  34.632  31.294  1.00  0.00     0.158 A 
BRANCH  15  18
ATOM     18  O   UNL     1     -16.805  36.112  33.136  1.00  0.00    -0.504 OA
ATOM     19  H   UNL     1     -16.990  37.104  33.232  1.00  0.00     0.293 HD
ENDBRANCH  15  18
BRANCH  17  20
ATOM     20  O   UNL     1     -17.551  34.110  31.287  1.00  0.00    -0.504 OA
ATOM     21  H   UNL     1     -17.746  33.160  30.991  1.00  0.00     0.293 HD
ENDBRANCH  17  20
ENDBRANCH   1  12
BRANCH   2  22
ATOM     22  O   UNL     1     -13.137  31.901  30.356  1.00  0.00    -0.502 OA
ATOM     23  H   UNL     1     -14.123  31.826  30.573  1.00  0.00     0.293 HD
ENDBRANCH   2  22
BRANCH   6  24
ATOM     24  O   UNL     1      -9.595  31.645  26.387  1.00  0.00    -0.507 OA
ATOM     25  H   UNL     1     -10.074  30.757  26.389  1.00  0.00     0.293 HD
ENDBRANCH   6  24
BRANCH   8  26
ATOM     26  O   UNL     1      -9.925  36.114  24.666  1.00  0.00    -0.508 OA
ATOM     27  H   UNL     1      -8.945  36.284  24.473  1.00  0.00     0.293 HD
ENDBRANCH   8  26
TORSDOF 6
ENDMDL
MODEL 7
REMARK VINA RESULT:    -6.303      2.817      6.500
REMARK INTER + INTRA:          -7.593
REMARK INTER:                  -7.346
REMARK INTRA:                  -0.247
REMARK UNBOUND:                 0.000
REMARK SMILES O=c1c(O)c(-c2ccc(O)c(O)c2)oc2cc(O)cc(O)c12
REMARK SMILES IDX 5 1 3 2 2 3 1 4 22 5 20 6 19 7 17 8 16 9 15 10 14 11 6 12
REMARK SMILES IDX 7 13 8 14 9 15 13 16 11 17 10 18 12 20 4 22 21 24 18 26
REMARK H PARENT 10 19 12 21 4 23 21 25 18 27
REMARK Flexibility Score: inf
ROOT
ATOM      1  C   UNL     1     -14.648  32.442  29.679  1.00  0.00     0.180 A 
ATOM      2  C   UNL     1     -14.141  31.332  30.377  1.00  0.00     0.208 A 
ATOM      3  C   UNL     1     -13.064  30.618  29.830  1.00  0.00     0.238 A 
ATOM      4  O   UNL     1     -12.664  29.583  30.424  1.00  0.00    -0.285 OA
ATOM      5  C   UNL     1     -12.470  31.054  28.621  1.00  0.00     0.111 A 
ATOM      6  C   UNL     1     -11.345  30.434  27.998  1.00  0.00     0.134 A 
ATOM      7  C   UNL     1     -10.910  30.888  26.747  1.00  0.00     0.093 A 
ATOM      8  C   UNL     1     -11.518  31.981  26.126  1.00  0.00     0.123 A 
ATOM      9  C   UNL     1     -12.581  32.628  26.752  1.00  0.00     0.094 A 
ATOM     10  C   UNL     1     -13.063  32.174  27.981  1.00  0.00     0.146 A 
ATOM     11  O   UNL     1     -14.092  32.807  28.530  1.00  0.00    -0.452 OA
ENDROOT
BRANCH   1  12
ATOM     12  C   UNL     1     -15.792  33.236  30.184  1.00  0.00     0.025 A 
ATOM     13  C   UNL     1     -17.056  33.171  29.573  1.00  0.00     0.016 A 
ATOM     14  C   UNL     1     -18.113  33.948  30.054  1.00  0.00     0.051 A 
ATOM     15  C   UNL     1     -17.920  34.810  31.141  1.00  0.00     0.157 A 
ATOM     16  C   UNL     1     -15.598  34.117  31.261  1.00  0.00     0.062 A 
ATOM     17  C   UNL     1     -16.655  34.897  31.745  1.00  0.00     0.158 A 
BRANCH  15  18
ATOM     18  O   UNL     1     -18.977  35.583  31.619  1.00  0.00    -0.504 OA
ATOM     19  H   UNL     1     -18.818  36.459  32.104  1.00  0.00     0.293 HD
ENDBRANCH  15  18
BRANCH  17  20
ATOM     20  O   UNL     1     -16.427  35.751  32.823  1.00  0.00    -0.504 OA
ATOM     21  H   UNL     1     -15.678  36.433  32.821  1.00  0.00     0.293 HD
ENDBRANCH  17  20
ENDBRANCH   1  12
BRANCH   2  22
ATOM     22  O   UNL     1     -14.691  30.964  31.608  1.00  0.00    -0.502 OA
ATOM     23  H   UNL     1     -14.199  30.377  32.270  1.00  0.00     0.293 HD
ENDBRANCH   2  22
BRANCH   6  24
ATOM     24  O   UNL     1     -10.608  29.392  28.571  1.00  0.00    -0.507 OA
ATOM     25  H   UNL     1      -9.756  29.509  29.098  1.00  0.00     0.293 HD
ENDBRANCH   6  24
BRANCH   8  26
ATOM     26  O   UNL     1     -11.068  32.437  24.889  1.00  0.00    -0.508 OA
ATOM     27  H   UNL     1     -10.132  32.804  24.768  1.00  0.00     0.293 HD
ENDBRANCH   8  26
TORSDOF 6
ENDMDL
MODEL 8
REMARK VINA RESULT:    -6.209      3.107      4.799
REMARK INTER + INTRA:          -7.480
REMARK INTER:                  -7.191
REMARK INTRA:                  -0.288
REMARK UNBOUND:                 0.000
REMARK SMILES O=c1c(O)c(-c2ccc(O)c(O)c2)oc2cc(O)cc(O)c12
REMARK SMILES IDX 5 1 3 2 2 3 1 4 22 5 20 6 19 7 17 8 16 9 15 10 14 11 6 12
REMARK SMILES IDX 7 13 8 14 9 15 13 16 11 17 10 18 12 20 4 22 21 24 18 26
REMARK H PARENT 10 19 12 21 4 23 21 25 18 27
REMARK Flexibility Score: inf
ROOT
ATOM      1  C   UNL     1     -13.657  33.585  27.429  1.00  0.00     0.180 A 
ATOM      2  C   UNL     1     -14.745  33.629  26.541  1.00  0.00     0.208 A 
ATOM      3  C   UNL     1     -16.039  33.798  27.058  1.00  0.00     0.238 A 
ATOM      4  O   UNL     1     -17.015  33.762  26.264  1.00  0.00    -0.285 OA
ATOM      5  C   UNL     1     -16.225  33.978  28.450  1.00  0.00     0.111 A 
ATOM      6  C   UNL     1     -17.486  34.203  29.080  1.00  0.00     0.134 A 
ATOM      7  C   UNL     1     -17.561  34.261  30.477  1.00  0.00     0.093 A 
ATOM      8  C   UNL     1     -16.412  34.165  31.264  1.00  0.00     0.123 A 
ATOM      9  C   UNL     1     -15.169  34.001  30.657  1.00  0.00     0.094 A 
ATOM     10  C   UNL     1     -15.067  33.902  29.268  1.00  0.00     0.146 A 
ATOM     11  O   UNL     1     -13.865  33.723  28.733  1.00  0.00    -0.452 OA
ENDROOT
BRANCH   1  12
ATOM     12  C   UNL     1     -12.264  33.394  26.962  1.00  0.00     0.025 A 
ATOM     13  C   UNL     1     -11.530  34.451  26.398  1.00  0.00     0.016 A 
ATOM     14  C   UNL     1     -10.226  34.240  25.941  1.00  0.00     0.051 A 
ATOM     15  C   UNL     1      -9.643  32.969  26.029  1.00  0.00     0.157 A 
ATOM     16  C   UNL     1     -11.684  32.117  27.029  1.00  0.00     0.062 A 
ATOM     17  C   UNL     1     -10.377  31.902  26.573  1.00  0.00     0.158 A 
BRANCH  15  18
ATOM     18  O   UNL     1      -8.342  32.762  25.574  1.00  0.00    -0.504 OA
ATOM     19  H   UNL     1      -8.019  31.845  25.286  1.00  0.00     0.293 HD
ENDBRANCH  15  18
BRANCH  17  20
ATOM     20  O   UNL     1      -9.829  30.624  26.667  1.00  0.00    -0.504 OA
ATOM     21  H   UNL     1      -9.453  30.262  27.536  1.00  0.00     0.293 HD
ENDBRANCH  17  20
ENDBRANCH   1  12
BRANCH   2  22
ATOM     22  O   UNL     1     -14.534  33.527  25.163  1.00  0.00    -0.502 OA
ATOM     23  H   UNL     1     -13.631  33.694  24.737  1.00  0.00     0.293 HD
ENDBRANCH   2  22
BRANCH   6  24
ATOM     24  O   UNL     1     -18.684  34.400  28.385  1.00  0.00    -0.507 OA
ATOM     25  H   UNL     1     -19.018  35.292  28.052  1.00  0.00     0.293 HD
ENDBRANCH   6  24
BRANCH   8  26
ATOM     26  O   UNL     1     -16.493  34.241  32.653  1.00  0.00    -0.508 OA
ATOM     27  H   UNL     1     -16.507  35.131  33.136  1.00  0.00     0.293 HD
ENDBRANCH   8  26
TORSDOF 6
ENDMDL
MODEL 9
REMARK VINA RESULT:    -6.203      3.085      6.487
REMARK INTER + INTRA:          -7.472
REMARK INTER:                  -7.180
REMARK INTRA:                  -0.292
REMARK UNBOUND:                 0.000
REMARK SMILES O=c1c(O)c(-c2ccc(O)c(O)c2)oc2cc(O)cc(O)c12
REMARK SMILES IDX 5 1 3 2 2 3 1 4 22 5 20 6 19 7 17 8 16 9 15 10 14 11 6 12
REMARK SMILES IDX 7 13 8 14 9 15 13 16 11 17 10 18 12 20 4 22 21 24 18 26
REMARK H PARENT 10 19 12 21 4 23 21 25 18 27
REMARK Flexibility Score: inf
ROOT
ATOM      1  C   UNL     1     -15.009  32.798  30.019  1.00  0.00     0.180 A 
ATOM      2  C   UNL     1     -14.259  33.186  28.894  1.00  0.00     0.208 A 
ATOM      3  C   UNL     1     -13.168  32.396  28.499  1.00  0.00     0.238 A 
ATOM      4  O   UNL     1     -12.458  32.788  27.537  1.00  0.00    -0.285 OA
ATOM      5  C   UNL     1     -12.874  31.200  29.196  1.00  0.00     0.111 A 
ATOM      6  C   UNL     1     -11.820  30.298  28.856  1.00  0.00     0.134 A 
ATOM      7  C   UNL     1     -11.555  29.200  29.683  1.00  0.00     0.093 A 
ATOM      8  C   UNL     1     -12.347  28.934  30.802  1.00  0.00     0.123 A 
ATOM      9  C   UNL     1     -13.412  29.776  31.112  1.00  0.00     0.094 A 
ATOM     10  C   UNL     1     -13.677  30.901  30.329  1.00  0.00     0.146 A 
ATOM     11  O   UNL     1     -14.688  31.689  30.673  1.00  0.00    -0.452 OA
ENDROOT
BRANCH   1  12
ATOM     12  C   UNL     1     -16.164  33.587  30.506  1.00  0.00     0.025 A 
ATOM     13  C   UNL     1     -17.419  33.514  29.878  1.00  0.00     0.016 A 
ATOM     14  C   UNL     1     -18.487  34.286  30.342  1.00  0.00     0.051 A 
ATOM     15  C   UNL     1     -18.314  35.152  31.429  1.00  0.00     0.157 A 
ATOM     16  C   UNL     1     -15.989  34.473  31.583  1.00  0.00     0.062 A 
ATOM     17  C   UNL     1     -17.057  35.248  32.050  1.00  0.00     0.158 A 
BRANCH  15  18
ATOM     18  O   UNL     1     -19.381  35.920  31.891  1.00  0.00    -0.504 OA
ATOM     19  H   UNL     1     -19.959  36.461  31.258  1.00  0.00     0.293 HD
ENDBRANCH  15  18
BRANCH  17  20
ATOM     20  O   UNL     1     -16.849  36.106  33.129  1.00  0.00    -0.504 OA
ATOM     21  H   UNL     1     -17.580  36.712  33.483  1.00  0.00     0.293 HD
ENDBRANCH  17  20
ENDBRANCH   1  12
BRANCH   2  22
ATOM     22  O   UNL     1     -14.613  34.329  28.172  1.00  0.00    -0.502 OA
ATOM     23  H   UNL     1     -15.134  34.285  27.305  1.00  0.00     0.293 HD
ENDBRANCH   2  22
BRANCH   6  24
ATOM     24  O   UNL     1     -11.025  30.420  27.712  1.00  0.00    -0.507 OA
ATOM     25  H   UNL     1     -10.807  29.666  27.077  1.00  0.00     0.293 HD
ENDBRANCH   6  24
BRANCH   8  26
ATOM     26  O   UNL     1     -12.087  27.829  31.610  1.00  0.00    -0.508 OA
ATOM     27  H   UNL     1     -11.166  27.660  31.996  1.00  0.00     0.293 HD
ENDBRANCH   8  26
TORSDOF 6
ENDMDL
