MODEL 1
REMARK VINA RESULT:    -4.045      0.000      0.000
REMARK INTER + INTRA:          -5.904
REMARK INTER:                  -5.463
REMARK INTRA:                  -0.440
REMARK UNBOUND:                -0.440
REMARK SMILES CCCCCCC=CC(=O)[O-]
REMARK SMILES IDX 5 1 6 2 7 3 8 4 9 5 10 6 11 7 4 8 3 9 2 10 1 11
REMARK H PARENT
REMARK Flexibility Score: inf
ROOT
ATOM      1  C   UNL     1      -1.149   4.125  17.004  1.00  0.00     0.004 C 
ENDROOT
BRANCH   1   2
ATOM      2  C   UNL     1      -2.237   3.665  16.024  1.00  0.00     0.027 C 
BRANCH   2   3
ATOM      3  C   UNL     1      -2.425   4.659  14.910  1.00  0.00    -0.025 C 
ATOM      4  C   UNL     1      -2.845   4.379  13.665  1.00  0.00     0.020 C 
BRANCH   4   5
ATOM      5  C   UNL     1      -3.168   3.042  13.122  1.00  0.00     0.064 C 
ATOM      6  O   UNL     1      -2.408   2.539  12.255  1.00  0.00    -0.545 OA
ATOM      7  O   UNL     1      -4.266   2.311  13.555  1.00  0.00    -0.545 OA
ENDBRANCH   4   5
ENDBRANCH   2   3
ENDBRANCH   1   2
BRANCH   1   8
ATOM      8  C   UNL     1       0.239   4.046  16.360  1.00  0.00     0.000 C 
BRANCH   8   9
ATOM      9  C   UNL     1       1.159   3.104  17.146  1.00  0.00    -0.000 C 
BRANCH   9  10
ATOM     10  C   UNL     1       1.527   1.872  16.311  1.00  0.00    -0.003 C 
ATOM     11  C   UNL     1       1.452   2.176  14.817  1.00  0.00     0.004 C 
ENDBRANCH   9  10
ENDBRANCH   8   9
ENDBRANCH   1   8
TORSDOF 6
ENDMDL
MODEL 2
REMARK VINA RESULT:    -4.037      2.717      4.883
REMARK INTER + INTRA:          -5.893
REMARK INTER:                  -5.360
REMARK INTRA:                  -0.533
REMARK UNBOUND:                -0.440
REMARK SMILES CCCCCCC=CC(=O)[O-]
REMARK SMILES IDX 5 1 6 2 7 3 8 4 9 5 10 6 11 7 4 8 3 9 2 10 1 11
REMARK H PARENT
REMARK Flexibility Score: inf
ROOT
ATOM      1  C   UNL     1      -1.238   4.182  16.898  1.00  0.00     0.004 C 
ENDROOT
BRANCH   1   2
ATOM      2  C   UNL     1       0.079   3.928  16.152  1.00  0.00     0.027 C 
BRANCH   2   3
ATOM      3  C   UNL     1       1.178   3.534  17.101  1.00  0.00    -0.025 C 
ATOM      4  C   UNL     1       1.430   2.292  17.546  1.00  0.00     0.020 C 
BRANCH   4   5
ATOM      5  C   UNL     1       0.661   1.070  17.231  1.00  0.00     0.064 C 
ATOM      6  O   UNL     1      -0.322   0.766  17.957  1.00  0.00    -0.545 OA
ATOM      7  O   UNL     1       0.967   0.258  16.147  1.00  0.00    -0.545 OA
ENDBRANCH   4   5
ENDBRANCH   2   3
ENDBRANCH   1   2
BRANCH   1   8
ATOM      8  C   UNL     1      -2.444   3.865  16.006  1.00  0.00     0.000 C 
BRANCH   8   9
ATOM      9  C   UNL     1      -1.995   3.384  14.621  1.00  0.00    -0.000 C 
BRANCH   9  10
ATOM     10  C   UNL     1      -2.804   4.066  13.513  1.00  0.00    -0.003 C 
ATOM     11  C   UNL     1      -2.834   5.580  13.704  1.00  0.00     0.004 C 
ENDBRANCH   9  10
ENDBRANCH   8   9
ENDBRANCH   1   8
TORSDOF 6
ENDMDL
MODEL 3
REMARK VINA RESULT:    -4.011      1.541      2.046
REMARK INTER + INTRA:          -5.858
REMARK INTER:                  -4.916
REMARK INTRA:                  -0.942
REMARK UNBOUND:                -0.440
REMARK SMILES CCCCCCC=CC(=O)[O-]
REMARK SMILES IDX 5 1 6 2 7 3 8 4 9 5 10 6 11 7 4 8 3 9 2 10 1 11
REMARK H PARENT
REMARK Flexibility Score: inf
ROOT
ATOM      1  C   UNL     1       0.186   3.554  16.941  1.00  0.00     0.004 C 
ENDROOT
BRANCH   1   2
ATOM      2  C   UNL     1      -1.113   4.368  16.996  1.00  0.00     0.027 C 
BRANCH   2   3
ATOM      3  C   UNL     1      -2.318   3.490  16.797  1.00  0.00    -0.025 C 
ATOM      4  C   UNL     1      -2.976   3.301  15.641  1.00  0.00     0.020 C 
BRANCH   4   5
ATOM      5  C   UNL     1      -2.682   3.946  14.344  1.00  0.00     0.064 C 
ATOM      6  O   UNL     1      -2.200   3.248  13.414  1.00  0.00    -0.545 OA
ATOM      7  O   UNL     1      -2.944   5.289  14.106  1.00  0.00    -0.545 OA
ENDBRANCH   4   5
ENDBRANCH   2   3
ENDBRANCH   1   2
BRANCH   1   8
ATOM      8  C   UNL     1       0.843   3.659  15.561  1.00  0.00     0.000 C 
BRANCH   8   9
ATOM      9  C   UNL     1       1.094   2.271  14.961  1.00  0.00    -0.000 C 
BRANCH   9  10
ATOM     10  C   UNL     1       0.497   1.173  15.848  1.00  0.00    -0.003 C 
ATOM     11  C   UNL     1      -0.636   0.441  15.133  1.00  0.00     0.004 C 
ENDBRANCH   9  10
ENDBRANCH   8   9
ENDBRANCH   1   8
TORSDOF 6
ENDMDL
MODEL 4
REMARK VINA RESULT:    -3.936      1.958      3.004
REMARK INTER + INTRA:          -5.756
REMARK INTER:                  -5.421
REMARK INTRA:                  -0.335
REMARK UNBOUND:                -0.440
REMARK SMILES CCCCCCC=CC(=O)[O-]
REMARK SMILES IDX 5 1 6 2 7 3 8 4 9 5 10 6 11 7 4 8 3 9 2 10 1 11
REMARK H PARENT
REMARK Flexibility Score: inf
ROOT
ATOM      1  C   UNL     1       1.416   2.647  16.315  1.00  0.00     0.004 C 
ENDROOT
BRANCH   1   2
ATOM      2  C   UNL     1       0.639   3.950  16.081  1.00  0.00     0.027 C 
BRANCH   2   3
ATOM      3  C   UNL     1      -0.665   3.951  16.833  1.00  0.00    -0.025 C 
ATOM      4  C   UNL     1      -1.892   3.944  16.285  1.00  0.00     0.020 C 
BRANCH   4   5
ATOM      5  C   UNL     1      -2.214   3.977  14.843  1.00  0.00     0.064 C 
ATOM      6  O   UNL     1      -2.706   5.027  14.354  1.00  0.00    -0.545 OA
ATOM      7  O   UNL     1      -1.969   2.899  14.003  1.00  0.00    -0.545 OA
ENDBRANCH   4   5
ENDBRANCH   2   3
ENDBRANCH   1   2
BRANCH   1   8
ATOM      8  C   UNL     1       1.108   1.621  15.218  1.00  0.00     0.000 C 
BRANCH   8   9
ATOM      9  C   UNL     1       2.399   1.087  14.585  1.00  0.00    -0.000 C 
BRANCH   9  10
ATOM     10  C   UNL     1       2.409  -0.444  14.563  1.00  0.00    -0.003 C 
ATOM     11  C   UNL     1       3.784  -0.982  14.175  1.00  0.00     0.004 C 
ENDBRANCH   9  10
ENDBRANCH   8   9
ENDBRANCH   1   8
TORSDOF 6
ENDMDL
MODEL 5
REMARK VINA RESULT:    -3.895      2.368      4.342
REMARK INTER + INTRA:          -5.701
REMARK INTER:                  -5.063
REMARK INTRA:                  -0.638
REMARK UNBOUND:                -0.440
REMARK SMILES CCCCCCC=CC(=O)[O-]
REMARK SMILES IDX 5 1 6 2 7 3 8 4 9 5 10 6 11 7 4 8 3 9 2 10 1 11
REMARK H PARENT
REMARK Flexibility Score: inf
ROOT
ATOM      1  C   UNL     1      -2.949   3.219  15.791  1.00  0.00     0.004 C 
ENDROOT
BRANCH   1   2
ATOM      2  C   UNL     1      -2.129   3.358  17.081  1.00  0.00     0.027 C 
BRANCH   2   3
ATOM      3  C   UNL     1      -0.924   4.233  16.870  1.00  0.00    -0.025 C 
ATOM      4  C   UNL     1       0.290   3.822  16.466  1.00  0.00     0.020 C 
BRANCH   4   5
ATOM      5  C   UNL     1       0.702   2.430  16.188  1.00  0.00     0.064 C 
ATOM      6  O   UNL     1       0.790   2.051  14.991  1.00  0.00    -0.545 OA
ATOM      7  O   UNL     1       1.020   1.534  17.199  1.00  0.00    -0.545 OA
ENDBRANCH   4   5
ENDBRANCH   2   3
ENDBRANCH   1   2
BRANCH   1   8
ATOM      8  C   UNL     1      -2.859   4.492  14.943  1.00  0.00     0.000 C 
BRANCH   8   9
ATOM      9  C   UNL     1      -2.638   4.155  13.463  1.00  0.00    -0.000 C 
BRANCH   9  10
ATOM     10  C   UNL     1      -2.235   2.687  13.288  1.00  0.00    -0.003 C 
ATOM     11  C   UNL     1      -2.997   2.039  12.135  1.00  0.00     0.004 C 
ENDBRANCH   9  10
ENDBRANCH   8   9
ENDBRANCH   1   8
TORSDOF 6
ENDMDL
MODEL 6
REMARK VINA RESULT:    -3.775      2.555      4.555
REMARK INTER + INTRA:          -5.540
REMARK INTER:                  -4.818
REMARK INTRA:                  -0.721
REMARK UNBOUND:                -0.440
REMARK SMILES CCCCCCC=CC(=O)[O-]
REMARK SMILES IDX 5 1 6 2 7 3 8 4 9 5 10 6 11 7 4 8 3 9 2 10 1 11
REMARK H PARENT
REMARK Flexibility Score: inf
ROOT
ATOM      1  C   UNL     1      -3.167   3.001  16.292  1.00  0.00     0.004 C 
ENDROOT
BRANCH   1   2
ATOM      2  C   UNL     1      -1.949   3.044  17.224  1.00  0.00     0.027 C 
BRANCH   2   3
ATOM      3  C   UNL     1      -1.076   4.233  16.929  1.00  0.00    -0.025 C 
ATOM      4  C   UNL     1       0.186   4.192  16.470  1.00  0.00     0.020 C 
BRANCH   4   5
ATOM      5  C   UNL     1       0.988   2.980  16.201  1.00  0.00     0.064 C 
ATOM      6  O   UNL     1       1.005   2.509  15.034  1.00  0.00    -0.545 OA
ATOM      7  O   UNL     1       1.744   2.356  17.185  1.00  0.00    -0.545 OA
ENDBRANCH   4   5
ENDBRANCH   2   3
ENDBRANCH   1   2
BRANCH   1   8
ATOM      8  C   UNL     1      -2.879   2.153  15.049  1.00  0.00     0.000 C 
BRANCH   8   9
ATOM      9  C   UNL     1      -2.289   3.009  13.922  1.00  0.00    -0.000 C 
BRANCH   9  10
ATOM     10  C   UNL     1      -3.257   4.124  13.514  1.00  0.00    -0.003 C 
ATOM     11  C   UNL     1      -2.585   5.493  13.592  1.00  0.00     0.004 C 
ENDBRANCH   9  10
ENDBRANCH   8   9
ENDBRANCH   1   8
TORSDOF 6
ENDMDL
MODEL 7
REMARK VINA RESULT:    -3.759      2.159      4.167
REMARK INTER + INTRA:          -5.518
REMARK INTER:                  -4.695
REMARK INTRA:                  -0.822
REMARK UNBOUND:                -0.440
REMARK SMILES CCCCCCC=CC(=O)[O-]
REMARK SMILES IDX 5 1 6 2 7 3 8 4 9 5 10 6 11 7 4 8 3 9 2 10 1 11
REMARK H PARENT
REMARK Flexibility Score: inf
ROOT
ATOM      1  C   UNL     1       0.313   3.780  16.847  1.00  0.00     0.004 C 
ENDROOT
BRANCH   1   2
ATOM      2  C   UNL     1       0.689   3.393  15.410  1.00  0.00     0.027 C 
BRANCH   2   3
ATOM      3  C   UNL     1       1.439   2.089  15.374  1.00  0.00    -0.025 C 
ATOM      4  C   UNL     1       0.894   0.863  15.446  1.00  0.00     0.020 C 
BRANCH   4   5
ATOM      5  C   UNL     1      -0.539   0.543  15.617  1.00  0.00     0.064 C 
ATOM      6  O   UNL     1      -1.001   0.431  16.782  1.00  0.00    -0.545 OA
ATOM      7  O   UNL     1      -1.398   0.386  14.538  1.00  0.00    -0.545 OA
ENDBRANCH   4   5
ENDBRANCH   2   3
ENDBRANCH   1   2
BRANCH   1   8
ATOM      8  C   UNL     1      -1.140   4.259  16.925  1.00  0.00     0.000 C 
BRANCH   8   9
ATOM      9  C   UNL     1      -1.858   4.062  15.584  1.00  0.00    -0.000 C 
BRANCH   9  10
ATOM     10  C   UNL     1      -3.159   3.273  15.767  1.00  0.00    -0.003 C 
ATOM     11  C   UNL     1      -3.424   2.982  17.242  1.00  0.00     0.004 C 
ENDBRANCH   9  10
ENDBRANCH   8   9
ENDBRANCH   1   8
TORSDOF 6
ENDMDL
MODEL 8
REMARK VINA RESULT:    -3.636     12.504     13.303
REMARK INTER + INTRA:          -5.351
REMARK INTER:                  -5.003
REMARK INTRA:                  -0.349
REMARK UNBOUND:                -0.440
REMARK SMILES CCCCCCC=CC(=O)[O-]
REMARK SMILES IDX 5 1 6 2 7 3 8 4 9 5 10 6 11 7 4 8 3 9 2 10 1 11
REMARK H PARENT
REMARK Flexibility Score: inf
ROOT
ATOM      1  C   UNL     1       5.478  -7.519  19.808  1.00  0.00     0.004 C 
ENDROOT
BRANCH   1   2
ATOM      2  C   UNL     1       5.521  -7.868  18.314  1.00  0.00     0.027 C 
BRANCH   2   3
ATOM      3  C   UNL     1       6.683  -7.199  17.631  1.00  0.00    -0.025 C 
ATOM      4  C   UNL     1       6.869  -7.101  16.304  1.00  0.00     0.020 C 
BRANCH   4   5
ATOM      5  C   UNL     1       6.000  -7.663  15.248  1.00  0.00     0.064 C 
ATOM      6  O   UNL     1       6.333  -8.746  14.699  1.00  0.00    -0.545 OA
ATOM      7  O   UNL     1       4.816  -7.052  14.858  1.00  0.00    -0.545 OA
ENDBRANCH   4   5
ENDBRANCH   2   3
ENDBRANCH   1   2
BRANCH   1   8
ATOM      8  C   UNL     1       6.601  -6.545  20.178  1.00  0.00     0.000 C 
BRANCH   8   9
ATOM      9  C   UNL     1       6.033  -5.234  20.736  1.00  0.00    -0.000 C 
BRANCH   9  10
ATOM     10  C   UNL     1       7.116  -4.432  21.466  1.00  0.00    -0.003 C 
ATOM     11  C   UNL     1       6.926  -4.500  22.979  1.00  0.00     0.004 C 
ENDBRANCH   9  10
ENDBRANCH   8   9
ENDBRANCH   1   8
TORSDOF 6
ENDMDL
MODEL 9
REMARK VINA RESULT:    -3.602      3.042      4.817
REMARK INTER + INTRA:          -5.305
REMARK INTER:                  -4.568
REMARK INTRA:                  -0.737
REMARK UNBOUND:                -0.440
REMARK SMILES CCCCCCC=CC(=O)[O-]
REMARK SMILES IDX 5 1 6 2 7 3 8 4 9 5 10 6 11 7 4 8 3 9 2 10 1 11
REMARK H PARENT
REMARK Flexibility Score: inf
ROOT
ATOM      1  C   UNL     1       0.619   3.829  15.683  1.00  0.00     0.004 C 
ENDROOT
BRANCH   1   2
ATOM      2  C   UNL     1       1.441   2.571  15.996  1.00  0.00     0.027 C 
BRANCH   2   3
ATOM      3  C   UNL     1       0.796   1.340  15.419  1.00  0.00    -0.025 C 
ATOM      4  C   UNL     1       0.089   0.424  16.103  1.00  0.00     0.020 C 
BRANCH   4   5
ATOM      5  C   UNL     1      -0.165   0.414  17.559  1.00  0.00     0.064 C 
ATOM      6  O   UNL     1      -1.246   0.893  17.991  1.00  0.00    -0.545 OA
ATOM      7  O   UNL     1       0.735  -0.130  18.466  1.00  0.00    -0.545 OA
ENDBRANCH   4   5
ENDBRANCH   2   3
ENDBRANCH   1   2
BRANCH   1   8
ATOM      8  C   UNL     1      -0.395   4.113  16.797  1.00  0.00     0.000 C 
BRANCH   8   9
ATOM      9  C   UNL     1      -1.830   4.084  16.258  1.00  0.00    -0.000 C 
BRANCH   9  10
ATOM     10  C   UNL     1      -1.841   3.980  14.729  1.00  0.00    -0.003 C 
ATOM     11  C   UNL     1      -2.796   5.000  14.114  1.00  0.00     0.004 C 
ENDBRANCH   9  10
ENDBRANCH   8   9
ENDBRANCH   1   8
TORSDOF 6
ENDMDL
