MODEL 1
REMARK VINA RESULT:    -5.309      0.000      0.000
REMARK INTER + INTRA:          -8.924
REMARK INTER:                  -7.792
REMARK INTRA:                  -1.132
REMARK UNBOUND:                -1.132
REMARK SMILES CCCOC(=O)c1ccccc1C(=O)OCCC
REMARK SMILES IDX 7 1 8 2 9 3 10 4 11 5 12 6 5 7 6 8 4 9 3 10 2 11 1 12 13 13
REMARK SMILES IDX 14 14 15 15 16 16 17 17 18 18
REMARK H PARENT
REMARK Flexibility Score: inf
ROOT
ATOM      1  C   UNL     1       1.172 -20.673  -5.532  1.00  0.00     0.074 A 
ATOM      2  C   UNL     1       0.468 -21.853  -5.834  1.00  0.00     0.016 A 
ATOM      3  C   UNL     1       0.531 -22.414  -7.108  1.00  0.00     0.001 A 
ATOM      4  C   UNL     1       1.301 -21.810  -8.099  1.00  0.00     0.001 A 
ATOM      5  C   UNL     1       1.994 -20.630  -7.825  1.00  0.00     0.016 A 
ATOM      6  C   UNL     1       1.923 -20.032  -6.553  1.00  0.00     0.074 A 
ENDROOT
BRANCH   1   7
ATOM      7  C   UNL     1       1.151 -20.181  -4.140  1.00  0.00     0.339 C 
ATOM      8  O   UNL     1       0.073 -19.742  -3.652  1.00  0.00    -0.246 OA
BRANCH   7   9
ATOM      9  O   UNL     1       2.309 -20.246  -3.359  1.00  0.00    -0.462 OA
BRANCH   9  10
ATOM     10  C   UNL     1       2.533 -19.443  -2.199  1.00  0.00     0.233 C 
BRANCH  10  11
ATOM     11  C   UNL     1       2.983 -18.025  -2.584  1.00  0.00     0.038 C 
ATOM     12  C   UNL     1       2.769 -17.011  -1.464  1.00  0.00     0.007 C 
ENDBRANCH  10  11
ENDBRANCH   9  10
ENDBRANCH   7   9
ENDBRANCH   1   7
BRANCH   6  13
ATOM     13  C   UNL     1       2.570 -18.713  -6.359  1.00  0.00     0.339 C 
ATOM     14  O   UNL     1       1.868 -17.707  -6.053  1.00  0.00    -0.246 OA
BRANCH  13  15
ATOM     15  O   UNL     1       3.964 -18.591  -6.474  1.00  0.00    -0.462 OA
BRANCH  15  16
ATOM     16  C   UNL     1       4.877 -19.143  -5.529  1.00  0.00     0.233 C 
BRANCH  16  17
ATOM     17  C   UNL     1       5.487 -20.438  -6.077  1.00  0.00     0.038 C 
ATOM     18  C   UNL     1       4.996 -21.650  -5.301  1.00  0.00     0.007 C 
ENDBRANCH  16  17
ENDBRANCH  15  16
ENDBRANCH  13  15
ENDBRANCH   6  13
TORSDOF 8
ENDMDL
MODEL 2
REMARK VINA RESULT:    -5.278      0.245      3.805
REMARK INTER + INTRA:          -8.879
REMARK INTER:                  -7.660
REMARK INTRA:                  -1.218
REMARK UNBOUND:                -1.132
REMARK SMILES CCCOC(=O)c1ccccc1C(=O)OCCC
REMARK SMILES IDX 7 1 8 2 9 3 10 4 11 5 12 6 5 7 6 8 4 9 3 10 2 11 1 12 13 13
REMARK SMILES IDX 14 14 15 15 16 16 17 17 18 18
REMARK H PARENT
REMARK Flexibility Score: inf
ROOT
ATOM      1  C   UNL     1       1.902 -20.005  -6.566  1.00  0.00     0.074 A 
ATOM      2  C   UNL     1       1.981 -20.607  -7.834  1.00  0.00     0.016 A 
ATOM      3  C   UNL     1       1.311 -21.800  -8.100  1.00  0.00     0.001 A 
ATOM      4  C   UNL     1       0.549 -22.408  -7.105  1.00  0.00     0.001 A 
ATOM      5  C   UNL     1       0.472 -21.836  -5.834  1.00  0.00     0.016 A 
ATOM      6  C   UNL     1       1.162 -20.647  -5.537  1.00  0.00     0.074 A 
ENDROOT
BRANCH   1   7
ATOM      7  C   UNL     1       2.549 -18.691  -6.372  1.00  0.00     0.339 C 
ATOM      8  O   UNL     1       1.848 -17.697  -6.035  1.00  0.00    -0.246 OA
BRANCH   7   9
ATOM      9  O   UNL     1       3.934 -18.566  -6.521  1.00  0.00    -0.462 OA
BRANCH   9  10
ATOM     10  C   UNL     1       4.885 -19.140  -5.624  1.00  0.00     0.233 C 
BRANCH  10  11
ATOM     11  C   UNL     1       5.418 -20.477  -6.162  1.00  0.00     0.038 C 
ATOM     12  C   UNL     1       4.981 -21.672  -5.318  1.00  0.00     0.007 C 
ENDBRANCH  10  11
ENDBRANCH   9  10
ENDBRANCH   7   9
ENDBRANCH   1   7
BRANCH   6  13
ATOM     13  C   UNL     1       1.151 -20.157  -4.138  1.00  0.00     0.339 C 
ATOM     14  O   UNL     1       0.079 -19.710  -3.638  1.00  0.00    -0.246 OA
BRANCH  13  15
ATOM     15  O   UNL     1       2.316 -20.230  -3.360  1.00  0.00    -0.462 OA
BRANCH  15  16
ATOM     16  C   UNL     1       2.548 -19.406  -2.220  1.00  0.00     0.233 C 
BRANCH  16  17
ATOM     17  C   UNL     1       3.132 -18.057  -2.651  1.00  0.00     0.038 C 
ATOM     18  C   UNL     1       2.200 -16.912  -2.291  1.00  0.00     0.007 C 
ENDBRANCH  16  17
ENDBRANCH  15  16
ENDBRANCH  13  15
ENDBRANCH   6  13
TORSDOF 8
ENDMDL
MODEL 3
REMARK VINA RESULT:    -5.067      1.793      2.535
REMARK INTER + INTRA:          -8.569
REMARK INTER:                  -7.610
REMARK INTRA:                  -0.958
REMARK UNBOUND:                -1.132
REMARK SMILES CCCOC(=O)c1ccccc1C(=O)OCCC
REMARK SMILES IDX 7 1 8 2 9 3 10 4 11 5 12 6 5 7 6 8 4 9 3 10 2 11 1 12 13 13
REMARK SMILES IDX 14 14 15 15 16 16 17 17 18 18
REMARK H PARENT
REMARK Flexibility Score: inf
ROOT
ATOM      1  C   UNL     1       2.816 -20.669  -5.888  1.00  0.00     0.074 A 
ATOM      2  C   UNL     1       1.604 -21.379  -5.814  1.00  0.00     0.016 A 
ATOM      3  C   UNL     1       0.902 -21.713  -6.972  1.00  0.00     0.001 A 
ATOM      4  C   UNL     1       1.401 -21.348  -8.220  1.00  0.00     0.001 A 
ATOM      5  C   UNL     1       2.593 -20.627  -8.314  1.00  0.00     0.016 A 
ATOM      6  C   UNL     1       3.303 -20.257  -7.157  1.00  0.00     0.074 A 
ENDROOT
BRANCH   1   7
ATOM      7  C   UNL     1       3.566 -20.432  -4.638  1.00  0.00     0.339 C 
ATOM      8  O   UNL     1       4.464 -21.246  -4.288  1.00  0.00    -0.246 OA
BRANCH   7   9
ATOM      9  O   UNL     1       3.308 -19.288  -3.876  1.00  0.00    -0.462 OA
BRANCH   9  10
ATOM     10  C   UNL     1       2.169 -19.138  -3.027  1.00  0.00     0.233 C 
BRANCH  10  11
ATOM     11  C   UNL     1       1.975 -20.374  -2.135  1.00  0.00     0.038 C 
ATOM     12  C   UNL     1       0.567 -20.958  -2.231  1.00  0.00     0.007 C 
ENDBRANCH  10  11
ENDBRANCH   9  10
ENDBRANCH   7   9
ENDBRANCH   1   7
BRANCH   6  13
ATOM     13  C   UNL     1       4.489 -19.381  -7.310  1.00  0.00     0.339 C 
ATOM     14  O   UNL     1       4.464 -18.204  -6.851  1.00  0.00    -0.246 OA
BRANCH  13  15
ATOM     15  O   UNL     1       5.650 -19.873  -7.927  1.00  0.00    -0.462 OA
BRANCH  15  16
ATOM     16  C   UNL     1       6.702 -20.518  -7.213  1.00  0.00     0.233 C 
BRANCH  16  17
ATOM     17  C   UNL     1       6.547 -22.039  -7.303  1.00  0.00     0.038 C 
ATOM     18  C   UNL     1       7.675 -22.662  -8.110  1.00  0.00     0.007 C 
ENDBRANCH  16  17
ENDBRANCH  15  16
ENDBRANCH  13  15
ENDBRANCH   6  13
TORSDOF 8
ENDMDL
MODEL 4
REMARK VINA RESULT:    -4.999      1.733      4.191
REMARK INTER + INTRA:          -8.469
REMARK INTER:                  -7.513
REMARK INTRA:                  -0.957
REMARK UNBOUND:                -1.132
REMARK SMILES CCCOC(=O)c1ccccc1C(=O)OCCC
REMARK SMILES IDX 7 1 8 2 9 3 10 4 11 5 12 6 5 7 6 8 4 9 3 10 2 11 1 12 13 13
REMARK SMILES IDX 14 14 15 15 16 16 17 17 18 18
REMARK H PARENT
REMARK Flexibility Score: inf
ROOT
ATOM      1  C   UNL     1       1.807 -19.695  -4.652  1.00  0.00     0.074 A 
ATOM      2  C   UNL     1       0.608 -20.246  -4.166  1.00  0.00     0.016 A 
ATOM      3  C   UNL     1       0.505 -20.675  -2.844  1.00  0.00     0.001 A 
ATOM      4  C   UNL     1       1.595 -20.554  -1.984  1.00  0.00     0.001 A 
ATOM      5  C   UNL     1       2.799 -20.024  -2.452  1.00  0.00     0.016 A 
ATOM      6  C   UNL     1       2.932 -19.611  -3.790  1.00  0.00     0.074 A 
ENDROOT
BRANCH   1   7
ATOM      7  C   UNL     1       1.825 -19.165  -6.031  1.00  0.00     0.339 C 
ATOM      8  O   UNL     1       1.383 -18.005  -6.258  1.00  0.00    -0.246 OA
BRANCH   7   9
ATOM      9  O   UNL     1       2.371 -19.932  -7.065  1.00  0.00    -0.462 OA
BRANCH   9  10
ATOM     10  C   UNL     1       2.232 -21.350  -7.163  1.00  0.00     0.233 C 
BRANCH  10  11
ATOM     11  C   UNL     1       0.786 -21.744  -7.500  1.00  0.00     0.038 C 
ATOM     12  C   UNL     1       0.279 -22.912  -6.658  1.00  0.00     0.007 C 
ENDBRANCH  10  11
ENDBRANCH   9  10
ENDBRANCH   7   9
ENDBRANCH   1   7
BRANCH   6  13
ATOM     13  C   UNL     1       4.270 -19.181  -4.264  1.00  0.00     0.339 C 
ATOM     14  O   UNL     1       4.789 -18.125  -3.803  1.00  0.00    -0.246 OA
BRANCH  13  15
ATOM     15  O   UNL     1       4.973 -19.967  -5.189  1.00  0.00    -0.462 OA
BRANCH  15  16
ATOM     16  C   UNL     1       5.228 -21.357  -5.001  1.00  0.00     0.233 C 
BRANCH  16  17
ATOM     17  C   UNL     1       5.718 -21.987  -6.309  1.00  0.00     0.038 C 
ATOM     18  C   UNL     1       7.078 -21.439  -6.710  1.00  0.00     0.007 C 
ENDBRANCH  16  17
ENDBRANCH  15  16
ENDBRANCH  13  15
ENDBRANCH   6  13
TORSDOF 8
ENDMDL
MODEL 5
REMARK VINA RESULT:    -4.966      1.291      3.021
REMARK INTER + INTRA:          -8.421
REMARK INTER:                  -7.266
REMARK INTRA:                  -1.155
REMARK UNBOUND:                -1.132
REMARK SMILES CCCOC(=O)c1ccccc1C(=O)OCCC
REMARK SMILES IDX 7 1 8 2 9 3 10 4 11 5 12 6 5 7 6 8 4 9 3 10 2 11 1 12 13 13
REMARK SMILES IDX 14 14 15 15 16 16 17 17 18 18
REMARK H PARENT
REMARK Flexibility Score: inf
ROOT
ATOM      1  C   UNL     1       1.846 -19.885  -6.468  1.00  0.00     0.074 A 
ATOM      2  C   UNL     1       1.890 -20.585  -7.687  1.00  0.00     0.016 A 
ATOM      3  C   UNL     1       1.228 -21.803  -7.833  1.00  0.00     0.001 A 
ATOM      4  C   UNL     1       0.508 -22.338  -6.767  1.00  0.00     0.001 A 
ATOM      5  C   UNL     1       0.466 -21.667  -5.544  1.00  0.00     0.016 A 
ATOM      6  C   UNL     1       1.150 -20.450  -5.367  1.00  0.00     0.074 A 
ENDROOT
BRANCH   1   7
ATOM      7  C   UNL     1       2.481 -18.553  -6.403  1.00  0.00     0.339 C 
ATOM      8  O   UNL     1       3.722 -18.444  -6.600  1.00  0.00    -0.246 OA
BRANCH   7   9
ATOM      9  O   UNL     1       1.698 -17.418  -6.167  1.00  0.00    -0.462 OA
BRANCH   9  10
ATOM     10  C   UNL     1       2.232 -16.143  -5.807  1.00  0.00     0.233 C 
BRANCH  10  11
ATOM     11  C   UNL     1       2.458 -16.045  -4.291  1.00  0.00     0.038 C 
ATOM     12  C   UNL     1       1.160 -16.133  -3.492  1.00  0.00     0.007 C 
ENDBRANCH  10  11
ENDBRANCH   9  10
ENDBRANCH   7   9
ENDBRANCH   1   7
BRANCH   6  13
ATOM     13  C   UNL     1       1.180 -19.851  -4.011  1.00  0.00     0.339 C 
ATOM     14  O   UNL     1       0.104 -19.711  -3.363  1.00  0.00    -0.246 OA
BRANCH  13  15
ATOM     15  O   UNL     1       2.404 -19.478  -3.435  1.00  0.00    -0.462 OA
BRANCH  15  16
ATOM     16  C   UNL     1       3.370 -20.419  -2.973  1.00  0.00     0.233 C 
BRANCH  16  17
ATOM     17  C   UNL     1       4.666 -20.286  -3.778  1.00  0.00     0.038 C 
ATOM     18  C   UNL     1       4.776 -21.375  -4.833  1.00  0.00     0.007 C 
ENDBRANCH  16  17
ENDBRANCH  15  16
ENDBRANCH  13  15
ENDBRANCH   6  13
TORSDOF 8
ENDMDL
MODEL 6
REMARK VINA RESULT:    -4.964      1.789      4.407
REMARK INTER + INTRA:          -8.417
REMARK INTER:                  -7.493
REMARK INTRA:                  -0.924
REMARK UNBOUND:                -1.132
REMARK SMILES CCCOC(=O)c1ccccc1C(=O)OCCC
REMARK SMILES IDX 7 1 8 2 9 3 10 4 11 5 12 6 5 7 6 8 4 9 3 10 2 11 1 12 13 13
REMARK SMILES IDX 14 14 15 15 16 16 17 17 18 18
REMARK H PARENT
REMARK Flexibility Score: inf
ROOT
ATOM      1  C   UNL     1       2.795 -19.662  -3.819  1.00  0.00     0.074 A 
ATOM      2  C   UNL     1       2.749 -20.132  -2.495  1.00  0.00     0.016 A 
ATOM      3  C   UNL     1       1.566 -20.637  -1.958  1.00  0.00     0.001 A 
ATOM      4  C   UNL     1       0.411 -20.684  -2.736  1.00  0.00     0.001 A 
ATOM      5  C   UNL     1       0.431 -20.206  -4.048  1.00  0.00     0.016 A 
ATOM      6  C   UNL     1       1.608 -19.668  -4.600  1.00  0.00     0.074 A 
ENDROOT
BRANCH   1   7
ATOM      7  C   UNL     1       4.098 -19.234  -4.366  1.00  0.00     0.339 C 
ATOM      8  O   UNL     1       4.555 -18.096  -4.068  1.00  0.00    -0.246 OA
BRANCH   7   9
ATOM      9  O   UNL     1       4.837 -20.106  -5.172  1.00  0.00    -0.462 OA
BRANCH   9  10
ATOM     10  C   UNL     1       6.257 -20.043  -5.320  1.00  0.00     0.233 C 
BRANCH  10  11
ATOM     11  C   UNL     1       6.818 -21.371  -5.850  1.00  0.00     0.038 C 
ATOM     12  C   UNL     1       5.942 -21.995  -6.933  1.00  0.00     0.007 C 
ENDBRANCH  10  11
ENDBRANCH   9  10
ENDBRANCH   7   9
ENDBRANCH   1   7
BRANCH   6  13
ATOM     13  C   UNL     1       1.537 -19.057  -5.948  1.00  0.00     0.339 C 
ATOM     14  O   UNL     1       1.600 -17.800  -6.072  1.00  0.00    -0.246 OA
BRANCH  13  15
ATOM     15  O   UNL     1       1.441 -19.874  -7.085  1.00  0.00    -0.462 OA
BRANCH  15  16
ATOM     16  C   UNL     1       2.109 -21.126  -7.207  1.00  0.00     0.233 C 
BRANCH  16  17
ATOM     17  C   UNL     1       1.151 -22.187  -7.757  1.00  0.00     0.038 C 
ATOM     18  C   UNL     1       0.389 -22.877  -6.636  1.00  0.00     0.007 C 
ENDBRANCH  16  17
ENDBRANCH  15  16
ENDBRANCH  13  15
ENDBRANCH   6  13
TORSDOF 8
ENDMDL
MODEL 7
REMARK VINA RESULT:    -4.959      1.719      4.597
REMARK INTER + INTRA:          -8.410
REMARK INTER:                  -6.967
REMARK INTRA:                  -1.443
REMARK UNBOUND:                -1.132
REMARK SMILES CCCOC(=O)c1ccccc1C(=O)OCCC
REMARK SMILES IDX 7 1 8 2 9 3 10 4 11 5 12 6 5 7 6 8 4 9 3 10 2 11 1 12 13 13
REMARK SMILES IDX 14 14 15 15 16 16 17 17 18 18
REMARK H PARENT
REMARK Flexibility Score: inf
ROOT
ATOM      1  C   UNL     1       1.666 -19.657  -4.657  1.00  0.00     0.074 A 
ATOM      2  C   UNL     1       0.426 -20.062  -4.130  1.00  0.00     0.016 A 
ATOM      3  C   UNL     1       0.334 -20.569  -2.835  1.00  0.00     0.001 A 
ATOM      4  C   UNL     1       1.476 -20.675  -2.044  1.00  0.00     0.001 A 
ATOM      5  C   UNL     1       2.719 -20.295  -2.555  1.00  0.00     0.016 A 
ATOM      6  C   UNL     1       2.838 -19.805  -3.869  1.00  0.00     0.074 A 
ENDROOT
BRANCH   1   7
ATOM      7  C   UNL     1       1.687 -19.033  -5.996  1.00  0.00     0.339 C 
ATOM      8  O   UNL     1       1.595 -17.779  -6.099  1.00  0.00    -0.246 OA
BRANCH   7   9
ATOM      9  O   UNL     1       1.853 -19.829  -7.134  1.00  0.00    -0.462 OA
BRANCH   9  10
ATOM     10  C   UNL     1       2.135 -21.229  -7.092  1.00  0.00     0.233 C 
BRANCH  10  11
ATOM     11  C   UNL     1       0.942 -22.050  -7.601  1.00  0.00     0.038 C 
ATOM     12  C   UNL     1       0.283 -22.881  -6.504  1.00  0.00     0.007 C 
ENDBRANCH  10  11
ENDBRANCH   9  10
ENDBRANCH   7   9
ENDBRANCH   1   7
BRANCH   6  13
ATOM     13  C   UNL     1       4.196 -19.542  -4.401  1.00  0.00     0.339 C 
ATOM     14  O   UNL     1       4.915 -20.505  -4.793  1.00  0.00    -0.246 OA
BRANCH  13  15
ATOM     15  O   UNL     1       4.665 -18.223  -4.506  1.00  0.00    -0.462 OA
BRANCH  15  16
ATOM     16  C   UNL     1       4.724 -17.323  -3.403  1.00  0.00     0.233 C 
BRANCH  16  17
ATOM     17  C   UNL     1       3.723 -16.180  -3.598  1.00  0.00     0.038 C 
ATOM     18  C   UNL     1       2.430 -16.444  -2.843  1.00  0.00     0.007 C 
ENDBRANCH  16  17
ENDBRANCH  15  16
ENDBRANCH  13  15
ENDBRANCH   6  13
TORSDOF 8
ENDMDL
MODEL 8
REMARK VINA RESULT:    -4.909      1.573      2.941
REMARK INTER + INTRA:          -8.337
REMARK INTER:                  -7.247
REMARK INTRA:                  -1.091
REMARK UNBOUND:                -1.132
REMARK SMILES CCCOC(=O)c1ccccc1C(=O)OCCC
REMARK SMILES IDX 7 1 8 2 9 3 10 4 11 5 12 6 5 7 6 8 4 9 3 10 2 11 1 12 13 13
REMARK SMILES IDX 14 14 15 15 16 16 17 17 18 18
REMARK H PARENT
REMARK Flexibility Score: inf
ROOT
ATOM      1  C   UNL     1       1.084 -20.629  -5.394  1.00  0.00     0.074 A 
ATOM      2  C   UNL     1       0.397 -21.823  -5.681  1.00  0.00     0.016 A 
ATOM      3  C   UNL     1       0.465 -22.396  -6.951  1.00  0.00     0.001 A 
ATOM      4  C   UNL     1       1.223 -21.789  -7.950  1.00  0.00     0.001 A 
ATOM      5  C   UNL     1       1.898 -20.595  -7.690  1.00  0.00     0.016 A 
ATOM      6  C   UNL     1       1.821 -19.986  -6.424  1.00  0.00     0.074 A 
ENDROOT
BRANCH   1   7
ATOM      7  C   UNL     1       1.058 -20.124  -4.006  1.00  0.00     0.339 C 
ATOM      8  O   UNL     1       0.036 -19.517  -3.584  1.00  0.00    -0.246 OA
BRANCH   7   9
ATOM      9  O   UNL     1       2.146 -20.359  -3.159  1.00  0.00    -0.462 OA
BRANCH   9  10
ATOM     10  C   UNL     1       2.927 -19.323  -2.561  1.00  0.00     0.233 C 
BRANCH  10  11
ATOM     11  C   UNL     1       4.397 -19.415  -2.998  1.00  0.00     0.038 C 
ATOM     12  C   UNL     1       4.718 -20.718  -3.725  1.00  0.00     0.007 C 
ENDBRANCH  10  11
ENDBRANCH   9  10
ENDBRANCH   7   9
ENDBRANCH   1   7
BRANCH   6  13
ATOM     13  C   UNL     1       2.448 -18.655  -6.245  1.00  0.00     0.339 C 
ATOM     14  O   UNL     1       3.702 -18.534  -6.339  1.00  0.00    -0.246 OA
BRANCH  13  15
ATOM     15  O   UNL     1       1.646 -17.527  -6.012  1.00  0.00    -0.462 OA
BRANCH  15  16
ATOM     16  C   UNL     1       1.902 -16.586  -4.973  1.00  0.00     0.233 C 
BRANCH  16  17
ATOM     17  C   UNL     1       1.861 -15.159  -5.529  1.00  0.00     0.038 C 
ATOM     18  C   UNL     1       1.105 -15.102  -6.846  1.00  0.00     0.007 C 
ENDBRANCH  16  17
ENDBRANCH  15  16
ENDBRANCH  13  15
ENDBRANCH   6  13
TORSDOF 8
ENDMDL
MODEL 9
REMARK VINA RESULT:    -4.811     11.277     13.525
REMARK INTER + INTRA:          -8.193
REMARK INTER:                  -7.143
REMARK INTRA:                  -1.050
REMARK UNBOUND:                -1.132
REMARK SMILES CCCOC(=O)c1ccccc1C(=O)OCCC
REMARK SMILES IDX 7 1 8 2 9 3 10 4 11 5 12 6 5 7 6 8 4 9 3 10 2 11 1 12 13 13
REMARK SMILES IDX 14 14 15 15 16 16 17 17 18 18
REMARK H PARENT
REMARK Flexibility Score: inf
ROOT
ATOM      1  C   UNL     1      -7.932 -27.855  -3.380  1.00  0.00     0.074 A 
ATOM      2  C   UNL     1      -7.337 -28.879  -4.138  1.00  0.00     0.016 A 
ATOM      3  C   UNL     1      -5.953 -29.050  -4.141  1.00  0.00     0.001 A 
ATOM      4  C   UNL     1      -5.144 -28.206  -3.385  1.00  0.00     0.001 A 
ATOM      5  C   UNL     1      -5.715 -27.172  -2.639  1.00  0.00     0.016 A 
ATOM      6  C   UNL     1      -7.106 -26.965  -2.644  1.00  0.00     0.074 A 
ENDROOT
BRANCH   1   7
ATOM      7  C   UNL     1      -9.407 -27.786  -3.334  1.00  0.00     0.339 C 
ATOM      8  O   UNL     1     -10.010 -26.907  -4.009  1.00  0.00    -0.246 OA
BRANCH   7   9
ATOM      9  O   UNL     1     -10.126 -28.720  -2.581  1.00  0.00    -0.462 OA
BRANCH   9  10
ATOM     10  C   UNL     1      -9.754 -29.138  -1.267  1.00  0.00     0.233 C 
BRANCH  10  11
ATOM     11  C   UNL     1      -9.135 -30.544  -1.288  1.00  0.00     0.038 C 
ATOM     12  C   UNL     1      -7.667 -30.551  -0.869  1.00  0.00     0.007 C 
ENDBRANCH  10  11
ENDBRANCH   9  10
ENDBRANCH   7   9
ENDBRANCH   1   7
BRANCH   6  13
ATOM     13  C   UNL     1      -7.643 -25.775  -1.941  1.00  0.00     0.339 C 
ATOM     14  O   UNL     1      -8.159 -25.902  -0.795  1.00  0.00    -0.246 OA
BRANCH  13  15
ATOM     15  O   UNL     1      -7.539 -24.506  -2.531  1.00  0.00    -0.462 OA
BRANCH  15  16
ATOM     16  C   UNL     1      -8.448 -23.442  -2.262  1.00  0.00     0.233 C 
BRANCH  16  17
ATOM     17  C   UNL     1      -7.802 -22.420  -1.321  1.00  0.00     0.038 C 
ATOM     18  C   UNL     1      -8.823 -21.413  -0.816  1.00  0.00     0.007 C 
ENDBRANCH  16  17
ENDBRANCH  15  16
ENDBRANCH  13  15
ENDBRANCH   6  13
TORSDOF 8
ENDMDL
