MODEL 1
REMARK VINA RESULT:    -3.458      0.000      0.000
REMARK INTER + INTRA:          -5.785
REMARK INTER:                  -5.277
REMARK INTRA:                  -0.508
REMARK UNBOUND:                -0.508
REMARK SMILES CCCCCCCCCCC(=O)[O-]
REMARK SMILES IDX 7 1 8 2 9 3 10 4 11 5 12 6 13 7 6 8 5 9 4 10 3 11 2 12 1 13
REMARK H PARENT
REMARK Flexibility Score: inf
ROOT
ATOM      1  C   UNL     1    -101.545 -27.680 -13.924  1.00  0.00     0.000 C 
ENDROOT
BRANCH   1   2
ATOM      2  C   UNL     1    -100.112 -27.754 -13.382  1.00  0.00     0.000 C 
BRANCH   2   3
ATOM      3  C   UNL     1     -99.830 -29.124 -12.756  1.00  0.00     0.006 C 
BRANCH   3   4
ATOM      4  C   UNL     1     -98.486 -29.682 -13.235  1.00  0.00     0.053 C 
BRANCH   4   5
ATOM      5  C   UNL     1     -97.525 -29.785 -12.094  1.00  0.00     0.041 C 
ATOM      6  O   UNL     1     -97.951 -29.874 -10.912  1.00  0.00    -0.550 OA
ATOM      7  O   UNL     1     -96.156 -29.734 -12.330  1.00  0.00    -0.550 OA
ENDBRANCH   4   5
ENDBRANCH   3   4
ENDBRANCH   2   3
ENDBRANCH   1   2
BRANCH   1   8
ATOM      8  C   UNL     1    -101.762 -28.703 -15.046  1.00  0.00     0.000 C 
BRANCH   8   9
ATOM      9  C   UNL     1    -101.877 -28.009 -16.409  1.00  0.00    -0.000 C 
BRANCH   9  10
ATOM     10  C   UNL     1    -103.312 -27.519 -16.656  1.00  0.00    -0.000 C 
BRANCH  10  11
ATOM     11  C   UNL     1    -103.434 -25.988 -16.596  1.00  0.00    -0.000 C 
BRANCH  11  12
ATOM     12  C   UNL     1    -104.146 -25.503 -15.324  1.00  0.00    -0.003 C 
ATOM     13  C   UNL     1    -104.571 -24.043 -15.457  1.00  0.00     0.004 C 
ENDBRANCH  11  12
ENDBRANCH  10  11
ENDBRANCH   9  10
ENDBRANCH   8   9
ENDBRANCH   1   8
TORSDOF 9
ENDMDL
MODEL 2
REMARK VINA RESULT:    -3.407      4.079      6.389
REMARK INTER + INTRA:          -5.708
REMARK INTER:                  -4.716
REMARK INTRA:                  -0.992
REMARK UNBOUND:                -0.508
REMARK SMILES CCCCCCCCCCC(=O)[O-]
REMARK SMILES IDX 7 1 8 2 9 3 10 4 11 5 12 6 13 7 6 8 5 9 4 10 3 11 2 12 1 13
REMARK H PARENT
REMARK Flexibility Score: inf
ROOT
ATOM      1  C   UNL     1    -102.629 -29.424 -15.552  1.00  0.00     0.000 C 
ENDROOT
BRANCH   1   2
ATOM      2  C   UNL     1    -102.053 -28.224 -16.312  1.00  0.00     0.000 C 
BRANCH   2   3
ATOM      3  C   UNL     1    -102.589 -26.904 -15.746  1.00  0.00     0.006 C 
BRANCH   3   4
ATOM      4  C   UNL     1    -103.432 -26.161 -16.787  1.00  0.00     0.053 C 
BRANCH   4   5
ATOM      5  C   UNL     1    -104.461 -25.309 -16.115  1.00  0.00     0.041 C 
ATOM      6  O   UNL     1    -104.159 -24.633 -15.097  1.00  0.00    -0.550 OA
ATOM      7  O   UNL     1    -105.770 -25.300 -16.584  1.00  0.00    -0.550 OA
ENDBRANCH   4   5
ENDBRANCH   3   4
ENDBRANCH   2   3
ENDBRANCH   1   2
BRANCH   1   8
ATOM      8  C   UNL     1    -101.675 -30.623 -15.611  1.00  0.00     0.000 C 
BRANCH   8   9
ATOM      9  C   UNL     1    -100.233 -30.194 -15.314  1.00  0.00    -0.000 C 
BRANCH   9  10
ATOM     10  C   UNL     1     -99.913 -30.339 -13.819  1.00  0.00    -0.000 C 
BRANCH  10  11
ATOM     11  C   UNL     1     -99.179 -29.115 -13.248  1.00  0.00    -0.000 C 
BRANCH  11  12
ATOM     12  C   UNL     1    -100.047 -27.848 -13.260  1.00  0.00    -0.003 C 
ATOM     13  C   UNL     1    -101.256 -28.003 -12.342  1.00  0.00     0.004 C 
ENDBRANCH  11  12
ENDBRANCH  10  11
ENDBRANCH   9  10
ENDBRANCH   8   9
ENDBRANCH   1   8
TORSDOF 9
ENDMDL
MODEL 3
REMARK VINA RESULT:    -3.383      3.851      5.596
REMARK INTER + INTRA:          -5.670
REMARK INTER:                  -4.393
REMARK INTRA:                  -1.277
REMARK UNBOUND:                -0.508
REMARK SMILES CCCCCCCCCCC(=O)[O-]
REMARK SMILES IDX 7 1 8 2 9 3 10 4 11 5 12 6 13 7 6 8 5 9 4 10 3 11 2 12 1 13
REMARK H PARENT
REMARK Flexibility Score: inf
ROOT
ATOM      1  C   UNL     1    -100.631 -30.529 -14.648  1.00  0.00     0.000 C 
ENDROOT
BRANCH   1   2
ATOM      2  C   UNL     1    -100.779 -30.129 -16.121  1.00  0.00     0.000 C 
BRANCH   2   3
ATOM      3  C   UNL     1    -102.121 -29.432 -16.371  1.00  0.00     0.006 C 
BRANCH   3   4
ATOM      4  C   UNL     1    -101.950 -27.911 -16.422  1.00  0.00     0.053 C 
BRANCH   4   5
ATOM      5  C   UNL     1    -103.281 -27.237 -16.528  1.00  0.00     0.041 C 
ATOM      6  O   UNL     1    -104.341 -27.906 -16.412  1.00  0.00    -0.550 OA
ATOM      7  O   UNL     1    -103.352 -25.877 -16.805  1.00  0.00    -0.550 OA
ENDBRANCH   4   5
ENDBRANCH   3   4
ENDBRANCH   2   3
ENDBRANCH   1   2
BRANCH   1   8
ATOM      8  C   UNL     1     -99.302 -30.028 -14.072  1.00  0.00     0.000 C 
BRANCH   8   9
ATOM      9  C   UNL     1     -99.530 -29.195 -12.805  1.00  0.00    -0.000 C 
BRANCH   9  10
ATOM     10  C   UNL     1    -100.344 -27.930 -13.117  1.00  0.00    -0.000 C 
BRANCH  10  11
ATOM     11  C   UNL     1    -101.480 -27.692 -12.110  1.00  0.00    -0.000 C 
BRANCH  11  12
ATOM     12  C   UNL     1    -102.844 -27.509 -12.792  1.00  0.00    -0.003 C 
ATOM     13  C   UNL     1    -103.535 -28.853 -13.005  1.00  0.00     0.004 C 
ENDBRANCH  11  12
ENDBRANCH  10  11
ENDBRANCH   9  10
ENDBRANCH   8   9
ENDBRANCH   1   8
TORSDOF 9
ENDMDL
MODEL 4
REMARK VINA RESULT:    -3.374      1.641      3.366
REMARK INTER + INTRA:          -5.657
REMARK INTER:                  -4.727
REMARK INTRA:                  -0.930
REMARK UNBOUND:                -0.508
REMARK SMILES CCCCCCCCCCC(=O)[O-]
REMARK SMILES IDX 7 1 8 2 9 3 10 4 11 5 12 6 13 7 6 8 5 9 4 10 3 11 2 12 1 13
REMARK H PARENT
REMARK Flexibility Score: inf
ROOT
ATOM      1  C   UNL     1    -101.669 -28.039 -13.900  1.00  0.00     0.000 C 
ENDROOT
BRANCH   1   2
ATOM      2  C   UNL     1    -100.234 -27.837 -13.398  1.00  0.00     0.000 C 
BRANCH   2   3
ATOM      3  C   UNL     1     -99.699 -29.109 -12.731  1.00  0.00     0.006 C 
BRANCH   3   4
ATOM      4  C   UNL     1     -98.266 -29.406 -13.182  1.00  0.00     0.053 C 
BRANCH   4   5
ATOM      5  C   UNL     1     -97.417 -29.788 -12.012  1.00  0.00     0.041 C 
ATOM      6  O   UNL     1     -97.950 -30.066 -10.906  1.00  0.00    -0.550 OA
ATOM      7  O   UNL     1     -96.032 -29.789 -12.128  1.00  0.00    -0.550 OA
ENDBRANCH   4   5
ENDBRANCH   3   4
ENDBRANCH   2   3
ENDBRANCH   1   2
BRANCH   1   8
ATOM      8  C   UNL     1    -101.933 -27.208 -15.161  1.00  0.00     0.000 C 
BRANCH   8   9
ATOM      9  C   UNL     1    -102.009 -28.104 -16.404  1.00  0.00    -0.000 C 
BRANCH   9  10
ATOM     10  C   UNL     1    -102.736 -29.420 -16.089  1.00  0.00    -0.000 C 
BRANCH  10  11
ATOM     11  C   UNL     1    -102.042 -30.643 -16.709  1.00  0.00    -0.000 C 
BRANCH  11  12
ATOM     12  C   UNL     1    -101.154 -31.391 -15.703  1.00  0.00    -0.003 C 
ATOM     13  C   UNL     1     -99.684 -31.029 -15.895  1.00  0.00     0.004 C 
ENDBRANCH  11  12
ENDBRANCH  10  11
ENDBRANCH   9  10
ENDBRANCH   8   9
ENDBRANCH   1   8
TORSDOF 9
ENDMDL
MODEL 5
REMARK VINA RESULT:    -3.350      1.349      2.023
REMARK INTER + INTRA:          -5.621
REMARK INTER:                  -4.769
REMARK INTRA:                  -0.851
REMARK UNBOUND:                -0.508
REMARK SMILES CCCCCCCCCCC(=O)[O-]
REMARK SMILES IDX 7 1 8 2 9 3 10 4 11 5 12 6 13 7 6 8 5 9 4 10 3 11 2 12 1 13
REMARK H PARENT
REMARK Flexibility Score: inf
ROOT
ATOM      1  C   UNL     1    -101.894 -27.208 -15.137  1.00  0.00     0.000 C 
ENDROOT
BRANCH   1   2
ATOM      2  C   UNL     1    -102.523 -27.711 -13.831  1.00  0.00     0.000 C 
BRANCH   2   3
ATOM      3  C   UNL     1    -101.453 -27.937 -12.757  1.00  0.00     0.006 C 
BRANCH   3   4
ATOM      4  C   UNL     1    -100.049 -27.921 -13.366  1.00  0.00     0.053 C 
BRANCH   4   5
ATOM      5  C   UNL     1     -99.266 -29.111 -12.909  1.00  0.00     0.041 C 
ATOM      6  O   UNL     1     -99.263 -29.439 -11.693  1.00  0.00    -0.550 OA
ATOM      7  O   UNL     1     -98.499 -29.830 -13.818  1.00  0.00    -0.550 OA
ENDBRANCH   4   5
ENDBRANCH   3   4
ENDBRANCH   2   3
ENDBRANCH   1   2
BRANCH   1   8
ATOM      8  C   UNL     1    -102.724 -27.644 -16.350  1.00  0.00     0.000 C 
BRANCH   8   9
ATOM      9  C   UNL     1    -103.403 -26.440 -17.014  1.00  0.00    -0.000 C 
BRANCH   9  10
ATOM     10  C   UNL     1    -104.932 -26.556 -16.930  1.00  0.00    -0.000 C 
BRANCH  10  11
ATOM     11  C   UNL     1    -105.552 -25.536 -15.962  1.00  0.00    -0.000 C 
BRANCH  11  12
ATOM     12  C   UNL     1    -104.517 -24.547 -15.404  1.00  0.00    -0.003 C 
ATOM     13  C   UNL     1    -104.571 -24.498 -13.880  1.00  0.00     0.004 C 
ENDBRANCH  11  12
ENDBRANCH  10  11
ENDBRANCH   9  10
ENDBRANCH   8   9
ENDBRANCH   1   8
TORSDOF 9
ENDMDL
MODEL 6
REMARK VINA RESULT:    -3.296      4.023      7.223
REMARK INTER + INTRA:          -5.539
REMARK INTER:                  -5.118
REMARK INTRA:                  -0.421
REMARK UNBOUND:                -0.508
REMARK SMILES CCCCCCCCCCC(=O)[O-]
REMARK SMILES IDX 7 1 8 2 9 3 10 4 11 5 12 6 13 7 6 8 5 9 4 10 3 11 2 12 1 13
REMARK H PARENT
REMARK Flexibility Score: inf
ROOT
ATOM      1  C   UNL     1    -101.637 -29.054 -14.981  1.00  0.00     0.000 C 
ENDROOT
BRANCH   1   2
ATOM      2  C   UNL     1    -101.789 -27.968 -16.053  1.00  0.00     0.000 C 
BRANCH   2   3
ATOM      3  C   UNL     1    -102.641 -26.802 -15.539  1.00  0.00     0.006 C 
BRANCH   3   4
ATOM      4  C   UNL     1    -103.446 -26.166 -16.676  1.00  0.00     0.053 C 
BRANCH   4   5
ATOM      5  C   UNL     1    -104.462 -25.214 -16.130  1.00  0.00     0.041 C 
ATOM      6  O   UNL     1    -104.173 -24.467 -15.158  1.00  0.00    -0.550 OA
ATOM      7  O   UNL     1    -105.746 -25.186 -16.662  1.00  0.00    -0.550 OA
ENDBRANCH   4   5
ENDBRANCH   3   4
ENDBRANCH   2   3
ENDBRANCH   1   2
BRANCH   1   8
ATOM      8  C   UNL     1    -101.470 -28.433 -13.589  1.00  0.00     0.000 C 
BRANCH   8   9
ATOM      9  C   UNL     1    -100.008 -28.046 -13.330  1.00  0.00    -0.000 C 
BRANCH   9  10
ATOM     10  C   UNL     1     -99.126 -29.296 -13.192  1.00  0.00    -0.000 C 
BRANCH  10  11
ATOM     11  C   UNL     1     -98.937 -29.731 -11.730  1.00  0.00    -0.000 C 
BRANCH  11  12
ATOM     12  C   UNL     1     -97.487 -30.124 -11.413  1.00  0.00    -0.003 C 
ATOM     13  C   UNL     1     -96.574 -29.859 -12.607  1.00  0.00     0.004 C 
ENDBRANCH  11  12
ENDBRANCH  10  11
ENDBRANCH   9  10
ENDBRANCH   8   9
ENDBRANCH   1   8
TORSDOF 9
ENDMDL
MODEL 7
REMARK VINA RESULT:    -3.289      2.022      3.476
REMARK INTER + INTRA:          -5.528
REMARK INTER:                  -4.387
REMARK INTRA:                  -1.141
REMARK UNBOUND:                -0.508
REMARK SMILES CCCCCCCCCCC(=O)[O-]
REMARK SMILES IDX 7 1 8 2 9 3 10 4 11 5 12 6 13 7 6 8 5 9 4 10 3 11 2 12 1 13
REMARK H PARENT
REMARK Flexibility Score: inf
ROOT
ATOM      1  C   UNL     1    -100.737 -28.830 -12.658  1.00  0.00     0.000 C 
ENDROOT
BRANCH   1   2
ATOM      2  C   UNL     1     -99.385 -28.386 -13.229  1.00  0.00     0.000 C 
BRANCH   2   3
ATOM      3  C   UNL     1     -98.302 -29.436 -12.959  1.00  0.00     0.006 C 
BRANCH   3   4
ATOM      4  C   UNL     1     -98.628 -30.254 -11.706  1.00  0.00     0.053 C 
BRANCH   4   5
ATOM      5  C   UNL     1     -97.567 -30.067 -10.668  1.00  0.00     0.041 C 
ATOM      6  O   UNL     1     -96.376 -29.844 -11.012  1.00  0.00    -0.550 OA
ATOM      7  O   UNL     1     -97.883 -30.189  -9.321  1.00  0.00    -0.550 OA
ENDBRANCH   4   5
ENDBRANCH   3   4
ENDBRANCH   2   3
ENDBRANCH   1   2
BRANCH   1   8
ATOM      8  C   UNL     1    -101.898 -28.241 -13.468  1.00  0.00     0.000 C 
BRANCH   8   9
ATOM      9  C   UNL     1    -101.382 -27.499 -14.708  1.00  0.00    -0.000 C 
BRANCH   9  10
ATOM     10  C   UNL     1    -102.026 -28.055 -15.987  1.00  0.00    -0.000 C 
BRANCH  10  11
ATOM     11  C   UNL     1    -102.009 -29.591 -16.041  1.00  0.00    -0.000 C 
BRANCH  11  12
ATOM     12  C   UNL     1    -100.596 -30.159 -16.240  1.00  0.00    -0.003 C 
ATOM     13  C   UNL     1    -100.370 -31.388 -15.365  1.00  0.00     0.004 C 
ENDBRANCH  11  12
ENDBRANCH  10  11
ENDBRANCH   9  10
ENDBRANCH   8   9
ENDBRANCH   1   8
TORSDOF 9
ENDMDL
MODEL 8
REMARK VINA RESULT:    -3.266      1.466      1.969
REMARK INTER + INTRA:          -5.492
REMARK INTER:                  -4.849
REMARK INTRA:                  -0.644
REMARK UNBOUND:                -0.508
REMARK SMILES CCCCCCCCCCC(=O)[O-]
REMARK SMILES IDX 7 1 8 2 9 3 10 4 11 5 12 6 13 7 6 8 5 9 4 10 3 11 2 12 1 13
REMARK H PARENT
REMARK Flexibility Score: inf
ROOT
ATOM      1  C   UNL     1    -100.794 -30.354 -13.599  1.00  0.00     0.000 C 
ENDROOT
BRANCH   1   2
ATOM      2  C   UNL     1     -99.371 -30.143 -14.130  1.00  0.00     0.000 C 
BRANCH   2   3
ATOM      3  C   UNL     1     -98.580 -29.193 -13.224  1.00  0.00     0.006 C 
BRANCH   3   4
ATOM      4  C   UNL     1     -97.929 -29.953 -12.065  1.00  0.00     0.053 C 
BRANCH   4   5
ATOM      5  C   UNL     1     -96.466 -30.139 -12.317  1.00  0.00     0.041 C 
ATOM      6  O   UNL     1     -95.619 -29.643 -11.527  1.00  0.00    -0.550 OA
ATOM      7  O   UNL     1     -96.036 -30.817 -13.450  1.00  0.00    -0.550 OA
ENDBRANCH   4   5
ENDBRANCH   3   4
ENDBRANCH   2   3
ENDBRANCH   1   2
BRANCH   1   8
ATOM      8  C   UNL     1    -101.835 -30.085 -14.693  1.00  0.00     0.000 C 
BRANCH   8   9
ATOM      9  C   UNL     1    -101.169 -29.558 -15.969  1.00  0.00    -0.000 C 
BRANCH   9  10
ATOM     10  C   UNL     1    -101.729 -28.180 -16.353  1.00  0.00    -0.000 C 
BRANCH  10  11
ATOM     11  C   UNL     1    -101.954 -27.271 -15.135  1.00  0.00    -0.000 C 
BRANCH  11  12
ATOM     12  C   UNL     1    -103.229 -26.424 -15.258  1.00  0.00    -0.003 C 
ATOM     13  C   UNL     1    -103.509 -26.062 -16.714  1.00  0.00     0.004 C 
ENDBRANCH  11  12
ENDBRANCH  10  11
ENDBRANCH   9  10
ENDBRANCH   8   9
ENDBRANCH   1   8
TORSDOF 9
ENDMDL
MODEL 9
REMARK VINA RESULT:    -3.234      1.743      3.183
REMARK INTER + INTRA:          -5.444
REMARK INTER:                  -4.057
REMARK INTRA:                  -1.387
REMARK UNBOUND:                -0.508
REMARK SMILES CCCCCCCCCCC(=O)[O-]
REMARK SMILES IDX 7 1 8 2 9 3 10 4 11 5 12 6 13 7 6 8 5 9 4 10 3 11 2 12 1 13
REMARK H PARENT
REMARK Flexibility Score: inf
ROOT
ATOM      1  C   UNL     1    -103.742 -28.042 -12.537  1.00  0.00     0.000 C 
ENDROOT
BRANCH   1   2
ATOM      2  C   UNL     1    -102.398 -28.777 -12.600  1.00  0.00     0.000 C 
BRANCH   2   3
ATOM      3  C   UNL     1    -101.233 -27.820 -12.324  1.00  0.00     0.006 C 
BRANCH   3   4
ATOM      4  C   UNL     1    -100.126 -27.985 -13.369  1.00  0.00     0.053 C 
BRANCH   4   5
ATOM      5  C   UNL     1     -99.272 -29.169 -13.045  1.00  0.00     0.041 C 
ATOM      6  O   UNL     1     -98.813 -29.891 -13.969  1.00  0.00    -0.550 OA
ATOM      7  O   UNL     1     -99.022 -29.505 -11.720  1.00  0.00    -0.550 OA
ENDBRANCH   4   5
ENDBRANCH   3   4
ENDBRANCH   2   3
ENDBRANCH   1   2
BRANCH   1   8
ATOM      8  C   UNL     1    -103.720 -26.778 -13.403  1.00  0.00     0.000 C 
BRANCH   8   9
ATOM      9  C   UNL     1    -104.112 -27.096 -14.852  1.00  0.00    -0.000 C 
BRANCH   9  10
ATOM     10  C   UNL     1    -103.069 -26.546 -15.836  1.00  0.00    -0.000 C 
BRANCH  10  11
ATOM     11  C   UNL     1    -102.130 -27.637 -16.377  1.00  0.00    -0.000 C 
BRANCH  11  12
ATOM     12  C   UNL     1    -102.759 -29.037 -16.319  1.00  0.00    -0.003 C 
ATOM     13  C   UNL     1    -101.695 -30.106 -16.087  1.00  0.00     0.004 C 
ENDBRANCH  11  12
ENDBRANCH  10  11
ENDBRANCH   9  10
ENDBRANCH   8   9
ENDBRANCH   1   8
TORSDOF 9
ENDMDL
