MODEL 1
REMARK VINA RESULT:    -5.686      0.000      0.000
REMARK INTER + INTRA:          -6.339
REMARK INTER:                  -6.184
REMARK INTRA:                  -0.154
REMARK UNBOUND:                -0.154
REMARK SMILES O=C([O-])c1ccccc1O
REMARK SMILES IDX 4 1 9 2 5 3 8 4 6 5 7 6 2 7 1 8 3 9 10 10
REMARK H PARENT 10 11
REMARK Flexibility Score: inf
ROOT
ATOM      1  C   UNL     1     -21.779  24.158  -3.769  1.00  0.00     0.039 A 
ATOM      2  C   UNL     1     -20.877  23.882  -4.825  1.00  0.00     0.124 A 
ATOM      3  C   UNL     1     -22.650  25.259  -3.891  1.00  0.00     0.014 A 
ATOM      4  C   UNL     1     -20.864  24.701  -5.965  1.00  0.00     0.047 A 
ATOM      5  C   UNL     1     -22.625  26.066  -5.032  1.00  0.00     0.001 A 
ATOM      6  C   UNL     1     -21.734  25.787  -6.066  1.00  0.00     0.004 A 
ENDROOT
BRANCH   1   7
ATOM      7  C   UNL     1     -21.828  23.317  -2.544  1.00  0.00     0.075 C 
ATOM      8  O   UNL     1     -22.440  23.722  -1.519  1.00  0.00    -0.545 OA
ATOM      9  O   UNL     1     -21.205  22.076  -2.500  1.00  0.00    -0.545 OA
ENDBRANCH   1   7
BRANCH   2  10
ATOM     10  O   UNL     1     -19.997  22.803  -4.748  1.00  0.00    -0.507 OA
ATOM     11  H   UNL     1     -19.034  22.879  -5.053  1.00  0.00     0.293 HD
ENDBRANCH   2  10
TORSDOF 2
ENDMDL
MODEL 2
REMARK VINA RESULT:    -5.614      1.383      2.462
REMARK INTER + INTRA:          -6.260
REMARK INTER:                  -6.116
REMARK INTRA:                  -0.144
REMARK UNBOUND:                -0.154
REMARK SMILES O=C([O-])c1ccccc1O
REMARK SMILES IDX 4 1 9 2 5 3 8 4 6 5 7 6 2 7 1 8 3 9 10 10
REMARK H PARENT 10 11
REMARK Flexibility Score: inf
ROOT
ATOM      1  C   UNL     1     -21.354  24.151  -4.328  1.00  0.00     0.039 A 
ATOM      2  C   UNL     1     -21.634  24.997  -5.428  1.00  0.00     0.124 A 
ATOM      3  C   UNL     1     -22.046  24.360  -3.118  1.00  0.00     0.014 A 
ATOM      4  C   UNL     1     -22.587  26.019  -5.299  1.00  0.00     0.047 A 
ATOM      5  C   UNL     1     -22.991  25.383  -3.004  1.00  0.00     0.001 A 
ATOM      6  C   UNL     1     -23.260  26.211  -4.092  1.00  0.00     0.004 A 
ENDROOT
BRANCH   1   7
ATOM      7  C   UNL     1     -20.354  23.055  -4.420  1.00  0.00     0.075 C 
ATOM      8  O   UNL     1     -19.506  23.045  -5.353  1.00  0.00    -0.545 OA
ATOM      9  O   UNL     1     -20.332  22.023  -3.490  1.00  0.00    -0.545 OA
ENDBRANCH   1   7
BRANCH   2  10
ATOM     10  O   UNL     1     -20.975  24.827  -6.646  1.00  0.00    -0.507 OA
ATOM     11  H   UNL     1     -20.203  24.177  -6.747  1.00  0.00     0.293 HD
ENDBRANCH   2  10
TORSDOF 2
ENDMDL
MODEL 3
REMARK VINA RESULT:    -5.570      2.302      3.199
REMARK INTER + INTRA:          -6.212
REMARK INTER:                  -5.964
REMARK INTRA:                  -0.249
REMARK UNBOUND:                -0.154
REMARK SMILES O=C([O-])c1ccccc1O
REMARK SMILES IDX 4 1 9 2 5 3 8 4 6 5 7 6 2 7 1 8 3 9 10 10
REMARK H PARENT 10 11
REMARK Flexibility Score: inf
ROOT
ATOM      1  C   UNL     1     -22.050  24.962  -4.376  1.00  0.00     0.039 A 
ATOM      2  C   UNL     1     -21.425  25.037  -5.643  1.00  0.00     0.124 A 
ATOM      3  C   UNL     1     -21.622  23.976  -3.464  1.00  0.00     0.014 A 
ATOM      4  C   UNL     1     -20.398  24.138  -5.969  1.00  0.00     0.047 A 
ATOM      5  C   UNL     1     -20.598  23.088  -3.804  1.00  0.00     0.001 A 
ATOM      6  C   UNL     1     -19.988  23.169  -5.054  1.00  0.00     0.004 A 
ENDROOT
BRANCH   1   7
ATOM      7  C   UNL     1     -23.142  25.894  -3.987  1.00  0.00     0.075 C 
ATOM      8  O   UNL     1     -24.125  25.477  -3.317  1.00  0.00    -0.545 OA
ATOM      9  O   UNL     1     -23.105  27.235  -4.352  1.00  0.00    -0.545 OA
ENDBRANCH   1   7
BRANCH   2  10
ATOM     10  O   UNL     1     -21.816  25.996  -6.577  1.00  0.00    -0.507 OA
ATOM     11  H   UNL     1     -22.745  25.997  -6.982  1.00  0.00     0.293 HD
ENDBRANCH   2  10
TORSDOF 2
ENDMDL
MODEL 4
REMARK VINA RESULT:    -5.568      0.803      2.582
REMARK INTER + INTRA:          -6.211
REMARK INTER:                  -6.027
REMARK INTRA:                  -0.184
REMARK UNBOUND:                -0.154
REMARK SMILES O=C([O-])c1ccccc1O
REMARK SMILES IDX 4 1 9 2 5 3 8 4 6 5 7 6 2 7 1 8 3 9 10 10
REMARK H PARENT 10 11
REMARK Flexibility Score: inf
ROOT
ATOM      1  C   UNL     1     -21.401  24.119  -4.242  1.00  0.00     0.039 A 
ATOM      2  C   UNL     1     -22.222  24.549  -3.172  1.00  0.00     0.124 A 
ATOM      3  C   UNL     1     -21.429  24.841  -5.451  1.00  0.00     0.014 A 
ATOM      4  C   UNL     1     -23.042  25.677  -3.330  1.00  0.00     0.047 A 
ATOM      5  C   UNL     1     -22.251  25.962  -5.594  1.00  0.00     0.001 A 
ATOM      6  C   UNL     1     -23.056  26.378  -4.535  1.00  0.00     0.004 A 
ENDROOT
BRANCH   1   7
ATOM      7  C   UNL     1     -20.517  22.930  -4.119  1.00  0.00     0.075 C 
ATOM      8  O   UNL     1     -19.565  22.760  -4.927  1.00  0.00    -0.545 OA
ATOM      9  O   UNL     1     -20.717  21.986  -3.118  1.00  0.00    -0.545 OA
ENDBRANCH   1   7
BRANCH   2  10
ATOM     10  O   UNL     1     -22.227  23.865  -1.956  1.00  0.00    -0.507 OA
ATOM     11  H   UNL     1     -22.935  24.036  -1.252  1.00  0.00     0.293 HD
ENDBRANCH   2  10
TORSDOF 2
ENDMDL
MODEL 5
REMARK VINA RESULT:    -5.480      1.929      3.575
REMARK INTER + INTRA:          -6.115
REMARK INTER:                  -5.878
REMARK INTRA:                  -0.238
REMARK UNBOUND:                -0.154
REMARK SMILES O=C([O-])c1ccccc1O
REMARK SMILES IDX 4 1 9 2 5 3 8 4 6 5 7 6 2 7 1 8 3 9 10 10
REMARK H PARENT 10 11
REMARK Flexibility Score: inf
ROOT
ATOM      1  C   UNL     1     -21.880  25.016  -5.264  1.00  0.00     0.039 A 
ATOM      2  C   UNL     1     -21.272  24.099  -4.374  1.00  0.00     0.124 A 
ATOM      3  C   UNL     1     -22.922  25.835  -4.787  1.00  0.00     0.014 A 
ATOM      4  C   UNL     1     -21.711  24.021  -3.043  1.00  0.00     0.047 A 
ATOM      5  C   UNL     1     -23.349  25.746  -3.460  1.00  0.00     0.001 A 
ATOM      6  C   UNL     1     -22.745  24.840  -2.590  1.00  0.00     0.004 A 
ENDROOT
BRANCH   1   7
ATOM      7  C   UNL     1     -21.446  25.133  -6.681  1.00  0.00     0.075 C 
ATOM      8  O   UNL     1     -20.225  25.042  -6.982  1.00  0.00    -0.545 OA
ATOM      9  O   UNL     1     -22.368  25.345  -7.699  1.00  0.00    -0.545 OA
ENDBRANCH   1   7
BRANCH   2  10
ATOM     10  O   UNL     1     -20.236  23.268  -4.802  1.00  0.00    -0.507 OA
ATOM     11  H   UNL     1     -19.863  23.323  -5.742  1.00  0.00     0.293 HD
ENDBRANCH   2  10
TORSDOF 2
ENDMDL
MODEL 6
REMARK VINA RESULT:    -5.440      1.952      3.224
REMARK INTER + INTRA:          -6.072
REMARK INTER:                  -5.829
REMARK INTRA:                  -0.243
REMARK UNBOUND:                -0.154
REMARK SMILES O=C([O-])c1ccccc1O
REMARK SMILES IDX 4 1 9 2 5 3 8 4 6 5 7 6 2 7 1 8 3 9 10 10
REMARK H PARENT 10 11
REMARK Flexibility Score: inf
ROOT
ATOM      1  C   UNL     1     -22.034  24.996  -4.407  1.00  0.00     0.039 A 
ATOM      2  C   UNL     1     -21.629  23.999  -3.488  1.00  0.00     0.124 A 
ATOM      3  C   UNL     1     -21.413  25.046  -5.671  1.00  0.00     0.014 A 
ATOM      4  C   UNL     1     -20.627  23.083  -3.846  1.00  0.00     0.047 A 
ATOM      5  C   UNL     1     -20.416  24.129  -6.013  1.00  0.00     0.001 A 
ATOM      6  C   UNL     1     -20.024  23.150  -5.103  1.00  0.00     0.004 A 
ENDROOT
BRANCH   1   7
ATOM      7  C   UNL     1     -23.091  25.985  -4.070  1.00  0.00     0.075 C 
ATOM      8  O   UNL     1     -24.123  25.624  -3.444  1.00  0.00    -0.545 OA
ATOM      9  O   UNL     1     -22.968  27.321  -4.436  1.00  0.00    -0.545 OA
ENDBRANCH   1   7
BRANCH   2  10
ATOM     10  O   UNL     1     -22.215  23.910  -2.225  1.00  0.00    -0.507 OA
ATOM     11  H   UNL     1     -23.136  24.290  -2.038  1.00  0.00     0.293 HD
ENDBRANCH   2  10
TORSDOF 2
ENDMDL
MODEL 7
REMARK VINA RESULT:    -5.276     12.259     13.336
REMARK INTER + INTRA:          -5.893
REMARK INTER:                  -5.688
REMARK INTRA:                  -0.205
REMARK UNBOUND:                -0.154
REMARK SMILES O=C([O-])c1ccccc1O
REMARK SMILES IDX 4 1 9 2 5 3 8 4 6 5 7 6 2 7 1 8 3 9 10 10
REMARK H PARENT 10 11
REMARK Flexibility Score: inf
ROOT
ATOM      1  C   UNL     1     -15.703  34.010 -10.336  1.00  0.00     0.039 A 
ATOM      2  C   UNL     1     -15.466  33.775 -11.712  1.00  0.00     0.124 A 
ATOM      3  C   UNL     1     -16.993  33.775  -9.819  1.00  0.00     0.014 A 
ATOM      4  C   UNL     1     -16.509  33.316 -12.531  1.00  0.00     0.047 A 
ATOM      5  C   UNL     1     -18.021  33.318 -10.648  1.00  0.00     0.001 A 
ATOM      6  C   UNL     1     -17.779  33.089 -12.001  1.00  0.00     0.004 A 
ENDROOT
BRANCH   1   7
ATOM      7  C   UNL     1     -14.629  34.496  -9.431  1.00  0.00     0.075 C 
ATOM      8  O   UNL     1     -14.719  34.321  -8.186  1.00  0.00    -0.545 OA
ATOM      9  O   UNL     1     -13.509  35.150  -9.931  1.00  0.00    -0.545 OA
ENDBRANCH   1   7
BRANCH   2  10
ATOM     10  O   UNL     1     -14.206  33.994 -12.267  1.00  0.00    -0.507 OA
ATOM     11  H   UNL     1     -13.638  33.231 -12.615  1.00  0.00     0.293 HD
ENDBRANCH   2  10
TORSDOF 2
ENDMDL
MODEL 8
REMARK VINA RESULT:    -5.180      1.425      2.346
REMARK INTER + INTRA:          -5.788
REMARK INTER:                  -5.675
REMARK INTRA:                  -0.114
REMARK UNBOUND:                -0.154
REMARK SMILES O=C([O-])c1ccccc1O
REMARK SMILES IDX 4 1 9 2 5 3 8 4 6 5 7 6 2 7 1 8 3 9 10 10
REMARK H PARENT 10 11
REMARK Flexibility Score: inf
ROOT
ATOM      1  C   UNL     1     -21.906  24.595  -3.907  1.00  0.00     0.039 A 
ATOM      2  C   UNL     1     -22.503  25.704  -4.553  1.00  0.00     0.124 A 
ATOM      3  C   UNL     1     -20.913  23.865  -4.591  1.00  0.00     0.014 A 
ATOM      4  C   UNL     1     -22.100  26.057  -5.850  1.00  0.00     0.047 A 
ATOM      5  C   UNL     1     -20.523  24.228  -5.882  1.00  0.00     0.001 A 
ATOM      6  C   UNL     1     -21.115  25.322  -6.510  1.00  0.00     0.004 A 
ENDROOT
BRANCH   1   7
ATOM      7  C   UNL     1     -22.301  24.186  -2.534  1.00  0.00     0.075 C 
ATOM      8  O   UNL     1     -23.000  24.952  -1.818  1.00  0.00    -0.545 OA
ATOM      9  O   UNL     1     -21.912  22.958  -2.010  1.00  0.00    -0.545 OA
ENDBRANCH   1   7
BRANCH   2  10
ATOM     10  O   UNL     1     -23.489  26.456  -3.916  1.00  0.00    -0.507 OA
ATOM     11  H   UNL     1     -24.017  26.087  -3.133  1.00  0.00     0.293 HD
ENDBRANCH   2  10
TORSDOF 2
ENDMDL
MODEL 9
REMARK VINA RESULT:    -4.514     19.261     19.606
REMARK INTER + INTRA:          -5.064
REMARK INTER:                  -4.974
REMARK INTRA:                  -0.090
REMARK UNBOUND:                -0.154
REMARK SMILES O=C([O-])c1ccccc1O
REMARK SMILES IDX 4 1 9 2 5 3 8 4 6 5 7 6 2 7 1 8 3 9 10 10
REMARK H PARENT 10 11
REMARK Flexibility Score: inf
ROOT
ATOM      1  C   UNL     1      -6.245  34.266   1.167  1.00  0.00     0.039 A 
ATOM      2  C   UNL     1      -6.149  35.639   0.838  1.00  0.00     0.124 A 
ATOM      3  C   UNL     1      -5.136  33.630   1.759  1.00  0.00     0.014 A 
ATOM      4  C   UNL     1      -4.963  36.340   1.104  1.00  0.00     0.047 A 
ATOM      5  C   UNL     1      -3.961  34.341   2.018  1.00  0.00     0.001 A 
ATOM      6  C   UNL     1      -3.875  35.693   1.691  1.00  0.00     0.004 A 
ENDROOT
BRANCH   1   7
ATOM      7  C   UNL     1      -7.482  33.484   0.904  1.00  0.00     0.075 C 
ATOM      8  O   UNL     1      -8.430  33.996   0.250  1.00  0.00    -0.545 OA
ATOM      9  O   UNL     1      -7.622  32.182   1.370  1.00  0.00    -0.545 OA
ENDBRANCH   1   7
BRANCH   2  10
ATOM     10  O   UNL     1      -7.222  36.309   0.251  1.00  0.00    -0.507 OA
ATOM     11  H   UNL     1      -7.658  37.109   0.695  1.00  0.00     0.293 HD
ENDBRANCH   2  10
TORSDOF 2
ENDMDL
