MODEL 1
REMARK VINA RESULT:    -5.147      0.000      0.000
REMARK INTER + INTRA:          -6.895
REMARK INTER:                  -6.652
REMARK INTRA:                  -0.243
REMARK UNBOUND:                -0.243
REMARK SMILES CCO[C@H]1O[C@@H](CO)[C@H](O)[C@@H](O)[C@@H]1O
REMARK SMILES IDX 4 1 13 2 11 3 9 4 6 5 5 6 3 7 2 8 1 9 14 10 12 12 7 14 8 15
REMARK SMILES IDX 10 17
REMARK H PARENT 14 11 12 13 8 16 10 18
REMARK Flexibility Score: inf
ROOT
ATOM      1  C   UNL     1     148.605 152.905 129.047  1.00  0.00     0.281 C 
ATOM      2  C   UNL     1     149.274 154.191 129.586  1.00  0.00     0.202 C 
ATOM      3  C   UNL     1     148.555 155.426 129.007  1.00  0.00     0.179 C 
ATOM      4  C   UNL     1     147.054 155.158 128.711  1.00  0.00     0.177 C 
ATOM      5  C   UNL     1     146.484 153.955 129.517  1.00  0.00     0.178 C 
ATOM      6  O   UNL     1     147.247 152.752 129.457  1.00  0.00    -0.341 OA
ENDROOT
BRANCH   1   7
ATOM      7  O   UNL     1     149.374 151.757 129.378  1.00  0.00    -0.350 OA
BRANCH   7   8
ATOM      8  C   UNL     1     148.738 150.941 130.344  1.00  0.00     0.160 C 
ATOM      9  C   UNL     1     149.503 151.037 131.655  1.00  0.00     0.035 C 
ENDBRANCH   7   8
ENDBRANCH   1   7
BRANCH   2  10
ATOM     10  O   UNL     1     150.627 154.227 129.207  1.00  0.00    -0.385 OA
ATOM     11  H   UNL     1     150.868 153.315 128.900  1.00  0.00     0.211 HD
ENDBRANCH   2  10
BRANCH   3  12
ATOM     12  O   UNL     1     148.723 156.540 129.849  1.00  0.00    -0.387 OA
ATOM     13  H   UNL     1     149.477 157.079 129.495  1.00  0.00     0.211 HD
ENDBRANCH   3  12
BRANCH   5  14
ATOM     14  C   UNL     1     146.187 154.311 130.985  1.00  0.00     0.191 C 
BRANCH  14  15
ATOM     15  O   UNL     1     146.451 155.669 131.219  1.00  0.00    -0.394 OA
ATOM     16  H   UNL     1     145.840 155.957 131.948  1.00  0.00     0.210 HD
ENDBRANCH  14  15
ENDBRANCH   5  14
BRANCH   4  17
ATOM     17  O   UNL     1     146.881 154.889 127.340  1.00  0.00    -0.387 OA
ATOM     18  H   UNL     1     147.221 153.969 127.180  1.00  0.00     0.211 HD
ENDBRANCH   4  17
TORSDOF 7
ENDMDL
MODEL 2
REMARK VINA RESULT:    -4.957      1.571      4.039
REMARK INTER + INTRA:          -6.649
REMARK INTER:                  -6.388
REMARK INTRA:                  -0.261
REMARK UNBOUND:                -0.243
REMARK SMILES CCO[C@H]1O[C@@H](CO)[C@H](O)[C@@H](O)[C@@H]1O
REMARK SMILES IDX 4 1 13 2 11 3 9 4 6 5 5 6 3 7 2 8 1 9 14 10 12 12 7 14 8 15
REMARK SMILES IDX 10 17
REMARK H PARENT 14 11 12 13 8 16 10 18
REMARK Flexibility Score: inf
ROOT
ATOM      1  C   UNL     1     148.700 155.501 129.107  1.00  0.00     0.281 C 
ATOM      2  C   UNL     1     148.913 154.024 129.515  1.00  0.00     0.202 C 
ATOM      3  C   UNL     1     147.841 153.615 130.544  1.00  0.00     0.179 C 
ATOM      4  C   UNL     1     146.509 154.393 130.361  1.00  0.00     0.177 C 
ATOM      5  C   UNL     1     146.349 154.987 128.932  1.00  0.00     0.178 C 
ATOM      6  O   UNL     1     147.459 155.737 128.443  1.00  0.00    -0.341 OA
ENDROOT
BRANCH   1   7
ATOM      7  O   UNL     1     149.794 155.976 128.337  1.00  0.00    -0.350 OA
BRANCH   7   8
ATOM      8  C   UNL     1     149.396 156.429 127.056  1.00  0.00     0.160 C 
ATOM      9  C   UNL     1     149.771 157.895 126.909  1.00  0.00     0.035 C 
ENDBRANCH   7   8
ENDBRANCH   1   7
BRANCH   2  10
ATOM     10  O   UNL     1     150.186 153.859 130.087  1.00  0.00    -0.385 OA
ATOM     11  H   UNL     1     150.218 154.432 130.897  1.00  0.00     0.211 HD
ENDBRANCH   2  10
BRANCH   3  12
ATOM     12  O   UNL     1     147.632 152.223 130.519  1.00  0.00    -0.387 OA
ATOM     13  H   UNL     1     147.412 151.965 129.588  1.00  0.00     0.211 HD
ENDBRANCH   3  12
BRANCH   5  14
ATOM     14  C   UNL     1     145.937 153.930 127.891  1.00  0.00     0.191 C 
BRANCH  14  15
ATOM     15  O   UNL     1     146.408 154.289 126.620  1.00  0.00    -0.394 OA
ATOM     16  H   UNL     1     146.686 153.449 126.169  1.00  0.00     0.210 HD
ENDBRANCH  14  15
ENDBRANCH   5  14
BRANCH   4  17
ATOM     17  O   UNL     1     146.447 155.451 131.286  1.00  0.00    -0.387 OA
ATOM     18  H   UNL     1     145.516 155.479 131.633  1.00  0.00     0.211 HD
ENDBRANCH   4  17
TORSDOF 7
ENDMDL
MODEL 3
REMARK VINA RESULT:    -4.951      1.600      2.102
REMARK INTER + INTRA:          -6.641
REMARK INTER:                  -6.275
REMARK INTRA:                  -0.366
REMARK UNBOUND:                -0.243
REMARK SMILES CCO[C@H]1O[C@@H](CO)[C@H](O)[C@@H](O)[C@@H]1O
REMARK SMILES IDX 4 1 13 2 11 3 9 4 6 5 5 6 3 7 2 8 1 9 14 10 12 12 7 14 8 15
REMARK SMILES IDX 10 17
REMARK H PARENT 14 11 12 13 8 16 10 18
REMARK Flexibility Score: inf
ROOT
ATOM      1  C   UNL     1     148.525 153.317 128.517  1.00  0.00     0.281 C 
ATOM      2  C   UNL     1     148.999 154.420 129.493  1.00  0.00     0.202 C 
ATOM      3  C   UNL     1     147.927 155.524 129.580  1.00  0.00     0.179 C 
ATOM      4  C   UNL     1     146.490 154.982 129.344  1.00  0.00     0.177 C 
ATOM      5  C   UNL     1     146.373 153.452 129.599  1.00  0.00     0.178 C 
ATOM      6  O   UNL     1     147.348 152.638 128.950  1.00  0.00    -0.341 OA
ENDROOT
BRANCH   1   7
ATOM      7  O   UNL     1     149.576 152.401 128.241  1.00  0.00    -0.350 OA
BRANCH   7   8
ATOM      8  C   UNL     1     149.602 152.005 126.882  1.00  0.00     0.160 C 
ATOM      9  C   UNL     1     150.362 153.046 126.076  1.00  0.00     0.035 C 
ENDBRANCH   7   8
ENDBRANCH   1   7
BRANCH   2  10
ATOM     10  O   UNL     1     150.203 154.984 129.038  1.00  0.00    -0.385 OA
ATOM     11  H   UNL     1     150.774 155.135 129.837  1.00  0.00     0.211 HD
ENDBRANCH   2  10
BRANCH   3  12
ATOM     12  O   UNL     1     148.023 156.216 130.801  1.00  0.00    -0.387 OA
ATOM     13  H   UNL     1     148.632 156.986 130.669  1.00  0.00     0.211 HD
ENDBRANCH   3  12
BRANCH   5  14
ATOM     14  C   UNL     1     146.318 153.101 131.098  1.00  0.00     0.191 C 
BRANCH  14  15
ATOM     15  O   UNL     1     145.939 154.225 131.846  1.00  0.00    -0.394 OA
ATOM     16  H   UNL     1     146.765 154.579 132.271  1.00  0.00     0.210 HD
ENDBRANCH  14  15
ENDBRANCH   5  14
BRANCH   4  17
ATOM     17  O   UNL     1     146.099 155.237 128.017  1.00  0.00    -0.387 OA
ATOM     18  H   UNL     1     146.655 155.993 127.690  1.00  0.00     0.211 HD
ENDBRANCH   4  17
TORSDOF 7
ENDMDL
MODEL 4
REMARK VINA RESULT:    -4.925      1.993      4.093
REMARK INTER + INTRA:          -6.607
REMARK INTER:                  -6.389
REMARK INTRA:                  -0.218
REMARK UNBOUND:                -0.243
REMARK SMILES CCO[C@H]1O[C@@H](CO)[C@H](O)[C@@H](O)[C@@H]1O
REMARK SMILES IDX 4 1 13 2 11 3 9 4 6 5 5 6 3 7 2 8 1 9 14 10 12 12 7 14 8 15
REMARK SMILES IDX 10 17
REMARK H PARENT 14 11 12 13 8 16 10 18
REMARK Flexibility Score: inf
ROOT
ATOM      1  C   UNL     1     147.850 153.435 128.686  1.00  0.00     0.281 C 
ATOM      2  C   UNL     1     147.545 154.446 127.557  1.00  0.00     0.202 C 
ATOM      3  C   UNL     1     148.801 155.291 127.269  1.00  0.00     0.179 C 
ATOM      4  C   UNL     1     150.118 154.520 127.557  1.00  0.00     0.177 C 
ATOM      5  C   UNL     1     149.928 152.975 127.549  1.00  0.00     0.178 C 
ATOM      6  O   UNL     1     148.851 152.479 128.343  1.00  0.00    -0.341 OA
ENDROOT
BRANCH   1   7
ATOM      7  O   UNL     1     146.661 152.797 129.130  1.00  0.00    -0.350 OA
BRANCH   7   8
ATOM      8  C   UNL     1     146.651 152.587 130.530  1.00  0.00     0.160 C 
ATOM      9  C   UNL     1     146.087 153.822 131.214  1.00  0.00     0.035 C 
ENDBRANCH   7   8
ENDBRANCH   1   7
BRANCH   2  10
ATOM     10  O   UNL     1     146.496 155.299 127.941  1.00  0.00    -0.385 OA
ATOM     11  H   UNL     1     146.871 155.947 128.594  1.00  0.00     0.211 HD
ENDBRANCH   2  10
BRANCH   3  12
ATOM     12  O   UNL     1     148.774 155.792 125.955  1.00  0.00    -0.387 OA
ATOM     13  H   UNL     1     148.045 156.460 125.898  1.00  0.00     0.211 HD
ENDBRANCH   3  12
BRANCH   5  14
ATOM     14  C   UNL     1     149.835 152.395 126.126  1.00  0.00     0.191 C 
BRANCH  14  15
ATOM     15  O   UNL     1     151.050 152.574 125.448  1.00  0.00    -0.394 OA
ATOM     16  H   UNL     1     151.771 152.321 126.082  1.00  0.00     0.210 HD
ENDBRANCH  14  15
ENDBRANCH   5  14
BRANCH   4  17
ATOM     17  O   UNL     1     150.621 154.893 128.817  1.00  0.00    -0.387 OA
ATOM     18  H   UNL     1     151.588 154.661 128.824  1.00  0.00     0.211 HD
ENDBRANCH   4  17
TORSDOF 7
ENDMDL
MODEL 5
REMARK VINA RESULT:    -4.876      2.488      3.477
REMARK INTER + INTRA:          -6.544
REMARK INTER:                  -6.209
REMARK INTRA:                  -0.335
REMARK UNBOUND:                -0.243
REMARK SMILES CCO[C@H]1O[C@@H](CO)[C@H](O)[C@@H](O)[C@@H]1O
REMARK SMILES IDX 4 1 13 2 11 3 9 4 6 5 5 6 3 7 2 8 1 9 14 10 12 12 7 14 8 15
REMARK SMILES IDX 10 17
REMARK H PARENT 14 11 12 13 8 16 10 18
REMARK Flexibility Score: inf
ROOT
ATOM      1  C   UNL     1     148.383 153.688 126.602  1.00  0.00     0.281 C 
ATOM      2  C   UNL     1     149.640 153.645 127.501  1.00  0.00     0.202 C 
ATOM      3  C   UNL     1     150.191 155.072 127.685  1.00  0.00     0.179 C 
ATOM      4  C   UNL     1     149.079 156.155 127.617  1.00  0.00     0.177 C 
ATOM      5  C   UNL     1     147.661 155.584 127.909  1.00  0.00     0.178 C 
ATOM      6  O   UNL     1     147.297 154.418 127.172  1.00  0.00    -0.341 OA
ENDROOT
BRANCH   1   7
ATOM      7  O   UNL     1     147.981 152.378 126.229  1.00  0.00    -0.350 OA
BRANCH   7   8
ATOM      8  C   UNL     1     146.582 152.276 126.038  1.00  0.00     0.160 C 
ATOM      9  C   UNL     1     146.298 152.043 124.562  1.00  0.00     0.035 C 
ENDBRANCH   7   8
ENDBRANCH   1   7
BRANCH   2  10
ATOM     10  O   UNL     1     150.631 152.843 126.909  1.00  0.00    -0.385 OA
ATOM     11  H   UNL     1     151.459 152.961 127.444  1.00  0.00     0.211 HD
ENDBRANCH   2  10
BRANCH   3  12
ATOM     12  O   UNL     1     150.932 155.171 128.877  1.00  0.00    -0.387 OA
ATOM     13  H   UNL     1     151.734 154.596 128.785  1.00  0.00     0.211 HD
ENDBRANCH   3  12
BRANCH   5  14
ATOM     14  C   UNL     1     147.414 155.347 129.411  1.00  0.00     0.191 C 
BRANCH  14  15
ATOM     15  O   UNL     1     148.204 156.217 130.176  1.00  0.00    -0.394 OA
ATOM     16  H   UNL     1     148.904 155.661 130.611  1.00  0.00     0.210 HD
ENDBRANCH  14  15
ENDBRANCH   5  14
BRANCH   4  17
ATOM     17  O   UNL     1     149.061 156.737 126.335  1.00  0.00    -0.387 OA
ATOM     18  H   UNL     1     149.563 157.592 126.398  1.00  0.00     0.211 HD
ENDBRANCH   4  17
TORSDOF 7
ENDMDL
MODEL 6
REMARK VINA RESULT:    -4.764      2.179      2.960
REMARK INTER + INTRA:          -6.399
REMARK INTER:                  -6.042
REMARK INTRA:                  -0.357
REMARK UNBOUND:                -0.243
REMARK SMILES CCO[C@H]1O[C@@H](CO)[C@H](O)[C@@H](O)[C@@H]1O
REMARK SMILES IDX 4 1 13 2 11 3 9 4 6 5 5 6 3 7 2 8 1 9 14 10 12 12 7 14 8 15
REMARK SMILES IDX 10 17
REMARK H PARENT 14 11 12 13 8 16 10 18
REMARK Flexibility Score: inf
ROOT
ATOM      1  C   UNL     1     149.629 153.075 128.744  1.00  0.00     0.281 C 
ATOM      2  C   UNL     1     149.562 154.539 128.251  1.00  0.00     0.202 C 
ATOM      3  C   UNL     1     149.614 154.566 126.711  1.00  0.00     0.179 C 
ATOM      4  C   UNL     1     148.997 153.293 126.070  1.00  0.00     0.177 C 
ATOM      5  C   UNL     1     148.019 152.549 127.025  1.00  0.00     0.178 C 
ATOM      6  O   UNL     1     148.515 152.283 128.336  1.00  0.00    -0.341 OA
ENDROOT
BRANCH   1   7
ATOM      7  O   UNL     1     149.808 153.022 130.152  1.00  0.00    -0.350 OA
BRANCH   7   8
ATOM      8  C   UNL     1     148.814 152.247 130.794  1.00  0.00     0.160 C 
ATOM      9  C   UNL     1     149.486 151.152 131.608  1.00  0.00     0.035 C 
ENDBRANCH   7   8
ENDBRANCH   1   7
BRANCH   2  10
ATOM     10  O   UNL     1     150.648 155.271 128.760  1.00  0.00    -0.385 OA
ATOM     11  H   UNL     1     151.413 155.124 128.145  1.00  0.00     0.211 HD
ENDBRANCH   2  10
BRANCH   3  12
ATOM     12  O   UNL     1     149.013 155.737 126.212  1.00  0.00    -0.387 OA
ATOM     13  H   UNL     1     149.595 156.503 126.450  1.00  0.00     0.211 HD
ENDBRANCH   3  12
BRANCH   5  14
ATOM     14  C   UNL     1     146.644 153.235 127.118  1.00  0.00     0.191 C 
BRANCH  14  15
ATOM     15  O   UNL     1     146.430 154.051 125.998  1.00  0.00    -0.394 OA
ATOM     16  H   UNL     1     146.511 153.467 125.199  1.00  0.00     0.210 HD
ENDBRANCH  14  15
ENDBRANCH   5  14
BRANCH   4  17
ATOM     17  O   UNL     1     150.022 152.399 125.709  1.00  0.00    -0.387 OA
ATOM     18  H   UNL     1     150.479 152.127 126.548  1.00  0.00     0.211 HD
ENDBRANCH   4  17
TORSDOF 7
ENDMDL
MODEL 7
REMARK VINA RESULT:    -4.737      1.641      4.076
REMARK INTER + INTRA:          -6.364
REMARK INTER:                  -6.040
REMARK INTRA:                  -0.323
REMARK UNBOUND:                -0.243
REMARK SMILES CCO[C@H]1O[C@@H](CO)[C@H](O)[C@@H](O)[C@@H]1O
REMARK SMILES IDX 4 1 13 2 11 3 9 4 6 5 5 6 3 7 2 8 1 9 14 10 12 12 7 14 8 15
REMARK SMILES IDX 10 17
REMARK H PARENT 14 11 12 13 8 16 10 18
REMARK Flexibility Score: inf
ROOT
ATOM      1  C   UNL     1     147.240 154.038 128.158  1.00  0.00     0.281 C 
ATOM      2  C   UNL     1     146.698 154.815 129.381  1.00  0.00     0.202 C 
ATOM      3  C   UNL     1     146.266 153.818 130.474  1.00  0.00     0.179 C 
ATOM      4  C   UNL     1     147.092 152.502 130.443  1.00  0.00     0.177 C 
ATOM      5  C   UNL     1     148.462 152.666 129.724  1.00  0.00     0.178 C 
ATOM      6  O   UNL     1     148.418 153.282 128.438  1.00  0.00    -0.341 OA
ENDROOT
BRANCH   1   7
ATOM      7  O   UNL     1     147.438 154.907 127.052  1.00  0.00    -0.350 OA
BRANCH   7   8
ATOM      8  C   UNL     1     148.808 155.153 126.798  1.00  0.00     0.160 C 
ATOM      9  C   UNL     1     149.132 156.592 127.168  1.00  0.00     0.035 C 
ENDBRANCH   7   8
ENDBRANCH   1   7
BRANCH   2  10
ATOM     10  O   UNL     1     145.591 155.595 129.006  1.00  0.00    -0.385 OA
ATOM     11  H   UNL     1     145.625 156.427 129.546  1.00  0.00     0.211 HD
ENDBRANCH   2  10
BRANCH   3  12
ATOM     12  O   UNL     1     146.307 154.422 131.744  1.00  0.00    -0.387 OA
ATOM     13  H   UNL     1     147.241 154.705 131.916  1.00  0.00     0.211 HD
ENDBRANCH   3  12
BRANCH   5  14
ATOM     14  C   UNL     1     149.513 153.370 130.601  1.00  0.00     0.191 C 
BRANCH  14  15
ATOM     15  O   UNL     1     150.531 153.910 129.802  1.00  0.00    -0.394 OA
ATOM     16  H   UNL     1     151.292 153.273 129.836  1.00  0.00     0.210 HD
ENDBRANCH  14  15
ENDBRANCH   5  14
BRANCH   4  17
ATOM     17  O   UNL     1     146.363 151.500 129.776  1.00  0.00    -0.387 OA
ATOM     18  H   UNL     1     145.412 151.791 129.766  1.00  0.00     0.211 HD
ENDBRANCH   4  17
TORSDOF 7
ENDMDL
MODEL 8
REMARK VINA RESULT:    -4.732      2.176      3.595
REMARK INTER + INTRA:          -6.358
REMARK INTER:                  -5.975
REMARK INTRA:                  -0.383
REMARK UNBOUND:                -0.243
REMARK SMILES CCO[C@H]1O[C@@H](CO)[C@H](O)[C@@H](O)[C@@H]1O
REMARK SMILES IDX 4 1 13 2 11 3 9 4 6 5 5 6 3 7 2 8 1 9 14 10 12 12 7 14 8 15
REMARK SMILES IDX 10 17
REMARK H PARENT 14 11 12 13 8 16 10 18
REMARK Flexibility Score: inf
ROOT
ATOM      1  C   UNL     1     146.966 153.169 128.091  1.00  0.00     0.281 C 
ATOM      2  C   UNL     1     145.980 154.349 127.927  1.00  0.00     0.202 C 
ATOM      3  C   UNL     1     145.002 154.372 129.117  1.00  0.00     0.179 C 
ATOM      4  C   UNL     1     145.630 153.799 130.418  1.00  0.00     0.177 C 
ATOM      5  C   UNL     1     147.186 153.829 130.401  1.00  0.00     0.178 C 
ATOM      6  O   UNL     1     147.804 153.279 129.239  1.00  0.00    -0.341 OA
ENDROOT
BRANCH   1   7
ATOM      7  O   UNL     1     147.733 152.982 126.910  1.00  0.00    -0.350 OA
BRANCH   7   8
ATOM      8  C   UNL     1     148.784 153.924 126.795  1.00  0.00     0.160 C 
ATOM      9  C   UNL     1     150.064 153.196 126.414  1.00  0.00     0.035 C 
ENDBRANCH   7   8
ENDBRANCH   1   7
BRANCH   2  10
ATOM     10  O   UNL     1     145.250 154.209 126.734  1.00  0.00    -0.385 OA
ATOM     11  H   UNL     1     145.865 153.815 126.061  1.00  0.00     0.211 HD
ENDBRANCH   2  10
BRANCH   3  12
ATOM     12  O   UNL     1     144.492 155.667 129.319  1.00  0.00    -0.387 OA
ATOM     13  H   UNL     1     143.601 155.581 129.745  1.00  0.00     0.211 HD
ENDBRANCH   3  12
BRANCH   5  14
ATOM     14  C   UNL     1     147.756 155.233 130.678  1.00  0.00     0.191 C 
BRANCH  14  15
ATOM     15  O   UNL     1     146.852 155.982 131.445  1.00  0.00    -0.394 OA
ATOM     16  H   UNL     1     146.005 156.026 130.928  1.00  0.00     0.210 HD
ENDBRANCH  14  15
ENDBRANCH   5  14
BRANCH   4  17
ATOM     17  O   UNL     1     145.219 152.465 130.596  1.00  0.00    -0.387 OA
ATOM     18  H   UNL     1     144.499 152.293 129.933  1.00  0.00     0.211 HD
ENDBRANCH   4  17
TORSDOF 7
ENDMDL
MODEL 9
REMARK VINA RESULT:    -4.710      1.687      3.572
REMARK INTER + INTRA:          -6.329
REMARK INTER:                  -5.952
REMARK INTRA:                  -0.377
REMARK UNBOUND:                -0.243
REMARK SMILES CCO[C@H]1O[C@@H](CO)[C@H](O)[C@@H](O)[C@@H]1O
REMARK SMILES IDX 4 1 13 2 11 3 9 4 6 5 5 6 3 7 2 8 1 9 14 10 12 12 7 14 8 15
REMARK SMILES IDX 10 17
REMARK H PARENT 14 11 12 13 8 16 10 18
REMARK Flexibility Score: inf
ROOT
ATOM      1  C   UNL     1     147.172 153.689 130.598  1.00  0.00     0.281 C 
ATOM      2  C   UNL     1     147.213 155.199 130.264  1.00  0.00     0.202 C 
ATOM      3  C   UNL     1     148.612 155.571 129.736  1.00  0.00     0.179 C 
ATOM      4  C   UNL     1     149.307 154.391 129.002  1.00  0.00     0.177 C 
ATOM      5  C   UNL     1     148.300 153.316 128.498  1.00  0.00     0.178 C 
ATOM      6  O   UNL     1     147.360 152.847 129.463  1.00  0.00    -0.341 OA
ENDROOT
BRANCH   1   7
ATOM      7  O   UNL     1     145.979 153.357 131.294  1.00  0.00    -0.350 OA
BRANCH   7   8
ATOM      8  C   UNL     1     144.872 153.206 130.424  1.00  0.00     0.160 C 
ATOM      9  C   UNL     1     143.781 152.425 131.139  1.00  0.00     0.035 C 
ENDBRANCH   7   8
ENDBRANCH   1   7
BRANCH   2  10
ATOM     10  O   UNL     1     146.941 155.957 131.415  1.00  0.00    -0.385 OA
ATOM     11  H   UNL     1     146.885 156.907 131.132  1.00  0.00     0.211 HD
ENDBRANCH   2  10
BRANCH   3  12
ATOM     12  O   UNL     1     148.549 156.717 128.922  1.00  0.00    -0.387 OA
ATOM     13  H   UNL     1     149.073 157.433 129.364  1.00  0.00     0.211 HD
ENDBRANCH   3  12
BRANCH   5  14
ATOM     14  C   UNL     1     147.561 153.748 127.218  1.00  0.00     0.191 C 
BRANCH  14  15
ATOM     15  O   UNL     1     148.309 154.713 126.527  1.00  0.00    -0.394 OA
ATOM     16  H   UNL     1     148.181 155.573 127.008  1.00  0.00     0.210 HD
ENDBRANCH  14  15
ENDBRANCH   5  14
BRANCH   4  17
ATOM     17  O   UNL     1     150.220 153.764 129.870  1.00  0.00    -0.387 OA
ATOM     18  H   UNL     1     150.528 154.454 130.515  1.00  0.00     0.211 HD
ENDBRANCH   4  17
TORSDOF 7
ENDMDL
