MODEL 1
REMARK VINA RESULT:    -3.659      0.000      0.000
REMARK INTER + INTRA:          -5.005
REMARK INTER:                  -4.728
REMARK INTRA:                  -0.277
REMARK UNBOUND:                -0.277
REMARK SMILES CCCCCCC(=O)[O-]
REMARK SMILES IDX 5 1 6 2 7 3 8 4 9 5 4 6 3 7 2 8 1 9
REMARK H PARENT
REMARK Flexibility Score: inf
ROOT
ATOM      1  C   UNL     1      86.512  77.085  67.862  1.00  0.00     0.006 C 
ENDROOT
BRANCH   1   2
ATOM      2  C   UNL     1      87.641  77.547  66.931  1.00  0.00     0.053 C 
BRANCH   2   3
ATOM      3  C   UNL     1      88.964  76.970  67.331  1.00  0.00     0.041 C 
ATOM      4  O   UNL     1      90.020  77.636  67.170  1.00  0.00    -0.550 OA
ATOM      5  O   UNL     1      89.027  75.709  67.912  1.00  0.00    -0.550 OA
ENDBRANCH   2   3
ENDBRANCH   1   2
BRANCH   1   6
ATOM      6  C   UNL     1      86.468  77.895  69.168  1.00  0.00     0.000 C 
BRANCH   6   7
ATOM      7  C   UNL     1      86.775  77.001  70.378  1.00  0.00    -0.000 C 
BRANCH   7   8
ATOM      8  C   UNL     1      85.707  75.920  70.600  1.00  0.00    -0.003 C 
ATOM      9  C   UNL     1      86.303  74.521  70.759  1.00  0.00     0.004 C 
ENDBRANCH   7   8
ENDBRANCH   6   7
ENDBRANCH   1   6
TORSDOF 5
ENDMDL
MODEL 2
REMARK VINA RESULT:    -3.652      2.321      3.706
REMARK INTER + INTRA:          -4.997
REMARK INTER:                  -4.658
REMARK INTRA:                  -0.338
REMARK UNBOUND:                -0.277
REMARK SMILES CCCCCCC(=O)[O-]
REMARK SMILES IDX 5 1 6 2 7 3 8 4 9 5 4 6 3 7 2 8 1 9
REMARK H PARENT
REMARK Flexibility Score: inf
ROOT
ATOM      1  C   UNL     1      86.955  75.033  66.938  1.00  0.00     0.006 C 
ENDROOT
BRANCH   1   2
ATOM      2  C   UNL     1      87.241  73.692  67.627  1.00  0.00     0.053 C 
BRANCH   2   3
ATOM      3  C   UNL     1      88.333  73.811  68.646  1.00  0.00     0.041 C 
ATOM      4  O   UNL     1      89.539  73.739  68.293  1.00  0.00    -0.550 OA
ATOM      5  O   UNL     1      88.018  74.034  69.981  1.00  0.00    -0.550 OA
ENDBRANCH   2   3
ENDBRANCH   1   2
BRANCH   1   6
ATOM      6  C   UNL     1      86.404  76.082  67.916  1.00  0.00     0.000 C 
BRANCH   6   7
ATOM      7  C   UNL     1      87.317  77.317  67.967  1.00  0.00    -0.000 C 
BRANCH   7   8
ATOM      8  C   UNL     1      88.397  77.298  66.876  1.00  0.00    -0.003 C 
ATOM      9  C   UNL     1      89.810  77.451  67.439  1.00  0.00     0.004 C 
ENDBRANCH   7   8
ENDBRANCH   6   7
ENDBRANCH   1   6
TORSDOF 5
ENDMDL
MODEL 3
REMARK VINA RESULT:    -3.641      2.851      4.237
REMARK INTER + INTRA:          -4.982
REMARK INTER:                  -4.618
REMARK INTRA:                  -0.364
REMARK UNBOUND:                -0.277
REMARK SMILES CCCCCCC(=O)[O-]
REMARK SMILES IDX 5 1 6 2 7 3 8 4 9 5 4 6 3 7 2 8 1 9
REMARK H PARENT
REMARK Flexibility Score: inf
ROOT
ATOM      1  C   UNL     1      86.836  76.483  69.436  1.00  0.00     0.006 C 
ENDROOT
BRANCH   1   2
ATOM      2  C   UNL     1      85.849  76.135  70.558  1.00  0.00     0.053 C 
BRANCH   2   3
ATOM      3  C   UNL     1      85.985  74.709  70.997  1.00  0.00     0.041 C 
ATOM      4  O   UNL     1      87.115  74.152  70.999  1.00  0.00    -0.550 OA
ATOM      5  O   UNL     1      84.870  74.005  71.432  1.00  0.00    -0.550 OA
ENDBRANCH   2   3
ENDBRANCH   1   2
BRANCH   1   6
ATOM      6  C   UNL     1      86.158  76.527  68.058  1.00  0.00     0.000 C 
BRANCH   6   7
ATOM      7  C   UNL     1      87.016  75.814  67.002  1.00  0.00    -0.000 C 
BRANCH   7   8
ATOM      8  C   UNL     1      87.836  74.656  67.590  1.00  0.00    -0.003 C 
ATOM      9  C   UNL     1      87.181  73.293  67.368  1.00  0.00     0.004 C 
ENDBRANCH   7   8
ENDBRANCH   6   7
ENDBRANCH   1   6
TORSDOF 5
ENDMDL
MODEL 4
REMARK VINA RESULT:    -3.571      1.806      2.854
REMARK INTER + INTRA:          -4.891
REMARK INTER:                  -4.452
REMARK INTRA:                  -0.440
REMARK UNBOUND:                -0.277
REMARK SMILES CCCCCCC(=O)[O-]
REMARK SMILES IDX 5 1 6 2 7 3 8 4 9 5 4 6 3 7 2 8 1 9
REMARK H PARENT
REMARK Flexibility Score: inf
ROOT
ATOM      1  C   UNL     1      86.815  77.029  70.293  1.00  0.00     0.006 C 
ENDROOT
BRANCH   1   2
ATOM      2  C   UNL     1      86.254  77.984  69.231  1.00  0.00     0.053 C 
BRANCH   2   3
ATOM      3  C   UNL     1      86.558  77.513  67.842  1.00  0.00     0.041 C 
ATOM      4  O   UNL     1      85.732  76.791  67.224  1.00  0.00    -0.550 OA
ATOM      5  O   UNL     1      87.738  77.898  67.219  1.00  0.00    -0.550 OA
ENDBRANCH   2   3
ENDBRANCH   1   2
BRANCH   1   6
ATOM      6  C   UNL     1      85.783  75.980  70.735  1.00  0.00     0.000 C 
BRANCH   6   7
ATOM      7  C   UNL     1      86.194  74.575  70.268  1.00  0.00    -0.000 C 
BRANCH   7   8
ATOM      8  C   UNL     1      87.640  74.522  69.755  1.00  0.00    -0.003 C 
ATOM      9  C   UNL     1      87.746  73.955  68.340  1.00  0.00     0.004 C 
ENDBRANCH   7   8
ENDBRANCH   6   7
ENDBRANCH   1   6
TORSDOF 5
ENDMDL
MODEL 5
REMARK VINA RESULT:    -3.567      2.452      4.507
REMARK INTER + INTRA:          -4.886
REMARK INTER:                  -4.717
REMARK INTRA:                  -0.170
REMARK UNBOUND:                -0.277
REMARK SMILES CCCCCCC(=O)[O-]
REMARK SMILES IDX 5 1 6 2 7 3 8 4 9 5 4 6 3 7 2 8 1 9
REMARK H PARENT
REMARK Flexibility Score: inf
ROOT
ATOM      1  C   UNL     1      86.931  76.460  69.491  1.00  0.00     0.006 C 
ENDROOT
BRANCH   1   2
ATOM      2  C   UNL     1      85.849  76.125  70.526  1.00  0.00     0.053 C 
BRANCH   2   3
ATOM      3  C   UNL     1      85.991  74.727  71.047  1.00  0.00     0.041 C 
ATOM      4  O   UNL     1      87.107  74.145  71.000  1.00  0.00    -0.550 OA
ATOM      5  O   UNL     1      84.900  74.081  71.613  1.00  0.00    -0.550 OA
ENDBRANCH   2   3
ENDBRANCH   1   2
BRANCH   1   6
ATOM      6  C   UNL     1      86.481  77.559  68.515  1.00  0.00     0.000 C 
BRANCH   6   7
ATOM      7  C   UNL     1      87.253  77.465  67.190  1.00  0.00    -0.000 C 
BRANCH   7   8
ATOM      8  C   UNL     1      88.556  76.664  67.321  1.00  0.00    -0.003 C 
ATOM      9  C   UNL     1      89.803  77.525  67.125  1.00  0.00     0.004 C 
ENDBRANCH   7   8
ENDBRANCH   6   7
ENDBRANCH   1   6
TORSDOF 5
ENDMDL
MODEL 6
REMARK VINA RESULT:    -3.494      3.120      4.728
REMARK INTER + INTRA:          -4.792
REMARK INTER:                  -4.549
REMARK INTRA:                  -0.243
REMARK UNBOUND:                -0.277
REMARK SMILES CCCCCCC(=O)[O-]
REMARK SMILES IDX 5 1 6 2 7 3 8 4 9 5 4 6 3 7 2 8 1 9
REMARK H PARENT
REMARK Flexibility Score: inf
ROOT
ATOM      1  C   UNL     1      87.705  74.647  69.323  1.00  0.00     0.006 C 
ENDROOT
BRANCH   1   2
ATOM      2  C   UNL     1      86.799  74.526  70.556  1.00  0.00     0.053 C 
BRANCH   2   3
ATOM      3  C   UNL     1      87.589  74.289  71.806  1.00  0.00     0.041 C 
ATOM      4  O   UNL     1      87.295  74.901  72.867  1.00  0.00    -0.550 OA
ATOM      5  O   UNL     1      88.629  73.368  71.809  1.00  0.00    -0.550 OA
ENDBRANCH   2   3
ENDBRANCH   1   2
BRANCH   1   6
ATOM      6  C   UNL     1      87.235  73.753  68.166  1.00  0.00     0.000 C 
BRANCH   6   7
ATOM      7  C   UNL     1      87.060  74.571  66.877  1.00  0.00    -0.000 C 
BRANCH   7   8
ATOM      8  C   UNL     1      87.098  76.085  67.129  1.00  0.00    -0.003 C 
ATOM      9  C   UNL     1      85.750  76.761  66.875  1.00  0.00     0.004 C 
ENDBRANCH   7   8
ENDBRANCH   6   7
ENDBRANCH   1   6
TORSDOF 5
ENDMDL
MODEL 7
REMARK VINA RESULT:    -3.493      2.137      2.697
REMARK INTER + INTRA:          -4.791
REMARK INTER:                  -4.440
REMARK INTRA:                  -0.351
REMARK UNBOUND:                -0.277
REMARK SMILES CCCCCCC(=O)[O-]
REMARK SMILES IDX 5 1 6 2 7 3 8 4 9 5 4 6 3 7 2 8 1 9
REMARK H PARENT
REMARK Flexibility Score: inf
ROOT
ATOM      1  C   UNL     1      86.373  75.863  66.891  1.00  0.00     0.006 C 
ENDROOT
BRANCH   1   2
ATOM      2  C   UNL     1      87.749  75.243  67.167  1.00  0.00     0.053 C 
BRANCH   2   3
ATOM      3  C   UNL     1      87.638  73.813  67.601  1.00  0.00     0.041 C 
ATOM      4  O   UNL     1      86.884  73.020  66.979  1.00  0.00    -0.550 OA
ATOM      5  O   UNL     1      88.393  73.351  68.672  1.00  0.00    -0.550 OA
ENDBRANCH   2   3
ENDBRANCH   1   2
BRANCH   1   6
ATOM      6  C   UNL     1      86.177  77.196  67.629  1.00  0.00     0.000 C 
BRANCH   6   7
ATOM      7  C   UNL     1      87.006  77.235  68.922  1.00  0.00    -0.000 C 
BRANCH   7   8
ATOM      8  C   UNL     1      86.171  76.910  70.169  1.00  0.00    -0.003 C 
ATOM      9  C   UNL     1      86.690  75.690  70.928  1.00  0.00     0.004 C 
ENDBRANCH   7   8
ENDBRANCH   6   7
ENDBRANCH   1   6
TORSDOF 5
ENDMDL
MODEL 8
REMARK VINA RESULT:    -3.430      1.576      3.025
REMARK INTER + INTRA:          -4.710
REMARK INTER:                  -4.297
REMARK INTRA:                  -0.413
REMARK UNBOUND:                -0.277
REMARK SMILES CCCCCCC(=O)[O-]
REMARK SMILES IDX 5 1 6 2 7 3 8 4 9 5 4 6 3 7 2 8 1 9
REMARK H PARENT
REMARK Flexibility Score: inf
ROOT
ATOM      1  C   UNL     1      87.563  74.469  69.868  1.00  0.00     0.006 C 
ENDROOT
BRANCH   1   2
ATOM      2  C   UNL     1      87.289  74.065  68.413  1.00  0.00     0.053 C 
BRANCH   2   3
ATOM      3  C   UNL     1      87.423  75.227  67.478  1.00  0.00     0.041 C 
ATOM      4  O   UNL     1      86.411  75.675  66.876  1.00  0.00    -0.550 OA
ATOM      5  O   UNL     1      88.658  75.837  67.296  1.00  0.00    -0.550 OA
ENDBRANCH   2   3
ENDBRANCH   1   2
BRANCH   1   6
ATOM      6  C   UNL     1      86.280  74.507  70.712  1.00  0.00     0.000 C 
BRANCH   6   7
ATOM      7  C   UNL     1      85.652  75.909  70.695  1.00  0.00    -0.000 C 
BRANCH   7   8
ATOM      8  C   UNL     1      86.704  77.026  70.618  1.00  0.00    -0.003 C 
ATOM      9  C   UNL     1      86.306  78.147  69.659  1.00  0.00     0.004 C 
ENDBRANCH   7   8
ENDBRANCH   6   7
ENDBRANCH   1   6
TORSDOF 5
ENDMDL
MODEL 9
REMARK VINA RESULT:    -3.341      1.746      2.327
REMARK INTER + INTRA:          -4.594
REMARK INTER:                  -4.409
REMARK INTRA:                  -0.185
REMARK UNBOUND:                -0.277
REMARK SMILES CCCCCCC(=O)[O-]
REMARK SMILES IDX 5 1 6 2 7 3 8 4 9 5 4 6 3 7 2 8 1 9
REMARK H PARENT
REMARK Flexibility Score: inf
ROOT
ATOM      1  C   UNL     1      87.414  74.444  68.790  1.00  0.00     0.006 C 
ENDROOT
BRANCH   1   2
ATOM      2  C   UNL     1      87.080  75.346  67.595  1.00  0.00     0.053 C 
BRANCH   2   3
ATOM      3  C   UNL     1      88.018  76.510  67.496  1.00  0.00     0.041 C 
ATOM      4  O   UNL     1      89.263  76.322  67.495  1.00  0.00    -0.550 OA
ATOM      5  O   UNL     1      87.516  77.799  67.371  1.00  0.00    -0.550 OA
ENDBRANCH   2   3
ENDBRANCH   1   2
BRANCH   1   6
ATOM      6  C   UNL     1      87.241  75.171  70.133  1.00  0.00     0.000 C 
BRANCH   6   7
ATOM      7  C   UNL     1      85.760  75.227  70.539  1.00  0.00    -0.000 C 
BRANCH   7   8
ATOM      8  C   UNL     1      85.442  74.322  71.738  1.00  0.00    -0.003 C 
ATOM      9  C   UNL     1      83.967  73.928  71.807  1.00  0.00     0.004 C 
ENDBRANCH   7   8
ENDBRANCH   6   7
ENDBRANCH   1   6
TORSDOF 5
ENDMDL
