MODEL 1
REMARK VINA RESULT:    -5.139      0.000      0.000
REMARK INTER + INTRA:          -6.904
REMARK INTER:                  -6.641
REMARK INTRA:                  -0.262
REMARK UNBOUND:                -0.262
REMARK SMILES CCO[C@H]1O[C@H](CO)[C@@H](O)[C@H](O)[C@@H]1O
REMARK SMILES IDX 4 1 13 2 11 3 9 4 6 5 5 6 3 7 2 8 1 9 14 10 12 12 7 14 8 15
REMARK SMILES IDX 10 17
REMARK H PARENT 14 11 12 13 8 16 10 18
REMARK Flexibility Score: inf
ROOT
ATOM      1  C   UNL     1    -130.010 109.333  39.969  1.00  0.00     0.281 C 
ATOM      2  C   UNL     1    -129.463 109.162  41.403  1.00  0.00     0.202 C 
ATOM      3  C   UNL     1    -128.497 107.966  41.486  1.00  0.00     0.179 C 
ATOM      4  C   UNL     1    -129.109 106.715  40.821  1.00  0.00     0.177 C 
ATOM      5  C   UNL     1    -129.664 107.071  39.415  1.00  0.00     0.178 C 
ATOM      6  O   UNL     1    -130.606 108.128  39.504  1.00  0.00    -0.341 OA
ENDROOT
BRANCH   1   7
ATOM      7  O   UNL     1    -128.971 109.769  39.107  1.00  0.00    -0.350 OA
BRANCH   7   8
ATOM      8  C   UNL     1    -128.976 111.178  39.009  1.00  0.00     0.160 C 
ATOM      9  C   UNL     1    -127.880 111.613  38.049  1.00  0.00     0.035 C 
ENDBRANCH   7   8
ENDBRANCH   1   7
BRANCH   2  10
ATOM     10  O   UNL     1    -130.510 109.044  42.337  1.00  0.00    -0.385 OA
ATOM     11  H   UNL     1    -131.354 108.883  41.840  1.00  0.00     0.211 HD
ENDBRANCH   2  10
BRANCH   3  12
ATOM     12  O   UNL     1    -128.190 107.702  42.832  1.00  0.00    -0.387 OA
ATOM     13  H   UNL     1    -128.528 106.790  43.030  1.00  0.00     0.211 HD
ENDBRANCH   3  12
BRANCH   5  14
ATOM     14  C   UNL     1    -130.369 105.867  38.774  1.00  0.00     0.191 C 
BRANCH  14  15
ATOM     15  O   UNL     1    -129.546 105.271  37.810  1.00  0.00    -0.394 OA
ATOM     16  H   UNL     1    -128.643 105.214  38.217  1.00  0.00     0.210 HD
ENDBRANCH  14  15
ENDBRANCH   5  14
BRANCH   4  17
ATOM     17  O   UNL     1    -128.156 105.684  40.750  1.00  0.00    -0.387 OA
ATOM     18  H   UNL     1    -128.209 105.285  39.842  1.00  0.00     0.211 HD
ENDBRANCH   4  17
TORSDOF 7
ENDMDL
MODEL 2
REMARK VINA RESULT:    -5.131      1.761      3.817
REMARK INTER + INTRA:          -6.894
REMARK INTER:                  -6.561
REMARK INTRA:                  -0.333
REMARK UNBOUND:                -0.262
REMARK SMILES CCO[C@H]1O[C@H](CO)[C@@H](O)[C@H](O)[C@@H]1O
REMARK SMILES IDX 4 1 13 2 11 3 9 4 6 5 5 6 3 7 2 8 1 9 14 10 12 12 7 14 8 15
REMARK SMILES IDX 10 17
REMARK H PARENT 14 11 12 13 8 16 10 18
REMARK Flexibility Score: inf
ROOT
ATOM      1  C   UNL     1    -129.102 108.478  41.934  1.00  0.00     0.281 C 
ATOM      2  C   UNL     1    -129.630 109.460  40.866  1.00  0.00     0.202 C 
ATOM      3  C   UNL     1    -130.582 108.750  39.886  1.00  0.00     0.179 C 
ATOM      4  C   UNL     1    -129.963 107.432  39.374  1.00  0.00     0.177 C 
ATOM      5  C   UNL     1    -129.429 106.590  40.564  1.00  0.00     0.178 C 
ATOM      6  O   UNL     1    -128.497 107.342  41.327  1.00  0.00    -0.341 OA
ENDROOT
BRANCH   1   7
ATOM      7  O   UNL     1    -130.156 108.105  42.808  1.00  0.00    -0.350 OA
BRANCH   7   8
ATOM      8  C   UNL     1    -130.140 108.914  43.966  1.00  0.00     0.160 C 
ATOM      9  C   UNL     1    -131.272 108.486  44.887  1.00  0.00     0.035 C 
ENDBRANCH   7   8
ENDBRANCH   1   7
BRANCH   2  10
ATOM     10  O   UNL     1    -128.571 110.093  40.188  1.00  0.00    -0.385 OA
ATOM     11  H   UNL     1    -128.898 110.376  39.295  1.00  0.00     0.211 HD
ENDBRANCH   2  10
BRANCH   3  12
ATOM     12  O   UNL     1    -130.870 109.605  38.808  1.00  0.00    -0.387 OA
ATOM     13  H   UNL     1    -131.568 109.156  38.264  1.00  0.00     0.211 HD
ENDBRANCH   3  12
BRANCH   5  14
ATOM     14  C   UNL     1    -128.718 105.321  40.074  1.00  0.00     0.191 C 
BRANCH  14  15
ATOM     15  O   UNL     1    -129.614 104.245  40.021  1.00  0.00    -0.394 OA
ATOM     16  H   UNL     1    -129.112 103.489  39.621  1.00  0.00     0.210 HD
ENDBRANCH  14  15
ENDBRANCH   5  14
BRANCH   4  17
ATOM     17  O   UNL     1    -130.906 106.711  38.619  1.00  0.00    -0.387 OA
ATOM     18  H   UNL     1    -130.430 106.305  37.848  1.00  0.00     0.211 HD
ENDBRANCH   4  17
TORSDOF 7
ENDMDL
MODEL 3
REMARK VINA RESULT:    -4.908      7.157      9.028
REMARK INTER + INTRA:          -6.605
REMARK INTER:                  -6.407
REMARK INTRA:                  -0.198
REMARK UNBOUND:                -0.262
REMARK SMILES CCO[C@H]1O[C@H](CO)[C@@H](O)[C@H](O)[C@@H]1O
REMARK SMILES IDX 4 1 13 2 11 3 9 4 6 5 5 6 3 7 2 8 1 9 14 10 12 12 7 14 8 15
REMARK SMILES IDX 10 17
REMARK H PARENT 14 11 12 13 8 16 10 18
REMARK Flexibility Score: inf
ROOT
ATOM      1  C   UNL     1    -129.556 116.108  45.327  1.00  0.00     0.281 C 
ATOM      2  C   UNL     1    -129.745 116.945  44.044  1.00  0.00     0.202 C 
ATOM      3  C   UNL     1    -130.411 116.109  42.933  1.00  0.00     0.179 C 
ATOM      4  C   UNL     1    -129.710 114.744  42.776  1.00  0.00     0.177 C 
ATOM      5  C   UNL     1    -129.545 114.062  44.161  1.00  0.00     0.178 C 
ATOM      6  O   UNL     1    -128.838 114.910  45.053  1.00  0.00    -0.341 OA
ENDROOT
BRANCH   1   7
ATOM      7  O   UNL     1    -130.818 115.837  45.916  1.00  0.00    -0.350 OA
BRANCH   7   8
ATOM      8  C   UNL     1    -130.932 116.505  47.156  1.00  0.00     0.160 C 
ATOM      9  C   UNL     1    -131.294 117.960  46.906  1.00  0.00     0.035 C 
ENDBRANCH   7   8
ENDBRANCH   1   7
BRANCH   2  10
ATOM     10  O   UNL     1    -128.525 117.497  43.611  1.00  0.00    -0.385 OA
ATOM     11  H   UNL     1    -127.826 117.269  44.277  1.00  0.00     0.211 HD
ENDBRANCH   2  10
BRANCH   3  12
ATOM     12  O   UNL     1    -130.370 116.821  41.722  1.00  0.00    -0.387 OA
ATOM     13  H   UNL     1    -130.262 117.779  41.955  1.00  0.00     0.211 HD
ENDBRANCH   3  12
BRANCH   5  14
ATOM     14  C   UNL     1    -128.760 112.747  44.045  1.00  0.00     0.191 C 
BRANCH  14  15
ATOM     15  O   UNL     1    -129.468 111.819  43.270  1.00  0.00    -0.394 OA
ATOM     16  H   UNL     1    -128.890 111.612  42.491  1.00  0.00     0.210 HD
ENDBRANCH  14  15
ENDBRANCH   5  14
BRANCH   4  17
ATOM     17  O   UNL     1    -130.429 113.927  41.885  1.00  0.00    -0.387 OA
ATOM     18  H   UNL     1    -130.271 112.982  42.148  1.00  0.00     0.211 HD
ENDBRANCH   4  17
TORSDOF 7
ENDMDL
MODEL 4
REMARK VINA RESULT:    -4.595     14.518     16.519
REMARK INTER + INTRA:          -6.200
REMARK INTER:                  -6.026
REMARK INTRA:                  -0.174
REMARK UNBOUND:                -0.262
REMARK SMILES CCO[C@H]1O[C@H](CO)[C@@H](O)[C@H](O)[C@@H]1O
REMARK SMILES IDX 4 1 13 2 11 3 9 4 6 5 5 6 3 7 2 8 1 9 14 10 12 12 7 14 8 15
REMARK SMILES IDX 10 17
REMARK H PARENT 14 11 12 13 8 16 10 18
REMARK Flexibility Score: inf
ROOT
ATOM      1  C   UNL     1    -143.299 101.732  33.916  1.00  0.00     0.281 C 
ATOM      2  C   UNL     1    -143.576 102.478  32.593  1.00  0.00     0.202 C 
ATOM      3  C   UNL     1    -142.789 103.801  32.530  1.00  0.00     0.179 C 
ATOM      4  C   UNL     1    -142.962 104.608  33.833  1.00  0.00     0.177 C 
ATOM      5  C   UNL     1    -142.707 103.700  35.066  1.00  0.00     0.178 C 
ATOM      6  O   UNL     1    -143.563 102.568  35.037  1.00  0.00    -0.341 OA
ENDROOT
BRANCH   1   7
ATOM      7  O   UNL     1    -141.965 101.250  33.926  1.00  0.00    -0.350 OA
BRANCH   7   8
ATOM      8  C   UNL     1    -141.954  99.841  33.819  1.00  0.00     0.160 C 
ATOM      9  C   UNL     1    -142.730  99.248  34.984  1.00  0.00     0.035 C 
ENDBRANCH   7   8
ENDBRANCH   1   7
BRANCH   2  10
ATOM     10  O   UNL     1    -144.956 102.691  32.407  1.00  0.00    -0.385 OA
ATOM     11  H   UNL     1    -145.071 103.441  31.769  1.00  0.00     0.211 HD
ENDBRANCH   2  10
BRANCH   3  12
ATOM     12  O   UNL     1    -143.225 104.555  31.427  1.00  0.00    -0.387 OA
ATOM     13  H   UNL     1    -142.926 104.072  30.613  1.00  0.00     0.211 HD
ENDBRANCH   3  12
BRANCH   5  14
ATOM     14  C   UNL     1    -142.972 104.454  36.377  1.00  0.00     0.191 C 
BRANCH  14  15
ATOM     15  O   UNL     1    -142.257 105.658  36.406  1.00  0.00    -0.394 OA
ATOM     16  H   UNL     1    -142.169 105.948  35.461  1.00  0.00     0.210 HD
ENDBRANCH  14  15
ENDBRANCH   5  14
BRANCH   4  17
ATOM     17  O   UNL     1    -142.107 105.724  33.833  1.00  0.00    -0.387 OA
ATOM     18  H   UNL     1    -141.576 105.699  32.993  1.00  0.00     0.211 HD
ENDBRANCH   4  17
TORSDOF 7
ENDMDL
MODEL 5
REMARK VINA RESULT:    -4.148      1.373      2.312
REMARK INTER + INTRA:          -5.623
REMARK INTER:                  -5.724
REMARK INTRA:                   0.102
REMARK UNBOUND:                -0.262
REMARK SMILES CCO[C@H]1O[C@H](CO)[C@@H](O)[C@H](O)[C@@H]1O
REMARK SMILES IDX 4 1 13 2 11 3 9 4 6 5 5 6 3 7 2 8 1 9 14 10 12 12 7 14 8 15
REMARK SMILES IDX 10 17
REMARK H PARENT 14 11 12 13 8 16 10 18
REMARK Flexibility Score: inf
ROOT
ATOM      1  C   UNL     1    -129.485 109.535  40.780  1.00  0.00     0.281 C 
ATOM      2  C   UNL     1    -128.982 108.197  41.364  1.00  0.00     0.202 C 
ATOM      3  C   UNL     1    -128.998 107.088  40.295  1.00  0.00     0.179 C 
ATOM      4  C   UNL     1    -130.349 107.058  39.551  1.00  0.00     0.177 C 
ATOM      5  C   UNL     1    -130.737 108.487  39.083  1.00  0.00     0.178 C 
ATOM      6  O   UNL     1    -130.769 109.381  40.185  1.00  0.00    -0.341 OA
ENDROOT
BRANCH   1   7
ATOM      7  O   UNL     1    -128.538 110.043  39.855  1.00  0.00    -0.350 OA
BRANCH   7   8
ATOM      8  C   UNL     1    -129.036 111.211  39.237  1.00  0.00     0.160 C 
ATOM      9  C   UNL     1    -128.082 111.635  38.131  1.00  0.00     0.035 C 
ENDBRANCH   7   8
ENDBRANCH   1   7
BRANCH   2  10
ATOM     10  O   UNL     1    -129.725 107.826  42.501  1.00  0.00    -0.385 OA
ATOM     11  H   UNL     1    -130.435 108.504  42.644  1.00  0.00     0.211 HD
ENDBRANCH   2  10
BRANCH   3  12
ATOM     12  O   UNL     1    -128.748 105.846  40.903  1.00  0.00    -0.387 OA
ATOM     13  H   UNL     1    -128.107 106.012  41.642  1.00  0.00     0.211 HD
ENDBRANCH   3  12
BRANCH   5  14
ATOM     14  C   UNL     1    -132.126 108.501  38.428  1.00  0.00     0.191 C 
BRANCH  14  15
ATOM     15  O   UNL     1    -132.833 109.652  38.801  1.00  0.00    -0.394 OA
ATOM     16  H   UNL     1    -132.862 110.230  37.995  1.00  0.00     0.210 HD
ENDBRANCH  14  15
ENDBRANCH   5  14
BRANCH   4  17
ATOM     17  O   UNL     1    -130.290 106.163  38.468  1.00  0.00    -0.387 OA
ATOM     18  H   UNL     1    -129.806 106.616  37.727  1.00  0.00     0.211 HD
ENDBRANCH   4  17
TORSDOF 7
ENDMDL
MODEL 6
REMARK VINA RESULT:    -4.042     15.478     17.122
REMARK INTER + INTRA:          -5.486
REMARK INTER:                  -5.078
REMARK INTRA:                  -0.408
REMARK UNBOUND:                -0.262
REMARK SMILES CCO[C@H]1O[C@H](CO)[C@@H](O)[C@H](O)[C@@H]1O
REMARK SMILES IDX 4 1 13 2 11 3 9 4 6 5 5 6 3 7 2 8 1 9 14 10 12 12 7 14 8 15
REMARK SMILES IDX 10 17
REMARK H PARENT 14 11 12 13 8 16 10 18
REMARK Flexibility Score: inf
ROOT
ATOM      1  C   UNL     1    -142.222 100.060  34.627  1.00  0.00     0.281 C 
ATOM      2  C   UNL     1    -142.989  99.353  33.489  1.00  0.00     0.202 C 
ATOM      3  C   UNL     1    -143.071 100.250  32.239  1.00  0.00     0.179 C 
ATOM      4  C   UNL     1    -143.536 101.673  32.612  1.00  0.00     0.177 C 
ATOM      5  C   UNL     1    -142.706 102.214  33.808  1.00  0.00     0.178 C 
ATOM      6  O   UNL     1    -142.794 101.330  34.915  1.00  0.00    -0.341 OA
ENDROOT
BRANCH   1   7
ATOM      7  O   UNL     1    -140.849 100.171  34.287  1.00  0.00    -0.350 OA
BRANCH   7   8
ATOM      8  C   UNL     1    -140.272  98.887  34.158  1.00  0.00     0.160 C 
ATOM      9  C   UNL     1    -139.302  98.893  32.988  1.00  0.00     0.035 C 
ENDBRANCH   7   8
ENDBRANCH   1   7
BRANCH   2  10
ATOM     10  O   UNL     1    -144.267  98.943  33.913  1.00  0.00    -0.385 OA
ATOM     11  H   UNL     1    -144.318  99.054  34.898  1.00  0.00     0.211 HD
ENDBRANCH   2  10
BRANCH   3  12
ATOM     12  O   UNL     1    -143.953  99.677  31.307  1.00  0.00    -0.387 OA
ATOM     13  H   UNL     1    -144.166  98.765  31.636  1.00  0.00     0.211 HD
ENDBRANCH   3  12
BRANCH   5  14
ATOM     14  C   UNL     1    -143.216 103.588  34.264  1.00  0.00     0.191 C 
BRANCH  14  15
ATOM     15  O   UNL     1    -142.773 104.591  33.392  1.00  0.00    -0.394 OA
ATOM     16  H   UNL     1    -142.944 104.254  32.475  1.00  0.00     0.210 HD
ENDBRANCH  14  15
ENDBRANCH   5  14
BRANCH   4  17
ATOM     17  O   UNL     1    -143.441 102.525  31.497  1.00  0.00    -0.387 OA
ATOM     18  H   UNL     1    -144.233 103.125  31.507  1.00  0.00     0.211 HD
ENDBRANCH   4  17
TORSDOF 7
ENDMDL
MODEL 7
REMARK VINA RESULT:    -3.954     14.693     16.616
REMARK INTER + INTRA:          -5.372
REMARK INTER:                  -5.030
REMARK INTRA:                  -0.342
REMARK UNBOUND:                -0.262
REMARK SMILES CCO[C@H]1O[C@H](CO)[C@@H](O)[C@H](O)[C@@H]1O
REMARK SMILES IDX 4 1 13 2 11 3 9 4 6 5 5 6 3 7 2 8 1 9 14 10 12 12 7 14 8 15
REMARK SMILES IDX 10 17
REMARK H PARENT 14 11 12 13 8 16 10 18
REMARK Flexibility Score: inf
ROOT
ATOM      1  C   UNL     1    -143.369 102.250  34.337  1.00  0.00     0.281 C 
ATOM      2  C   UNL     1    -143.158 101.066  35.305  1.00  0.00     0.202 C 
ATOM      3  C   UNL     1    -142.184 100.033  34.710  1.00  0.00     0.179 C 
ATOM      4  C   UNL     1    -142.571  99.683  33.258  1.00  0.00     0.177 C 
ATOM      5  C   UNL     1    -142.804 100.980  32.436  1.00  0.00     0.178 C 
ATOM      6  O   UNL     1    -143.788 101.792  33.056  1.00  0.00    -0.341 OA
ENDROOT
BRANCH   1   7
ATOM      7  O   UNL     1    -142.181 103.021  34.253  1.00  0.00    -0.350 OA
BRANCH   7   8
ATOM      8  C   UNL     1    -142.491 104.366  33.956  1.00  0.00     0.160 C 
ATOM      9  C   UNL     1    -142.105 105.239  35.139  1.00  0.00     0.035 C 
ENDBRANCH   7   8
ENDBRANCH   1   7
BRANCH   2  10
ATOM     10  O   UNL     1    -144.385 100.473  35.659  1.00  0.00    -0.385 OA
ATOM     11  H   UNL     1    -145.074 100.773  35.011  1.00  0.00     0.211 HD
ENDBRANCH   2  10
BRANCH   3  12
ATOM     12  O   UNL     1    -142.182  98.875  35.506  1.00  0.00    -0.387 OA
ATOM     13  H   UNL     1    -142.832  99.030  36.240  1.00  0.00     0.211 HD
ENDBRANCH   3  12
BRANCH   5  14
ATOM     14  C   UNL     1    -143.289 100.659  31.015  1.00  0.00     0.191 C 
BRANCH  14  15
ATOM     15  O   UNL     1    -143.685  99.319  30.921  1.00  0.00    -0.394 OA
ATOM     16  H   UNL     1    -144.274  99.261  30.124  1.00  0.00     0.210 HD
ENDBRANCH  14  15
ENDBRANCH   5  14
BRANCH   4  17
ATOM     17  O   UNL     1    -141.580  98.876  32.670  1.00  0.00    -0.387 OA
ATOM     18  H   UNL     1    -141.209  99.370  31.892  1.00  0.00     0.211 HD
ENDBRANCH   4  17
TORSDOF 7
ENDMDL
MODEL 8
REMARK VINA RESULT:    -3.793      1.983      4.627
REMARK INTER + INTRA:          -5.164
REMARK INTER:                  -4.987
REMARK INTRA:                  -0.178
REMARK UNBOUND:                -0.262
REMARK SMILES CCO[C@H]1O[C@H](CO)[C@@H](O)[C@H](O)[C@@H]1O
REMARK SMILES IDX 4 1 13 2 11 3 9 4 6 5 5 6 3 7 2 8 1 9 14 10 12 12 7 14 8 15
REMARK SMILES IDX 10 17
REMARK H PARENT 14 11 12 13 8 16 10 18
REMARK Flexibility Score: inf
ROOT
ATOM      1  C   UNL     1    -129.802 107.246  41.024  1.00  0.00     0.281 C 
ATOM      2  C   UNL     1    -129.760 108.486  40.106  1.00  0.00     0.202 C 
ATOM      3  C   UNL     1    -129.135 109.691  40.836  1.00  0.00     0.179 C 
ATOM      4  C   UNL     1    -129.766 109.879  42.231  1.00  0.00     0.177 C 
ATOM      5  C   UNL     1    -129.785 108.529  42.999  1.00  0.00     0.178 C 
ATOM      6  O   UNL     1    -130.469 107.538  42.247  1.00  0.00    -0.341 OA
ENDROOT
BRANCH   1   7
ATOM      7  O   UNL     1    -128.485 106.768  41.248  1.00  0.00    -0.350 OA
BRANCH   7   8
ATOM      8  C   UNL     1    -128.230 105.640  40.438  1.00  0.00     0.160 C 
ATOM      9  C   UNL     1    -129.521 104.858  40.253  1.00  0.00     0.035 C 
ENDBRANCH   7   8
ENDBRANCH   1   7
BRANCH   2  10
ATOM     10  O   UNL     1    -131.040 108.795  39.607  1.00  0.00    -0.385 OA
ATOM     11  H   UNL     1    -131.395 109.568  40.119  1.00  0.00     0.211 HD
ENDBRANCH   2  10
BRANCH   3  12
ATOM     12  O   UNL     1    -129.309 110.851  40.061  1.00  0.00    -0.387 OA
ATOM     13  H   UNL     1    -128.597 110.845  39.370  1.00  0.00     0.211 HD
ENDBRANCH   3  12
BRANCH   5  14
ATOM     14  C   UNL     1    -130.500 108.667  44.350  1.00  0.00     0.191 C 
BRANCH  14  15
ATOM     15  O   UNL     1    -131.658 107.879  44.377  1.00  0.00    -0.394 OA
ATOM     16  H   UNL     1    -131.735 107.535  45.304  1.00  0.00     0.210 HD
ENDBRANCH  14  15
ENDBRANCH   5  14
BRANCH   4  17
ATOM     17  O   UNL     1    -129.072 110.867  42.951  1.00  0.00    -0.387 OA
ATOM     18  H   UNL     1    -128.104 110.763  42.752  1.00  0.00     0.211 HD
ENDBRANCH   4  17
TORSDOF 7
ENDMDL
MODEL 9
REMARK VINA RESULT:    -3.658     15.963     17.290
REMARK INTER + INTRA:          -4.989
REMARK INTER:                  -5.389
REMARK INTRA:                   0.400
REMARK UNBOUND:                -0.262
REMARK SMILES CCO[C@H]1O[C@H](CO)[C@@H](O)[C@H](O)[C@@H]1O
REMARK SMILES IDX 4 1 13 2 11 3 9 4 6 5 5 6 3 7 2 8 1 9 14 10 12 12 7 14 8 15
REMARK SMILES IDX 10 17
REMARK H PARENT 14 11 12 13 8 16 10 18
REMARK Flexibility Score: inf
ROOT
ATOM      1  C   UNL     1    -142.725 100.994  35.084  1.00  0.00     0.281 C 
ATOM      2  C   UNL     1    -143.354 102.182  34.324  1.00  0.00     0.202 C 
ATOM      3  C   UNL     1    -143.988 101.717  33.000  1.00  0.00     0.179 C 
ATOM      4  C   UNL     1    -143.013 100.822  32.207  1.00  0.00     0.177 C 
ATOM      5  C   UNL     1    -142.427  99.717  33.127  1.00  0.00     0.178 C 
ATOM      6  O   UNL     1    -141.798 100.296  34.260  1.00  0.00    -0.341 OA
ENDROOT
BRANCH   1   7
ATOM      7  O   UNL     1    -143.747 100.134  35.564  1.00  0.00    -0.350 OA
BRANCH   7   8
ATOM      8  C   UNL     1    -143.204  98.879  35.917  1.00  0.00     0.160 C 
ATOM      9  C   UNL     1    -142.888  98.875  37.404  1.00  0.00     0.035 C 
ENDBRANCH   7   8
ENDBRANCH   1   7
BRANCH   2  10
ATOM     10  O   UNL     1    -142.412 103.207  34.112  1.00  0.00    -0.385 OA
ATOM     11  H   UNL     1    -141.668 102.837  33.569  1.00  0.00     0.211 HD
ENDBRANCH   2  10
BRANCH   3  12
ATOM     12  O   UNL     1    -144.353 102.838  32.235  1.00  0.00    -0.387 OA
ATOM     13  H   UNL     1    -145.247 103.125  32.555  1.00  0.00     0.211 HD
ENDBRANCH   3  12
BRANCH   5  14
ATOM     14  C   UNL     1    -141.377  98.875  32.388  1.00  0.00     0.191 C 
BRANCH  14  15
ATOM     15  O   UNL     1    -141.427  99.125  31.011  1.00  0.00    -0.394 OA
ATOM     16  H   UNL     1    -140.626  98.686  30.622  1.00  0.00     0.210 HD
ENDBRANCH  14  15
ENDBRANCH   5  14
BRANCH   4  17
ATOM     17  O   UNL     1    -143.661 100.266  31.089  1.00  0.00    -0.387 OA
ATOM     18  H   UNL     1    -144.068  99.404  31.373  1.00  0.00     0.211 HD
ENDBRANCH   4  17
TORSDOF 7
ENDMDL
