MODEL 1
REMARK VINA RESULT:    -5.958      0.000      0.000
REMARK INTER + INTRA:          -6.603
REMARK INTER:                  -6.307
REMARK INTRA:                  -0.297
REMARK UNBOUND:                -0.297
REMARK SMILES CC1=CC[C@@H]2[C@H]3[C@@H](C(C)C)CC[C@]2(C)[C@@H]13
REMARK SMILES IDX 1 1 2 2 3 3 4 4 5 5 6 6 15 7 13 8 12 9 11 10 7 11 14 12 8 13
REMARK SMILES IDX 9 14 10 15
REMARK H PARENT
REMARK Flexibility Score: inf
ROOT
ATOM      1  C   UNL     1      -4.393   5.386  12.193  1.00  0.00     0.039 C 
ATOM      2  C   UNL     1      -2.987   4.896  12.357  1.00  0.00    -0.073 C 
ATOM      3  C   UNL     1      -2.022   5.147  11.430  1.00  0.00    -0.027 C 
ATOM      4  C   UNL     1      -0.615   4.583  11.658  1.00  0.00     0.031 C 
ATOM      5  C   UNL     1      -0.575   3.725  12.964  1.00  0.00     0.003 C 
ATOM      6  C   UNL     1      -1.820   2.802  12.956  1.00  0.00     0.004 C 
ATOM      7  C   UNL     1      -2.599   4.003  13.540  1.00  0.00     0.024 C 
ATOM      8  C   UNL     1      -1.255   4.468  14.145  1.00  0.00    -0.022 C 
ATOM      9  C   UNL     1      -1.022   3.709  15.483  1.00  0.00     0.008 C 
ATOM     10  C   UNL     1      -0.948   2.174  15.289  1.00  0.00     0.005 C 
ATOM     11  C   UNL     1      -1.717   1.665  14.023  1.00  0.00    -0.005 C 
ATOM     12  C   UNL     1      -1.000   5.985  14.318  1.00  0.00     0.012 C 
ENDROOT
BRANCH  11  13
ATOM     13  C   UNL     1      -1.076   0.359  13.454  1.00  0.00    -0.014 C 
ATOM     14  C   UNL     1      -1.266   0.226  11.931  1.00  0.00     0.007 C 
ATOM     15  C   UNL     1      -1.662  -0.891  14.137  1.00  0.00     0.007 C 
ENDBRANCH  11  13
TORSDOF 1
ENDMDL
MODEL 2
REMARK VINA RESULT:    -5.609      1.369      3.097
REMARK INTER + INTRA:          -6.234
REMARK INTER:                  -6.087
REMARK INTRA:                  -0.147
REMARK UNBOUND:                -0.297
REMARK SMILES CC1=CC[C@@H]2[C@H]3[C@@H](C(C)C)CC[C@]2(C)[C@@H]13
REMARK SMILES IDX 1 1 2 2 3 3 4 4 5 5 6 6 15 7 13 8 12 9 11 10 7 11 14 12 8 13
REMARK SMILES IDX 9 14 10 15
REMARK H PARENT
REMARK Flexibility Score: inf
ROOT
ATOM      1  C   UNL     1       1.327   6.325  13.372  1.00  0.00     0.039 C 
ATOM      2  C   UNL     1       0.040   5.605  13.107  1.00  0.00    -0.073 C 
ATOM      3  C   UNL     1      -1.169   6.216  13.241  1.00  0.00    -0.027 C 
ATOM      4  C   UNL     1      -2.441   5.400  12.983  1.00  0.00     0.031 C 
ATOM      5  C   UNL     1      -2.080   3.915  12.651  1.00  0.00     0.003 C 
ATOM      6  C   UNL     1      -1.021   3.449  13.684  1.00  0.00     0.004 C 
ATOM      7  C   UNL     1       0.030   4.112  12.765  1.00  0.00     0.024 C 
ATOM      8  C   UNL     1      -0.944   3.835  11.598  1.00  0.00    -0.022 C 
ATOM      9  C   UNL     1      -0.739   2.370  11.115  1.00  0.00     0.008 C 
ATOM     10  C   UNL     1      -1.028   1.333  12.229  1.00  0.00     0.005 C 
ATOM     11  C   UNL     1      -0.834   1.898  13.677  1.00  0.00    -0.005 C 
ATOM     12  C   UNL     1      -0.968   4.814  10.399  1.00  0.00     0.012 C 
ENDROOT
BRANCH  11  13
ATOM     13  C   UNL     1      -1.763   1.172  14.701  1.00  0.00    -0.014 C 
ATOM     14  C   UNL     1      -2.422  -0.087  14.109  1.00  0.00     0.007 C 
ATOM     15  C   UNL     1      -2.869   2.115  15.213  1.00  0.00     0.007 C 
ENDBRANCH  11  13
TORSDOF 1
ENDMDL
MODEL 3
REMARK VINA RESULT:    -5.409      1.339      4.442
REMARK INTER + INTRA:          -6.022
REMARK INTER:                  -5.787
REMARK INTRA:                  -0.235
REMARK UNBOUND:                -0.297
REMARK SMILES CC1=CC[C@@H]2[C@H]3[C@@H](C(C)C)CC[C@]2(C)[C@@H]13
REMARK SMILES IDX 1 1 2 2 3 3 4 4 5 5 6 6 15 7 13 8 12 9 11 10 7 11 14 12 8 13
REMARK SMILES IDX 9 14 10 15
REMARK H PARENT
REMARK Flexibility Score: inf
ROOT
ATOM      1  C   UNL     1      -1.293  -0.520  13.162  1.00  0.00     0.039 C 
ATOM      2  C   UNL     1      -1.600   0.883  13.588  1.00  0.00    -0.073 C 
ATOM      3  C   UNL     1      -2.569   1.163  14.503  1.00  0.00    -0.027 C 
ATOM      4  C   UNL     1      -2.844   2.627  14.862  1.00  0.00     0.031 C 
ATOM      5  C   UNL     1      -1.940   3.578  14.011  1.00  0.00     0.003 C 
ATOM      6  C   UNL     1      -1.996   3.086  12.542  1.00  0.00     0.004 C 
ATOM      7  C   UNL     1      -0.895   2.075  12.936  1.00  0.00     0.024 C 
ATOM      8  C   UNL     1      -0.464   3.098  14.011  1.00  0.00    -0.022 C 
ATOM      9  C   UNL     1       0.462   4.158  13.347  1.00  0.00     0.008 C 
ATOM     10  C   UNL     1      -0.247   4.936  12.211  1.00  0.00     0.005 C 
ATOM     11  C   UNL     1      -1.420   4.142  11.544  1.00  0.00    -0.005 C 
ATOM     12  C   UNL     1       0.151   2.577  15.332  1.00  0.00     0.012 C 
ENDROOT
BRANCH  11  13
ATOM     13  C   UNL     1      -2.515   5.104  10.984  1.00  0.00    -0.014 C 
ATOM     14  C   UNL     1      -3.632   4.352  10.237  1.00  0.00     0.007 C 
ATOM     15  C   UNL     1      -1.902   6.150  10.033  1.00  0.00     0.007 C 
ENDBRANCH  11  13
TORSDOF 1
ENDMDL
MODEL 4
REMARK VINA RESULT:    -5.363      1.533      4.727
REMARK INTER + INTRA:          -5.973
REMARK INTER:                  -5.550
REMARK INTRA:                  -0.423
REMARK UNBOUND:                -0.297
REMARK SMILES CC1=CC[C@@H]2[C@H]3[C@@H](C(C)C)CC[C@]2(C)[C@@H]13
REMARK SMILES IDX 1 1 2 2 3 3 4 4 5 5 6 6 15 7 13 8 12 9 11 10 7 11 14 12 8 13
REMARK SMILES IDX 9 14 10 15
REMARK H PARENT
REMARK Flexibility Score: inf
ROOT
ATOM      1  C   UNL     1      -3.173   2.124  15.246  1.00  0.00     0.039 C 
ATOM      2  C   UNL     1      -1.953   2.566  14.497  1.00  0.00    -0.073 C 
ATOM      3  C   UNL     1      -0.698   2.389  14.994  1.00  0.00    -0.027 C 
ATOM      4  C   UNL     1       0.497   2.898  14.180  1.00  0.00     0.031 C 
ATOM      5  C   UNL     1       0.007   3.620  12.882  1.00  0.00     0.003 C 
ATOM      6  C   UNL     1      -1.155   4.565  13.283  1.00  0.00     0.004 C 
ATOM      7  C   UNL     1      -2.075   3.328  13.174  1.00  0.00     0.024 C 
ATOM      8  C   UNL     1      -1.065   2.777  12.142  1.00  0.00    -0.022 C 
ATOM      9  C   UNL     1      -1.389   3.393  10.750  1.00  0.00     0.008 C 
ATOM     10  C   UNL     1      -1.276   4.938  10.745  1.00  0.00     0.005 C 
ATOM     11  C   UNL     1      -1.499   5.587  12.152  1.00  0.00    -0.005 C 
ATOM     12  C   UNL     1      -0.868   1.245  12.036  1.00  0.00     0.012 C 
ENDROOT
BRANCH  11  13
ATOM     13  C   UNL     1      -0.713   6.930  12.292  1.00  0.00    -0.014 C 
ATOM     14  C   UNL     1       0.479   7.018  11.321  1.00  0.00     0.007 C 
ATOM     15  C   UNL     1      -0.194   7.123  13.730  1.00  0.00     0.007 C 
ENDBRANCH  11  13
TORSDOF 1
ENDMDL
MODEL 5
REMARK VINA RESULT:    -5.231      1.226      2.244
REMARK INTER + INTRA:          -5.833
REMARK INTER:                  -5.461
REMARK INTRA:                  -0.372
REMARK UNBOUND:                -0.297
REMARK SMILES CC1=CC[C@@H]2[C@H]3[C@@H](C(C)C)CC[C@]2(C)[C@@H]13
REMARK SMILES IDX 1 1 2 2 3 3 4 4 5 5 6 6 15 7 13 8 12 9 11 10 7 11 14 12 8 13
REMARK SMILES IDX 9 14 10 15
REMARK H PARENT
REMARK Flexibility Score: inf
ROOT
ATOM      1  C   UNL     1      -5.228   5.107  11.328  1.00  0.00     0.039 C 
ATOM      2  C   UNL     1      -3.750   4.926  11.492  1.00  0.00    -0.073 C 
ATOM      3  C   UNL     1      -2.958   4.498  10.471  1.00  0.00    -0.027 C 
ATOM      4  C   UNL     1      -1.459   4.309  10.729  1.00  0.00     0.031 C 
ATOM      5  C   UNL     1      -1.119   4.607  12.226  1.00  0.00     0.003 C 
ATOM      6  C   UNL     1      -2.183   3.892  13.098  1.00  0.00     0.004 C 
ATOM      7  C   UNL     1      -3.079   5.127  12.854  1.00  0.00     0.024 C 
ATOM      8  C   UNL     1      -1.771   5.935  12.695  1.00  0.00    -0.022 C 
ATOM      9  C   UNL     1      -1.258   6.334  14.109  1.00  0.00     0.008 C 
ATOM     10  C   UNL     1      -0.949   5.103  14.997  1.00  0.00     0.005 C 
ATOM     11  C   UNL     1      -1.763   3.825  14.602  1.00  0.00    -0.005 C 
ATOM     12  C   UNL     1      -1.759   7.152  11.739  1.00  0.00     0.012 C 
ENDROOT
BRANCH  11  13
ATOM     13  C   UNL     1      -0.982   2.519  14.954  1.00  0.00    -0.014 C 
ATOM     14  C   UNL     1       0.525   2.638  14.661  1.00  0.00     0.007 C 
ATOM     15  C   UNL     1      -1.544   1.311  14.182  1.00  0.00     0.007 C 
ENDBRANCH  11  13
TORSDOF 1
ENDMDL
MODEL 6
REMARK VINA RESULT:    -5.027      1.713      4.901
REMARK INTER + INTRA:          -5.618
REMARK INTER:                  -5.192
REMARK INTRA:                  -0.426
REMARK UNBOUND:                -0.297
REMARK SMILES CC1=CC[C@@H]2[C@H]3[C@@H](C(C)C)CC[C@]2(C)[C@@H]13
REMARK SMILES IDX 1 1 2 2 3 3 4 4 5 5 6 6 15 7 13 8 12 9 11 10 7 11 14 12 8 13
REMARK SMILES IDX 9 14 10 15
REMARK H PARENT
REMARK Flexibility Score: inf
ROOT
ATOM      1  C   UNL     1      -2.944   2.128  15.042  1.00  0.00     0.039 C 
ATOM      2  C   UNL     1      -1.970   3.116  14.476  1.00  0.00    -0.073 C 
ATOM      3  C   UNL     1      -0.935   3.610  15.210  1.00  0.00    -0.027 C 
ATOM      4  C   UNL     1      -0.001   4.642  14.568  1.00  0.00     0.031 C 
ATOM      5  C   UNL     1      -0.484   4.992  13.122  1.00  0.00     0.003 C 
ATOM      6  C   UNL     1      -2.016   5.222  13.184  1.00  0.00     0.004 C 
ATOM      7  C   UNL     1      -2.157   3.687  13.067  1.00  0.00     0.024 C 
ATOM      8  C   UNL     1      -0.808   3.709  12.313  1.00  0.00    -0.022 C 
ATOM      9  C   UNL     1      -1.079   4.051  10.819  1.00  0.00     0.008 C 
ATOM     10  C   UNL     1      -1.744   5.438  10.640  1.00  0.00     0.005 C 
ATOM     11  C   UNL     1      -2.561   5.908  11.890  1.00  0.00    -0.005 C 
ATOM     12  C   UNL     1       0.135   2.488  12.438  1.00  0.00     0.012 C 
ENDROOT
BRANCH  11  13
ATOM     13  C   UNL     1      -2.592   7.466  11.999  1.00  0.00    -0.014 C 
ATOM     14  C   UNL     1      -1.330   8.122  11.408  1.00  0.00     0.007 C 
ATOM     15  C   UNL     1      -2.744   7.917  13.464  1.00  0.00     0.007 C 
ENDBRANCH  11  13
TORSDOF 1
ENDMDL
MODEL 7
REMARK VINA RESULT:    -5.026      2.077      4.680
REMARK INTER + INTRA:          -5.616
REMARK INTER:                  -5.338
REMARK INTRA:                  -0.278
REMARK UNBOUND:                -0.297
REMARK SMILES CC1=CC[C@@H]2[C@H]3[C@@H](C(C)C)CC[C@]2(C)[C@@H]13
REMARK SMILES IDX 1 1 2 2 3 3 4 4 5 5 6 6 15 7 13 8 12 9 11 10 7 11 14 12 8 13
REMARK SMILES IDX 9 14 10 15
REMARK H PARENT
REMARK Flexibility Score: inf
ROOT
ATOM      1  C   UNL     1      -1.508   1.194  14.881  1.00  0.00     0.039 C 
ATOM      2  C   UNL     1      -1.051   2.254  13.926  1.00  0.00    -0.073 C 
ATOM      3  C   UNL     1      -0.740   1.973  12.631  1.00  0.00    -0.027 C 
ATOM      4  C   UNL     1      -0.250   3.109  11.726  1.00  0.00     0.031 C 
ATOM      5  C   UNL     1      -0.139   4.443  12.534  1.00  0.00     0.003 C 
ATOM      6  C   UNL     1       0.569   4.120  13.875  1.00  0.00     0.004 C 
ATOM      7  C   UNL     1      -0.821   3.693  14.399  1.00  0.00     0.024 C 
ATOM      8  C   UNL     1      -1.414   4.694  13.382  1.00  0.00    -0.022 C 
ATOM      9  C   UNL     1      -1.389   6.117  14.011  1.00  0.00     0.008 C 
ATOM     10  C   UNL     1       0.045   6.587  14.357  1.00  0.00     0.005 C 
ATOM     11  C   UNL     1       1.045   5.411  14.616  1.00  0.00    -0.005 C 
ATOM     12  C   UNL     1      -2.797   4.390  12.756  1.00  0.00     0.012 C 
ENDROOT
BRANCH  11  13
ATOM     13  C   UNL     1       2.509   5.814  14.248  1.00  0.00    -0.014 C 
ATOM     14  C   UNL     1       3.380   6.067  15.493  1.00  0.00     0.007 C 
ATOM     15  C   UNL     1       2.532   7.075  13.364  1.00  0.00     0.007 C 
ENDBRANCH  11  13
TORSDOF 1
ENDMDL
MODEL 8
REMARK VINA RESULT:    -4.951      1.615      4.925
REMARK INTER + INTRA:          -5.538
REMARK INTER:                  -5.118
REMARK INTRA:                  -0.419
REMARK UNBOUND:                -0.297
REMARK SMILES CC1=CC[C@@H]2[C@H]3[C@@H](C(C)C)CC[C@]2(C)[C@@H]13
REMARK SMILES IDX 1 1 2 2 3 3 4 4 5 5 6 6 15 7 13 8 12 9 11 10 7 11 14 12 8 13
REMARK SMILES IDX 9 14 10 15
REMARK H PARENT
REMARK Flexibility Score: inf
ROOT
ATOM      1  C   UNL     1      -0.955   1.081  11.620  1.00  0.00     0.039 C 
ATOM      2  C   UNL     1      -1.357   2.437  12.114  1.00  0.00    -0.073 C 
ATOM      3  C   UNL     1      -1.769   2.646  13.394  1.00  0.00    -0.027 C 
ATOM      4  C   UNL     1      -2.194   4.058  13.812  1.00  0.00     0.031 C 
ATOM      5  C   UNL     1      -2.123   5.034  12.593  1.00  0.00     0.003 C 
ATOM      6  C   UNL     1      -2.780   4.321  11.384  1.00  0.00     0.004 C 
ATOM      7  C   UNL     1      -1.412   3.636  11.162  1.00  0.00     0.024 C 
ATOM      8  C   UNL     1      -0.781   4.880  11.828  1.00  0.00    -0.022 C 
ATOM      9  C   UNL     1      -0.626   5.995  10.754  1.00  0.00     0.008 C 
ATOM     10  C   UNL     1      -1.984   6.423  10.143  1.00  0.00     0.005 C 
ATOM     11  C   UNL     1      -3.080   5.307  10.209  1.00  0.00    -0.005 C 
ATOM     12  C   UNL     1       0.525   4.709  12.640  1.00  0.00     0.012 C 
ENDROOT
BRANCH  11  13
ATOM     13  C   UNL     1      -4.514   5.921  10.287  1.00  0.00    -0.014 C 
ATOM     14  C   UNL     1      -4.507   7.368  10.813  1.00  0.00     0.007 C 
ATOM     15  C   UNL     1      -5.434   5.073  11.186  1.00  0.00     0.007 C 
ENDBRANCH  11  13
TORSDOF 1
ENDMDL
MODEL 9
REMARK VINA RESULT:    -4.868      1.794      4.486
REMARK INTER + INTRA:          -5.450
REMARK INTER:                  -5.057
REMARK INTRA:                  -0.393
REMARK UNBOUND:                -0.297
REMARK SMILES CC1=CC[C@@H]2[C@H]3[C@@H](C(C)C)CC[C@]2(C)[C@@H]13
REMARK SMILES IDX 1 1 2 2 3 3 4 4 5 5 6 6 15 7 13 8 12 9 11 10 7 11 14 12 8 13
REMARK SMILES IDX 9 14 10 15
REMARK H PARENT
REMARK Flexibility Score: inf
ROOT
ATOM      1  C   UNL     1      -0.994   1.569  10.977  1.00  0.00     0.039 C 
ATOM      2  C   UNL     1      -1.339   2.902  11.568  1.00  0.00    -0.073 C 
ATOM      3  C   UNL     1      -2.308   3.697  11.037  1.00  0.00    -0.027 C 
ATOM      4  C   UNL     1      -2.579   5.061  11.682  1.00  0.00     0.031 C 
ATOM      5  C   UNL     1      -1.587   5.314  12.864  1.00  0.00     0.003 C 
ATOM      6  C   UNL     1      -0.169   4.923  12.375  1.00  0.00     0.004 C 
ATOM      7  C   UNL     1      -0.543   3.470  12.747  1.00  0.00     0.024 C 
ATOM      8  C   UNL     1      -1.499   4.078  13.798  1.00  0.00    -0.022 C 
ATOM      9  C   UNL     1      -0.683   4.410  15.080  1.00  0.00     0.008 C 
ATOM     10  C   UNL     1       0.445   5.438  14.815  1.00  0.00     0.005 C 
ATOM     11  C   UNL     1       0.950   5.447  13.333  1.00  0.00    -0.005 C 
ATOM     12  C   UNL     1      -2.799   3.316  14.152  1.00  0.00     0.012 C 
ENDROOT
BRANCH  11  13
ATOM     13  C   UNL     1       1.487   6.854  12.921  1.00  0.00    -0.014 C 
ATOM     14  C   UNL     1       1.015   7.966  13.876  1.00  0.00     0.007 C 
ATOM     15  C   UNL     1       1.055   7.216  11.488  1.00  0.00     0.007 C 
ENDBRANCH  11  13
TORSDOF 1
ENDMDL
