MODEL 1
REMARK VINA RESULT:     0.912      0.000      0.000
REMARK INTER + INTRA:           2.743
REMARK INTER:                   2.299
REMARK INTRA:                   0.444
REMARK UNBOUND:                 0.444
REMARK SMILES CCCCCCCCCCCCCCCCCCCCCCCCCCCC(=O)[O-]
REMARK SMILES IDX 15 1 16 2 17 3 18 4 19 5 20 6 21 7 22 8 23 9 24 10 25 11
REMARK SMILES IDX 26 12 27 13 28 14 29 15 30 16 14 17 13 18 12 19 11 20 10 21
REMARK SMILES IDX 9 22 8 23 7 24 6 25 5 26 4 27 3 28 2 29 1 30
REMARK H PARENT
REMARK Flexibility Score: inf
ROOT
ATOM      1  C   UNL     1       2.280   3.906  15.161  1.00  0.00     0.000 C 
ENDROOT
BRANCH   1   2
ATOM      2  C   UNL     1       3.400   4.865  14.721  1.00  0.00     0.000 C 
BRANCH   2   3
ATOM      3  C   UNL     1       4.752   4.154  14.524  1.00  0.00     0.000 C 
BRANCH   3   4
ATOM      4  C   UNL     1       5.127   3.841  13.061  1.00  0.00     0.000 C 
BRANCH   4   5
ATOM      5  C   UNL     1       6.186   2.740  12.878  1.00  0.00     0.000 C 
BRANCH   5   6
ATOM      6  C   UNL     1       5.608   1.323  13.021  1.00  0.00     0.000 C 
BRANCH   6   7
ATOM      7  C   UNL     1       6.724   0.268  12.978  1.00  0.00     0.000 C 
BRANCH   7   8
ATOM      8  C   UNL     1       6.834  -0.539  14.281  1.00  0.00     0.000 C 
BRANCH   8   9
ATOM      9  C   UNL     1       6.273  -1.965  14.144  1.00  0.00     0.000 C 
BRANCH   9  10
ATOM     10  C   UNL     1       5.337  -2.124  12.932  1.00  0.00     0.000 C 
BRANCH  10  11
ATOM     11  C   UNL     1       3.838  -1.906  13.224  1.00  0.00     0.000 C 
BRANCH  11  12
ATOM     12  C   UNL     1       3.521  -1.264  14.589  1.00  0.00     0.006 C 
BRANCH  12  13
ATOM     13  C   UNL     1       2.202  -1.736  15.223  1.00  0.00     0.053 C 
BRANCH  13  14
ATOM     14  C   UNL     1       1.060  -0.831  14.878  1.00  0.00     0.041 C 
ATOM     15  O   UNL     1       0.440  -0.218  15.786  1.00  0.00    -0.550 OA
ATOM     16  O   UNL     1       0.706  -0.633  13.549  1.00  0.00    -0.550 OA
ENDBRANCH  13  14
ENDBRANCH  12  13
ENDBRANCH  11  12
ENDBRANCH  10  11
ENDBRANCH   9  10
ENDBRANCH   8   9
ENDBRANCH   7   8
ENDBRANCH   6   7
ENDBRANCH   5   6
ENDBRANCH   4   5
ENDBRANCH   3   4
ENDBRANCH   2   3
ENDBRANCH   1   2
BRANCH   1  17
ATOM     17  C   UNL     1       2.430   2.494  14.565  1.00  0.00     0.000 C 
BRANCH  17  18
ATOM     18  C   UNL     1       3.077   1.451  15.496  1.00  0.00     0.000 C 
BRANCH  18  19
ATOM     19  C   UNL     1       3.585   2.057  16.817  1.00  0.00     0.000 C 
BRANCH  19  20
ATOM     20  C   UNL     1       5.120   2.131  16.882  1.00  0.00     0.000 C 
BRANCH  20  21
ATOM     21  C   UNL     1       5.789   0.758  16.692  1.00  0.00     0.000 C 
BRANCH  21  22
ATOM     22  C   UNL     1       4.855  -0.414  17.049  1.00  0.00    -0.000 C 
BRANCH  22  23
ATOM     23  C   UNL     1       5.520  -1.560  17.831  1.00  0.00    -0.000 C 
BRANCH  23  24
ATOM     24  C   UNL     1       6.220  -1.081  19.114  1.00  0.00    -0.000 C 
BRANCH  24  25
ATOM     25  C   UNL     1       5.620   0.239  19.646  1.00  0.00    -0.000 C 
BRANCH  25  26
ATOM     26  C   UNL     1       4.113   0.160  19.946  1.00  0.00    -0.000 C 
BRANCH  26  27
ATOM     27  C   UNL     1       3.422   1.534  19.909  1.00  0.00    -0.000 C 
BRANCH  27  28
ATOM     28  C   UNL     1       2.047   1.534  20.603  1.00  0.00    -0.000 C 
BRANCH  28  29
ATOM     29  C   UNL     1       0.981   2.424  19.938  1.00  0.00    -0.003 C 
ATOM     30  C   UNL     1       0.618   1.972  18.524  1.00  0.00     0.004 C 
ENDBRANCH  28  29
ENDBRANCH  27  28
ENDBRANCH  26  27
ENDBRANCH  25  26
ENDBRANCH  24  25
ENDBRANCH  23  24
ENDBRANCH  22  23
ENDBRANCH  21  22
ENDBRANCH  20  21
ENDBRANCH  19  20
ENDBRANCH  18  19
ENDBRANCH  17  18
ENDBRANCH   1  17
TORSDOF 26
ENDMDL
MODEL 2
REMARK VINA RESULT:     1.146      1.936      5.774
REMARK INTER + INTRA:           3.331
REMARK INTER:                   3.977
REMARK INTRA:                  -0.646
REMARK UNBOUND:                 0.444
REMARK SMILES CCCCCCCCCCCCCCCCCCCCCCCCCCCC(=O)[O-]
REMARK SMILES IDX 15 1 16 2 17 3 18 4 19 5 20 6 21 7 22 8 23 9 24 10 25 11
REMARK SMILES IDX 26 12 27 13 28 14 29 15 30 16 14 17 13 18 12 19 11 20 10 21
REMARK SMILES IDX 9 22 8 23 7 24 6 25 5 26 4 27 3 28 2 29 1 30
REMARK H PARENT
REMARK Flexibility Score: inf
ROOT
ATOM      1  C   UNL     1       5.141  -1.584  17.187  1.00  0.00     0.000 C 
ENDROOT
BRANCH   1   2
ATOM      2  C   UNL     1       6.061  -2.086  16.060  1.00  0.00     0.000 C 
BRANCH   2   3
ATOM      3  C   UNL     1       5.831  -1.347  14.728  1.00  0.00     0.000 C 
BRANCH   3   4
ATOM      4  C   UNL     1       5.016  -2.125  13.674  1.00  0.00     0.000 C 
BRANCH   4   5
ATOM      5  C   UNL     1       3.516  -1.786  13.628  1.00  0.00     0.000 C 
BRANCH   5   6
ATOM      6  C   UNL     1       2.795  -2.069  14.955  1.00  0.00     0.000 C 
BRANCH   6   7
ATOM      7  C   UNL     1       1.287  -1.811  14.827  1.00  0.00     0.000 C 
BRANCH   7   8
ATOM      8  C   UNL     1       0.958  -0.350  14.479  1.00  0.00     0.000 C 
BRANCH   8   9
ATOM      9  C   UNL     1       2.151   0.595  14.701  1.00  0.00     0.000 C 
BRANCH   9  10
ATOM     10  C   UNL     1       2.186   1.187  16.121  1.00  0.00     0.000 C 
BRANCH  10  11
ATOM     11  C   UNL     1       0.856   1.113  16.899  1.00  0.00     0.000 C 
BRANCH  11  12
ATOM     12  C   UNL     1       0.721   2.111  18.067  1.00  0.00     0.006 C 
BRANCH  12  13
ATOM     13  C   UNL     1       1.769   1.937  19.178  1.00  0.00     0.053 C 
BRANCH  13  14
ATOM     14  C   UNL     1       1.136   1.763  20.523  1.00  0.00     0.041 C 
ATOM     15  O   UNL     1       0.693   0.637  20.873  1.00  0.00    -0.550 OA
ATOM     16  O   UNL     1       1.071   2.833  21.406  1.00  0.00    -0.550 OA
ENDBRANCH  13  14
ENDBRANCH  12  13
ENDBRANCH  11  12
ENDBRANCH  10  11
ENDBRANCH   9  10
ENDBRANCH   8   9
ENDBRANCH   7   8
ENDBRANCH   6   7
ENDBRANCH   5   6
ENDBRANCH   4   5
ENDBRANCH   3   4
ENDBRANCH   2   3
ENDBRANCH   1   2
BRANCH   1  17
ATOM     17  C   UNL     1       5.609  -2.026  18.586  1.00  0.00     0.000 C 
BRANCH  17  18
ATOM     18  C   UNL     1       6.595  -1.070  19.284  1.00  0.00     0.000 C 
BRANCH  18  19
ATOM     19  C   UNL     1       5.892  -0.005  20.144  1.00  0.00     0.000 C 
BRANCH  19  20
ATOM     20  C   UNL     1       4.550   0.449  19.543  1.00  0.00     0.000 C 
BRANCH  20  21
ATOM     21  C   UNL     1       4.653   1.799  18.812  1.00  0.00     0.000 C 
BRANCH  21  22
ATOM     22  C   UNL     1       4.580   1.654  17.280  1.00  0.00    -0.000 C 
BRANCH  22  23
ATOM     23  C   UNL     1       5.937   1.468  16.579  1.00  0.00    -0.000 C 
BRANCH  23  24
ATOM     24  C   UNL     1       6.085   2.341  15.321  1.00  0.00    -0.000 C 
BRANCH  24  25
ATOM     25  C   UNL     1       6.099   1.498  14.027  1.00  0.00    -0.000 C 
BRANCH  25  26
ATOM     26  C   UNL     1       5.053   1.937  12.987  1.00  0.00    -0.000 C 
BRANCH  26  27
ATOM     27  C   UNL     1       4.921   3.466  12.878  1.00  0.00    -0.000 C 
BRANCH  27  28
ATOM     28  C   UNL     1       3.473   3.957  13.054  1.00  0.00    -0.000 C 
BRANCH  28  29
ATOM     29  C   UNL     1       2.919   3.856  14.488  1.00  0.00    -0.003 C 
ATOM     30  C   UNL     1       1.623   4.638  14.689  1.00  0.00     0.004 C 
ENDBRANCH  28  29
ENDBRANCH  27  28
ENDBRANCH  26  27
ENDBRANCH  25  26
ENDBRANCH  24  25
ENDBRANCH  23  24
ENDBRANCH  22  23
ENDBRANCH  21  22
ENDBRANCH  20  21
ENDBRANCH  19  20
ENDBRANCH  18  19
ENDBRANCH  17  18
ENDBRANCH   1  17
TORSDOF 26
ENDMDL
MODEL 3
REMARK VINA RESULT:     1.322      1.387      2.902
REMARK INTER + INTRA:           3.776
REMARK INTER:                   2.197
REMARK INTRA:                   1.579
REMARK UNBOUND:                 0.444
REMARK SMILES CCCCCCCCCCCCCCCCCCCCCCCCCCCC(=O)[O-]
REMARK SMILES IDX 15 1 16 2 17 3 18 4 19 5 20 6 21 7 22 8 23 9 24 10 25 11
REMARK SMILES IDX 26 12 27 13 28 14 29 15 30 16 14 17 13 18 12 19 11 20 10 21
REMARK SMILES IDX 9 22 8 23 7 24 6 25 5 26 4 27 3 28 2 29 1 30
REMARK H PARENT
REMARK Flexibility Score: inf
ROOT
ATOM      1  C   UNL     1       3.494   2.323  13.666  1.00  0.00     0.000 C 
ENDROOT
BRANCH   1   2
ATOM      2  C   UNL     1       4.457   1.399  12.901  1.00  0.00     0.000 C 
BRANCH   2   3
ATOM      3  C   UNL     1       5.937   1.762  13.125  1.00  0.00     0.000 C 
BRANCH   3   4
ATOM      4  C   UNL     1       6.742   0.758  13.976  1.00  0.00     0.000 C 
BRANCH   4   5
ATOM      5  C   UNL     1       7.295  -0.455  13.208  1.00  0.00     0.000 C 
BRANCH   5   6
ATOM      6  C   UNL     1       7.119  -1.778  13.970  1.00  0.00     0.000 C 
BRANCH   6   7
ATOM      7  C   UNL     1       5.631  -2.116  14.148  1.00  0.00     0.000 C 
BRANCH   7   8
ATOM      8  C   UNL     1       4.805  -1.861  12.877  1.00  0.00     0.000 C 
BRANCH   8   9
ATOM      9  C   UNL     1       3.298  -2.078  13.098  1.00  0.00     0.000 C 
BRANCH   9  10
ATOM     10  C   UNL     1       2.808  -1.530  14.450  1.00  0.00     0.000 C 
BRANCH  10  11
ATOM     11  C   UNL     1       1.463  -2.102  14.944  1.00  0.00     0.000 C 
BRANCH  11  12
ATOM     12  C   UNL     1       0.339  -1.064  15.140  1.00  0.00     0.006 C 
BRANCH  12  13
ATOM     13  C   UNL     1       0.766   0.391  14.889  1.00  0.00     0.053 C 
BRANCH  13  14
ATOM     14  C   UNL     1       1.096   1.105  16.164  1.00  0.00     0.041 C 
ATOM     15  O   UNL     1       0.287   1.086  17.128  1.00  0.00    -0.550 OA
ATOM     16  O   UNL     1       2.314   1.758  16.301  1.00  0.00    -0.550 OA
ENDBRANCH  13  14
ENDBRANCH  12  13
ENDBRANCH  11  12
ENDBRANCH  10  11
ENDBRANCH   9  10
ENDBRANCH   8   9
ENDBRANCH   7   8
ENDBRANCH   6   7
ENDBRANCH   5   6
ENDBRANCH   4   5
ENDBRANCH   3   4
ENDBRANCH   2   3
ENDBRANCH   1   2
BRANCH   1  17
ATOM     17  C   UNL     1       3.525   3.776  13.157  1.00  0.00     0.000 C 
BRANCH  17  18
ATOM     18  C   UNL     1       3.274   4.855  14.228  1.00  0.00     0.000 C 
BRANCH  18  19
ATOM     19  C   UNL     1       3.645   4.391  15.648  1.00  0.00     0.000 C 
BRANCH  19  20
ATOM     20  C   UNL     1       4.869   3.460  15.663  1.00  0.00     0.000 C 
BRANCH  20  21
ATOM     21  C   UNL     1       4.748   2.337  16.709  1.00  0.00     0.000 C 
BRANCH  21  22
ATOM     22  C   UNL     1       5.571   1.088  16.340  1.00  0.00    -0.000 C 
BRANCH  22  23
ATOM     23  C   UNL     1       4.937  -0.253  16.750  1.00  0.00    -0.000 C 
BRANCH  23  24
ATOM     24  C   UNL     1       5.979  -1.362  16.975  1.00  0.00    -0.000 C 
BRANCH  24  25
ATOM     25  C   UNL     1       5.855  -2.001  18.375  1.00  0.00    -0.000 C 
BRANCH  25  26
ATOM     26  C   UNL     1       6.810  -1.399  19.421  1.00  0.00    -0.000 C 
BRANCH  26  27
ATOM     27  C   UNL     1       6.295  -0.077  20.014  1.00  0.00    -0.000 C 
BRANCH  27  28
ATOM     28  C   UNL     1       4.761   0.050  19.956  1.00  0.00    -0.000 C 
BRANCH  28  29
ATOM     29  C   UNL     1       4.220   1.487  20.080  1.00  0.00    -0.003 C 
ATOM     30  C   UNL     1       2.938   1.717  19.282  1.00  0.00     0.004 C 
ENDBRANCH  28  29
ENDBRANCH  27  28
ENDBRANCH  26  27
ENDBRANCH  25  26
ENDBRANCH  24  25
ENDBRANCH  23  24
ENDBRANCH  22  23
ENDBRANCH  21  22
ENDBRANCH  20  21
ENDBRANCH  19  20
ENDBRANCH  18  19
ENDBRANCH  17  18
ENDBRANCH   1  17
TORSDOF 26
ENDMDL
MODEL 4
REMARK VINA RESULT:     2.180      1.744      5.560
REMARK INTER + INTRA:           5.939
REMARK INTER:                   6.586
REMARK INTRA:                  -0.647
REMARK UNBOUND:                 0.444
REMARK SMILES CCCCCCCCCCCCCCCCCCCCCCCCCCCC(=O)[O-]
REMARK SMILES IDX 15 1 16 2 17 3 18 4 19 5 20 6 21 7 22 8 23 9 24 10 25 11
REMARK SMILES IDX 26 12 27 13 28 14 29 15 30 16 14 17 13 18 12 19 11 20 10 21
REMARK SMILES IDX 9 22 8 23 7 24 6 25 5 26 4 27 3 28 2 29 1 30
REMARK H PARENT
REMARK Flexibility Score: inf
ROOT
ATOM      1  C   UNL     1       4.350   1.242  14.898  1.00  0.00     0.000 C 
ENDROOT
BRANCH   1   2
ATOM      2  C   UNL     1       4.952   0.521  13.679  1.00  0.00     0.000 C 
BRANCH   2   3
ATOM      3  C   UNL     1       6.487   0.411  13.749  1.00  0.00     0.000 C 
BRANCH   3   4
ATOM      4  C   UNL     1       7.028  -0.832  14.484  1.00  0.00     0.000 C 
BRANCH   4   5
ATOM      5  C   UNL     1       5.988  -1.931  14.762  1.00  0.00     0.000 C 
BRANCH   5   6
ATOM      6  C   UNL     1       5.706  -2.125  16.261  1.00  0.00     0.000 C 
BRANCH   6   7
ATOM      7  C   UNL     1       6.257  -0.948  17.079  1.00  0.00     0.000 C 
BRANCH   7   8
ATOM      8  C   UNL     1       6.947  -1.393  18.378  1.00  0.00     0.000 C 
BRANCH   8   9
ATOM      9  C   UNL     1       6.289  -0.797  19.634  1.00  0.00     0.000 C 
BRANCH   9  10
ATOM     10  C   UNL     1       4.862  -0.281  19.372  1.00  0.00     0.000 C 
BRANCH  10  11
ATOM     11  C   UNL     1       4.765   0.929  18.419  1.00  0.00     0.000 C 
BRANCH  11  12
ATOM     12  C   UNL     1       3.743   2.009  18.830  1.00  0.00     0.006 C 
BRANCH  12  13
ATOM     13  C   UNL     1       2.989   1.707  20.136  1.00  0.00     0.053 C 
BRANCH  13  14
ATOM     14  C   UNL     1       1.512   1.902  19.986  1.00  0.00     0.041 C 
ATOM     15  O   UNL     1       1.012   2.105  18.848  1.00  0.00    -0.550 OA
ATOM     16  O   UNL     1       0.682   1.817  21.097  1.00  0.00    -0.550 OA
ENDBRANCH  13  14
ENDBRANCH  12  13
ENDBRANCH  11  12
ENDBRANCH  10  11
ENDBRANCH   9  10
ENDBRANCH   8   9
ENDBRANCH   7   8
ENDBRANCH   6   7
ENDBRANCH   5   6
ENDBRANCH   4   5
ENDBRANCH   3   4
ENDBRANCH   2   3
ENDBRANCH   1   2
BRANCH   1  17
ATOM     17  C   UNL     1       5.364   2.148  15.621  1.00  0.00     0.000 C 
BRANCH  17  18
ATOM     18  C   UNL     1       5.285   3.644  15.263  1.00  0.00     0.000 C 
BRANCH  18  19
ATOM     19  C   UNL     1       5.624   3.929  13.789  1.00  0.00     0.000 C 
BRANCH  19  20
ATOM     20  C   UNL     1       4.388   3.869  12.876  1.00  0.00     0.000 C 
BRANCH  20  21
ATOM     21  C   UNL     1       3.434   5.058  13.089  1.00  0.00     0.000 C 
BRANCH  21  22
ATOM     22  C   UNL     1       2.122   4.652  13.785  1.00  0.00    -0.000 C 
BRANCH  22  23
ATOM     23  C   UNL     1       1.948   3.141  14.015  1.00  0.00    -0.000 C 
BRANCH  23  24
ATOM     24  C   UNL     1       1.719   2.783  15.493  1.00  0.00    -0.000 C 
BRANCH  24  25
ATOM     25  C   UNL     1       2.000   1.292  15.781  1.00  0.00    -0.000 C 
BRANCH  25  26
ATOM     26  C   UNL     1       0.730   0.430  15.890  1.00  0.00    -0.000 C 
BRANCH  26  27
ATOM     27  C   UNL     1       0.459  -0.400  14.623  1.00  0.00    -0.000 C 
BRANCH  27  28
ATOM     28  C   UNL     1       0.881  -1.874  14.769  1.00  0.00    -0.000 C 
BRANCH  28  29
ATOM     29  C   UNL     1       2.401  -2.111  14.858  1.00  0.00    -0.003 C 
ATOM     30  C   UNL     1       3.104  -2.016  13.506  1.00  0.00     0.004 C 
ENDBRANCH  28  29
ENDBRANCH  27  28
ENDBRANCH  26  27
ENDBRANCH  25  26
ENDBRANCH  24  25
ENDBRANCH  23  24
ENDBRANCH  22  23
ENDBRANCH  21  22
ENDBRANCH  20  21
ENDBRANCH  19  20
ENDBRANCH  18  19
ENDBRANCH  17  18
ENDBRANCH   1  17
TORSDOF 26
ENDMDL
MODEL 5
REMARK VINA RESULT:     2.481      1.189      3.088
REMARK INTER + INTRA:           6.697
REMARK INTER:                   6.556
REMARK INTRA:                   0.140
REMARK UNBOUND:                 0.444
REMARK SMILES CCCCCCCCCCCCCCCCCCCCCCCCCCCC(=O)[O-]
REMARK SMILES IDX 15 1 16 2 17 3 18 4 19 5 20 6 21 7 22 8 23 9 24 10 25 11
REMARK SMILES IDX 26 12 27 13 28 14 29 15 30 16 14 17 13 18 12 19 11 20 10 21
REMARK SMILES IDX 9 22 8 23 7 24 6 25 5 26 4 27 3 28 2 29 1 30
REMARK H PARENT
REMARK Flexibility Score: inf
ROOT
ATOM      1  C   UNL     1       4.673   4.384  14.632  1.00  0.00     0.000 C 
ENDROOT
BRANCH   1   2
ATOM      2  C   UNL     1       5.785   3.396  14.238  1.00  0.00     0.000 C 
BRANCH   2   3
ATOM      3  C   UNL     1       5.506   2.688  12.899  1.00  0.00     0.000 C 
BRANCH   3   4
ATOM      4  C   UNL     1       4.987   1.240  13.012  1.00  0.00     0.000 C 
BRANCH   4   5
ATOM      5  C   UNL     1       5.906   0.274  13.781  1.00  0.00     0.000 C 
BRANCH   5   6
ATOM      6  C   UNL     1       6.931  -0.427  12.875  1.00  0.00     0.000 C 
BRANCH   6   7
ATOM      7  C   UNL     1       7.580  -1.616  13.599  1.00  0.00     0.000 C 
BRANCH   7   8
ATOM      8  C   UNL     1       6.793  -2.062  14.842  1.00  0.00     0.000 C 
BRANCH   8   9
ATOM      9  C   UNL     1       5.277  -2.124  14.592  1.00  0.00     0.000 C 
BRANCH   9  10
ATOM     10  C   UNL     1       4.451  -1.852  15.862  1.00  0.00     0.000 C 
BRANCH  10  11
ATOM     11  C   UNL     1       2.962  -1.526  15.623  1.00  0.00     0.000 C 
BRANCH  11  12
ATOM     12  C   UNL     1       2.519  -1.522  14.146  1.00  0.00     0.006 C 
BRANCH  12  13
ATOM     13  C   UNL     1       1.695  -0.293  13.731  1.00  0.00     0.053 C 
BRANCH  13  14
ATOM     14  C   UNL     1       0.421  -0.184  14.512  1.00  0.00     0.041 C 
ATOM     15  O   UNL     1       0.197  -0.969  15.471  1.00  0.00    -0.550 OA
ATOM     16  O   UNL     1      -0.499   0.812  14.208  1.00  0.00    -0.550 OA
ENDBRANCH  13  14
ENDBRANCH  12  13
ENDBRANCH  11  12
ENDBRANCH  10  11
ENDBRANCH   9  10
ENDBRANCH   8   9
ENDBRANCH   7   8
ENDBRANCH   6   7
ENDBRANCH   5   6
ENDBRANCH   4   5
ENDBRANCH   3   4
ENDBRANCH   2   3
ENDBRANCH   1   2
BRANCH   1  17
ATOM     17  C   UNL     1       3.598   4.545  13.542  1.00  0.00     0.000 C 
BRANCH  17  18
ATOM     18  C   UNL     1       2.157   4.226  13.984  1.00  0.00     0.000 C 
BRANCH  18  19
ATOM     19  C   UNL     1       2.094   3.448  15.311  1.00  0.00     0.000 C 
BRANCH  19  20
ATOM     20  C   UNL     1       2.676   2.029  15.191  1.00  0.00     0.000 C 
BRANCH  20  21
ATOM     21  C   UNL     1       3.279   1.521  16.513  1.00  0.00     0.000 C 
BRANCH  21  22
ATOM     22  C   UNL     1       2.249   1.468  17.657  1.00  0.00    -0.000 C 
BRANCH  22  23
ATOM     23  C   UNL     1       2.741   2.030  19.002  1.00  0.00    -0.000 C 
BRANCH  23  24
ATOM     24  C   UNL     1       4.210   1.680  19.295  1.00  0.00    -0.000 C 
BRANCH  24  25
ATOM     25  C   UNL     1       4.351   0.332  20.034  1.00  0.00    -0.000 C 
BRANCH  25  26
ATOM     26  C   UNL     1       4.428  -0.887  19.098  1.00  0.00    -0.000 C 
BRANCH  26  27
ATOM     27  C   UNL     1       5.862  -1.409  18.910  1.00  0.00    -0.000 C 
BRANCH  27  28
ATOM     28  C   UNL     1       6.800  -0.371  18.267  1.00  0.00    -0.000 C 
BRANCH  28  29
ATOM     29  C   UNL     1       6.274   0.267  16.968  1.00  0.00    -0.003 C 
ATOM     30  C   UNL     1       6.340   1.793  16.978  1.00  0.00     0.004 C 
ENDBRANCH  28  29
ENDBRANCH  27  28
ENDBRANCH  26  27
ENDBRANCH  25  26
ENDBRANCH  24  25
ENDBRANCH  23  24
ENDBRANCH  22  23
ENDBRANCH  21  22
ENDBRANCH  20  21
ENDBRANCH  19  20
ENDBRANCH  18  19
ENDBRANCH  17  18
ENDBRANCH   1  17
TORSDOF 26
ENDMDL
MODEL 6
REMARK VINA RESULT:     2.520      1.873      4.584
REMARK INTER + INTRA:           6.795
REMARK INTER:                   5.613
REMARK INTRA:                   1.182
REMARK UNBOUND:                 0.444
REMARK SMILES CCCCCCCCCCCCCCCCCCCCCCCCCCCC(=O)[O-]
REMARK SMILES IDX 15 1 16 2 17 3 18 4 19 5 20 6 21 7 22 8 23 9 24 10 25 11
REMARK SMILES IDX 26 12 27 13 28 14 29 15 30 16 14 17 13 18 12 19 11 20 10 21
REMARK SMILES IDX 9 22 8 23 7 24 6 25 5 26 4 27 3 28 2 29 1 30
REMARK H PARENT
REMARK Flexibility Score: inf
ROOT
ATOM      1  C   UNL     1       5.239   1.696  13.744  1.00  0.00     0.000 C 
ENDROOT
BRANCH   1   2
ATOM      2  C   UNL     1       6.261   0.806  13.016  1.00  0.00     0.000 C 
BRANCH   2   3
ATOM      3  C   UNL     1       7.050  -0.105  13.976  1.00  0.00     0.000 C 
BRANCH   3   4
ATOM      4  C   UNL     1       6.496  -1.536  14.135  1.00  0.00     0.000 C 
BRANCH   4   5
ATOM      5  C   UNL     1       5.836  -2.125  12.875  1.00  0.00     0.000 C 
BRANCH   5   6
ATOM      6  C   UNL     1       4.301  -2.125  12.946  1.00  0.00     0.000 C 
BRANCH   6   7
ATOM      7  C   UNL     1       3.815  -1.615  14.311  1.00  0.00     0.000 C 
BRANCH   7   8
ATOM      8  C   UNL     1       2.795  -0.471  14.193  1.00  0.00     0.000 C 
BRANCH   8   9
ATOM      9  C   UNL     1       1.547  -0.698  15.064  1.00  0.00     0.000 C 
BRANCH   9  10
ATOM     10  C   UNL     1       0.977   0.610  15.641  1.00  0.00     0.000 C 
BRANCH  10  11
ATOM     11  C   UNL     1       2.021   1.699  15.963  1.00  0.00     0.000 C 
BRANCH  11  12
ATOM     12  C   UNL     1       2.251   1.965  17.464  1.00  0.00     0.006 C 
BRANCH  12  13
ATOM     13  C   UNL     1       1.021   1.715  18.351  1.00  0.00     0.053 C 
BRANCH  13  14
ATOM     14  C   UNL     1       1.319   1.949  19.800  1.00  0.00     0.041 C 
ATOM     15  O   UNL     1       0.669   2.810  20.450  1.00  0.00    -0.550 OA
ATOM     16  O   UNL     1       2.286   1.187  20.443  1.00  0.00    -0.550 OA
ENDBRANCH  13  14
ENDBRANCH  12  13
ENDBRANCH  11  12
ENDBRANCH  10  11
ENDBRANCH   9  10
ENDBRANCH   8   9
ENDBRANCH   7   8
ENDBRANCH   6   7
ENDBRANCH   5   6
ENDBRANCH   4   5
ENDBRANCH   3   4
ENDBRANCH   2   3
ENDBRANCH   1   2
BRANCH   1  17
ATOM     17  C   UNL     1       4.823   2.930  12.922  1.00  0.00     0.000 C 
BRANCH  17  18
ATOM     18  C   UNL     1       3.329   3.295  12.991  1.00  0.00     0.000 C 
BRANCH  18  19
ATOM     19  C   UNL     1       2.866   3.665  14.411  1.00  0.00     0.000 C 
BRANCH  19  20
ATOM     20  C   UNL     1       3.740   4.757  15.052  1.00  0.00     0.000 C 
BRANCH  20  21
ATOM     21  C   UNL     1       4.464   4.270  16.320  1.00  0.00     0.000 C 
BRANCH  21  22
ATOM     22  C   UNL     1       5.437   3.109  16.041  1.00  0.00    -0.000 C 
BRANCH  22  23
ATOM     23  C   UNL     1       5.457   2.006  17.113  1.00  0.00    -0.000 C 
BRANCH  23  24
ATOM     24  C   UNL     1       5.690   0.604  16.523  1.00  0.00    -0.000 C 
BRANCH  24  25
ATOM     25  C   UNL     1       4.555  -0.377  16.888  1.00  0.00    -0.000 C 
BRANCH  25  26
ATOM     26  C   UNL     1       5.028  -1.827  17.095  1.00  0.00    -0.000 C 
BRANCH  26  27
ATOM     27  C   UNL     1       6.239  -1.935  18.037  1.00  0.00    -0.000 C 
BRANCH  27  28
ATOM     28  C   UNL     1       5.896  -1.593  19.498  1.00  0.00    -0.000 C 
BRANCH  28  29
ATOM     29  C   UNL     1       6.339  -0.193  19.963  1.00  0.00    -0.003 C 
ATOM     30  C   UNL     1       5.197   0.820  19.993  1.00  0.00     0.004 C 
ENDBRANCH  28  29
ENDBRANCH  27  28
ENDBRANCH  26  27
ENDBRANCH  25  26
ENDBRANCH  24  25
ENDBRANCH  23  24
ENDBRANCH  22  23
ENDBRANCH  21  22
ENDBRANCH  20  21
ENDBRANCH  19  20
ENDBRANCH  18  19
ENDBRANCH  17  18
ENDBRANCH   1  17
TORSDOF 26
ENDMDL
MODEL 7
REMARK VINA RESULT:     2.717      2.091      5.065
REMARK INTER + INTRA:           7.290
REMARK INTER:                   6.939
REMARK INTRA:                   0.351
REMARK UNBOUND:                 0.444
REMARK SMILES CCCCCCCCCCCCCCCCCCCCCCCCCCCC(=O)[O-]
REMARK SMILES IDX 15 1 16 2 17 3 18 4 19 5 20 6 21 7 22 8 23 9 24 10 25 11
REMARK SMILES IDX 26 12 27 13 28 14 29 15 30 16 14 17 13 18 12 19 11 20 10 21
REMARK SMILES IDX 9 22 8 23 7 24 6 25 5 26 4 27 3 28 2 29 1 30
REMARK H PARENT
REMARK Flexibility Score: inf
ROOT
ATOM      1  C   UNL     1       5.607   1.274  15.884  1.00  0.00     0.000 C 
ENDROOT
BRANCH   1   2
ATOM      2  C   UNL     1       6.734   1.823  14.992  1.00  0.00     0.000 C 
BRANCH   2   3
ATOM      3  C   UNL     1       6.776   1.155  13.604  1.00  0.00     0.000 C 
BRANCH   3   4
ATOM      4  C   UNL     1       6.787  -0.387  13.614  1.00  0.00     0.000 C 
BRANCH   4   5
ATOM      5  C   UNL     1       7.460  -1.029  14.840  1.00  0.00     0.000 C 
BRANCH   5   6
ATOM      6  C   UNL     1       6.600  -2.122  15.493  1.00  0.00     0.000 C 
BRANCH   6   7
ATOM      7  C   UNL     1       5.578  -1.511  16.462  1.00  0.00     0.000 C 
BRANCH   7   8
ATOM      8  C   UNL     1       5.702  -2.066  17.890  1.00  0.00     0.000 C 
BRANCH   8   9
ATOM      9  C   UNL     1       6.635  -1.222  18.775  1.00  0.00     0.000 C 
BRANCH   9  10
ATOM     10  C   UNL     1       5.870  -0.278  19.720  1.00  0.00     0.000 C 
BRANCH  10  11
ATOM     11  C   UNL     1       4.602   0.367  19.122  1.00  0.00     0.000 C 
BRANCH  11  12
ATOM     12  C   UNL     1       3.656   1.029  20.144  1.00  0.00     0.006 C 
BRANCH  12  13
ATOM     13  C   UNL     1       2.386   1.642  19.532  1.00  0.00     0.053 C 
BRANCH  13  14
ATOM     14  C   UNL     1       1.302   1.816  20.551  1.00  0.00     0.041 C 
ATOM     15  O   UNL     1       0.935   2.971  20.894  1.00  0.00    -0.550 OA
ATOM     16  O   UNL     1       0.670   0.704  21.091  1.00  0.00    -0.550 OA
ENDBRANCH  13  14
ENDBRANCH  12  13
ENDBRANCH  11  12
ENDBRANCH  10  11
ENDBRANCH   9  10
ENDBRANCH   8   9
ENDBRANCH   7   8
ENDBRANCH   6   7
ENDBRANCH   5   6
ENDBRANCH   4   5
ENDBRANCH   3   4
ENDBRANCH   2   3
ENDBRANCH   1   2
BRANCH   1  17
ATOM     17  C   UNL     1       5.256   2.213  17.054  1.00  0.00     0.000 C 
BRANCH  17  18
ATOM     18  C   UNL     1       4.415   3.447  16.679  1.00  0.00     0.000 C 
BRANCH  18  19
ATOM     19  C   UNL     1       3.487   3.201  15.476  1.00  0.00     0.000 C 
BRANCH  19  20
ATOM     20  C   UNL     1       3.995   3.876  14.190  1.00  0.00     0.000 C 
BRANCH  20  21
ATOM     21  C   UNL     1       3.587   3.114  12.917  1.00  0.00     0.000 C 
BRANCH  21  22
ATOM     22  C   UNL     1       4.140   1.677  12.881  1.00  0.00    -0.000 C 
BRANCH  22  23
ATOM     23  C   UNL     1       3.148   0.586  13.321  1.00  0.00    -0.000 C 
BRANCH  23  24
ATOM     24  C   UNL     1       3.795  -0.806  13.419  1.00  0.00    -0.000 C 
BRANCH  24  25
ATOM     25  C   UNL     1       2.789  -1.884  13.878  1.00  0.00    -0.000 C 
BRANCH  25  26
ATOM     26  C   UNL     1       2.425  -1.801  15.371  1.00  0.00    -0.000 C 
BRANCH  26  27
ATOM     27  C   UNL     1       2.867  -0.480  16.023  1.00  0.00    -0.000 C 
BRANCH  27  28
ATOM     28  C   UNL     1       1.808   0.632  15.906  1.00  0.00    -0.000 C 
BRANCH  28  29
ATOM     29  C   UNL     1       0.352   0.138  15.809  1.00  0.00    -0.003 C 
ATOM     30  C   UNL     1      -0.257   0.331  14.421  1.00  0.00     0.004 C 
ENDBRANCH  28  29
ENDBRANCH  27  28
ENDBRANCH  26  27
ENDBRANCH  25  26
ENDBRANCH  24  25
ENDBRANCH  23  24
ENDBRANCH  22  23
ENDBRANCH  21  22
ENDBRANCH  20  21
ENDBRANCH  19  20
ENDBRANCH  18  19
ENDBRANCH  17  18
ENDBRANCH   1  17
TORSDOF 26
ENDMDL
MODEL 8
REMARK VINA RESULT:     3.525      1.980      4.210
REMARK INTER + INTRA:           9.327
REMARK INTER:                   9.012
REMARK INTRA:                   0.315
REMARK UNBOUND:                 0.444
REMARK SMILES CCCCCCCCCCCCCCCCCCCCCCCCCCCC(=O)[O-]
REMARK SMILES IDX 15 1 16 2 17 3 18 4 19 5 20 6 21 7 22 8 23 9 24 10 25 11
REMARK SMILES IDX 26 12 27 13 28 14 29 15 30 16 14 17 13 18 12 19 11 20 10 21
REMARK SMILES IDX 9 22 8 23 7 24 6 25 5 26 4 27 3 28 2 29 1 30
REMARK H PARENT
REMARK Flexibility Score: inf
ROOT
ATOM      1  C   UNL     1       5.859   2.013  14.869  1.00  0.00     0.000 C 
ENDROOT
BRANCH   1   2
ATOM      2  C   UNL     1       5.495   2.321  13.406  1.00  0.00     0.000 C 
BRANCH   2   3
ATOM      3  C   UNL     1       4.125   1.747  12.998  1.00  0.00     0.000 C 
BRANCH   3   4
ATOM      4  C   UNL     1       4.062   0.211  12.875  1.00  0.00     0.000 C 
BRANCH   4   5
ATOM      5  C   UNL     1       3.695  -0.534  14.171  1.00  0.00     0.000 C 
BRANCH   5   6
ATOM      6  C   UNL     1       3.248  -1.984  13.923  1.00  0.00     0.000 C 
BRANCH   6   7
ATOM      7  C   UNL     1       1.727  -2.125  14.083  1.00  0.00     0.000 C 
BRANCH   7   8
ATOM      8  C   UNL     1       1.124  -1.064  15.017  1.00  0.00     0.000 C 
BRANCH   8   9
ATOM      9  C   UNL     1       2.174  -0.422  15.941  1.00  0.00     0.000 C 
BRANCH   9  10
ATOM     10  C   UNL     1       1.633   0.805  16.696  1.00  0.00     0.000 C 
BRANCH  10  11
ATOM     11  C   UNL     1       2.183   2.166  16.222  1.00  0.00     0.000 C 
BRANCH  11  12
ATOM     12  C   UNL     1       1.806   2.562  14.780  1.00  0.00     0.006 C 
BRANCH  12  13
ATOM     13  C   UNL     1       1.745   4.078  14.531  1.00  0.00     0.053 C 
BRANCH  13  14
ATOM     14  C   UNL     1       3.092   4.647  14.210  1.00  0.00     0.041 C 
ATOM     15  O   UNL     1       3.914   4.888  15.133  1.00  0.00    -0.550 OA
ATOM     16  O   UNL     1       3.456   4.873  12.889  1.00  0.00    -0.550 OA
ENDBRANCH  13  14
ENDBRANCH  12  13
ENDBRANCH  11  12
ENDBRANCH  10  11
ENDBRANCH   9  10
ENDBRANCH   8   9
ENDBRANCH   7   8
ENDBRANCH   6   7
ENDBRANCH   5   6
ENDBRANCH   4   5
ENDBRANCH   3   4
ENDBRANCH   2   3
ENDBRANCH   1   2
BRANCH   1  17
ATOM     17  C   UNL     1       6.831   0.828  15.009  1.00  0.00     0.000 C 
BRANCH  17  18
ATOM     18  C   UNL     1       7.375   0.260  13.684  1.00  0.00     0.000 C 
BRANCH  18  19
ATOM     19  C   UNL     1       6.794  -1.124  13.340  1.00  0.00     0.000 C 
BRANCH  19  20
ATOM     20  C   UNL     1       6.881  -2.110  14.518  1.00  0.00     0.000 C 
BRANCH  20  21
ATOM     21  C   UNL     1       5.823  -1.837  15.601  1.00  0.00     0.000 C 
BRANCH  21  22
ATOM     22  C   UNL     1       6.343  -2.113  17.024  1.00  0.00    -0.000 C 
BRANCH  22  23
ATOM     23  C   UNL     1       5.632  -1.326  18.140  1.00  0.00    -0.000 C 
BRANCH  23  24
ATOM     24  C   UNL     1       6.432  -0.098  18.607  1.00  0.00    -0.000 C 
BRANCH  24  25
ATOM     25  C   UNL     1       5.520   1.116  18.891  1.00  0.00    -0.000 C 
BRANCH  25  26
ATOM     26  C   UNL     1       4.073   0.737  19.250  1.00  0.00    -0.000 C 
BRANCH  26  27
ATOM     27  C   UNL     1       3.200   1.957  19.590  1.00  0.00    -0.000 C 
BRANCH  27  28
ATOM     28  C   UNL     1       2.081   1.633  20.597  1.00  0.00    -0.000 C 
BRANCH  28  29
ATOM     29  C   UNL     1       0.656   1.972  20.119  1.00  0.00    -0.003 C 
ATOM     30  C   UNL     1       0.259   3.421  20.392  1.00  0.00     0.004 C 
ENDBRANCH  28  29
ENDBRANCH  27  28
ENDBRANCH  26  27
ENDBRANCH  25  26
ENDBRANCH  24  25
ENDBRANCH  23  24
ENDBRANCH  22  23
ENDBRANCH  21  22
ENDBRANCH  20  21
ENDBRANCH  19  20
ENDBRANCH  18  19
ENDBRANCH  17  18
ENDBRANCH   1  17
TORSDOF 26
ENDMDL
