MODEL 1
REMARK VINA RESULT:    -4.431      0.000      0.000
REMARK INTER + INTRA:         -12.814
REMARK INTER:                  -9.613
REMARK INTRA:                  -3.202
REMARK UNBOUND:                -3.202
REMARK SMILES CCCCCCCCCCCCCCCCCCCCCC(=O)[O-]
REMARK SMILES IDX 12 1 11 2 10 3 9 4 8 5 7 6 6 7 5 8 4 9 3 10 2 11 1 12 13 13
REMARK SMILES IDX 14 14 15 15 16 16 17 17 18 18 19 19 20 20 21 21 22 22 23 23
REMARK SMILES IDX 24 24
REMARK H PARENT
REMARK Flexibility Score: inf
ROOT
ATOM      1  C   UNL     1      -4.003   1.205  10.779  1.00  0.00     0.000 C 
ENDROOT
BRANCH   1   2
ATOM      2  C   UNL     1      -2.534   1.543  10.470  1.00  0.00     0.000 C 
BRANCH   2   3
ATOM      3  C   UNL     1      -1.562   0.440  10.922  1.00  0.00     0.000 C 
BRANCH   3   4
ATOM      4  C   UNL     1      -0.798  -0.199   9.749  1.00  0.00    -0.000 C 
BRANCH   4   5
ATOM      5  C   UNL     1      -1.593  -0.308   8.433  1.00  0.00    -0.000 C 
BRANCH   5   6
ATOM      6  C   UNL     1      -2.190  -1.708   8.178  1.00  0.00    -0.000 C 
BRANCH   6   7
ATOM      7  C   UNL     1      -3.647  -1.816   8.664  1.00  0.00    -0.000 C 
BRANCH   7   8
ATOM      8  C   UNL     1      -3.977  -3.205   9.234  1.00  0.00    -0.000 C 
BRANCH   8   9
ATOM      9  C   UNL     1      -2.813  -3.792  10.053  1.00  0.00    -0.000 C 
BRANCH   9  10
ATOM     10  C   UNL     1      -2.778  -3.255  11.493  1.00  0.00    -0.000 C 
BRANCH  10  11
ATOM     11  C   UNL     1      -1.385  -3.363  12.130  1.00  0.00    -0.003 C 
ATOM     12  C   UNL     1      -0.303  -3.510  11.064  1.00  0.00     0.004 C 
ENDBRANCH  10  11
ENDBRANCH   9  10
ENDBRANCH   8   9
ENDBRANCH   7   8
ENDBRANCH   6   7
ENDBRANCH   5   6
ENDBRANCH   4   5
ENDBRANCH   3   4
ENDBRANCH   2   3
ENDBRANCH   1   2
BRANCH   1  13
ATOM     13  C   UNL     1      -4.211   0.123  11.858  1.00  0.00     0.000 C 
BRANCH  13  14
ATOM     14  C   UNL     1      -5.165   0.517  13.001  1.00  0.00     0.000 C 
BRANCH  14  15
ATOM     15  C   UNL     1      -5.076   1.990  13.453  1.00  0.00     0.000 C 
BRANCH  15  16
ATOM     16  C   UNL     1      -4.015   2.282  14.531  1.00  0.00     0.000 C 
BRANCH  16  17
ATOM     17  C   UNL     1      -3.866   3.782  14.832  1.00  0.00     0.000 C 
BRANCH  17  18
ATOM     18  C   UNL     1      -4.623   4.675  13.829  1.00  0.00     0.000 C 
BRANCH  18  19
ATOM     19  C   UNL     1      -5.419   5.838  14.450  1.00  0.00     0.000 C 
BRANCH  19  20
ATOM     20  C   UNL     1      -6.928   5.752  14.167  1.00  0.00     0.006 C 
BRANCH  20  21
ATOM     21  C   UNL     1      -7.522   4.408  14.608  1.00  0.00     0.053 C 
BRANCH  21  22
ATOM     22  C   UNL     1      -7.481   4.239  16.096  1.00  0.00     0.041 C 
ATOM     23  O   UNL     1      -7.920   5.149  16.849  1.00  0.00    -0.550 OA
ATOM     24  O   UNL     1      -6.934   3.089  16.652  1.00  0.00    -0.550 OA
ENDBRANCH  21  22
ENDBRANCH  20  21
ENDBRANCH  19  20
ENDBRANCH  18  19
ENDBRANCH  17  18
ENDBRANCH  16  17
ENDBRANCH  15  16
ENDBRANCH  14  15
ENDBRANCH  13  14
ENDBRANCH   1  13
TORSDOF 20
ENDMDL
MODEL 2
REMARK VINA RESULT:    -4.429      1.569      2.457
REMARK INTER + INTRA:         -12.809
REMARK INTER:                 -10.206
REMARK INTRA:                  -2.603
REMARK UNBOUND:                -3.202
REMARK SMILES CCCCCCCCCCCCCCCCCCCCCC(=O)[O-]
REMARK SMILES IDX 12 1 11 2 10 3 9 4 8 5 7 6 6 7 5 8 4 9 3 10 2 11 1 12 13 13
REMARK SMILES IDX 14 14 15 15 16 16 17 17 18 18 19 19 20 20 21 21 22 22 23 23
REMARK SMILES IDX 24 24
REMARK H PARENT
REMARK Flexibility Score: inf
ROOT
ATOM      1  C   UNL     1      -2.508   1.838   9.672  1.00  0.00     0.000 C 
ENDROOT
BRANCH   1   2
ATOM      2  C   UNL     1      -2.642   0.344   9.327  1.00  0.00     0.000 C 
BRANCH   2   3
ATOM      3  C   UNL     1      -4.084  -0.172   9.473  1.00  0.00     0.000 C 
BRANCH   3   4
ATOM      4  C   UNL     1      -4.339  -1.461   8.672  1.00  0.00    -0.000 C 
BRANCH   4   5
ATOM      5  C   UNL     1      -3.072  -2.185   8.178  1.00  0.00    -0.000 C 
BRANCH   5   6
ATOM      6  C   UNL     1      -2.758  -3.488   8.943  1.00  0.00    -0.000 C 
BRANCH   6   7
ATOM      7  C   UNL     1      -3.951  -3.966   9.791  1.00  0.00    -0.000 C 
BRANCH   7   8
ATOM      8  C   UNL     1      -3.650  -3.940  11.298  1.00  0.00    -0.000 C 
BRANCH   8   9
ATOM      9  C   UNL     1      -2.597  -2.880  11.665  1.00  0.00    -0.000 C 
BRANCH   9  10
ATOM     10  C   UNL     1      -1.341  -3.496  12.303  1.00  0.00    -0.000 C 
BRANCH  10  11
ATOM     11  C   UNL     1      -0.074  -3.253  11.468  1.00  0.00    -0.003 C 
ATOM     12  C   UNL     1      -0.037  -1.826  10.929  1.00  0.00     0.004 C 
ENDBRANCH  10  11
ENDBRANCH   9  10
ENDBRANCH   8   9
ENDBRANCH   7   8
ENDBRANCH   6   7
ENDBRANCH   5   6
ENDBRANCH   4   5
ENDBRANCH   3   4
ENDBRANCH   2   3
ENDBRANCH   1   2
BRANCH   1  13
ATOM     13  C   UNL     1      -2.385   2.153  11.176  1.00  0.00     0.000 C 
BRANCH  13  14
ATOM     14  C   UNL     1      -2.337   0.919  12.098  1.00  0.00     0.000 C 
BRANCH  14  15
ATOM     15  C   UNL     1      -3.179   1.029  13.386  1.00  0.00     0.000 C 
BRANCH  15  16
ATOM     16  C   UNL     1      -4.705   1.004  13.177  1.00  0.00     0.000 C 
BRANCH  16  17
ATOM     17  C   UNL     1      -5.432   2.118  13.948  1.00  0.00     0.000 C 
BRANCH  17  18
ATOM     18  C   UNL     1      -4.515   2.860  14.940  1.00  0.00     0.000 C 
BRANCH  18  19
ATOM     19  C   UNL     1      -5.214   3.422  16.192  1.00  0.00     0.000 C 
BRANCH  19  20
ATOM     20  C   UNL     1      -6.664   2.931  16.340  1.00  0.00     0.006 C 
BRANCH  20  21
ATOM     21  C   UNL     1      -7.670   4.091  16.332  1.00  0.00     0.053 C 
BRANCH  21  22
ATOM     22  C   UNL     1      -8.132   4.421  14.946  1.00  0.00     0.041 C 
ATOM     23  O   UNL     1      -9.230   3.972  14.521  1.00  0.00    -0.550 OA
ATOM     24  O   UNL     1      -7.338   5.200  14.113  1.00  0.00    -0.550 OA
ENDBRANCH  21  22
ENDBRANCH  20  21
ENDBRANCH  19  20
ENDBRANCH  18  19
ENDBRANCH  17  18
ENDBRANCH  16  17
ENDBRANCH  15  16
ENDBRANCH  14  15
ENDBRANCH  13  14
ENDBRANCH   1  13
TORSDOF 20
ENDMDL
MODEL 3
REMARK VINA RESULT:    -4.381      3.595      7.287
REMARK INTER + INTRA:         -12.704
REMARK INTER:                 -10.152
REMARK INTRA:                  -2.552
REMARK UNBOUND:                -3.202
REMARK SMILES CCCCCCCCCCCCCCCCCCCCCC(=O)[O-]
REMARK SMILES IDX 12 1 11 2 10 3 9 4 8 5 7 6 6 7 5 8 4 9 3 10 2 11 1 12 13 13
REMARK SMILES IDX 14 14 15 15 16 16 17 17 18 18 19 19 20 20 21 21 22 22 23 23
REMARK SMILES IDX 24 24
REMARK H PARENT
REMARK Flexibility Score: inf
ROOT
ATOM      1  C   UNL     1      -6.130   5.700  15.002  1.00  0.00     0.000 C 
ENDROOT
BRANCH   1   2
ATOM      2  C   UNL     1      -7.299   4.764  14.646  1.00  0.00     0.000 C 
BRANCH   2   3
ATOM      3  C   UNL     1      -7.283   3.458  15.459  1.00  0.00     0.000 C 
BRANCH   3   4
ATOM      4  C   UNL     1      -5.904   2.775  15.462  1.00  0.00    -0.000 C 
BRANCH   4   5
ATOM      5  C   UNL     1      -5.464   2.186  14.107  1.00  0.00    -0.000 C 
BRANCH   5   6
ATOM      6  C   UNL     1      -4.018   1.644  14.102  1.00  0.00    -0.000 C 
BRANCH   6   7
ATOM      7  C   UNL     1      -3.145   2.310  15.181  1.00  0.00    -0.000 C 
BRANCH   7   8
ATOM      8  C   UNL     1      -1.641   2.168  14.891  1.00  0.00    -0.000 C 
BRANCH   8   9
ATOM      9  C   UNL     1      -0.996   1.026  15.697  1.00  0.00    -0.000 C 
BRANCH   9  10
ATOM     10  C   UNL     1      -0.813   1.385  17.180  1.00  0.00    -0.000 C 
BRANCH  10  11
ATOM     11  C   UNL     1       0.110   0.402  17.916  1.00  0.00    -0.003 C 
ATOM     12  C   UNL     1      -0.504  -0.041  19.241  1.00  0.00     0.004 C 
ENDBRANCH  10  11
ENDBRANCH   9  10
ENDBRANCH   8   9
ENDBRANCH   7   8
ENDBRANCH   6   7
ENDBRANCH   5   6
ENDBRANCH   4   5
ENDBRANCH   3   4
ENDBRANCH   2   3
ENDBRANCH   1   2
BRANCH   1  13
ATOM     13  C   UNL     1      -5.529   6.476  13.812  1.00  0.00     0.000 C 
BRANCH  13  14
ATOM     14  C   UNL     1      -4.097   6.064  13.421  1.00  0.00     0.000 C 
BRANCH  14  15
ATOM     15  C   UNL     1      -4.001   4.927  12.383  1.00  0.00     0.000 C 
BRANCH  15  16
ATOM     16  C   UNL     1      -2.581   4.630  11.863  1.00  0.00     0.000 C 
BRANCH  16  17
ATOM     17  C   UNL     1      -2.580   3.874  10.525  1.00  0.00     0.000 C 
BRANCH  17  18
ATOM     18  C   UNL     1      -3.991   3.448  10.073  1.00  0.00     0.000 C 
BRANCH  18  19
ATOM     19  C   UNL     1      -4.290   1.940  10.176  1.00  0.00     0.000 C 
BRANCH  19  20
ATOM     20  C   UNL     1      -3.021   1.088  10.344  1.00  0.00     0.006 C 
BRANCH  20  21
ATOM     21  C   UNL     1      -2.866   0.055   9.219  1.00  0.00     0.053 C 
BRANCH  21  22
ATOM     22  C   UNL     1      -3.824  -1.086   9.371  1.00  0.00     0.041 C 
ATOM     23  O   UNL     1      -4.732  -1.269   8.516  1.00  0.00    -0.550 OA
ATOM     24  O   UNL     1      -3.733  -1.931  10.470  1.00  0.00    -0.550 OA
ENDBRANCH  21  22
ENDBRANCH  20  21
ENDBRANCH  19  20
ENDBRANCH  18  19
ENDBRANCH  17  18
ENDBRANCH  16  17
ENDBRANCH  15  16
ENDBRANCH  14  15
ENDBRANCH  13  14
ENDBRANCH   1  13
TORSDOF 20
ENDMDL
MODEL 4
REMARK VINA RESULT:    -4.367      1.537      2.673
REMARK INTER + INTRA:         -12.675
REMARK INTER:                  -9.500
REMARK INTRA:                  -3.175
REMARK UNBOUND:                -3.202
REMARK SMILES CCCCCCCCCCCCCCCCCCCCCC(=O)[O-]
REMARK SMILES IDX 12 1 11 2 10 3 9 4 8 5 7 6 6 7 5 8 4 9 3 10 2 11 1 12 13 13
REMARK SMILES IDX 14 14 15 15 16 16 17 17 18 18 19 19 20 20 21 21 22 22 23 23
REMARK SMILES IDX 24 24
REMARK H PARENT
REMARK Flexibility Score: inf
ROOT
ATOM      1  C   UNL     1      -0.800   1.603  12.727  1.00  0.00     0.000 C 
ENDROOT
BRANCH   1   2
ATOM      2  C   UNL     1      -1.399   3.018  12.635  1.00  0.00     0.000 C 
BRANCH   2   3
ATOM      3  C   UNL     1      -1.851   3.380  11.210  1.00  0.00     0.000 C 
BRANCH   3   4
ATOM      4  C   UNL     1      -3.367   3.619  11.108  1.00  0.00    -0.000 C 
BRANCH   4   5
ATOM      5  C   UNL     1      -4.133   2.598  10.244  1.00  0.00    -0.000 C 
BRANCH   5   6
ATOM      6  C   UNL     1      -3.368   1.278  10.010  1.00  0.00    -0.000 C 
BRANCH   6   7
ATOM      7  C   UNL     1      -3.965   0.110  10.815  1.00  0.00    -0.000 C 
BRANCH   7   8
ATOM      8  C   UNL     1      -3.440  -1.257  10.348  1.00  0.00    -0.000 C 
BRANCH   8   9
ATOM      9  C   UNL     1      -2.574  -1.947  11.417  1.00  0.00    -0.000 C 
BRANCH   9  10
ATOM     10  C   UNL     1      -2.562  -3.476  11.267  1.00  0.00    -0.000 C 
BRANCH  10  11
ATOM     11  C   UNL     1      -3.909  -4.117  11.632  1.00  0.00    -0.003 C 
ATOM     12  C   UNL     1      -4.603  -4.680  10.395  1.00  0.00     0.004 C 
ENDBRANCH  10  11
ENDBRANCH   9  10
ENDBRANCH   8   9
ENDBRANCH   7   8
ENDBRANCH   6   7
ENDBRANCH   5   6
ENDBRANCH   4   5
ENDBRANCH   3   4
ENDBRANCH   2   3
ENDBRANCH   1   2
BRANCH   1  13
ATOM     13  C   UNL     1      -1.463   0.680  13.770  1.00  0.00     0.000 C 
BRANCH  13  14
ATOM     14  C   UNL     1      -2.506   1.363  14.675  1.00  0.00     0.000 C 
BRANCH  14  15
ATOM     15  C   UNL     1      -3.969   1.235  14.205  1.00  0.00     0.000 C 
BRANCH  15  16
ATOM     16  C   UNL     1      -4.895   2.395  14.618  1.00  0.00     0.000 C 
BRANCH  16  17
ATOM     17  C   UNL     1      -4.177   3.464  15.458  1.00  0.00     0.000 C 
BRANCH  17  18
ATOM     18  C   UNL     1      -4.267   4.874  14.842  1.00  0.00     0.000 C 
BRANCH  18  19
ATOM     19  C   UNL     1      -5.322   5.043  13.733  1.00  0.00     0.000 C 
BRANCH  19  20
ATOM     20  C   UNL     1      -6.608   5.727  14.226  1.00  0.00     0.006 C 
BRANCH  20  21
ATOM     21  C   UNL     1      -7.729   4.717  14.506  1.00  0.00     0.053 C 
BRANCH  21  22
ATOM     22  C   UNL     1      -7.806   4.353  15.957  1.00  0.00     0.041 C 
ATOM     23  O   UNL     1      -7.926   3.148  16.303  1.00  0.00    -0.550 OA
ATOM     24  O   UNL     1      -7.773   5.348  16.927  1.00  0.00    -0.550 OA
ENDBRANCH  21  22
ENDBRANCH  20  21
ENDBRANCH  19  20
ENDBRANCH  18  19
ENDBRANCH  17  18
ENDBRANCH  16  17
ENDBRANCH  15  16
ENDBRANCH  14  15
ENDBRANCH  13  14
ENDBRANCH   1  13
TORSDOF 20
ENDMDL
MODEL 5
REMARK VINA RESULT:    -4.358      3.277      7.888
REMARK INTER + INTRA:         -12.654
REMARK INTER:                  -9.466
REMARK INTRA:                  -3.188
REMARK UNBOUND:                -3.202
REMARK SMILES CCCCCCCCCCCCCCCCCCCCCC(=O)[O-]
REMARK SMILES IDX 12 1 11 2 10 3 9 4 8 5 7 6 6 7 5 8 4 9 3 10 2 11 1 12 13 13
REMARK SMILES IDX 14 14 15 15 16 16 17 17 18 18 19 19 20 20 21 21 22 22 23 23
REMARK SMILES IDX 24 24
REMARK H PARENT
REMARK Flexibility Score: inf
ROOT
ATOM      1  C   UNL     1      -1.209   2.625  12.241  1.00  0.00     0.000 C 
ENDROOT
BRANCH   1   2
ATOM      2  C   UNL     1      -2.276   3.706  11.996  1.00  0.00     0.000 C 
BRANCH   2   3
ATOM      3  C   UNL     1      -3.554   3.145  11.351  1.00  0.00     0.000 C 
BRANCH   3   4
ATOM      4  C   UNL     1      -3.408   1.675  10.921  1.00  0.00    -0.000 C 
BRANCH   4   5
ATOM      5  C   UNL     1      -4.405   0.699  11.576  1.00  0.00    -0.000 C 
BRANCH   5   6
ATOM      6  C   UNL     1      -5.248   1.332  12.704  1.00  0.00    -0.000 C 
BRANCH   6   7
ATOM      7  C   UNL     1      -4.656   1.053  14.098  1.00  0.00    -0.000 C 
BRANCH   7   8
ATOM      8  C   UNL     1      -4.718   2.282  15.021  1.00  0.00    -0.000 C 
BRANCH   8   9
ATOM      9  C   UNL     1      -6.030   3.069  14.857  1.00  0.00    -0.000 C 
BRANCH   9  10
ATOM     10  C   UNL     1      -6.819   3.176  16.172  1.00  0.00    -0.000 C 
BRANCH  10  11
ATOM     11  C   UNL     1      -8.117   3.984  16.019  1.00  0.00    -0.003 C 
ATOM     12  C   UNL     1      -8.499   4.136  14.550  1.00  0.00     0.004 C 
ENDBRANCH  10  11
ENDBRANCH   9  10
ENDBRANCH   8   9
ENDBRANCH   7   8
ENDBRANCH   6   7
ENDBRANCH   5   6
ENDBRANCH   4   5
ENDBRANCH   3   4
ENDBRANCH   2   3
ENDBRANCH   1   2
BRANCH   1  13
ATOM     13  C   UNL     1      -1.163   2.067  13.678  1.00  0.00     0.000 C 
BRANCH  13  14
ATOM     14  C   UNL     1      -1.069   0.532  13.779  1.00  0.00     0.000 C 
BRANCH  14  15
ATOM     15  C   UNL     1      -0.347  -0.160  12.604  1.00  0.00     0.000 C 
BRANCH  15  16
ATOM     16  C   UNL     1      -1.224  -1.103  11.759  1.00  0.00     0.000 C 
BRANCH  16  17
ATOM     17  C   UNL     1      -0.841  -2.583  11.921  1.00  0.00     0.000 C 
BRANCH  17  18
ATOM     18  C   UNL     1      -2.064  -3.519  11.979  1.00  0.00     0.000 C 
BRANCH  18  19
ATOM     19  C   UNL     1      -3.361  -2.949  11.374  1.00  0.00     0.000 C 
BRANCH  19  20
ATOM     20  C   UNL     1      -3.859  -3.750  10.160  1.00  0.00     0.006 C 
BRANCH  20  21
ATOM     21  C   UNL     1      -3.211  -3.277   8.851  1.00  0.00     0.053 C 
BRANCH  21  22
ATOM     22  C   UNL     1      -3.428  -1.814   8.615  1.00  0.00     0.041 C 
ATOM     23  O   UNL     1      -2.443  -1.043   8.468  1.00  0.00    -0.550 OA
ATOM     24  O   UNL     1      -4.718  -1.297   8.586  1.00  0.00    -0.550 OA
ENDBRANCH  21  22
ENDBRANCH  20  21
ENDBRANCH  19  20
ENDBRANCH  18  19
ENDBRANCH  17  18
ENDBRANCH  16  17
ENDBRANCH  15  16
ENDBRANCH  14  15
ENDBRANCH  13  14
ENDBRANCH   1  13
TORSDOF 20
ENDMDL
MODEL 6
REMARK VINA RESULT:    -4.357      1.543      3.414
REMARK INTER + INTRA:         -12.653
REMARK INTER:                  -8.999
REMARK INTRA:                  -3.654
REMARK UNBOUND:                -3.202
REMARK SMILES CCCCCCCCCCCCCCCCCCCCCC(=O)[O-]
REMARK SMILES IDX 12 1 11 2 10 3 9 4 8 5 7 6 6 7 5 8 4 9 3 10 2 11 1 12 13 13
REMARK SMILES IDX 14 14 15 15 16 16 17 17 18 18 19 19 20 20 21 21 22 22 23 23
REMARK SMILES IDX 24 24
REMARK H PARENT
REMARK Flexibility Score: inf
ROOT
ATOM      1  C   UNL     1      -1.598   1.317  14.079  1.00  0.00     0.000 C 
ENDROOT
BRANCH   1   2
ATOM      2  C   UNL     1      -0.253   0.603  13.854  1.00  0.00     0.000 C 
BRANCH   2   3
ATOM      3  C   UNL     1      -0.168  -0.086  12.481  1.00  0.00     0.000 C 
BRANCH   3   4
ATOM      4  C   UNL     1      -1.378  -0.992  12.194  1.00  0.00    -0.000 C 
BRANCH   4   5
ATOM      5  C   UNL     1      -1.072  -2.503  12.170  1.00  0.00    -0.000 C 
BRANCH   5   6
ATOM      6  C   UNL     1      -1.676  -3.243  10.957  1.00  0.00    -0.000 C 
BRANCH   6   7
ATOM      7  C   UNL     1      -3.142  -3.647  11.195  1.00  0.00    -0.000 C 
BRANCH   7   8
ATOM      8  C   UNL     1      -4.056  -3.269  10.018  1.00  0.00    -0.000 C 
BRANCH   8   9
ATOM      9  C   UNL     1      -3.284  -2.582   8.877  1.00  0.00    -0.000 C 
BRANCH   9  10
ATOM     10  C   UNL     1      -3.716  -1.121   8.672  1.00  0.00    -0.000 C 
BRANCH  10  11
ATOM     11  C   UNL     1      -2.535  -0.141   8.732  1.00  0.00    -0.003 C 
ATOM     12  C   UNL     1      -1.252  -0.795   8.228  1.00  0.00     0.004 C 
ENDBRANCH  10  11
ENDBRANCH   9  10
ENDBRANCH   8   9
ENDBRANCH   7   8
ENDBRANCH   6   7
ENDBRANCH   5   6
ENDBRANCH   4   5
ENDBRANCH   3   4
ENDBRANCH   2   3
ENDBRANCH   1   2
BRANCH   1  13
ATOM     13  C   UNL     1      -1.534   2.857  14.039  1.00  0.00     0.000 C 
BRANCH  13  14
ATOM     14  C   UNL     1      -2.296   3.511  12.870  1.00  0.00     0.000 C 
BRANCH  14  15
ATOM     15  C   UNL     1      -2.517   2.605  11.642  1.00  0.00     0.000 C 
BRANCH  15  16
ATOM     16  C   UNL     1      -3.990   2.306  11.304  1.00  0.00     0.000 C 
BRANCH  16  17
ATOM     17  C   UNL     1      -4.390   0.853  11.606  1.00  0.00     0.000 C 
BRANCH  17  18
ATOM     18  C   UNL     1      -5.027   0.682  12.999  1.00  0.00     0.000 C 
BRANCH  18  19
ATOM     19  C   UNL     1      -5.524   1.980  13.661  1.00  0.00     0.000 C 
BRANCH  19  20
ATOM     20  C   UNL     1      -5.050   2.131  15.116  1.00  0.00     0.006 C 
BRANCH  20  21
ATOM     21  C   UNL     1      -5.076   3.593  15.583  1.00  0.00     0.053 C 
BRANCH  21  22
ATOM     22  C   UNL     1      -6.308   3.905  16.377  1.00  0.00     0.041 C 
ATOM     23  O   UNL     1      -6.439   5.031  16.927  1.00  0.00    -0.550 OA
ATOM     24  O   UNL     1      -7.298   2.943  16.533  1.00  0.00    -0.550 OA
ENDBRANCH  21  22
ENDBRANCH  20  21
ENDBRANCH  19  20
ENDBRANCH  18  19
ENDBRANCH  17  18
ENDBRANCH  16  17
ENDBRANCH  15  16
ENDBRANCH  14  15
ENDBRANCH  13  14
ENDBRANCH   1  13
TORSDOF 20
ENDMDL
MODEL 7
REMARK VINA RESULT:    -4.349      3.646      7.693
REMARK INTER + INTRA:         -12.635
REMARK INTER:                  -9.055
REMARK INTRA:                  -3.580
REMARK UNBOUND:                -3.202
REMARK SMILES CCCCCCCCCCCCCCCCCCCCCC(=O)[O-]
REMARK SMILES IDX 12 1 11 2 10 3 9 4 8 5 7 6 6 7 5 8 4 9 3 10 2 11 1 12 13 13
REMARK SMILES IDX 14 14 15 15 16 16 17 17 18 18 19 19 20 20 21 21 22 22 23 23
REMARK SMILES IDX 24 24
REMARK H PARENT
REMARK Flexibility Score: inf
ROOT
ATOM      1  C   UNL     1      -1.000  -1.295  11.793  1.00  0.00     0.000 C 
ENDROOT
BRANCH   1   2
ATOM      2  C   UNL     1      -0.201  -0.398  12.755  1.00  0.00     0.000 C 
BRANCH   2   3
ATOM      3  C   UNL     1      -0.990   0.843  13.205  1.00  0.00     0.000 C 
BRANCH   3   4
ATOM      4  C   UNL     1      -1.040   0.995  14.735  1.00  0.00    -0.000 C 
BRANCH   4   5
ATOM      5  C   UNL     1      -2.314   1.667  15.284  1.00  0.00    -0.000 C 
BRANCH   5   6
ATOM      6  C   UNL     1      -3.277   2.170  14.187  1.00  0.00    -0.000 C 
BRANCH   6   7
ATOM      7  C   UNL     1      -4.623   1.424  14.209  1.00  0.00    -0.000 C 
BRANCH   7   8
ATOM      8  C   UNL     1      -5.231   1.264  12.805  1.00  0.00    -0.000 C 
BRANCH   8   9
ATOM      9  C   UNL     1      -4.278   0.542  11.836  1.00  0.00    -0.000 C 
BRANCH   9  10
ATOM     10  C   UNL     1      -4.142   1.275  10.491  1.00  0.00    -0.000 C 
BRANCH  10  11
ATOM     11  C   UNL     1      -2.950   2.244  10.463  1.00  0.00    -0.003 C 
ATOM     12  C   UNL     1      -1.794   1.668   9.652  1.00  0.00     0.004 C 
ENDBRANCH  10  11
ENDBRANCH   9  10
ENDBRANCH   8   9
ENDBRANCH   7   8
ENDBRANCH   6   7
ENDBRANCH   5   6
ENDBRANCH   4   5
ENDBRANCH   3   4
ENDBRANCH   2   3
ENDBRANCH   1   2
BRANCH   1  13
ATOM     13  C   UNL     1      -0.987  -2.798  12.139  1.00  0.00     0.000 C 
BRANCH  13  14
ATOM     14  C   UNL     1       0.095  -3.623  11.416  1.00  0.00     0.000 C 
BRANCH  14  15
ATOM     15  C   UNL     1      -0.213  -3.964   9.944  1.00  0.00     0.000 C 
BRANCH  15  16
ATOM     16  C   UNL     1       0.516  -3.094   8.902  1.00  0.00     0.000 C 
BRANCH  16  17
ATOM     17  C   UNL     1      -0.430  -2.148   8.146  1.00  0.00     0.000 C 
BRANCH  17  18
ATOM     18  C   UNL     1      -1.881  -2.667   8.088  1.00  0.00     0.000 C 
BRANCH  18  19
ATOM     19  C   UNL     1      -2.955  -1.678   8.577  1.00  0.00     0.000 C 
BRANCH  19  20
ATOM     20  C   UNL     1      -4.111  -2.367   9.322  1.00  0.00     0.006 C 
BRANCH  20  21
ATOM     21  C   UNL     1      -3.950  -3.894   9.351  1.00  0.00     0.053 C 
BRANCH  21  22
ATOM     22  C   UNL     1      -4.417  -4.481  10.648  1.00  0.00     0.041 C 
ATOM     23  O   UNL     1      -4.083  -3.949  11.740  1.00  0.00    -0.550 OA
ATOM     24  O   UNL     1      -5.198  -5.630  10.651  1.00  0.00    -0.550 OA
ENDBRANCH  21  22
ENDBRANCH  20  21
ENDBRANCH  19  20
ENDBRANCH  18  19
ENDBRANCH  17  18
ENDBRANCH  16  17
ENDBRANCH  15  16
ENDBRANCH  14  15
ENDBRANCH  13  14
ENDBRANCH   1  13
TORSDOF 20
ENDMDL
MODEL 8
REMARK VINA RESULT:    -4.330      3.305      7.991
REMARK INTER + INTRA:         -12.594
REMARK INTER:                  -9.468
REMARK INTRA:                  -3.127
REMARK UNBOUND:                -3.202
REMARK SMILES CCCCCCCCCCCCCCCCCCCCCC(=O)[O-]
REMARK SMILES IDX 12 1 11 2 10 3 9 4 8 5 7 6 6 7 5 8 4 9 3 10 2 11 1 12 13 13
REMARK SMILES IDX 14 14 15 15 16 16 17 17 18 18 19 19 20 20 21 21 22 22 23 23
REMARK SMILES IDX 24 24
REMARK H PARENT
REMARK Flexibility Score: inf
ROOT
ATOM      1  C   UNL     1      -3.934   5.385  12.575  1.00  0.00     0.000 C 
ENDROOT
BRANCH   1   2
ATOM      2  C   UNL     1      -3.648   5.248  14.081  1.00  0.00     0.000 C 
BRANCH   2   3
ATOM      3  C   UNL     1      -4.181   6.438  14.898  1.00  0.00     0.000 C 
BRANCH   3   4
ATOM      4  C   UNL     1      -5.032   6.001  16.102  1.00  0.00    -0.000 C 
BRANCH   4   5
ATOM      5  C   UNL     1      -6.551   5.951  15.847  1.00  0.00    -0.000 C 
BRANCH   5   6
ATOM      6  C   UNL     1      -7.051   4.590  15.316  1.00  0.00    -0.000 C 
BRANCH   6   7
ATOM      7  C   UNL     1      -6.677   3.428  16.253  1.00  0.00    -0.000 C 
BRANCH   7   8
ATOM      8  C   UNL     1      -5.580   2.525  15.665  1.00  0.00    -0.000 C 
BRANCH   8   9
ATOM      9  C   UNL     1      -5.745   2.320  14.148  1.00  0.00    -0.000 C 
BRANCH   9  10
ATOM     10  C   UNL     1      -4.565   1.556  13.527  1.00  0.00    -0.000 C 
BRANCH  10  11
ATOM     11  C   UNL     1      -3.386   1.396  14.499  1.00  0.00    -0.003 C 
ATOM     12  C   UNL     1      -2.052   1.555  13.776  1.00  0.00     0.004 C 
ENDBRANCH  10  11
ENDBRANCH   9  10
ENDBRANCH   8   9
ENDBRANCH   7   8
ENDBRANCH   6   7
ENDBRANCH   5   6
ENDBRANCH   4   5
ENDBRANCH   3   4
ENDBRANCH   2   3
ENDBRANCH   1   2
BRANCH   1  13
ATOM     13  C   UNL     1      -3.093   4.467  11.665  1.00  0.00     0.000 C 
BRANCH  13  14
ATOM     14  C   UNL     1      -3.740   4.122  10.310  1.00  0.00     0.000 C 
BRANCH  14  15
ATOM     15  C   UNL     1      -3.994   2.620  10.066  1.00  0.00     0.000 C 
BRANCH  15  16
ATOM     16  C   UNL     1      -2.750   1.718  10.180  1.00  0.00     0.000 C 
BRANCH  16  17
ATOM     17  C   UNL     1      -2.709   0.619   9.106  1.00  0.00     0.000 C 
BRANCH  17  18
ATOM     18  C   UNL     1      -3.598  -0.593   9.450  1.00  0.00     0.000 C 
BRANCH  18  19
ATOM     19  C   UNL     1      -3.670  -0.954  10.945  1.00  0.00     0.000 C 
BRANCH  19  20
ATOM     20  C   UNL     1      -2.596  -1.971  11.369  1.00  0.00     0.006 C 
BRANCH  20  21
ATOM     21  C   UNL     1      -2.638  -3.245  10.515  1.00  0.00     0.053 C 
BRANCH  21  22
ATOM     22  C   UNL     1      -3.929  -3.987  10.681  1.00  0.00     0.041 C 
ATOM     23  O   UNL     1      -4.339  -4.296  11.832  1.00  0.00    -0.550 OA
ATOM     24  O   UNL     1      -4.665  -4.364   9.564  1.00  0.00    -0.550 OA
ENDBRANCH  21  22
ENDBRANCH  20  21
ENDBRANCH  19  20
ENDBRANCH  18  19
ENDBRANCH  17  18
ENDBRANCH  16  17
ENDBRANCH  15  16
ENDBRANCH  14  15
ENDBRANCH  13  14
ENDBRANCH   1  13
TORSDOF 20
ENDMDL
MODEL 9
REMARK VINA RESULT:    -4.305      3.655      8.169
REMARK INTER + INTRA:         -12.539
REMARK INTER:                  -9.291
REMARK INTRA:                  -3.248
REMARK UNBOUND:                -3.202
REMARK SMILES CCCCCCCCCCCCCCCCCCCCCC(=O)[O-]
REMARK SMILES IDX 12 1 11 2 10 3 9 4 8 5 7 6 6 7 5 8 4 9 3 10 2 11 1 12 13 13
REMARK SMILES IDX 14 14 15 15 16 16 17 17 18 18 19 19 20 20 21 21 22 22 23 23
REMARK SMILES IDX 24 24
REMARK H PARENT
REMARK Flexibility Score: inf
ROOT
ATOM      1  C   UNL     1      -3.770   4.605  11.987  1.00  0.00     0.000 C 
ENDROOT
BRANCH   1   2
ATOM      2  C   UNL     1      -2.753   5.381  12.842  1.00  0.00     0.000 C 
BRANCH   2   3
ATOM      3  C   UNL     1      -2.264   4.577  14.059  1.00  0.00     0.000 C 
BRANCH   3   4
ATOM      4  C   UNL     1      -2.072   3.083  13.748  1.00  0.00    -0.000 C 
BRANCH   4   5
ATOM      5  C   UNL     1      -2.581   2.117  14.836  1.00  0.00    -0.000 C 
BRANCH   5   6
ATOM      6  C   UNL     1      -3.966   1.507  14.531  1.00  0.00    -0.000 C 
BRANCH   6   7
ATOM      7  C   UNL     1      -5.105   2.271  15.230  1.00  0.00    -0.000 C 
BRANCH   7   8
ATOM      8  C   UNL     1      -6.123   2.851  14.235  1.00  0.00    -0.000 C 
BRANCH   8   9
ATOM      9  C   UNL     1      -6.499   4.306  14.566  1.00  0.00    -0.000 C 
BRANCH   9  10
ATOM     10  C   UNL     1      -5.542   4.944  15.586  1.00  0.00    -0.000 C 
BRANCH  10  11
ATOM     11  C   UNL     1      -6.276   5.510  16.811  1.00  0.00    -0.003 C 
ATOM     12  C   UNL     1      -7.744   5.097  16.811  1.00  0.00     0.004 C 
ENDBRANCH  10  11
ENDBRANCH   9  10
ENDBRANCH   8   9
ENDBRANCH   7   8
ENDBRANCH   6   7
ENDBRANCH   5   6
ENDBRANCH   4   5
ENDBRANCH   3   4
ENDBRANCH   2   3
ENDBRANCH   1   2
BRANCH   1  13
ATOM     13  C   UNL     1      -3.354   4.385  10.518  1.00  0.00     0.000 C 
BRANCH  13  14
ATOM     14  C   UNL     1      -3.598   2.963   9.977  1.00  0.00     0.000 C 
BRANCH  14  15
ATOM     15  C   UNL     1      -4.254   1.985  10.974  1.00  0.00     0.000 C 
BRANCH  15  16
ATOM     16  C   UNL     1      -3.943   0.495  10.733  1.00  0.00     0.000 C 
BRANCH  16  17
ATOM     17  C   UNL     1      -2.438   0.185  10.771  1.00  0.00     0.000 C 
BRANCH  17  18
ATOM     18  C   UNL     1      -2.006  -0.539  12.062  1.00  0.00     0.000 C 
BRANCH  18  19
ATOM     19  C   UNL     1      -1.180  -1.822  11.854  1.00  0.00     0.000 C 
BRANCH  19  20
ATOM     20  C   UNL     1      -1.855  -2.822  10.900  1.00  0.00     0.006 C 
BRANCH  20  21
ATOM     21  C   UNL     1      -3.102  -3.463  11.524  1.00  0.00     0.053 C 
BRANCH  21  22
ATOM     22  C   UNL     1      -3.848  -4.309  10.539  1.00  0.00     0.041 C 
ATOM     23  O   UNL     1      -4.729  -5.117  10.937  1.00  0.00    -0.550 OA
ATOM     24  O   UNL     1      -3.552  -4.227   9.184  1.00  0.00    -0.550 OA
ENDBRANCH  21  22
ENDBRANCH  20  21
ENDBRANCH  19  20
ENDBRANCH  18  19
ENDBRANCH  17  18
ENDBRANCH  16  17
ENDBRANCH  15  16
ENDBRANCH  14  15
ENDBRANCH  13  14
ENDBRANCH   1  13
TORSDOF 20
ENDMDL
