MODEL 1
REMARK VINA RESULT:    -5.551      0.000      0.000
REMARK INTER + INTRA:          -8.972
REMARK INTER:                  -8.471
REMARK INTRA:                  -0.501
REMARK UNBOUND:                -0.501
REMARK SMILES O=C([O-])CCCCCCCCC(=O)[O-]
REMARK SMILES IDX 7 1 6 2 5 3 4 4 2 5 1 6 3 7 8 8 9 9 10 10 11 11 12 12 13 13
REMARK SMILES IDX 14 14
REMARK H PARENT
REMARK Flexibility Score: inf
ROOT
ATOM      1  C   UNL     1      14.933   2.445  15.076  1.00  0.00     0.000 C 
ENDROOT
BRANCH   1   2
ATOM      2  C   UNL     1      15.400   2.797  13.652  1.00  0.00     0.000 C 
BRANCH   2   3
ATOM      3  C   UNL     1      15.464   1.606  12.675  1.00  0.00     0.006 C 
BRANCH   3   4
ATOM      4  C   UNL     1      16.149   1.914  11.334  1.00  0.00     0.053 C 
BRANCH   4   5
ATOM      5  C   UNL     1      17.365   1.066  11.118  1.00  0.00     0.041 C 
ATOM      6  O   UNL     1      17.785   0.845   9.952  1.00  0.00    -0.550 OA
ATOM      7  O   UNL     1      18.013   0.492  12.204  1.00  0.00    -0.550 OA
ENDBRANCH   4   5
ENDBRANCH   3   4
ENDBRANCH   2   3
ENDBRANCH   1   2
BRANCH   1   8
ATOM      8  C   UNL     1      13.420   2.640  15.271  1.00  0.00     0.000 C 
BRANCH   8   9
ATOM      9  C   UNL     1      13.069   3.254  16.639  1.00  0.00     0.000 C 
BRANCH   9  10
ATOM     10  C   UNL     1      14.270   3.486  17.573  1.00  0.00     0.006 C 
BRANCH  10  11
ATOM     11  C   UNL     1      14.194   2.659  18.862  1.00  0.00     0.053 C 
BRANCH  11  12
ATOM     12  C   UNL     1      14.816   1.313  18.658  1.00  0.00     0.041 C 
ATOM     13  O   UNL     1      14.097   0.320  18.368  1.00  0.00    -0.550 OA
ATOM     14  O   UNL     1      16.195   1.165  18.737  1.00  0.00    -0.550 OA
ENDBRANCH  11  12
ENDBRANCH  10  11
ENDBRANCH   9  10
ENDBRANCH   8   9
ENDBRANCH   1   8
TORSDOF 9
ENDMDL
MODEL 2
REMARK VINA RESULT:    -5.510      0.731      6.817
REMARK INTER + INTRA:          -8.909
REMARK INTER:                  -8.490
REMARK INTRA:                  -0.420
REMARK UNBOUND:                -0.501
REMARK SMILES O=C([O-])CCCCCCCCC(=O)[O-]
REMARK SMILES IDX 7 1 6 2 5 3 4 4 2 5 1 6 3 7 8 8 9 9 10 10 11 11 12 12 13 13
REMARK SMILES IDX 14 14
REMARK H PARENT
REMARK Flexibility Score: inf
ROOT
ATOM      1  C   UNL     1      13.288   2.589  15.211  1.00  0.00     0.000 C 
ENDROOT
BRANCH   1   2
ATOM      2  C   UNL     1      12.966   3.355  16.507  1.00  0.00     0.000 C 
BRANCH   2   3
ATOM      3  C   UNL     1      14.186   3.668  17.397  1.00  0.00     0.006 C 
BRANCH   3   4
ATOM      4  C   UNL     1      14.015   3.282  18.875  1.00  0.00     0.053 C 
BRANCH   4   5
ATOM      5  C   UNL     1      14.759   2.027  19.215  1.00  0.00     0.041 C 
ATOM      6  O   UNL     1      14.877   1.666  20.415  1.00  0.00    -0.550 OA
ATOM      7  O   UNL     1      15.349   1.274  18.208  1.00  0.00    -0.550 OA
ENDBRANCH   4   5
ENDBRANCH   3   4
ENDBRANCH   2   3
ENDBRANCH   1   2
BRANCH   1   8
ATOM      8  C   UNL     1      14.796   2.517  14.920  1.00  0.00     0.000 C 
BRANCH   8   9
ATOM      9  C   UNL     1      15.141   2.869  13.461  1.00  0.00     0.000 C 
BRANCH   9  10
ATOM     10  C   UNL     1      15.461   1.661  12.562  1.00  0.00     0.006 C 
BRANCH  10  11
ATOM     11  C   UNL     1      16.329   2.029  11.353  1.00  0.00     0.053 C 
BRANCH  11  12
ATOM     12  C   UNL     1      17.391   0.996  11.138  1.00  0.00     0.041 C 
ATOM     13  O   UNL     1      17.901   0.398  12.123  1.00  0.00    -0.550 OA
ATOM     14  O   UNL     1      17.781   0.658   9.849  1.00  0.00    -0.550 OA
ENDBRANCH  11  12
ENDBRANCH  10  11
ENDBRANCH   9  10
ENDBRANCH   8   9
ENDBRANCH   1   8
TORSDOF 9
ENDMDL
MODEL 3
REMARK VINA RESULT:    -5.486      3.073      5.340
REMARK INTER + INTRA:          -8.873
REMARK INTER:                  -8.003
REMARK INTRA:                  -0.870
REMARK UNBOUND:                -0.501
REMARK SMILES O=C([O-])CCCCCCCCC(=O)[O-]
REMARK SMILES IDX 7 1 6 2 5 3 4 4 2 5 1 6 3 7 8 8 9 9 10 10 11 11 12 12 13 13
REMARK SMILES IDX 14 14
REMARK H PARENT
REMARK Flexibility Score: inf
ROOT
ATOM      1  C   UNL     1      17.515  -0.320  12.293  1.00  0.00     0.000 C 
ENDROOT
BRANCH   1   2
ATOM      2  C   UNL     1      18.394  -0.463  13.549  1.00  0.00     0.000 C 
BRANCH   2   3
ATOM      3  C   UNL     1      17.739   0.016  14.860  1.00  0.00     0.006 C 
BRANCH   3   4
ATOM      4  C   UNL     1      16.377  -0.628  15.167  1.00  0.00     0.053 C 
BRANCH   4   5
ATOM      5  C   UNL     1      16.377  -1.335  16.488  1.00  0.00     0.041 C 
ATOM      6  O   UNL     1      15.468  -1.107  17.328  1.00  0.00    -0.550 OA
ATOM      7  O   UNL     1      17.400  -2.220  16.802  1.00  0.00    -0.550 OA
ENDBRANCH   4   5
ENDBRANCH   3   4
ENDBRANCH   2   3
ENDBRANCH   1   2
BRANCH   1   8
ATOM      8  C   UNL     1      17.830   0.952  11.488  1.00  0.00     0.000 C 
BRANCH   8   9
ATOM      9  C   UNL     1      16.586   1.826  11.241  1.00  0.00     0.000 C 
BRANCH   9  10
ATOM     10  C   UNL     1      15.494   1.718  12.319  1.00  0.00     0.006 C 
BRANCH  10  11
ATOM     11  C   UNL     1      15.358   2.992  13.163  1.00  0.00     0.053 C 
BRANCH  11  12
ATOM     12  C   UNL     1      14.803   2.668  14.514  1.00  0.00     0.041 C 
ATOM     13  O   UNL     1      13.642   2.192  14.624  1.00  0.00    -0.550 OA
ATOM     14  O   UNL     1      15.585   2.845  15.648  1.00  0.00    -0.550 OA
ENDBRANCH  11  12
ENDBRANCH  10  11
ENDBRANCH   9  10
ENDBRANCH   8   9
ENDBRANCH   1   8
TORSDOF 9
ENDMDL
MODEL 4
REMARK VINA RESULT:    -5.424      2.314      5.372
REMARK INTER + INTRA:          -8.779
REMARK INTER:                  -7.957
REMARK INTRA:                  -0.822
REMARK UNBOUND:                -0.501
REMARK SMILES O=C([O-])CCCCCCCCC(=O)[O-]
REMARK SMILES IDX 7 1 6 2 5 3 4 4 2 5 1 6 3 7 8 8 9 9 10 10 11 11 12 12 13 13
REMARK SMILES IDX 14 14
REMARK H PARENT
REMARK Flexibility Score: inf
ROOT
ATOM      1  C   UNL     1      15.968   2.176  11.607  1.00  0.00     0.000 C 
ENDROOT
BRANCH   1   2
ATOM      2  C   UNL     1      15.101   1.752  12.806  1.00  0.00     0.000 C 
BRANCH   2   3
ATOM      3  C   UNL     1      15.238   2.645  14.056  1.00  0.00     0.006 C 
BRANCH   3   4
ATOM      4  C   UNL     1      14.070   2.539  15.049  1.00  0.00     0.053 C 
BRANCH   4   5
ATOM      5  C   UNL     1      14.548   2.428  16.465  1.00  0.00     0.041 C 
ATOM      6  O   UNL     1      14.135   1.495  17.202  1.00  0.00    -0.550 OA
ATOM      7  O   UNL     1      15.425   3.374  16.978  1.00  0.00    -0.550 OA
ENDBRANCH   4   5
ENDBRANCH   3   4
ENDBRANCH   2   3
ENDBRANCH   1   2
BRANCH   1   8
ATOM      8  C   UNL     1      16.821   1.023  11.051  1.00  0.00     0.000 C 
BRANCH   8   9
ATOM      9  C   UNL     1      18.020   0.679  11.954  1.00  0.00     0.000 C 
BRANCH   9  10
ATOM     10  C   UNL     1      17.783  -0.488  12.928  1.00  0.00     0.006 C 
BRANCH  10  11
ATOM     11  C   UNL     1      18.451  -0.275  14.292  1.00  0.00     0.053 C 
BRANCH  11  12
ATOM     12  C   UNL     1      17.419  -0.028  15.348  1.00  0.00     0.041 C 
ATOM     13  O   UNL     1      16.288  -0.577  15.268  1.00  0.00    -0.550 OA
ATOM     14  O   UNL     1      17.723   0.767  16.445  1.00  0.00    -0.550 OA
ENDBRANCH  11  12
ENDBRANCH  10  11
ENDBRANCH   9  10
ENDBRANCH   8   9
ENDBRANCH   1   8
TORSDOF 9
ENDMDL
MODEL 5
REMARK VINA RESULT:    -5.424      2.430      5.502
REMARK INTER + INTRA:          -8.778
REMARK INTER:                  -8.168
REMARK INTRA:                  -0.610
REMARK UNBOUND:                -0.501
REMARK SMILES O=C([O-])CCCCCCCCC(=O)[O-]
REMARK SMILES IDX 7 1 6 2 5 3 4 4 2 5 1 6 3 7 8 8 9 9 10 10 11 11 12 12 13 13
REMARK SMILES IDX 14 14
REMARK H PARENT
REMARK Flexibility Score: inf
ROOT
ATOM      1  C   UNL     1      14.000   1.618  19.075  1.00  0.00     0.000 C 
ENDROOT
BRANCH   1   2
ATOM      2  C   UNL     1      15.102   1.300  20.102  1.00  0.00     0.000 C 
BRANCH   2   3
ATOM      3  C   UNL     1      15.831  -0.041  19.879  1.00  0.00     0.006 C 
BRANCH   3   4
ATOM      4  C   UNL     1      17.248   0.091  19.298  1.00  0.00     0.053 C 
BRANCH   4   5
ATOM      5  C   UNL     1      17.226   0.478  17.851  1.00  0.00     0.041 C 
ATOM      6  O   UNL     1      17.793   1.536  17.470  1.00  0.00    -0.550 OA
ATOM      7  O   UNL     1      16.552  -0.313  16.931  1.00  0.00    -0.550 OA
ENDBRANCH   4   5
ENDBRANCH   3   4
ENDBRANCH   2   3
ENDBRANCH   1   2
BRANCH   1   8
ATOM      8  C   UNL     1      14.225   2.959  18.357  1.00  0.00     0.000 C 
BRANCH   8   9
ATOM      9  C   UNL     1      13.088   3.312  17.380  1.00  0.00     0.000 C 
BRANCH   9  10
ATOM     10  C   UNL     1      13.299   2.821  15.937  1.00  0.00     0.006 C 
BRANCH  10  11
ATOM     11  C   UNL     1      14.777   2.608  15.587  1.00  0.00     0.053 C 
BRANCH  11  12
ATOM     12  C   UNL     1      14.932   2.319  14.127  1.00  0.00     0.041 C 
ATOM     13  O   UNL     1      15.518   3.144  13.377  1.00  0.00    -0.550 OA
ATOM     14  O   UNL     1      14.474   1.116  13.604  1.00  0.00    -0.550 OA
ENDBRANCH  11  12
ENDBRANCH  10  11
ENDBRANCH   9  10
ENDBRANCH   8   9
ENDBRANCH   1   8
TORSDOF 9
ENDMDL
MODEL 6
REMARK VINA RESULT:    -5.416      2.922      5.668
REMARK INTER + INTRA:          -8.767
REMARK INTER:                  -7.830
REMARK INTRA:                  -0.937
REMARK UNBOUND:                -0.501
REMARK SMILES O=C([O-])CCCCCCCCC(=O)[O-]
REMARK SMILES IDX 7 1 6 2 5 3 4 4 2 5 1 6 3 7 8 8 9 9 10 10 11 11 12 12 13 13
REMARK SMILES IDX 14 14
REMARK H PARENT
REMARK Flexibility Score: inf
ROOT
ATOM      1  C   UNL     1      13.915   3.428  18.414  1.00  0.00     0.000 C 
ENDROOT
BRANCH   1   2
ATOM      2  C   UNL     1      13.863   1.947  18.833  1.00  0.00     0.000 C 
BRANCH   2   3
ATOM      3  C   UNL     1      15.114   1.438  19.577  1.00  0.00     0.006 C 
BRANCH   3   4
ATOM      4  C   UNL     1      15.248  -0.093  19.630  1.00  0.00     0.053 C 
BRANCH   4   5
ATOM      5  C   UNL     1      16.671  -0.536  19.479  1.00  0.00     0.041 C 
ATOM      6  O   UNL     1      17.606   0.304  19.547  1.00  0.00    -0.550 OA
ATOM      7  O   UNL     1      16.961  -1.870  19.230  1.00  0.00    -0.550 OA
ENDBRANCH   4   5
ENDBRANCH   3   4
ENDBRANCH   2   3
ENDBRANCH   1   2
BRANCH   1   8
ATOM      8  C   UNL     1      13.181   3.698  17.090  1.00  0.00     0.000 C 
BRANCH   8   9
ATOM      9  C   UNL     1      13.326   2.545  16.080  1.00  0.00     0.000 C 
BRANCH   9  10
ATOM     10  C   UNL     1      14.581   2.615  15.192  1.00  0.00     0.006 C 
BRANCH  10  11
ATOM     11  C   UNL     1      15.099   1.232  14.778  1.00  0.00     0.053 C 
BRANCH  11  12
ATOM     12  C   UNL     1      16.034   0.692  15.814  1.00  0.00     0.041 C 
ATOM     13  O   UNL     1      16.745   1.476  16.496  1.00  0.00    -0.550 OA
ATOM     14  O   UNL     1      16.082  -0.674  16.062  1.00  0.00    -0.550 OA
ENDBRANCH  11  12
ENDBRANCH  10  11
ENDBRANCH   9  10
ENDBRANCH   8   9
ENDBRANCH   1   8
TORSDOF 9
ENDMDL
MODEL 7
REMARK VINA RESULT:    -5.406      2.222      3.513
REMARK INTER + INTRA:          -8.751
REMARK INTER:                  -8.101
REMARK INTRA:                  -0.650
REMARK UNBOUND:                -0.501
REMARK SMILES O=C([O-])CCCCCCCCC(=O)[O-]
REMARK SMILES IDX 7 1 6 2 5 3 4 4 2 5 1 6 3 7 8 8 9 9 10 10 11 11 12 12 13 13
REMARK SMILES IDX 14 14
REMARK H PARENT
REMARK Flexibility Score: inf
ROOT
ATOM      1  C   UNL     1      13.319   3.353  18.097  1.00  0.00     0.000 C 
ENDROOT
BRANCH   1   2
ATOM      2  C   UNL     1      13.058   3.382  16.580  1.00  0.00     0.000 C 
BRANCH   2   3
ATOM      3  C   UNL     1      13.705   2.229  15.786  1.00  0.00     0.006 C 
BRANCH   3   4
ATOM      4  C   UNL     1      15.063   2.572  15.152  1.00  0.00     0.053 C 
BRANCH   4   5
ATOM      5  C   UNL     1      15.050   2.379  13.666  1.00  0.00     0.041 C 
ATOM      6  O   UNL     1      15.341   3.336  12.901  1.00  0.00    -0.550 OA
ATOM      7  O   UNL     1      14.687   1.152  13.128  1.00  0.00    -0.550 OA
ENDBRANCH   4   5
ENDBRANCH   3   4
ENDBRANCH   2   3
ENDBRANCH   1   2
BRANCH   1   8
ATOM      8  C   UNL     1      13.624   1.939  18.621  1.00  0.00     0.000 C 
BRANCH   8   9
ATOM      9  C   UNL     1      14.799   1.912  19.615  1.00  0.00     0.000 C 
BRANCH   9  10
ATOM     10  C   UNL     1      15.361   0.511  19.915  1.00  0.00     0.006 C 
BRANCH  10  11
ATOM     11  C   UNL     1      16.820   0.343  19.475  1.00  0.00     0.053 C 
BRANCH  11  12
ATOM     12  C   UNL     1      16.946   0.536  17.996  1.00  0.00     0.041 C 
ATOM     13  O   UNL     1      16.291  -0.193  17.205  1.00  0.00    -0.550 OA
ATOM     14  O   UNL     1      17.748   1.553  17.493  1.00  0.00    -0.550 OA
ENDBRANCH  11  12
ENDBRANCH  10  11
ENDBRANCH   9  10
ENDBRANCH   8   9
ENDBRANCH   1   8
TORSDOF 9
ENDMDL
MODEL 8
REMARK VINA RESULT:    -5.398     15.985     17.645
REMARK INTER + INTRA:          -8.739
REMARK INTER:                  -7.859
REMARK INTRA:                  -0.880
REMARK UNBOUND:                -0.501
REMARK SMILES O=C([O-])CCCCCCCCC(=O)[O-]
REMARK SMILES IDX 7 1 6 2 5 3 4 4 2 5 1 6 3 7 8 8 9 9 10 10 11 11 12 12 13 13
REMARK SMILES IDX 14 14
REMARK H PARENT
REMARK Flexibility Score: inf
ROOT
ATOM      1  C   UNL     1      28.222  -0.064   7.205  1.00  0.00     0.000 C 
ENDROOT
BRANCH   1   2
ATOM      2  C   UNL     1      28.405  -0.168   8.731  1.00  0.00     0.000 C 
BRANCH   2   3
ATOM      3  C   UNL     1      29.870  -0.167   9.211  1.00  0.00     0.006 C 
BRANCH   3   4
ATOM      4  C   UNL     1      30.873   0.417   8.203  1.00  0.00     0.053 C 
BRANCH   4   5
ATOM      5  C   UNL     1      32.122   0.903   8.874  1.00  0.00     0.041 C 
ATOM      6  O   UNL     1      32.760   0.144   9.650  1.00  0.00    -0.550 OA
ATOM      7  O   UNL     1      32.560   2.204   8.668  1.00  0.00    -0.550 OA
ENDBRANCH   4   5
ENDBRANCH   3   4
ENDBRANCH   2   3
ENDBRANCH   1   2
BRANCH   1   8
ATOM      8  C   UNL     1      27.163  -1.039   6.664  1.00  0.00     0.000 C 
BRANCH   8   9
ATOM      9  C   UNL     1      27.772  -2.349   6.132  1.00  0.00     0.000 C 
BRANCH   9  10
ATOM     10  C   UNL     1      29.267  -2.269   5.774  1.00  0.00     0.006 C 
BRANCH  10  11
ATOM     11  C   UNL     1      30.099  -3.378   6.430  1.00  0.00     0.053 C 
BRANCH  11  12
ATOM     12  C   UNL     1      31.463  -2.871   6.779  1.00  0.00     0.041 C 
ATOM     13  O   UNL     1      31.876  -2.931   7.968  1.00  0.00    -0.550 OA
ATOM     14  O   UNL     1      32.298  -2.379   5.784  1.00  0.00    -0.550 OA
ENDBRANCH  11  12
ENDBRANCH  10  11
ENDBRANCH   9  10
ENDBRANCH   8   9
ENDBRANCH   1   8
TORSDOF 9
ENDMDL
MODEL 9
REMARK VINA RESULT:    -5.349      2.733      4.599
REMARK INTER + INTRA:          -8.664
REMARK INTER:                  -7.843
REMARK INTRA:                  -0.821
REMARK UNBOUND:                -0.501
REMARK SMILES O=C([O-])CCCCCCCCC(=O)[O-]
REMARK SMILES IDX 7 1 6 2 5 3 4 4 2 5 1 6 3 7 8 8 9 9 10 10 11 11 12 12 13 13
REMARK SMILES IDX 14 14
REMARK H PARENT
REMARK Flexibility Score: inf
ROOT
ATOM      1  C   UNL     1      14.042   1.395  18.786  1.00  0.00     0.000 C 
ENDROOT
BRANCH   1   2
ATOM      2  C   UNL     1      13.666   2.785  18.241  1.00  0.00     0.000 C 
BRANCH   2   3
ATOM      3  C   UNL     1      14.716   3.423  17.308  1.00  0.00     0.006 C 
BRANCH   3   4
ATOM      4  C   UNL     1      15.593   2.415  16.548  1.00  0.00     0.053 C 
BRANCH   4   5
ATOM      5  C   UNL     1      15.156   2.256  15.124  1.00  0.00     0.041 C 
ATOM      6  O   UNL     1      14.021   2.661  14.761  1.00  0.00    -0.550 OA
ATOM      7  O   UNL     1      15.991   1.632  14.207  1.00  0.00    -0.550 OA
ENDBRANCH   4   5
ENDBRANCH   3   4
ENDBRANCH   2   3
ENDBRANCH   1   2
BRANCH   1   8
ATOM      8  C   UNL     1      14.745   1.461  20.152  1.00  0.00     0.000 C 
BRANCH   8   9
ATOM      9  C   UNL     1      15.669   0.256  20.408  1.00  0.00     0.000 C 
BRANCH   9  10
ATOM     10  C   UNL     1      16.668  -0.046  19.277  1.00  0.00     0.006 C 
BRANCH  10  11
ATOM     11  C   UNL     1      16.656  -1.518  18.846  1.00  0.00     0.053 C 
BRANCH  11  12
ATOM     12  C   UNL     1      15.733  -1.716  17.685  1.00  0.00     0.041 C 
ATOM     13  O   UNL     1      14.600  -2.240  17.858  1.00  0.00    -0.550 OA
ATOM     14  O   UNL     1      16.102  -1.276  16.420  1.00  0.00    -0.550 OA
ENDBRANCH  11  12
ENDBRANCH  10  11
ENDBRANCH   9  10
ENDBRANCH   8   9
ENDBRANCH   1   8
TORSDOF 9
ENDMDL
