MODEL 1
REMARK VINA RESULT:    -5.609      0.000      0.000
REMARK INTER + INTRA:          -8.617
REMARK INTER:                  -7.741
REMARK INTRA:                  -0.876
REMARK UNBOUND:                -0.876
REMARK SMILES O=C([O-])[C@H]1O[C@@H](Oc2cc3oc(-c4ccccc4)cc(=O)c3c(O)c2O)[C@H](O)[C@@H](O)[C@@H]1O
REMARK SMILES IDX 7 1 6 2 4 3 31 4 5 5 29 6 27 7 2 8 1 9 3 10 32 11 30 13
REMARK SMILES IDX 28 15 8 17 25 18 9 19 23 20 10 21 22 22 11 23 20 24 12 25
REMARK SMILES IDX 19 26 21 27 26 28 24 30 13 32 14 33 18 34 15 35 17 36 16 37
REMARK H PARENT 32 12 30 14 28 16 26 29 24 31
REMARK Flexibility Score: inf
ROOT
ATOM      1  O   UNL     1      43.856   9.012  20.002  1.00  0.00    -0.458 OA
ENDROOT
BRANCH   1   2
ATOM      2  C   UNL     1      44.609   8.387  21.054  1.00  0.00     0.339 C 
ATOM      3  C   UNL     1      45.049   8.810  23.313  1.00  0.00     0.199 C 
ATOM      4  C   UNL     1      46.121   9.927  23.098  1.00  0.00     0.180 C 
ATOM      5  O   UNL     1      44.086   8.895  22.284  1.00  0.00    -0.328 OA
ATOM      6  C   UNL     1      46.478  10.027  21.570  1.00  0.00     0.181 C 
ATOM      7  C   UNL     1      46.133   8.725  20.826  1.00  0.00     0.214 C 
BRANCH   3   8
ATOM      8  C   UNL     1      44.370   8.821  24.661  1.00  0.00     0.073 C 
ATOM      9  O   UNL     1      43.164   9.183  24.745  1.00  0.00    -0.547 OA
ATOM     10  O   UNL     1      45.116   8.646  25.826  1.00  0.00    -0.547 OA
ENDBRANCH   3   8
BRANCH   4  11
ATOM     11  O   UNL     1      47.256   9.607  23.850  1.00  0.00    -0.387 OA
ATOM     12  H   UNL     1      47.994  10.179  23.520  1.00  0.00     0.211 HD
ENDBRANCH   4  11
BRANCH   6  13
ATOM     13  O   UNL     1      45.755  11.078  20.981  1.00  0.00    -0.387 OA
ATOM     14  H   UNL     1      45.484  11.710  21.706  1.00  0.00     0.211 HD
ENDBRANCH   6  13
BRANCH   7  15
ATOM     15  O   UNL     1      46.967   7.690  21.298  1.00  0.00    -0.384 OA
ATOM     16  H   UNL     1      47.881   8.052  21.414  1.00  0.00     0.211 HD
ENDBRANCH   7  15
ENDBRANCH   1   2
BRANCH   1  17
ATOM     17  C   UNL     1      44.194   8.892  18.641  1.00  0.00     0.172 A 
ATOM     18  C   UNL     1      44.077   9.989  17.772  1.00  0.00     0.201 A 
ATOM     19  C   UNL     1      44.735   7.679  18.184  1.00  0.00     0.098 A 
ATOM     20  C   UNL     1      44.688   9.948  16.514  1.00  0.00     0.176 A 
ATOM     21  C   UNL     1      45.157   7.571  16.861  1.00  0.00     0.146 A 
ATOM     22  C   UNL     1      45.150   8.705  16.010  1.00  0.00     0.111 A 
ATOM     23  O   UNL     1      45.550   6.388  16.398  1.00  0.00    -0.456 OA
ATOM     24  C   UNL     1      45.614   8.539  14.691  1.00  0.00     0.197 A 
ATOM     25  C   UNL     1      45.933   6.195  15.141  1.00  0.00     0.138 A 
ATOM     26  C   UNL     1      45.952   7.263  14.241  1.00  0.00     0.100 A 
ATOM     27  O   UNL     1      45.704   9.510  13.889  1.00  0.00    -0.289 OA
BRANCH  18  28
ATOM     28  O   UNL     1      43.408  11.125  18.222  1.00  0.00    -0.502 OA
ATOM     29  H   UNL     1      42.451  11.364  17.982  1.00  0.00     0.293 HD
ENDBRANCH  18  28
BRANCH  20  30
ATOM     30  O   UNL     1      44.860  11.111  15.759  1.00  0.00    -0.504 OA
ATOM     31  H   UNL     1      44.389  11.976  15.984  1.00  0.00     0.293 HD
ENDBRANCH  20  30
BRANCH  25  32
ATOM     32  C   UNL     1      46.252   4.824  14.683  1.00  0.00     0.017 A 
ATOM     33  C   UNL     1      45.232   3.942  14.279  1.00  0.00     0.012 A 
ATOM     34  C   UNL     1      47.582   4.373  14.695  1.00  0.00     0.012 A 
ATOM     35  C   UNL     1      45.541   2.638  13.889  1.00  0.00     0.001 A 
ATOM     36  C   UNL     1      47.891   3.076  14.275  1.00  0.00     0.001 A 
ATOM     37  C   UNL     1      46.870   2.205  13.875  1.00  0.00     0.000 A 
ENDBRANCH  25  32
ENDBRANCH   1  17
TORSDOF 9
ENDMDL
MODEL 2
REMARK VINA RESULT:    -3.755      1.359      2.194
REMARK INTER + INTRA:          -6.059
REMARK INTER:                  -6.206
REMARK INTRA:                   0.148
REMARK UNBOUND:                -0.876
REMARK SMILES O=C([O-])[C@H]1O[C@@H](Oc2cc3oc(-c4ccccc4)cc(=O)c3c(O)c2O)[C@H](O)[C@@H](O)[C@@H]1O
REMARK SMILES IDX 7 1 6 2 4 3 31 4 5 5 29 6 27 7 2 8 1 9 3 10 32 11 30 13
REMARK SMILES IDX 28 15 8 17 25 18 9 19 23 20 10 21 22 22 11 23 20 24 12 25
REMARK SMILES IDX 19 26 21 27 26 28 24 30 13 32 14 33 18 34 15 35 17 36 16 37
REMARK H PARENT 32 12 30 14 28 16 26 29 24 31
REMARK Flexibility Score: inf
ROOT
ATOM      1  O   UNL     1      46.230   8.842  20.811  1.00  0.00    -0.458 OA
ENDROOT
BRANCH   1   2
ATOM      2  C   UNL     1      45.513   9.812  21.592  1.00  0.00     0.339 C 
ATOM      3  C   UNL     1      44.812  10.024  23.814  1.00  0.00     0.199 C 
ATOM      4  C   UNL     1      43.581   9.066  23.724  1.00  0.00     0.180 C 
ATOM      5  O   UNL     1      45.830   9.545  22.961  1.00  0.00    -0.328 OA
ATOM      6  C   UNL     1      43.344   8.653  22.226  1.00  0.00     0.181 C 
ATOM      7  C   UNL     1      43.979   9.666  21.257  1.00  0.00     0.214 C 
BRANCH   3   8
ATOM      8  C   UNL     1      45.361  10.237  25.205  1.00  0.00     0.073 C 
ATOM      9  O   UNL     1      46.262  11.101  25.390  1.00  0.00    -0.547 OA
ATOM     10  O   UNL     1      45.041   9.349  26.231  1.00  0.00    -0.547 OA
ENDBRANCH   3   8
BRANCH   4  11
ATOM     11  O   UNL     1      42.462   9.729  24.237  1.00  0.00    -0.387 OA
ATOM     12  H   UNL     1      42.207   9.264  25.074  1.00  0.00     0.211 HD
ENDBRANCH   4  11
BRANCH   6  13
ATOM     13  O   UNL     1      43.915   7.392  21.984  1.00  0.00    -0.387 OA
ATOM     14  H   UNL     1      43.717   7.140  21.037  1.00  0.00     0.211 HD
ENDBRANCH   6  13
BRANCH   7  15
ATOM     15  O   UNL     1      43.305  10.900  21.376  1.00  0.00    -0.384 OA
ATOM     16  H   UNL     1      43.668  11.522  20.696  1.00  0.00     0.211 HD
ENDBRANCH   7  15
ENDBRANCH   1   2
BRANCH   1  17
ATOM     17  C   UNL     1      46.149   8.776  19.408  1.00  0.00     0.172 A 
ATOM     18  C   UNL     1      45.966   9.940  18.643  1.00  0.00     0.201 A 
ATOM     19  C   UNL     1      46.340   7.536  18.777  1.00  0.00     0.098 A 
ATOM     20  C   UNL     1      46.186   9.905  17.261  1.00  0.00     0.176 A 
ATOM     21  C   UNL     1      46.352   7.467  17.386  1.00  0.00     0.146 A 
ATOM     22  C   UNL     1      46.285   8.650  16.608  1.00  0.00     0.111 A 
ATOM     23  O   UNL     1      46.408   6.277  16.794  1.00  0.00    -0.456 OA
ATOM     24  C   UNL     1      46.328   8.518  15.207  1.00  0.00     0.197 A 
ATOM     25  C   UNL     1      46.386   6.125  15.474  1.00  0.00     0.138 A 
ATOM     26  C   UNL     1      46.320   7.244  14.640  1.00  0.00     0.100 A 
ATOM     27  O   UNL     1      46.341   9.523  14.443  1.00  0.00    -0.289 OA
BRANCH  18  28
ATOM     28  O   UNL     1      45.639  11.123  19.302  1.00  0.00    -0.502 OA
ATOM     29  H   UNL     1      45.682  12.047  18.883  1.00  0.00     0.293 HD
ENDBRANCH  18  28
BRANCH  20  30
ATOM     30  O   UNL     1      46.320  11.085  16.525  1.00  0.00    -0.504 OA
ATOM     31  H   UNL     1      47.098  11.249  15.904  1.00  0.00     0.293 HD
ENDBRANCH  20  30
BRANCH  25  32
ATOM     32  C   UNL     1      46.343   4.761  14.903  1.00  0.00     0.017 A 
ATOM     33  C   UNL     1      45.124   4.188  14.494  1.00  0.00     0.012 A 
ATOM     34  C   UNL     1      47.522   4.002  14.809  1.00  0.00     0.012 A 
ATOM     35  C   UNL     1      45.091   2.884  13.995  1.00  0.00     0.001 A 
ATOM     36  C   UNL     1      47.489   2.709  14.281  1.00  0.00     0.001 A 
ATOM     37  C   UNL     1      46.272   2.147  13.876  1.00  0.00     0.000 A 
ENDBRANCH  25  32
ENDBRANCH   1  17
TORSDOF 9
ENDMDL
MODEL 3
REMARK VINA RESULT:    -2.851      2.094      8.511
REMARK INTER + INTRA:          -4.811
REMARK INTER:                  -4.367
REMARK INTRA:                  -0.444
REMARK UNBOUND:                -0.876
REMARK SMILES O=C([O-])[C@H]1O[C@@H](Oc2cc3oc(-c4ccccc4)cc(=O)c3c(O)c2O)[C@H](O)[C@@H](O)[C@@H]1O
REMARK SMILES IDX 7 1 6 2 4 3 31 4 5 5 29 6 27 7 2 8 1 9 3 10 32 11 30 13
REMARK SMILES IDX 28 15 8 17 25 18 9 19 23 20 10 21 22 22 11 23 20 24 12 25
REMARK SMILES IDX 19 26 21 27 26 28 24 30 13 32 14 33 18 34 15 35 17 36 16 37
REMARK H PARENT 32 12 30 14 28 16 26 29 24 31
REMARK Flexibility Score: inf
ROOT
ATOM      1  O   UNL     1      47.510   6.611  17.096  1.00  0.00    -0.458 OA
ENDROOT
BRANCH   1   2
ATOM      2  C   UNL     1      47.442   6.156  15.735  1.00  0.00     0.339 C 
ATOM      3  C   UNL     1      46.174   4.611  14.519  1.00  0.00     0.199 C 
ATOM      4  C   UNL     1      46.920   3.324  14.999  1.00  0.00     0.180 C 
ATOM      5  O   UNL     1      46.157   5.550  15.573  1.00  0.00    -0.328 OA
ATOM      6  C   UNL     1      48.191   3.731  15.828  1.00  0.00     0.181 C 
ATOM      7  C   UNL     1      48.644   5.163  15.495  1.00  0.00     0.214 C 
BRANCH   3   8
ATOM      8  C   UNL     1      44.772   4.387  14.003  1.00  0.00     0.073 C 
ATOM      9  O   UNL     1      43.994   5.372  13.875  1.00  0.00    -0.547 OA
ATOM     10  O   UNL     1      44.268   3.094  13.875  1.00  0.00    -0.547 OA
ENDBRANCH   3   8
BRANCH   4  11
ATOM     11  O   UNL     1      47.282   2.575  13.875  1.00  0.00    -0.387 OA
ATOM     12  H   UNL     1      48.255   2.400  13.944  1.00  0.00     0.211 HD
ENDBRANCH   4  11
BRANCH   6  13
ATOM     13  O   UNL     1      47.903   3.667  17.202  1.00  0.00    -0.387 OA
ATOM     14  H   UNL     1      48.738   3.393  17.680  1.00  0.00     0.211 HD
ENDBRANCH   6  13
BRANCH   7  15
ATOM     15  O   UNL     1      49.089   5.205  14.157  1.00  0.00    -0.384 OA
ATOM     16  H   UNL     1      50.060   5.011  14.143  1.00  0.00     0.211 HD
ENDBRANCH   7  15
ENDBRANCH   1   2
BRANCH   1  17
ATOM     17  C   UNL     1      46.642   7.585  17.623  1.00  0.00     0.172 A 
ATOM     18  C   UNL     1      46.002   8.509  16.781  1.00  0.00     0.201 A 
ATOM     19  C   UNL     1      46.357   7.563  18.998  1.00  0.00     0.098 A 
ATOM     20  C   UNL     1      44.929   9.265  17.266  1.00  0.00     0.176 A 
ATOM     21  C   UNL     1      45.432   8.463  19.523  1.00  0.00     0.146 A 
ATOM     22  C   UNL     1      44.698   9.319  18.665  1.00  0.00     0.111 A 
ATOM     23  O   UNL     1      45.259   8.524  20.840  1.00  0.00    -0.456 OA
ATOM     24  C   UNL     1      43.758  10.188  19.251  1.00  0.00     0.197 A 
ATOM     25  C   UNL     1      44.424   9.379  21.419  1.00  0.00     0.138 A 
ATOM     26  C   UNL     1      43.665  10.256  20.641  1.00  0.00     0.100 A 
ATOM     27  O   UNL     1      43.015  10.935  18.555  1.00  0.00    -0.289 OA
BRANCH  18  28
ATOM     28  O   UNL     1      46.415   8.594  15.453  1.00  0.00    -0.502 OA
ATOM     29  H   UNL     1      45.813   8.857  14.678  1.00  0.00     0.293 HD
ENDBRANCH  18  28
BRANCH  20  30
ATOM     30  O   UNL     1      44.081   9.951  16.394  1.00  0.00    -0.504 OA
ATOM     31  H   UNL     1      43.257  10.440  16.713  1.00  0.00     0.293 HD
ENDBRANCH  20  30
BRANCH  25  32
ATOM     32  C   UNL     1      44.372   9.453  22.897  1.00  0.00     0.017 A 
ATOM     33  C   UNL     1      45.290   8.736  23.687  1.00  0.00     0.012 A 
ATOM     34  C   UNL     1      43.366  10.205  23.527  1.00  0.00     0.012 A 
ATOM     35  C   UNL     1      45.205   8.780  25.080  1.00  0.00     0.001 A 
ATOM     36  C   UNL     1      43.303  10.270  24.922  1.00  0.00     0.001 A 
ATOM     37  C   UNL     1      44.221   9.554  25.700  1.00  0.00     0.000 A 
ENDBRANCH  25  32
ENDBRANCH   1  17
TORSDOF 9
ENDMDL
MODEL 4
REMARK VINA RESULT:    -2.750      1.607      2.795
REMARK INTER + INTRA:          -4.672
REMARK INTER:                  -4.292
REMARK INTRA:                  -0.380
REMARK UNBOUND:                -0.876
REMARK SMILES O=C([O-])[C@H]1O[C@@H](Oc2cc3oc(-c4ccccc4)cc(=O)c3c(O)c2O)[C@H](O)[C@@H](O)[C@@H]1O
REMARK SMILES IDX 7 1 6 2 4 3 31 4 5 5 29 6 27 7 2 8 1 9 3 10 32 11 30 13
REMARK SMILES IDX 28 15 8 17 25 18 9 19 23 20 10 21 22 22 11 23 20 24 12 25
REMARK SMILES IDX 19 26 21 27 26 28 24 30 13 32 14 33 18 34 15 35 17 36 16 37
REMARK H PARENT 32 12 30 14 28 16 26 29 24 31
REMARK Flexibility Score: inf
ROOT
ATOM      1  O   UNL     1      45.066  10.671  20.812  1.00  0.00    -0.458 OA
ENDROOT
BRANCH   1   2
ATOM      2  C   UNL     1      46.076  10.109  21.667  1.00  0.00     0.339 C 
ATOM      3  C   UNL     1      46.684   7.973  22.404  1.00  0.00     0.199 C 
ATOM      4  C   UNL     1      45.565   7.812  23.484  1.00  0.00     0.180 C 
ATOM      5  O   UNL     1      46.174   8.724  21.323  1.00  0.00    -0.328 OA
ATOM      6  C   UNL     1      44.794   9.172  23.649  1.00  0.00     0.181 C 
ATOM      7  C   UNL     1      45.640  10.361  23.162  1.00  0.00     0.214 C 
BRANCH   3   8
ATOM      8  C   UNL     1      47.283   6.682  21.900  1.00  0.00     0.073 C 
ATOM      9  O   UNL     1      48.168   6.101  22.585  1.00  0.00    -0.547 OA
ATOM     10  O   UNL     1      47.026   6.248  20.600  1.00  0.00    -0.547 OA
ENDBRANCH   3   8
BRANCH   4  11
ATOM     11  O   UNL     1      46.161   7.433  24.690  1.00  0.00    -0.387 OA
ATOM     12  H   UNL     1      45.589   7.782  25.419  1.00  0.00     0.211 HD
ENDBRANCH   4  11
BRANCH   6  13
ATOM     13  O   UNL     1      43.605   9.139  22.900  1.00  0.00    -0.387 OA
ATOM     14  H   UNL     1      43.482  10.037  22.477  1.00  0.00     0.211 HD
ENDBRANCH   6  13
BRANCH   7  15
ATOM     15  O   UNL     1      46.760  10.505  24.007  1.00  0.00    -0.384 OA
ATOM     16  H   UNL     1      47.471  10.982  23.509  1.00  0.00     0.211 HD
ENDBRANCH   7  15
ENDBRANCH   1   2
BRANCH   1  17
ATOM     17  C   UNL     1      44.641  10.055  19.620  1.00  0.00     0.172 A 
ATOM     18  C   UNL     1      43.395  10.370  19.053  1.00  0.00     0.201 A 
ATOM     19  C   UNL     1      45.521   9.183  18.959  1.00  0.00     0.098 A 
ATOM     20  C   UNL     1      43.115   9.989  17.736  1.00  0.00     0.176 A 
ATOM     21  C   UNL     1      45.152   8.633  17.734  1.00  0.00     0.146 A 
ATOM     22  C   UNL     1      43.951   9.035  17.100  1.00  0.00     0.111 A 
ATOM     23  O   UNL     1      45.932   7.713  17.173  1.00  0.00    -0.456 OA
ATOM     24  C   UNL     1      43.645   8.465  15.849  1.00  0.00     0.197 A 
ATOM     25  C   UNL     1      45.632   7.116  16.024  1.00  0.00     0.138 A 
ATOM     26  C   UNL     1      44.464   7.458  15.340  1.00  0.00     0.100 A 
ATOM     27  O   UNL     1      42.630   8.816  15.186  1.00  0.00    -0.289 OA
BRANCH  18  28
ATOM     28  O   UNL     1      42.496  11.124  19.803  1.00  0.00    -0.502 OA
ATOM     29  H   UNL     1      41.648  10.757  20.225  1.00  0.00     0.293 HD
ENDBRANCH  18  28
BRANCH  20  30
ATOM     30  O   UNL     1      42.037  10.543  17.041  1.00  0.00    -0.504 OA
ATOM     31  H   UNL     1      42.002  11.519  16.786  1.00  0.00     0.293 HD
ENDBRANCH  20  30
BRANCH  25  32
ATOM     32  C   UNL     1      46.501   6.026  15.526  1.00  0.00     0.017 A 
ATOM     33  C   UNL     1      46.155   5.297  14.373  1.00  0.00     0.012 A 
ATOM     34  C   UNL     1      47.662   5.676  16.235  1.00  0.00     0.012 A 
ATOM     35  C   UNL     1      46.961   4.244  13.936  1.00  0.00     0.001 A 
ATOM     36  C   UNL     1      48.483   4.641  15.777  1.00  0.00     0.001 A 
ATOM     37  C   UNL     1      48.130   3.921  14.628  1.00  0.00     0.000 A 
ENDBRANCH  25  32
ENDBRANCH   1  17
TORSDOF 9
ENDMDL
MODEL 5
REMARK VINA RESULT:    -2.623      2.387      8.814
REMARK INTER + INTRA:          -4.496
REMARK INTER:                  -3.563
REMARK INTRA:                  -0.933
REMARK UNBOUND:                -0.876
REMARK SMILES O=C([O-])[C@H]1O[C@@H](Oc2cc3oc(-c4ccccc4)cc(=O)c3c(O)c2O)[C@H](O)[C@@H](O)[C@@H]1O
REMARK SMILES IDX 7 1 6 2 4 3 31 4 5 5 29 6 27 7 2 8 1 9 3 10 32 11 30 13
REMARK SMILES IDX 28 15 8 17 25 18 9 19 23 20 10 21 22 22 11 23 20 24 12 25
REMARK SMILES IDX 19 26 21 27 26 28 24 30 13 32 14 33 18 34 15 35 17 36 16 37
REMARK H PARENT 32 12 30 14 28 16 26 29 24 31
REMARK Flexibility Score: inf
ROOT
ATOM      1  O   UNL     1      46.466   6.582  19.249  1.00  0.00    -0.458 OA
ENDROOT
BRANCH   1   2
ATOM      2  C   UNL     1      47.107   7.140  18.090  1.00  0.00     0.339 C 
ATOM      3  C   UNL     1      46.739   8.945  16.647  1.00  0.00     0.199 C 
ATOM      4  C   UNL     1      45.596   8.293  15.803  1.00  0.00     0.180 C 
ATOM      5  O   UNL     1      46.643   8.488  17.979  1.00  0.00    -0.328 OA
ATOM      6  C   UNL     1      45.446   6.780  16.201  1.00  0.00     0.181 C 
ATOM      7  C   UNL     1      46.733   6.240  16.849  1.00  0.00     0.214 C 
BRANCH   3   8
ATOM      8  C   UNL     1      46.778  10.455  16.620  1.00  0.00     0.073 C 
ATOM      9  O   UNL     1      46.011  11.109  17.377  1.00  0.00    -0.547 OA
ATOM     10  O   UNL     1      47.490  11.121  15.622  1.00  0.00    -0.547 OA
ENDBRANCH   3   8
BRANCH   4  11
ATOM     11  O   UNL     1      45.916   8.419  14.448  1.00  0.00    -0.387 OA
ATOM     12  H   UNL     1      45.439   7.695  13.969  1.00  0.00     0.211 HD
ENDBRANCH   4  11
BRANCH   6  13
ATOM     13  O   UNL     1      44.393   6.631  17.119  1.00  0.00    -0.387 OA
ATOM     14  H   UNL     1      43.645   7.228  16.830  1.00  0.00     0.211 HD
ENDBRANCH   6  13
BRANCH   7  15
ATOM     15  O   UNL     1      47.765   6.233  15.887  1.00  0.00    -0.384 OA
ATOM     16  H   UNL     1      48.457   5.584  16.173  1.00  0.00     0.211 HD
ENDBRANCH   7  15
ENDBRANCH   1   2
BRANCH   1  17
ATOM     17  C   UNL     1      46.357   7.271  20.471  1.00  0.00     0.172 A 
ATOM     18  C   UNL     1      47.459   7.380  21.335  1.00  0.00     0.201 A 
ATOM     19  C   UNL     1      45.151   7.924  20.773  1.00  0.00     0.098 A 
ATOM     20  C   UNL     1      47.429   8.305  22.385  1.00  0.00     0.176 A 
ATOM     21  C   UNL     1      45.054   8.684  21.936  1.00  0.00     0.146 A 
ATOM     22  C   UNL     1      46.192   8.894  22.753  1.00  0.00     0.111 A 
ATOM     23  O   UNL     1      43.876   9.196  22.282  1.00  0.00    -0.456 OA
ATOM     24  C   UNL     1      46.038   9.694  23.902  1.00  0.00     0.197 A 
ATOM     25  C   UNL     1      43.694   9.900  23.394  1.00  0.00     0.138 A 
ATOM     26  C   UNL     1      44.768  10.150  24.250  1.00  0.00     0.100 A 
ATOM     27  O   UNL     1      47.015   9.986  24.647  1.00  0.00    -0.289 OA
BRANCH  18  28
ATOM     28  O   UNL     1      48.587   6.607  21.074  1.00  0.00    -0.502 OA
ATOM     29  H   UNL     1      49.291   6.831  20.378  1.00  0.00     0.293 HD
ENDBRANCH  18  28
BRANCH  20  30
ATOM     30  O   UNL     1      48.599   8.662  23.061  1.00  0.00    -0.504 OA
ATOM     31  H   UNL     1      48.712   9.560  23.508  1.00  0.00     0.293 HD
ENDBRANCH  20  30
BRANCH  25  32
ATOM     32  C   UNL     1      42.328  10.341  23.756  1.00  0.00     0.017 A 
ATOM     33  C   UNL     1      41.902  10.343  25.098  1.00  0.00     0.012 A 
ATOM     34  C   UNL     1      41.422  10.718  22.750  1.00  0.00     0.012 A 
ATOM     35  C   UNL     1      40.598  10.721  25.423  1.00  0.00     0.001 A 
ATOM     36  C   UNL     1      40.127  11.125  23.082  1.00  0.00     0.001 A 
ATOM     37  C   UNL     1      39.713  11.123  24.420  1.00  0.00     0.000 A 
ENDBRANCH  25  32
ENDBRANCH   1  17
TORSDOF 9
ENDMDL
