MODEL 1
REMARK VINA RESULT:    -3.650      0.000      0.000
REMARK INTER + INTRA:          -5.773
REMARK INTER:                  -5.357
REMARK INTRA:                  -0.416
REMARK UNBOUND:                -0.416
REMARK SMILES O=C([O-])CCCCCCCC(=O)[O-]
REMARK SMILES IDX 7 1 6 2 5 3 4 4 2 5 1 6 3 7 8 8 9 9 10 10 11 11 12 12 13 13
REMARK H PARENT
REMARK Flexibility Score: inf
ROOT
ATOM      1  C   UNL     1     -20.388  -1.629   7.529  1.00  0.00     0.000 C 
ENDROOT
BRANCH   1   2
ATOM      2  C   UNL     1     -20.381  -0.248   6.851  1.00  0.00     0.000 C 
BRANCH   2   3
ATOM      3  C   UNL     1     -19.973   0.880   7.814  1.00  0.00     0.006 C 
BRANCH   3   4
ATOM      4  C   UNL     1     -20.785   2.164   7.598  1.00  0.00     0.053 C 
BRANCH   4   5
ATOM      5  C   UNL     1     -21.467   2.568   8.868  1.00  0.00     0.041 C 
ATOM      6  O   UNL     1     -21.606   1.740   9.804  1.00  0.00    -0.550 OA
ATOM      7  O   UNL     1     -21.993   3.848   8.997  1.00  0.00    -0.550 OA
ENDBRANCH   4   5
ENDBRANCH   3   4
ENDBRANCH   2   3
ENDBRANCH   1   2
BRANCH   1   8
ATOM      8  C   UNL     1     -20.031  -1.553   9.022  1.00  0.00     0.000 C 
BRANCH   8   9
ATOM      9  C   UNL     1     -19.793  -2.940   9.647  1.00  0.00     0.006 C 
BRANCH   9  10
ATOM     10  C   UNL     1     -18.946  -3.845   8.742  1.00  0.00     0.053 C 
BRANCH  10  11
ATOM     11  C   UNL     1     -19.476  -5.245   8.703  1.00  0.00     0.041 C 
ATOM     12  O   UNL     1     -18.877  -6.131   8.038  1.00  0.00    -0.550 OA
ATOM     13  O   UNL     1     -20.650  -5.564   9.373  1.00  0.00    -0.550 OA
ENDBRANCH  10  11
ENDBRANCH   9  10
ENDBRANCH   8   9
ENDBRANCH   1   8
TORSDOF 8
ENDMDL
MODEL 2
REMARK VINA RESULT:    -3.632      0.085      6.733
REMARK INTER + INTRA:          -5.747
REMARK INTER:                  -5.359
REMARK INTRA:                  -0.388
REMARK UNBOUND:                -0.416
REMARK SMILES O=C([O-])CCCCCCCC(=O)[O-]
REMARK SMILES IDX 7 1 6 2 5 3 4 4 2 5 1 6 3 7 8 8 9 9 10 10 11 11 12 12 13 13
REMARK H PARENT
REMARK Flexibility Score: inf
ROOT
ATOM      1  C   UNL     1     -20.337  -1.615   7.471  1.00  0.00     0.000 C 
ENDROOT
BRANCH   1   2
ATOM      2  C   UNL     1     -20.037  -1.578   8.980  1.00  0.00     0.000 C 
BRANCH   2   3
ATOM      3  C   UNL     1     -19.880  -2.984   9.584  1.00  0.00     0.006 C 
BRANCH   3   4
ATOM      4  C   UNL     1     -18.931  -3.875   8.771  1.00  0.00     0.053 C 
BRANCH   4   5
ATOM      5  C   UNL     1     -19.462  -5.272   8.701  1.00  0.00     0.041 C 
ATOM      6  O   UNL     1     -18.887  -6.134   7.987  1.00  0.00    -0.550 OA
ATOM      7  O   UNL     1     -20.623  -5.609   9.386  1.00  0.00    -0.550 OA
ENDBRANCH   4   5
ENDBRANCH   3   4
ENDBRANCH   2   3
ENDBRANCH   1   2
BRANCH   1   8
ATOM      8  C   UNL     1     -20.501  -0.211   6.869  1.00  0.00     0.000 C 
BRANCH   8   9
ATOM      9  C   UNL     1     -20.002   0.901   7.810  1.00  0.00     0.006 C 
BRANCH   9  10
ATOM     10  C   UNL     1     -20.793   2.205   7.635  1.00  0.00     0.053 C 
BRANCH  10  11
ATOM     11  C   UNL     1     -21.501   2.599   8.895  1.00  0.00     0.041 C 
ATOM     12  O   UNL     1     -21.898   3.783   9.054  1.00  0.00    -0.550 OA
ATOM     13  O   UNL     1     -21.690   1.667   9.908  1.00  0.00    -0.550 OA
ENDBRANCH  10  11
ENDBRANCH   9  10
ENDBRANCH   8   9
ENDBRANCH   1   8
TORSDOF 8
ENDMDL
MODEL 3
REMARK VINA RESULT:    -3.619      2.426      3.129
REMARK INTER + INTRA:          -5.727
REMARK INTER:                  -5.289
REMARK INTRA:                  -0.438
REMARK UNBOUND:                -0.416
REMARK SMILES O=C([O-])CCCCCCCC(=O)[O-]
REMARK SMILES IDX 7 1 6 2 5 3 4 4 2 5 1 6 3 7 8 8 9 9 10 10 11 11 12 12 13 13
REMARK H PARENT
REMARK Flexibility Score: inf
ROOT
ATOM      1  C   UNL     1     -20.429  -1.806   7.703  1.00  0.00     0.000 C 
ENDROOT
BRANCH   1   2
ATOM      2  C   UNL     1     -19.840  -0.638   6.892  1.00  0.00     0.000 C 
BRANCH   2   3
ATOM      3  C   UNL     1     -20.811   0.549   6.779  1.00  0.00     0.006 C 
BRANCH   3   4
ATOM      4  C   UNL     1     -20.340   1.776   7.573  1.00  0.00     0.053 C 
BRANCH   4   5
ATOM      5  C   UNL     1     -21.151   1.930   8.821  1.00  0.00     0.041 C 
ATOM      6  O   UNL     1     -21.214   0.991   9.656  1.00  0.00    -0.550 OA
ATOM      7  O   UNL     1     -21.877   3.094   9.038  1.00  0.00    -0.550 OA
ENDBRANCH   4   5
ENDBRANCH   3   4
ENDBRANCH   2   3
ENDBRANCH   1   2
BRANCH   1   8
ATOM      8  C   UNL     1     -19.523  -2.226   8.872  1.00  0.00     0.000 C 
BRANCH   8   9
ATOM      9  C   UNL     1     -20.303  -2.440  10.181  1.00  0.00     0.006 C 
BRANCH   9  10
ATOM     10  C   UNL     1     -19.775  -1.558  11.320  1.00  0.00     0.053 C 
BRANCH  10  11
ATOM     11  C   UNL     1     -20.597  -1.703  12.564  1.00  0.00     0.041 C 
ATOM     12  O   UNL     1     -21.091  -2.819  12.870  1.00  0.00    -0.550 OA
ATOM     13  O   UNL     1     -20.846  -0.596  13.366  1.00  0.00    -0.550 OA
ENDBRANCH  10  11
ENDBRANCH   9  10
ENDBRANCH   8   9
ENDBRANCH   1   8
TORSDOF 8
ENDMDL
MODEL 4
REMARK VINA RESULT:    -3.579      1.986      5.707
REMARK INTER + INTRA:          -5.669
REMARK INTER:                  -5.176
REMARK INTRA:                  -0.492
REMARK UNBOUND:                -0.416
REMARK SMILES O=C([O-])CCCCCCCC(=O)[O-]
REMARK SMILES IDX 7 1 6 2 5 3 4 4 2 5 1 6 3 7 8 8 9 9 10 10 11 11 12 12 13 13
REMARK H PARENT
REMARK Flexibility Score: inf
ROOT
ATOM      1  C   UNL     1     -20.012   1.256   7.640  1.00  0.00     0.000 C 
ENDROOT
BRANCH   1   2
ATOM      2  C   UNL     1     -20.361   0.040   6.764  1.00  0.00     0.000 C 
BRANCH   2   3
ATOM      3  C   UNL     1     -20.315  -1.283   7.547  1.00  0.00     0.006 C 
BRANCH   3   4
ATOM      4  C   UNL     1     -20.364  -1.073   9.066  1.00  0.00     0.053 C 
BRANCH   4   5
ATOM      5  C   UNL     1     -19.630  -2.173   9.767  1.00  0.00     0.041 C 
ATOM      6  O   UNL     1     -19.295  -2.044  10.973  1.00  0.00    -0.550 OA
ATOM      7  O   UNL     1     -19.271  -3.322   9.072  1.00  0.00    -0.550 OA
ENDBRANCH   4   5
ENDBRANCH   3   4
ENDBRANCH   2   3
ENDBRANCH   1   2
BRANCH   1   8
ATOM      8  C   UNL     1     -21.203   2.209   7.825  1.00  0.00     0.000 C 
BRANCH   8   9
ATOM      9  C   UNL     1     -21.334   2.723   9.271  1.00  0.00     0.006 C 
BRANCH   9  10
ATOM     10  C   UNL     1     -22.036   1.709  10.184  1.00  0.00     0.053 C 
BRANCH  10  11
ATOM     11  C   UNL     1     -21.355   1.590  11.512  1.00  0.00     0.041 C 
ATOM     12  O   UNL     1     -20.694   2.557  11.974  1.00  0.00    -0.550 OA
ATOM     13  O   UNL     1     -21.420   0.398  12.223  1.00  0.00    -0.550 OA
ENDBRANCH  10  11
ENDBRANCH   9  10
ENDBRANCH   8   9
ENDBRANCH   1   8
TORSDOF 8
ENDMDL
MODEL 5
REMARK VINA RESULT:    -3.560      1.963      3.233
REMARK INTER + INTRA:          -5.641
REMARK INTER:                  -5.188
REMARK INTRA:                  -0.453
REMARK UNBOUND:                -0.416
REMARK SMILES O=C([O-])CCCCCCCC(=O)[O-]
REMARK SMILES IDX 7 1 6 2 5 3 4 4 2 5 1 6 3 7 8 8 9 9 10 10 11 11 12 12 13 13
REMARK H PARENT
REMARK Flexibility Score: inf
ROOT
ATOM      1  C   UNL     1     -20.006   1.313   7.658  1.00  0.00     0.000 C 
ENDROOT
BRANCH   1   2
ATOM      2  C   UNL     1     -21.138   2.351   7.745  1.00  0.00     0.000 C 
BRANCH   2   3
ATOM      3  C   UNL     1     -21.408   2.810   9.188  1.00  0.00     0.006 C 
BRANCH   3   4
ATOM      4  C   UNL     1     -21.991   1.694  10.064  1.00  0.00     0.053 C 
BRANCH   4   5
ATOM      5  C   UNL     1     -21.330   1.687  11.407  1.00  0.00     0.041 C 
ATOM      6  O   UNL     1     -20.638   2.670  11.778  1.00  0.00    -0.550 OA
ATOM      7  O   UNL     1     -21.438   0.572  12.228  1.00  0.00    -0.550 OA
ENDBRANCH   4   5
ENDBRANCH   3   4
ENDBRANCH   2   3
ENDBRANCH   1   2
BRANCH   1   8
ATOM      8  C   UNL     1     -20.365   0.125   6.750  1.00  0.00     0.000 C 
BRANCH   8   9
ATOM      9  C   UNL     1     -20.409  -1.212   7.512  1.00  0.00     0.006 C 
BRANCH   9  10
ATOM     10  C   UNL     1     -20.355  -1.014   9.032  1.00  0.00     0.053 C 
BRANCH  10  11
ATOM     11  C   UNL     1     -19.671  -2.156   9.719  1.00  0.00     0.041 C 
ATOM     12  O   UNL     1     -19.433  -2.102  10.953  1.00  0.00    -0.550 OA
ATOM     13  O   UNL     1     -19.266  -3.266   8.987  1.00  0.00    -0.550 OA
ENDBRANCH  10  11
ENDBRANCH   9  10
ENDBRANCH   8   9
ENDBRANCH   1   8
TORSDOF 8
ENDMDL
MODEL 6
REMARK VINA RESULT:    -3.521      2.394      5.604
REMARK INTER + INTRA:          -5.583
REMARK INTER:                  -5.114
REMARK INTRA:                  -0.469
REMARK UNBOUND:                -0.416
REMARK SMILES O=C([O-])CCCCCCCC(=O)[O-]
REMARK SMILES IDX 7 1 6 2 5 3 4 4 2 5 1 6 3 7 8 8 9 9 10 10 11 11 12 12 13 13
REMARK H PARENT
REMARK Flexibility Score: inf
ROOT
ATOM      1  C   UNL     1     -20.334  -1.940   7.613  1.00  0.00     0.000 C 
ENDROOT
BRANCH   1   2
ATOM      2  C   UNL     1     -19.527  -2.434   8.826  1.00  0.00     0.000 C 
BRANCH   2   3
ATOM      3  C   UNL     1     -20.356  -2.445  10.122  1.00  0.00     0.006 C 
BRANCH   3   4
ATOM      4  C   UNL     1     -19.713  -1.615  11.242  1.00  0.00     0.053 C 
BRANCH   4   5
ATOM      5  C   UNL     1     -20.540  -1.694  12.487  1.00  0.00     0.041 C 
ATOM      6  O   UNL     1     -21.055  -2.787  12.838  1.00  0.00    -0.550 OA
ATOM      7  O   UNL     1     -20.781  -0.547  13.234  1.00  0.00    -0.550 OA
ENDBRANCH   4   5
ENDBRANCH   3   4
ENDBRANCH   2   3
ENDBRANCH   1   2
BRANCH   1   8
ATOM      8  C   UNL     1     -19.789  -0.622   7.041  1.00  0.00     0.000 C 
BRANCH   8   9
ATOM      9  C   UNL     1     -20.873   0.463   6.911  1.00  0.00     0.006 C 
BRANCH   9  10
ATOM     10  C   UNL     1     -20.476   1.766   7.618  1.00  0.00     0.053 C 
BRANCH  10  11
ATOM     11  C   UNL     1     -21.233   1.959   8.896  1.00  0.00     0.041 C 
ATOM     12  O   UNL     1     -21.241   1.053   9.770  1.00  0.00    -0.550 OA
ATOM     13  O   UNL     1     -21.958   3.125   9.105  1.00  0.00    -0.550 OA
ENDBRANCH  10  11
ENDBRANCH   9  10
ENDBRANCH   8   9
ENDBRANCH   1   8
TORSDOF 8
ENDMDL
MODEL 7
REMARK VINA RESULT:    -3.228      3.206      4.448
REMARK INTER + INTRA:          -5.153
REMARK INTER:                  -4.941
REMARK INTRA:                  -0.213
REMARK UNBOUND:                -0.416
REMARK SMILES O=C([O-])CCCCCCCC(=O)[O-]
REMARK SMILES IDX 7 1 6 2 5 3 4 4 2 5 1 6 3 7 8 8 9 9 10 10 11 11 12 12 13 13
REMARK H PARENT
REMARK Flexibility Score: inf
ROOT
ATOM      1  C   UNL     1     -19.562  -1.680   9.472  1.00  0.00     0.000 C 
ENDROOT
BRANCH   1   2
ATOM      2  C   UNL     1     -20.050  -2.151   8.091  1.00  0.00     0.000 C 
BRANCH   2   3
ATOM      3  C   UNL     1     -20.735  -1.028   7.293  1.00  0.00     0.006 C 
BRANCH   3   4
ATOM      4  C   UNL     1     -19.922   0.274   7.289  1.00  0.00     0.053 C 
BRANCH   4   5
ATOM      5  C   UNL     1     -20.670   1.356   8.003  1.00  0.00     0.041 C 
ATOM      6  O   UNL     1     -20.851   2.472   7.452  1.00  0.00    -0.550 OA
ATOM      7  O   UNL     1     -21.124   1.146   9.300  1.00  0.00    -0.550 OA
ENDBRANCH   4   5
ENDBRANCH   3   4
ENDBRANCH   2   3
ENDBRANCH   1   2
BRANCH   1   8
ATOM      8  C   UNL     1     -20.331  -2.345  10.625  1.00  0.00     0.000 C 
BRANCH   8   9
ATOM      9  C   UNL     1     -19.859  -1.863  12.009  1.00  0.00     0.006 C 
BRANCH   9  10
ATOM     10  C   UNL     1     -20.990  -1.883  13.046  1.00  0.00     0.053 C 
BRANCH  10  11
ATOM     11  C   UNL     1     -21.127  -0.567  13.747  1.00  0.00     0.041 C 
ATOM     12  O   UNL     1     -21.355   0.481  13.087  1.00  0.00    -0.550 OA
ATOM     13  O   UNL     1     -20.967  -0.492  15.125  1.00  0.00    -0.550 OA
ENDBRANCH  10  11
ENDBRANCH   9  10
ENDBRANCH   8   9
ENDBRANCH   1   8
TORSDOF 8
ENDMDL
MODEL 8
REMARK VINA RESULT:    -3.223      3.260      4.825
REMARK INTER + INTRA:          -5.146
REMARK INTER:                  -4.866
REMARK INTRA:                  -0.280
REMARK UNBOUND:                -0.416
REMARK SMILES O=C([O-])CCCCCCCC(=O)[O-]
REMARK SMILES IDX 7 1 6 2 5 3 4 4 2 5 1 6 3 7 8 8 9 9 10 10 11 11 12 12 13 13
REMARK H PARENT
REMARK Flexibility Score: inf
ROOT
ATOM      1  C   UNL     1     -21.809   2.376   9.516  1.00  0.00     0.000 C 
ENDROOT
BRANCH   1   2
ATOM      2  C   UNL     1     -21.076   1.476  10.525  1.00  0.00     0.000 C 
BRANCH   2   3
ATOM      3  C   UNL     1     -21.916   1.195  11.783  1.00  0.00     0.006 C 
BRANCH   3   4
ATOM      4  C   UNL     1     -21.065   1.119  13.058  1.00  0.00     0.053 C 
BRANCH   4   5
ATOM      5  C   UNL     1     -21.085  -0.270  13.615  1.00  0.00     0.041 C 
ATOM      6  O   UNL     1     -20.666  -1.235  12.926  1.00  0.00    -0.550 OA
ATOM      7  O   UNL     1     -21.614  -0.503  14.878  1.00  0.00    -0.550 OA
ENDBRANCH   4   5
ENDBRANCH   3   4
ENDBRANCH   2   3
ENDBRANCH   1   2
BRANCH   1   8
ATOM      8  C   UNL     1     -21.141   2.372   8.131  1.00  0.00     0.000 C 
BRANCH   8   9
ATOM      9  C   UNL     1     -20.118   1.234   7.968  1.00  0.00     0.006 C 
BRANCH   9  10
ATOM     10  C   UNL     1     -20.732  -0.004   7.300  1.00  0.00     0.053 C 
BRANCH  10  11
ATOM     11  C   UNL     1     -20.276  -1.272   7.954  1.00  0.00     0.041 C 
ATOM     12  O   UNL     1     -19.943  -2.263   7.252  1.00  0.00    -0.550 OA
ATOM     13  O   UNL     1     -20.253  -1.372   9.340  1.00  0.00    -0.550 OA
ENDBRANCH  10  11
ENDBRANCH   9  10
ENDBRANCH   8   9
ENDBRANCH   1   8
TORSDOF 8
ENDMDL
MODEL 9
REMARK VINA RESULT:    -3.180      3.251      5.644
REMARK INTER + INTRA:          -5.083
REMARK INTER:                  -4.700
REMARK INTRA:                  -0.384
REMARK UNBOUND:                -0.416
REMARK SMILES O=C([O-])CCCCCCCC(=O)[O-]
REMARK SMILES IDX 7 1 6 2 5 3 4 4 2 5 1 6 3 7 8 8 9 9 10 10 11 11 12 12 13 13
REMARK H PARENT
REMARK Flexibility Score: inf
ROOT
ATOM      1  C   UNL     1     -20.277  -2.376   9.951  1.00  0.00     0.000 C 
ENDROOT
BRANCH   1   2
ATOM      2  C   UNL     1     -19.624  -1.628  11.126  1.00  0.00     0.000 C 
BRANCH   2   3
ATOM      3  C   UNL     1     -20.376  -1.842  12.451  1.00  0.00     0.006 C 
BRANCH   3   4
ATOM      4  C   UNL     1     -21.148  -0.595  12.901  1.00  0.00     0.053 C 
BRANCH   4   5
ATOM      5  C   UNL     1     -21.158  -0.501  14.395  1.00  0.00     0.041 C 
ATOM      6  O   UNL     1     -22.224  -0.694  15.035  1.00  0.00    -0.550 OA
ATOM      7  O   UNL     1     -19.999  -0.150  15.076  1.00  0.00    -0.550 OA
ENDBRANCH   4   5
ENDBRANCH   3   4
ENDBRANCH   2   3
ENDBRANCH   1   2
BRANCH   1   8
ATOM      8  C   UNL     1     -19.629  -2.030   8.600  1.00  0.00     0.000 C 
BRANCH   8   9
ATOM      9  C   UNL     1     -20.559  -1.210   7.688  1.00  0.00     0.006 C 
BRANCH   9  10
ATOM     10  C   UNL     1     -20.001   0.191   7.404  1.00  0.00     0.053 C 
BRANCH  10  11
ATOM     11  C   UNL     1     -20.729   1.247   8.177  1.00  0.00     0.041 C 
ATOM     12  O   UNL     1     -20.956   2.370   7.656  1.00  0.00    -0.550 OA
ATOM     13  O   UNL     1     -21.126   1.002   9.486  1.00  0.00    -0.550 OA
ENDBRANCH  10  11
ENDBRANCH   9  10
ENDBRANCH   8   9
ENDBRANCH   1   8
TORSDOF 8
ENDMDL
