MODEL 1
REMARK VINA RESULT:    -5.922      0.000      0.000
REMARK INTER + INTRA:          -6.487
REMARK INTER:                  -6.441
REMARK INTRA:                  -0.046
REMARK UNBOUND:                -0.046
REMARK SMILES COc1ccccc1O
REMARK SMILES IDX 3 1 4 2 5 3 6 4 7 5 8 6 2 7 1 8 9 9
REMARK H PARENT 9 10
REMARK Flexibility Score: inf
ROOT
ATOM      1  C   UNL     1     -19.184  -8.751  10.131  1.00  0.00     0.160 A 
ATOM      2  C   UNL     1     -18.009  -8.016  10.386  1.00  0.00     0.050 A 
ATOM      3  C   UNL     1     -17.979  -7.069  11.415  1.00  0.00     0.004 A 
ATOM      4  C   UNL     1     -19.114  -6.847  12.196  1.00  0.00     0.004 A 
ATOM      5  C   UNL     1     -20.284  -7.571  11.952  1.00  0.00     0.050 A 
ATOM      6  C   UNL     1     -20.322  -8.522  10.922  1.00  0.00     0.157 A 
ENDROOT
BRANCH   1   7
ATOM      7  O   UNL     1     -19.260  -9.710   9.110  1.00  0.00    -0.493 OA
ATOM      8  C   UNL     1     -18.759 -11.039   9.215  1.00  0.00     0.278 C 
ENDBRANCH   1   7
BRANCH   6   9
ATOM      9  O   UNL     1     -21.488  -9.245  10.676  1.00  0.00    -0.504 OA
ATOM     10  H   UNL     1     -22.402  -8.870  10.903  1.00  0.00     0.293 HD
ENDBRANCH   6   9
TORSDOF 2
ENDMDL
MODEL 2
REMARK VINA RESULT:    -5.538      1.049      2.328
REMARK INTER + INTRA:          -6.069
REMARK INTER:                  -6.030
REMARK INTRA:                  -0.039
REMARK UNBOUND:                -0.046
REMARK SMILES COc1ccccc1O
REMARK SMILES IDX 3 1 4 2 5 3 6 4 7 5 8 6 2 7 1 8 9 9
REMARK H PARENT 9 10
REMARK Flexibility Score: inf
ROOT
ATOM      1  C   UNL     1     -20.078  -8.973  10.790  1.00  0.00     0.160 A 
ATOM      2  C   UNL     1     -20.236  -8.053  11.846  1.00  0.00     0.050 A 
ATOM      3  C   UNL     1     -19.272  -7.065  12.070  1.00  0.00     0.004 A 
ATOM      4  C   UNL     1     -18.148  -6.984  11.247  1.00  0.00     0.004 A 
ATOM      5  C   UNL     1     -17.982  -7.891  10.198  1.00  0.00     0.050 A 
ATOM      6  C   UNL     1     -18.945  -8.885   9.967  1.00  0.00     0.157 A 
ENDROOT
BRANCH   1   7
ATOM      7  O   UNL     1     -21.020  -9.980  10.529  1.00  0.00    -0.493 OA
ATOM      8  C   UNL     1     -21.045 -11.247  11.178  1.00  0.00     0.278 C 
ENDBRANCH   1   7
BRANCH   6   9
ATOM      9  O   UNL     1     -18.781  -9.791   8.920  1.00  0.00    -0.504 OA
ATOM     10  H   UNL     1     -19.535 -10.001   8.277  1.00  0.00     0.293 HD
ENDBRANCH   6   9
TORSDOF 2
ENDMDL
MODEL 3
REMARK VINA RESULT:    -5.495      1.561      2.380
REMARK INTER + INTRA:          -6.022
REMARK INTER:                  -5.976
REMARK INTRA:                  -0.046
REMARK UNBOUND:                -0.046
REMARK SMILES COc1ccccc1O
REMARK SMILES IDX 3 1 4 2 5 3 6 4 7 5 8 6 2 7 1 8 9 9
REMARK H PARENT 9 10
REMARK Flexibility Score: inf
ROOT
ATOM      1  C   UNL     1     -18.864  -9.244  11.195  1.00  0.00     0.160 A 
ATOM      2  C   UNL     1     -19.942  -9.507  12.065  1.00  0.00     0.050 A 
ATOM      3  C   UNL     1     -20.595  -8.455  12.716  1.00  0.00     0.004 A 
ATOM      4  C   UNL     1     -20.184  -7.138  12.506  1.00  0.00     0.004 A 
ATOM      5  C   UNL     1     -19.117  -6.867  11.647  1.00  0.00     0.050 A 
ATOM      6  C   UNL     1     -18.457  -7.916  10.990  1.00  0.00     0.157 A 
ENDROOT
BRANCH   1   7
ATOM      7  O   UNL     1     -18.180 -10.267  10.522  1.00  0.00    -0.493 OA
ATOM      8  C   UNL     1     -18.711 -11.005   9.427  1.00  0.00     0.278 C 
ENDBRANCH   1   7
BRANCH   6   9
ATOM      9  O   UNL     1     -17.391  -7.647  10.132  1.00  0.00    -0.504 OA
ATOM     10  H   UNL     1     -17.175  -6.703   9.835  1.00  0.00     0.293 HD
ENDBRANCH   6   9
TORSDOF 2
ENDMDL
MODEL 4
REMARK VINA RESULT:    -5.489      1.321      1.921
REMARK INTER + INTRA:          -6.016
REMARK INTER:                  -5.971
REMARK INTRA:                  -0.045
REMARK UNBOUND:                -0.046
REMARK SMILES COc1ccccc1O
REMARK SMILES IDX 3 1 4 2 5 3 6 4 7 5 8 6 2 7 1 8 9 9
REMARK H PARENT 9 10
REMARK Flexibility Score: inf
ROOT
ATOM      1  C   UNL     1     -19.981  -8.882  10.854  1.00  0.00     0.160 A 
ATOM      2  C   UNL     1     -18.933  -8.897   9.912  1.00  0.00     0.050 A 
ATOM      3  C   UNL     1     -17.905  -7.952   9.987  1.00  0.00     0.004 A 
ATOM      4  C   UNL     1     -17.911  -6.988  10.996  1.00  0.00     0.004 A 
ATOM      5  C   UNL     1     -18.945  -6.965  11.934  1.00  0.00     0.050 A 
ATOM      6  C   UNL     1     -19.980  -7.909  11.866  1.00  0.00     0.157 A 
ENDROOT
BRANCH   1   7
ATOM      7  O   UNL     1     -21.032  -9.810  10.817  1.00  0.00    -0.493 OA
ATOM      8  C   UNL     1     -20.897 -11.193  11.128  1.00  0.00     0.278 C 
ENDBRANCH   1   7
BRANCH   6   9
ATOM      9  O   UNL     1     -21.014  -7.887  12.801  1.00  0.00    -0.504 OA
ATOM     10  H   UNL     1     -21.897  -8.351  12.627  1.00  0.00     0.293 HD
ENDBRANCH   6   9
TORSDOF 2
ENDMDL
MODEL 5
REMARK VINA RESULT:    -5.114      1.949      3.070
REMARK INTER + INTRA:          -5.608
REMARK INTER:                  -5.569
REMARK INTRA:                  -0.039
REMARK UNBOUND:                -0.046
REMARK SMILES COc1ccccc1O
REMARK SMILES IDX 3 1 4 2 5 3 6 4 7 5 8 6 2 7 1 8 9 9
REMARK H PARENT 9 10
REMARK Flexibility Score: inf
ROOT
ATOM      1  C   UNL     1     -18.984  -9.150  10.643  1.00  0.00     0.160 A 
ATOM      2  C   UNL     1     -18.599  -9.743  11.862  1.00  0.00     0.050 A 
ATOM      3  C   UNL     1     -19.395 -10.734  12.446  1.00  0.00     0.004 A 
ATOM      4  C   UNL     1     -20.574 -11.143  11.822  1.00  0.00     0.004 A 
ATOM      5  C   UNL     1     -20.964 -10.561  10.613  1.00  0.00     0.050 A 
ATOM      6  C   UNL     1     -20.172  -9.566  10.022  1.00  0.00     0.157 A 
ENDROOT
BRANCH   1   7
ATOM      7  O   UNL     1     -18.217  -8.152  10.022  1.00  0.00    -0.493 OA
ATOM      8  C   UNL     1     -17.813  -6.939  10.650  1.00  0.00     0.278 C 
ENDBRANCH   1   7
BRANCH   6   9
ATOM      9  O   UNL     1     -20.560  -8.985   8.816  1.00  0.00    -0.504 OA
ATOM     10  H   UNL     1     -20.532  -9.501   7.945  1.00  0.00     0.293 HD
ENDBRANCH   6   9
TORSDOF 2
ENDMDL
MODEL 6
REMARK VINA RESULT:    -5.061      1.961      3.783
REMARK INTER + INTRA:          -5.550
REMARK INTER:                  -5.518
REMARK INTRA:                  -0.033
REMARK UNBOUND:                -0.046
REMARK SMILES COc1ccccc1O
REMARK SMILES IDX 3 1 4 2 5 3 6 4 7 5 8 6 2 7 1 8 9 9
REMARK H PARENT 9 10
REMARK Flexibility Score: inf
ROOT
ATOM      1  C   UNL     1     -19.710  -9.081  11.252  1.00  0.00     0.160 A 
ATOM      2  C   UNL     1     -20.293  -8.754  10.011  1.00  0.00     0.050 A 
ATOM      3  C   UNL     1     -19.948  -9.469   8.860  1.00  0.00     0.004 A 
ATOM      4  C   UNL     1     -19.024 -10.513   8.934  1.00  0.00     0.004 A 
ATOM      5  C   UNL     1     -18.441 -10.845  10.159  1.00  0.00     0.050 A 
ATOM      6  C   UNL     1     -18.782 -10.132  11.318  1.00  0.00     0.157 A 
ENDROOT
BRANCH   1   7
ATOM      7  O   UNL     1     -20.027  -8.390  12.431  1.00  0.00    -0.493 OA
ATOM      8  C   UNL     1     -20.184  -6.978  12.520  1.00  0.00     0.278 C 
ENDBRANCH   1   7
BRANCH   6   9
ATOM      9  O   UNL     1     -18.200 -10.461  12.541  1.00  0.00    -0.504 OA
ATOM     10  H   UNL     1     -17.195 -10.505  12.656  1.00  0.00     0.293 HD
ENDBRANCH   6   9
TORSDOF 2
ENDMDL
MODEL 7
REMARK VINA RESULT:    -4.885      1.706      3.184
REMARK INTER + INTRA:          -5.360
REMARK INTER:                  -5.335
REMARK INTRA:                  -0.025
REMARK UNBOUND:                -0.046
REMARK SMILES COc1ccccc1O
REMARK SMILES IDX 3 1 4 2 5 3 6 4 7 5 8 6 2 7 1 8 9 9
REMARK H PARENT 9 10
REMARK Flexibility Score: inf
ROOT
ATOM      1  C   UNL     1     -19.353  -8.513  10.744  1.00  0.00     0.160 A 
ATOM      2  C   UNL     1     -18.825  -9.473   9.857  1.00  0.00     0.050 A 
ATOM      3  C   UNL     1     -19.277 -10.796   9.900  1.00  0.00     0.004 A 
ATOM      4  C   UNL     1     -20.253 -11.173  10.823  1.00  0.00     0.004 A 
ATOM      5  C   UNL     1     -20.782 -10.229  11.707  1.00  0.00     0.050 A 
ATOM      6  C   UNL     1     -20.335  -8.900  11.669  1.00  0.00     0.157 A 
ENDROOT
BRANCH   1   7
ATOM      7  O   UNL     1     -18.930  -7.175  10.735  1.00  0.00    -0.493 OA
ATOM      8  C   UNL     1     -17.835  -6.672  11.493  1.00  0.00     0.278 C 
ENDBRANCH   1   7
BRANCH   6   9
ATOM      9  O   UNL     1     -20.862  -7.957  12.550  1.00  0.00    -0.504 OA
ATOM     10  H   UNL     1     -20.283  -7.495  13.241  1.00  0.00     0.293 HD
ENDBRANCH   6   9
TORSDOF 2
ENDMDL
MODEL 8
REMARK VINA RESULT:    -4.228      1.965      2.480
REMARK INTER + INTRA:          -4.645
REMARK INTER:                  -4.600
REMARK INTRA:                  -0.045
REMARK UNBOUND:                -0.046
REMARK SMILES COc1ccccc1O
REMARK SMILES IDX 3 1 4 2 5 3 6 4 7 5 8 6 2 7 1 8 9 9
REMARK H PARENT 9 10
REMARK Flexibility Score: inf
ROOT
ATOM      1  C   UNL     1     -19.579  -9.312  10.236  1.00  0.00     0.160 A 
ATOM      2  C   UNL     1     -19.511 -10.617  10.764  1.00  0.00     0.050 A 
ATOM      3  C   UNL     1     -19.571 -10.822  12.147  1.00  0.00     0.004 A 
ATOM      4  C   UNL     1     -19.698  -9.734  13.011  1.00  0.00     0.004 A 
ATOM      5  C   UNL     1     -19.765  -8.436  12.498  1.00  0.00     0.050 A 
ATOM      6  C   UNL     1     -19.707  -8.223  11.112  1.00  0.00     0.157 A 
ENDROOT
BRANCH   1   7
ATOM      7  O   UNL     1     -19.524  -9.060   8.857  1.00  0.00    -0.493 OA
ATOM      8  C   UNL     1     -20.632  -9.178   7.971  1.00  0.00     0.278 C 
ENDBRANCH   1   7
BRANCH   6   9
ATOM      9  O   UNL     1     -19.774  -6.929  10.598  1.00  0.00    -0.504 OA
ATOM     10  H   UNL     1     -19.143  -6.200  10.911  1.00  0.00     0.293 HD
ENDBRANCH   6   9
TORSDOF 2
ENDMDL
MODEL 9
REMARK VINA RESULT:    -3.828      2.208      2.942
REMARK INTER + INTRA:          -4.209
REMARK INTER:                  -4.170
REMARK INTRA:                  -0.040
REMARK UNBOUND:                -0.046
REMARK SMILES COc1ccccc1O
REMARK SMILES IDX 3 1 4 2 5 3 6 4 7 5 8 6 2 7 1 8 9 9
REMARK H PARENT 9 10
REMARK Flexibility Score: inf
ROOT
ATOM      1  C   UNL     1     -19.388  -9.663  11.753  1.00  0.00     0.160 A 
ATOM      2  C   UNL     1     -18.514  -8.629  11.361  1.00  0.00     0.050 A 
ATOM      3  C   UNL     1     -18.450  -8.230  10.023  1.00  0.00     0.004 A 
ATOM      4  C   UNL     1     -19.253  -8.853   9.066  1.00  0.00     0.004 A 
ATOM      5  C   UNL     1     -20.122  -9.879   9.444  1.00  0.00     0.050 A 
ATOM      6  C   UNL     1     -20.193 -10.285  10.785  1.00  0.00     0.157 A 
ENDROOT
BRANCH   1   7
ATOM      7  O   UNL     1     -19.486 -10.095  13.084  1.00  0.00    -0.493 OA
ATOM      8  C   UNL     1     -18.618 -11.051  13.686  1.00  0.00     0.278 C 
ENDBRANCH   1   7
BRANCH   6   9
ATOM      9  O   UNL     1     -21.060 -11.308  11.164  1.00  0.00    -0.504 OA
ATOM     10  H   UNL     1     -20.715 -12.220  11.443  1.00  0.00     0.293 HD
ENDBRANCH   6   9
TORSDOF 2
ENDMDL
