MODEL 1
REMARK VINA RESULT:    -5.559      0.000      0.000
REMARK INTER + INTRA:          -7.452
REMARK INTER:                  -7.021
REMARK INTRA:                  -0.430
REMARK UNBOUND:                -0.430
REMARK SMILES O=C(C=Cc1ccc(O)cc1)c1ccc(O)cc1O
REMARK SMILES IDX 4 1 3 2 5 3 6 4 7 5 8 6 11 7 10 8 9 9 2 11 1 12 12 13 18 14
REMARK SMILES IDX 13 15 17 16 14 17 15 18 19 19 16 21
REMARK H PARENT 9 10 19 20 16 22
REMARK Flexibility Score: inf
ROOT
ATOM      1  C   UNL     1      25.389  29.338  -3.786  1.00  0.00     0.012 C 
ATOM      2  C   UNL     1      24.905  28.502  -2.856  1.00  0.00     0.053 C 
ENDROOT
BRANCH   1   3
ATOM      3  C   UNL     1      24.624  30.482  -4.343  1.00  0.00    -0.025 A 
ATOM      4  C   UNL     1      25.090  31.785  -4.100  1.00  0.00     0.012 A 
ATOM      5  C   UNL     1      24.395  32.893  -4.596  1.00  0.00     0.047 A 
ATOM      6  C   UNL     1      23.220  32.715  -5.329  1.00  0.00     0.115 A 
ATOM      7  C   UNL     1      23.428  30.312  -5.071  1.00  0.00     0.012 A 
ATOM      8  C   UNL     1      22.737  31.422  -5.564  1.00  0.00     0.047 A 
BRANCH   6   9
ATOM      9  O   UNL     1      22.539  33.828  -5.818  1.00  0.00    -0.508 OA
ATOM     10  H   UNL     1      22.964  34.458  -6.488  1.00  0.00     0.293 HD
ENDBRANCH   6   9
ENDBRANCH   1   3
BRANCH   2  11
ATOM     11  C   UNL     1      25.692  27.360  -2.338  1.00  0.00     0.189 C 
ATOM     12  O   UNL     1      26.593  27.560  -1.478  1.00  0.00    -0.289 OA
BRANCH  11  13
ATOM     13  C   UNL     1      25.443  25.978  -2.823  1.00  0.00     0.064 A 
ATOM     14  C   UNL     1      26.250  24.903  -2.394  1.00  0.00     0.130 A 
ATOM     15  C   UNL     1      24.376  25.719  -3.706  1.00  0.00     0.020 A 
ATOM     16  C   UNL     1      25.987  23.602  -2.850  1.00  0.00     0.093 A 
ATOM     17  C   UNL     1      24.125  24.421  -4.157  1.00  0.00     0.047 A 
ATOM     18  C   UNL     1      24.927  23.361  -3.732  1.00  0.00     0.119 A 
BRANCH  14  19
ATOM     19  O   UNL     1      27.322  25.125  -1.528  1.00  0.00    -0.507 OA
ATOM     20  H   UNL     1      27.659  24.403  -0.901  1.00  0.00     0.293 HD
ENDBRANCH  14  19
BRANCH  18  21
ATOM     21  O   UNL     1      24.663  22.072  -4.190  1.00  0.00    -0.508 OA
ATOM     22  H   UNL     1      24.834  21.806  -5.153  1.00  0.00     0.293 HD
ENDBRANCH  18  21
ENDBRANCH  11  13
ENDBRANCH   2  11
TORSDOF 6
ENDMDL
MODEL 2
REMARK VINA RESULT:    -5.496      1.349      1.944
REMARK INTER + INTRA:          -7.372
REMARK INTER:                  -6.732
REMARK INTRA:                  -0.640
REMARK UNBOUND:                -0.430
REMARK SMILES O=C(C=Cc1ccc(O)cc1)c1ccc(O)cc1O
REMARK SMILES IDX 4 1 3 2 5 3 6 4 7 5 8 6 11 7 10 8 9 9 2 11 1 12 12 13 18 14
REMARK SMILES IDX 13 15 17 16 14 17 15 18 19 19 16 21
REMARK H PARENT 9 10 19 20 16 22
REMARK Flexibility Score: inf
ROOT
ATOM      1  C   UNL     1      24.838  29.231  -4.116  1.00  0.00     0.012 C 
ATOM      2  C   UNL     1      24.083  28.256  -3.590  1.00  0.00     0.053 C 
ENDROOT
BRANCH   1   3
ATOM      3  C   UNL     1      24.307  30.557  -4.517  1.00  0.00    -0.025 A 
ATOM      4  C   UNL     1      23.128  30.607  -5.281  1.00  0.00     0.012 A 
ATOM      5  C   UNL     1      22.597  31.834  -5.691  1.00  0.00     0.047 A 
ATOM      6  C   UNL     1      23.241  33.027  -5.353  1.00  0.00     0.115 A 
ATOM      7  C   UNL     1      24.959  31.766  -4.194  1.00  0.00     0.012 A 
ATOM      8  C   UNL     1      24.424  32.990  -4.606  1.00  0.00     0.047 A 
BRANCH   6   9
ATOM      9  O   UNL     1      22.699  34.242  -5.767  1.00  0.00    -0.508 OA
ATOM     10  H   UNL     1      21.725  34.471  -5.605  1.00  0.00     0.293 HD
ENDBRANCH   6   9
ENDBRANCH   1   3
BRANCH   2  11
ATOM     11  C   UNL     1      24.646  26.937  -3.219  1.00  0.00     0.189 C 
ATOM     12  O   UNL     1      25.369  26.833  -2.190  1.00  0.00    -0.289 OA
BRANCH  11  13
ATOM     13  C   UNL     1      24.379  25.733  -4.047  1.00  0.00     0.064 A 
ATOM     14  C   UNL     1      24.285  24.454  -3.455  1.00  0.00     0.130 A 
ATOM     15  C   UNL     1      24.192  25.856  -5.437  1.00  0.00     0.020 A 
ATOM     16  C   UNL     1      24.015  23.331  -4.253  1.00  0.00     0.093 A 
ATOM     17  C   UNL     1      23.926  24.732  -6.222  1.00  0.00     0.047 A 
ATOM     18  C   UNL     1      23.837  23.469  -5.634  1.00  0.00     0.119 A 
BRANCH  14  19
ATOM     19  O   UNL     1      24.476  24.294  -2.082  1.00  0.00    -0.507 OA
ATOM     20  H   UNL     1      24.677  23.388  -1.674  1.00  0.00     0.293 HD
ENDBRANCH  14  19
BRANCH  18  21
ATOM     21  O   UNL     1      23.571  22.357  -6.431  1.00  0.00    -0.508 OA
ATOM     22  H   UNL     1      23.710  21.414  -6.087  1.00  0.00     0.293 HD
ENDBRANCH  18  21
ENDBRANCH  11  13
ENDBRANCH   2  11
TORSDOF 6
ENDMDL
MODEL 3
REMARK VINA RESULT:    -5.466     11.981     13.988
REMARK INTER + INTRA:          -7.334
REMARK INTER:                  -6.674
REMARK INTRA:                  -0.660
REMARK UNBOUND:                -0.430
REMARK SMILES O=C(C=Cc1ccc(O)cc1)c1ccc(O)cc1O
REMARK SMILES IDX 4 1 3 2 5 3 6 4 7 5 8 6 11 7 10 8 9 9 2 11 1 12 12 13 18 14
REMARK SMILES IDX 13 15 17 16 14 17 15 18 19 19 16 21
REMARK H PARENT 9 10 19 20 16 22
REMARK Flexibility Score: inf
ROOT
ATOM      1  C   UNL     1      20.308  21.823   8.247  1.00  0.00     0.012 C 
ATOM      2  C   UNL     1      21.306  22.652   8.586  1.00  0.00     0.053 C 
ENDROOT
BRANCH   1   3
ATOM      3  C   UNL     1      18.872  22.194   8.316  1.00  0.00    -0.025 A 
ATOM      4  C   UNL     1      18.048  21.900   7.216  1.00  0.00     0.012 A 
ATOM      5  C   UNL     1      16.692  22.241   7.233  1.00  0.00     0.047 A 
ATOM      6  C   UNL     1      16.143  22.889   8.341  1.00  0.00     0.115 A 
ATOM      7  C   UNL     1      18.314  22.862   9.425  1.00  0.00     0.012 A 
ATOM      8  C   UNL     1      16.957  23.201   9.437  1.00  0.00     0.047 A 
BRANCH   6   9
ATOM      9  O   UNL     1      14.790  23.221   8.345  1.00  0.00    -0.508 OA
ATOM     10  H   UNL     1      14.298  23.447   7.489  1.00  0.00     0.293 HD
ENDBRANCH   6   9
ENDBRANCH   1   3
BRANCH   2  11
ATOM     11  C   UNL     1      22.727  22.240   8.523  1.00  0.00     0.189 C 
ATOM     12  O   UNL     1      23.166  21.380   9.336  1.00  0.00    -0.289 OA
BRANCH  11  13
ATOM     13  C   UNL     1      23.650  22.831   7.520  1.00  0.00     0.064 A 
ATOM     14  C   UNL     1      24.932  23.288   7.896  1.00  0.00     0.130 A 
ATOM     15  C   UNL     1      23.263  22.924   6.169  1.00  0.00     0.020 A 
ATOM     16  C   UNL     1      25.796  23.828   6.930  1.00  0.00     0.093 A 
ATOM     17  C   UNL     1      24.129  23.465   5.216  1.00  0.00     0.047 A 
ATOM     18  C   UNL     1      25.394  23.919   5.592  1.00  0.00     0.119 A 
BRANCH  14  19
ATOM     19  O   UNL     1      25.344  23.222   9.228  1.00  0.00    -0.507 OA
ATOM     20  H   UNL     1      26.294  23.442   9.503  1.00  0.00     0.293 HD
ENDBRANCH  14  19
BRANCH  18  21
ATOM     21  O   UNL     1      26.247  24.455   4.630  1.00  0.00    -0.508 OA
ATOM     22  H   UNL     1      27.224  24.191   4.581  1.00  0.00     0.293 HD
ENDBRANCH  18  21
ENDBRANCH  11  13
ENDBRANCH   2  11
TORSDOF 6
ENDMDL
MODEL 4
REMARK VINA RESULT:    -5.397      2.326      7.328
REMARK INTER + INTRA:          -7.247
REMARK INTER:                  -6.562
REMARK INTRA:                  -0.685
REMARK UNBOUND:                -0.430
REMARK SMILES O=C(C=Cc1ccc(O)cc1)c1ccc(O)cc1O
REMARK SMILES IDX 4 1 3 2 5 3 6 4 7 5 8 6 11 7 10 8 9 9 2 11 1 12 12 13 18 14
REMARK SMILES IDX 13 15 17 16 14 17 15 18 19 19 16 21
REMARK H PARENT 9 10 19 20 16 22
REMARK Flexibility Score: inf
ROOT
ATOM      1  C   UNL     1      24.560  29.015  -3.526  1.00  0.00     0.012 C 
ATOM      2  C   UNL     1      23.594  28.609  -4.362  1.00  0.00     0.053 C 
ENDROOT
BRANCH   1   3
ATOM      3  C   UNL     1      25.456  28.088  -2.792  1.00  0.00    -0.025 A 
ATOM      4  C   UNL     1      26.682  28.577  -2.310  1.00  0.00     0.012 A 
ATOM      5  C   UNL     1      27.563  27.736  -1.622  1.00  0.00     0.047 A 
ATOM      6  C   UNL     1      27.237  26.394  -1.417  1.00  0.00     0.115 A 
ATOM      7  C   UNL     1      25.142  26.727  -2.595  1.00  0.00     0.012 A 
ATOM      8  C   UNL     1      26.026  25.890  -1.907  1.00  0.00     0.047 A 
BRANCH   6   9
ATOM      9  O   UNL     1      28.124  25.568  -0.729  1.00  0.00    -0.508 OA
ATOM     10  H   UNL     1      28.107  25.498   0.282  1.00  0.00     0.293 HD
ENDBRANCH   6   9
ENDBRANCH   1   3
BRANCH   2  11
ATOM     11  C   UNL     1      22.705  29.564  -5.063  1.00  0.00     0.189 C 
ATOM     12  O   UNL     1      21.559  29.811  -4.595  1.00  0.00    -0.289 OA
BRANCH  11  13
ATOM     13  C   UNL     1      23.139  30.231  -6.317  1.00  0.00     0.064 A 
ATOM     14  C   UNL     1      22.940  31.617  -6.507  1.00  0.00     0.130 A 
ATOM     15  C   UNL     1      23.778  29.490  -7.330  1.00  0.00     0.020 A 
ATOM     16  C   UNL     1      23.373  32.232  -7.692  1.00  0.00     0.093 A 
ATOM     17  C   UNL     1      24.202  30.112  -8.506  1.00  0.00     0.047 A 
ATOM     18  C   UNL     1      24.001  31.481  -8.692  1.00  0.00     0.119 A 
BRANCH  14  19
ATOM     19  O   UNL     1      22.300  32.380  -5.529  1.00  0.00    -0.507 OA
ATOM     20  H   UNL     1      21.322  32.636  -5.608  1.00  0.00     0.293 HD
ENDBRANCH  14  19
BRANCH  18  21
ATOM     21  O   UNL     1      24.431  32.086  -9.870  1.00  0.00    -0.508 OA
ATOM     22  H   UNL     1      24.550  33.090  -9.938  1.00  0.00     0.293 HD
ENDBRANCH  18  21
ENDBRANCH  11  13
ENDBRANCH   2  11
TORSDOF 6
ENDMDL
MODEL 5
REMARK VINA RESULT:    -5.204      2.370      8.205
REMARK INTER + INTRA:          -7.003
REMARK INTER:                  -6.398
REMARK INTRA:                  -0.605
REMARK UNBOUND:                -0.430
REMARK SMILES O=C(C=Cc1ccc(O)cc1)c1ccc(O)cc1O
REMARK SMILES IDX 4 1 3 2 5 3 6 4 7 5 8 6 11 7 10 8 9 9 2 11 1 12 12 13 18 14
REMARK SMILES IDX 13 15 17 16 14 17 15 18 19 19 16 21
REMARK H PARENT 9 10 19 20 16 22
REMARK Flexibility Score: inf
ROOT
ATOM      1  C   UNL     1      25.716  29.248  -4.235  1.00  0.00     0.012 C 
ATOM      2  C   UNL     1      24.554  29.888  -4.039  1.00  0.00     0.053 C 
ENDROOT
BRANCH   1   3
ATOM      3  C   UNL     1      26.380  28.415  -3.203  1.00  0.00    -0.025 A 
ATOM      4  C   UNL     1      25.810  27.173  -2.870  1.00  0.00     0.012 A 
ATOM      5  C   UNL     1      26.396  26.360  -1.896  1.00  0.00     0.047 A 
ATOM      6  C   UNL     1      27.551  26.779  -1.231  1.00  0.00     0.115 A 
ATOM      7  C   UNL     1      27.537  28.837  -2.516  1.00  0.00     0.012 A 
ATOM      8  C   UNL     1      28.119  28.020  -1.542  1.00  0.00     0.047 A 
BRANCH   6   9
ATOM      9  O   UNL     1      28.125  25.957  -0.263  1.00  0.00    -0.508 OA
ATOM     10  H   UNL     1      28.855  25.295  -0.496  1.00  0.00     0.293 HD
ENDBRANCH   6   9
ENDBRANCH   1   3
BRANCH   2  11
ATOM     11  C   UNL     1      23.930  30.728  -5.088  1.00  0.00     0.189 C 
ATOM     12  O   UNL     1      23.133  30.205  -5.914  1.00  0.00    -0.289 OA
BRANCH  11  13
ATOM     13  C   UNL     1      24.236  32.178  -5.188  1.00  0.00     0.064 A 
ATOM     14  C   UNL     1      23.201  33.127  -5.335  1.00  0.00     0.130 A 
ATOM     15  C   UNL     1      25.568  32.627  -5.114  1.00  0.00     0.020 A 
ATOM     16  C   UNL     1      23.510  34.495  -5.410  1.00  0.00     0.093 A 
ATOM     17  C   UNL     1      25.865  33.990  -5.193  1.00  0.00     0.047 A 
ATOM     18  C   UNL     1      24.840  34.926  -5.342  1.00  0.00     0.119 A 
BRANCH  14  19
ATOM     19  O   UNL     1      21.871  32.716  -5.422  1.00  0.00    -0.507 OA
ATOM     20  H   UNL     1      21.477  32.366  -6.288  1.00  0.00     0.293 HD
ENDBRANCH  14  19
BRANCH  18  21
ATOM     21  O   UNL     1      25.152  36.282  -5.418  1.00  0.00    -0.508 OA
ATOM     22  H   UNL     1      25.710  36.737  -4.705  1.00  0.00     0.293 HD
ENDBRANCH  18  21
ENDBRANCH  11  13
ENDBRANCH   2  11
TORSDOF 6
ENDMDL
MODEL 6
REMARK VINA RESULT:    -5.155      2.209      7.984
REMARK INTER + INTRA:          -6.941
REMARK INTER:                  -6.180
REMARK INTRA:                  -0.761
REMARK UNBOUND:                -0.430
REMARK SMILES O=C(C=Cc1ccc(O)cc1)c1ccc(O)cc1O
REMARK SMILES IDX 4 1 3 2 5 3 6 4 7 5 8 6 11 7 10 8 9 9 2 11 1 12 12 13 18 14
REMARK SMILES IDX 13 15 17 16 14 17 15 18 19 19 16 21
REMARK H PARENT 9 10 19 20 16 22
REMARK Flexibility Score: inf
ROOT
ATOM      1  C   UNL     1      24.382  30.430  -4.354  1.00  0.00     0.012 C 
ATOM      2  C   UNL     1      23.193  30.342  -4.969  1.00  0.00     0.053 C 
ENDROOT
BRANCH   1   3
ATOM      3  C   UNL     1      25.018  29.302  -3.628  1.00  0.00    -0.025 A 
ATOM      4  C   UNL     1      24.207  28.241  -3.191  1.00  0.00     0.012 A 
ATOM      5  C   UNL     1      24.761  27.163  -2.493  1.00  0.00     0.047 A 
ATOM      6  C   UNL     1      26.128  27.136  -2.212  1.00  0.00     0.115 A 
ATOM      7  C   UNL     1      26.395  29.274  -3.326  1.00  0.00     0.012 A 
ATOM      8  C   UNL     1      26.944  28.195  -2.628  1.00  0.00     0.047 A 
BRANCH   6   9
ATOM      9  O   UNL     1      26.667  26.054  -1.518  1.00  0.00    -0.508 OA
ATOM     10  H   UNL     1      26.394  25.101  -1.727  1.00  0.00     0.293 HD
ENDBRANCH   6   9
ENDBRANCH   1   3
BRANCH   2  11
ATOM     11  C   UNL     1      22.581  31.495  -5.668  1.00  0.00     0.189 C 
ATOM     12  O   UNL     1      21.432  31.892  -5.331  1.00  0.00    -0.289 OA
BRANCH  11  13
ATOM     13  C   UNL     1      23.297  32.188  -6.769  1.00  0.00     0.064 A 
ATOM     14  C   UNL     1      23.689  33.538  -6.641  1.00  0.00     0.130 A 
ATOM     15  C   UNL     1      23.615  31.495  -7.953  1.00  0.00     0.020 A 
ATOM     16  C   UNL     1      24.380  34.170  -7.687  1.00  0.00     0.093 A 
ATOM     17  C   UNL     1      24.301  32.134  -8.989  1.00  0.00     0.047 A 
ATOM     18  C   UNL     1      24.684  33.470  -8.861  1.00  0.00     0.119 A 
BRANCH  14  19
ATOM     19  O   UNL     1      23.380  34.258  -5.486  1.00  0.00    -0.507 OA
ATOM     20  H   UNL     1      24.076  34.816  -5.005  1.00  0.00     0.293 HD
ENDBRANCH  14  19
BRANCH  18  21
ATOM     21  O   UNL     1      25.368  34.093  -9.902  1.00  0.00    -0.508 OA
ATOM     22  H   UNL     1      26.335  33.871 -10.108  1.00  0.00     0.293 HD
ENDBRANCH  18  21
ENDBRANCH  11  13
ENDBRANCH   2  11
TORSDOF 6
ENDMDL
MODEL 7
REMARK VINA RESULT:    -5.137      1.659      7.908
REMARK INTER + INTRA:          -6.919
REMARK INTER:                  -6.502
REMARK INTRA:                  -0.417
REMARK UNBOUND:                -0.430
REMARK SMILES O=C(C=Cc1ccc(O)cc1)c1ccc(O)cc1O
REMARK SMILES IDX 4 1 3 2 5 3 6 4 7 5 8 6 11 7 10 8 9 9 2 11 1 12 12 13 18 14
REMARK SMILES IDX 13 15 17 16 14 17 15 18 19 19 16 21
REMARK H PARENT 9 10 19 20 16 22
REMARK Flexibility Score: inf
ROOT
ATOM      1  C   UNL     1      23.906  28.421  -3.374  1.00  0.00     0.012 C 
ATOM      2  C   UNL     1      23.744  28.890  -4.619  1.00  0.00     0.053 C 
ENDROOT
BRANCH   1   3
ATOM      3  C   UNL     1      24.662  27.185  -3.053  1.00  0.00    -0.025 A 
ATOM      4  C   UNL     1      25.779  27.280  -2.205  1.00  0.00     0.012 A 
ATOM      5  C   UNL     1      26.527  26.144  -1.883  1.00  0.00     0.047 A 
ATOM      6  C   UNL     1      26.178  24.899  -2.413  1.00  0.00     0.115 A 
ATOM      7  C   UNL     1      24.326  25.927  -3.596  1.00  0.00     0.012 A 
ATOM      8  C   UNL     1      25.078  24.794  -3.271  1.00  0.00     0.047 A 
BRANCH   6   9
ATOM      9  O   UNL     1      26.933  23.775  -2.083  1.00  0.00    -0.508 OA
ATOM     10  H   UNL     1      27.080  23.501  -1.119  1.00  0.00     0.293 HD
ENDBRANCH   6   9
ENDBRANCH   1   3
BRANCH   2  11
ATOM     11  C   UNL     1      22.966  30.118  -4.904  1.00  0.00     0.189 C 
ATOM     12  O   UNL     1      21.704  30.076  -4.889  1.00  0.00    -0.289 OA
BRANCH  11  13
ATOM     13  C   UNL     1      23.648  31.400  -5.215  1.00  0.00     0.064 A 
ATOM     14  C   UNL     1      22.907  32.586  -5.411  1.00  0.00     0.130 A 
ATOM     15  C   UNL     1      25.053  31.453  -5.297  1.00  0.00     0.020 A 
ATOM     16  C   UNL     1      23.572  33.791  -5.687  1.00  0.00     0.093 A 
ATOM     17  C   UNL     1      25.705  32.656  -5.576  1.00  0.00     0.047 A 
ATOM     18  C   UNL     1      24.969  33.826  -5.772  1.00  0.00     0.119 A 
BRANCH  14  19
ATOM     19  O   UNL     1      21.513  32.568  -5.348  1.00  0.00    -0.507 OA
ATOM     20  H   UNL     1      20.970  33.423  -5.329  1.00  0.00     0.293 HD
ENDBRANCH  14  19
BRANCH  18  21
ATOM     21  O   UNL     1      25.634  35.019  -6.047  1.00  0.00    -0.508 OA
ATOM     22  H   UNL     1      26.641  35.095  -5.965  1.00  0.00     0.293 HD
ENDBRANCH  18  21
ENDBRANCH  11  13
ENDBRANCH   2  11
TORSDOF 6
ENDMDL
MODEL 8
REMARK VINA RESULT:    -5.021      2.209      3.224
REMARK INTER + INTRA:          -6.772
REMARK INTER:                  -6.234
REMARK INTRA:                  -0.537
REMARK UNBOUND:                -0.430
REMARK SMILES O=C(C=Cc1ccc(O)cc1)c1ccc(O)cc1O
REMARK SMILES IDX 4 1 3 2 5 3 6 4 7 5 8 6 11 7 10 8 9 9 2 11 1 12 12 13 18 14
REMARK SMILES IDX 13 15 17 16 14 17 15 18 19 19 16 21
REMARK H PARENT 9 10 19 20 16 22
REMARK Flexibility Score: inf
ROOT
ATOM      1  C   UNL     1      23.146  30.060  -5.475  1.00  0.00     0.012 C 
ATOM      2  C   UNL     1      24.041  29.570  -4.605  1.00  0.00     0.053 C 
ENDROOT
BRANCH   1   3
ATOM      3  C   UNL     1      23.467  31.095  -6.489  1.00  0.00    -0.025 A 
ATOM      4  C   UNL     1      23.883  32.363  -6.048  1.00  0.00     0.012 A 
ATOM      5  C   UNL     1      24.185  33.372  -6.967  1.00  0.00     0.047 A 
ATOM      6  C   UNL     1      24.065  33.134  -8.338  1.00  0.00     0.115 A 
ATOM      7  C   UNL     1      23.333  30.868  -7.874  1.00  0.00     0.012 A 
ATOM      8  C   UNL     1      23.636  31.880  -8.790  1.00  0.00     0.047 A 
BRANCH   6   9
ATOM      9  O   UNL     1      24.371  34.148  -9.243  1.00  0.00    -0.508 OA
ATOM     10  H   UNL     1      23.776  34.346 -10.038  1.00  0.00     0.293 HD
ENDBRANCH   6   9
ENDBRANCH   1   3
BRANCH   2  11
ATOM     11  C   UNL     1      23.679  28.550  -3.593  1.00  0.00     0.189 C 
ATOM     12  O   UNL     1      22.510  28.527  -3.119  1.00  0.00    -0.289 OA
BRANCH  11  13
ATOM     13  C   UNL     1      24.677  27.557  -3.120  1.00  0.00     0.064 A 
ATOM     14  C   UNL     1      24.658  26.228  -3.597  1.00  0.00     0.130 A 
ATOM     15  C   UNL     1      25.673  27.937  -2.200  1.00  0.00     0.020 A 
ATOM     16  C   UNL     1      25.620  25.309  -3.150  1.00  0.00     0.093 A 
ATOM     17  C   UNL     1      26.624  27.013  -1.760  1.00  0.00     0.047 A 
ATOM     18  C   UNL     1      26.601  25.700  -2.231  1.00  0.00     0.119 A 
BRANCH  14  19
ATOM     19  O   UNL     1      23.678  25.814  -4.501  1.00  0.00    -0.507 OA
ATOM     20  H   UNL     1      22.911  26.420  -4.768  1.00  0.00     0.293 HD
ENDBRANCH  14  19
BRANCH  18  21
ATOM     21  O   UNL     1      27.557  24.791  -1.783  1.00  0.00    -0.508 OA
ATOM     22  H   UNL     1      27.309  23.842  -1.530  1.00  0.00     0.293 HD
ENDBRANCH  18  21
ENDBRANCH  11  13
ENDBRANCH   2  11
TORSDOF 6
ENDMDL
MODEL 9
REMARK VINA RESULT:    -4.992      2.877      5.323
REMARK INTER + INTRA:          -6.735
REMARK INTER:                  -6.082
REMARK INTRA:                  -0.653
REMARK UNBOUND:                -0.430
REMARK SMILES O=C(C=Cc1ccc(O)cc1)c1ccc(O)cc1O
REMARK SMILES IDX 4 1 3 2 5 3 6 4 7 5 8 6 11 7 10 8 9 9 2 11 1 12 12 13 18 14
REMARK SMILES IDX 13 15 17 16 14 17 15 18 19 19 16 21
REMARK H PARENT 9 10 19 20 16 22
REMARK Flexibility Score: inf
ROOT
ATOM      1  C   UNL     1      24.073  33.393  -6.155  1.00  0.00     0.012 C 
ATOM      2  C   UNL     1      23.365  32.484  -5.468  1.00  0.00     0.053 C 
ENDROOT
BRANCH   1   3
ATOM      3  C   UNL     1      23.999  34.853  -5.904  1.00  0.00    -0.025 A 
ATOM      4  C   UNL     1      24.841  35.412  -4.928  1.00  0.00     0.012 A 
ATOM      5  C   UNL     1      24.798  36.782  -4.650  1.00  0.00     0.047 A 
ATOM      6  C   UNL     1      23.906  37.610  -5.334  1.00  0.00     0.115 A 
ATOM      7  C   UNL     1      23.090  35.694  -6.579  1.00  0.00     0.012 A 
ATOM      8  C   UNL     1      23.050  37.063  -6.298  1.00  0.00     0.047 A 
BRANCH   6   9
ATOM      9  O   UNL     1      23.876  38.974  -5.048  1.00  0.00    -0.508 OA
ATOM     10  H   UNL     1      23.816  39.314  -4.096  1.00  0.00     0.293 HD
ENDBRANCH   6   9
ENDBRANCH   1   3
BRANCH   2  11
ATOM     11  C   UNL     1      23.450  31.034  -5.760  1.00  0.00     0.189 C 
ATOM     12  O   UNL     1      23.062  30.598  -6.879  1.00  0.00    -0.289 OA
BRANCH  11  13
ATOM     13  C   UNL     1      23.979  30.082  -4.751  1.00  0.00     0.064 A 
ATOM     14  C   UNL     1      23.173  29.036  -4.250  1.00  0.00     0.130 A 
ATOM     15  C   UNL     1      25.306  30.197  -4.295  1.00  0.00     0.020 A 
ATOM     16  C   UNL     1      23.697  28.136  -3.309  1.00  0.00     0.093 A 
ATOM     17  C   UNL     1      25.817  29.297  -3.357  1.00  0.00     0.047 A 
ATOM     18  C   UNL     1      25.017  28.267  -2.861  1.00  0.00     0.119 A 
BRANCH  14  19
ATOM     19  O   UNL     1      21.849  28.899  -4.671  1.00  0.00    -0.507 OA
ATOM     20  H   UNL     1      21.485  28.013  -5.003  1.00  0.00     0.293 HD
ENDBRANCH  14  19
BRANCH  18  21
ATOM     21  O   UNL     1      25.541  27.377  -1.926  1.00  0.00    -0.508 OA
ATOM     22  H   UNL     1      25.352  27.477  -0.936  1.00  0.00     0.293 HD
ENDBRANCH  18  21
ENDBRANCH  11  13
ENDBRANCH   2  11
TORSDOF 6
ENDMDL
