MODEL 1
REMARK VINA RESULT:    -3.306      0.000      0.000
REMARK INTER + INTRA:          -5.569
REMARK INTER:                  -4.852
REMARK INTRA:                  -0.718
REMARK UNBOUND:                -0.718
REMARK SMILES C=C1C=C[C@H](C(C)C)CCC(C)=CCC1
REMARK SMILES IDX 3 1 4 2 5 3 9 4 10 5 11 6 12 7 13 8 6 10 7 11 8 12 2 13 1 14
REMARK SMILES IDX 15 15 14 16
REMARK H PARENT
REMARK Flexibility Score: 70.00
ROOT
ATOM      1  C   UNL     1     132.130 134.867 136.808  1.00  0.00    -0.001 C 
ATOM      2  C   UNL     1     132.163 135.295 135.537  1.00  0.00    -0.023 C 
ENDROOT
BRANCH   2   3
ATOM      3  C   UNL     1     133.330 136.003 134.878  1.00  0.00     0.014 C 
BRANCH   3   4
ATOM      4  C   UNL     1     133.918 135.117 133.753  1.00  0.00     0.012 C 
BRANCH   4   5
ATOM      5  C   UNL     1     135.349 134.630 134.044  1.00  0.00     0.031 C 
BRANCH   5   6
ATOM      6  C   UNL     1     135.379 133.210 134.584  1.00  0.00    -0.077 C 
ATOM      7  C   UNL     1     135.388 132.076 133.591  1.00  0.00     0.039 C 
ATOM      8  C   UNL     1     135.423 132.895 135.902  1.00  0.00    -0.028 CG0
ATOM      9  G   UNL     1     135.510 133.865 137.059  1.00  0.00     0.000 G0
ENDBRANCH   5   6
ENDBRANCH   4   5
ENDBRANCH   3   4
BRANCH   3  10
ATOM     10  C   UNL     1     132.891 137.419 134.395  1.00  0.00    -0.010 C 
ATOM     11  C   UNL     1     131.507 137.395 133.726  1.00  0.00     0.008 C 
ATOM     12  C   UNL     1     132.927 138.490 135.499  1.00  0.00     0.008 C 
ENDBRANCH   3  10
ENDBRANCH   2   3
BRANCH   1  13
ATOM     13  C   UNL     1     133.259 134.914 137.767  1.00  0.00    -0.055 C 
ATOM     14  C   UNL     1     133.382 136.007 138.527  1.00  0.00     0.012 C 
BRANCH  13  15
ATOM     15  C   UNL     1     134.253 133.778 137.956  1.00  0.00     0.039 C 
BRANCH  15  16
ATOM     16  C   UNL     1     135.522 133.857 137.074  1.00  0.00     0.032 CG0
ATOM     17  G   UNL     1     135.423 132.915 135.894  1.00  0.00     0.000 G0
ENDBRANCH  15  16
ENDBRANCH  13  15
ENDBRANCH   1  13
TORSDOF 1
ENDMDL
MODEL 2
REMARK VINA RESULT:    -3.289      5.140      6.921
REMARK INTER + INTRA:          -5.545
REMARK INTER:                  -4.875
REMARK INTRA:                  -0.670
REMARK UNBOUND:                -0.718
REMARK SMILES C=C1C=C[C@H](C(C)C)CCC(C)=CCC1
REMARK SMILES IDX 3 1 4 2 5 3 9 4 10 5 11 6 12 7 13 8 6 10 7 11 8 12 2 13 1 14
REMARK SMILES IDX 15 15 14 16
REMARK H PARENT
REMARK Flexibility Score: 70.00
ROOT
ATOM      1  C   UNL     1     139.816 137.445 138.045  1.00  0.00    -0.001 C 
ATOM      2  C   UNL     1     140.278 137.756 136.825  1.00  0.00    -0.023 C 
ENDROOT
BRANCH   2   3
ATOM      3  C   UNL     1     139.636 137.354 135.513  1.00  0.00     0.014 C 
BRANCH   3   4
ATOM      4  C   UNL     1     139.338 138.613 134.663  1.00  0.00     0.012 C 
BRANCH   4   5
ATOM      5  C   UNL     1     138.760 139.781 135.483  1.00  0.00     0.031 C 
BRANCH   5   6
ATOM      6  C   UNL     1     137.245 139.724 135.586  1.00  0.00    -0.077 C 
ATOM      7  C   UNL     1     136.440 140.060 134.357  1.00  0.00     0.039 C 
ATOM      8  C   UNL     1     136.569 139.368 136.705  1.00  0.00    -0.028 CG0
ATOM      9  G   UNL     1     137.170 138.910 138.016  1.00  0.00     0.000 G0
ENDBRANCH   5   6
ENDBRANCH   4   5
ENDBRANCH   3   4
BRANCH   3  10
ATOM     10  C   UNL     1     140.528 136.304 134.783  1.00  0.00    -0.010 C 
ATOM     11  C   UNL     1     140.164 134.865 135.181  1.00  0.00     0.008 C 
ATOM     12  C   UNL     1     140.524 136.446 133.250  1.00  0.00     0.008 C 
ENDBRANCH   3  10
ENDBRANCH   2   3
BRANCH   1  13
ATOM     13  C   UNL     1     138.545 136.741 138.336  1.00  0.00    -0.055 C 
ATOM     14  C   UNL     1     138.621 135.502 138.832  1.00  0.00     0.012 C 
BRANCH  13  15
ATOM     15  C   UNL     1     137.171 137.364 138.135  1.00  0.00     0.039 C 
BRANCH  15  16
ATOM     16  C   UNL     1     137.154 138.908 138.033  1.00  0.00     0.032 CG0
ATOM     17  G   UNL     1     136.570 139.360 136.713  1.00  0.00     0.000 G0
ENDBRANCH  15  16
ENDBRANCH  13  15
ENDBRANCH   1  13
TORSDOF 1
ENDMDL
MODEL 3
REMARK VINA RESULT:    -3.171      3.606      5.081
REMARK INTER + INTRA:          -5.372
REMARK INTER:                  -4.791
REMARK INTRA:                  -0.581
REMARK UNBOUND:                -0.718
REMARK SMILES C=C1C=C[C@H](C(C)C)CCC(C)=CCC1
REMARK SMILES IDX 3 1 4 2 5 3 9 4 10 5 11 6 12 7 13 8 6 10 7 11 8 12 2 13 1 14
REMARK SMILES IDX 15 15 14 16
REMARK H PARENT
REMARK Flexibility Score: 70.00
ROOT
ATOM      1  C   UNL     1     137.826 131.974 136.603  1.00  0.00    -0.001 C 
ATOM      2  C   UNL     1     137.341 132.038 135.354  1.00  0.00    -0.023 C 
ENDROOT
BRANCH   2   3
ATOM      3  C   UNL     1     136.719 133.262 134.714  1.00  0.00     0.014 C 
BRANCH   3   4
ATOM      4  C   UNL     1     137.708 133.889 133.701  1.00  0.00     0.012 C 
BRANCH   4   5
ATOM      5  C   UNL     1     137.808 135.421 133.813  1.00  0.00     0.031 C 
BRANCH   5   6
ATOM      6  C   UNL     1     139.154 135.878 134.349  1.00  0.00    -0.077 C 
ATOM      7  C   UNL     1     140.178 136.371 133.359  1.00  0.00     0.039 C 
ATOM      8  C   UNL     1     139.488 135.893 135.662  1.00  0.00    -0.028 CG0
ATOM      9  G   UNL     1     138.592 135.528 136.825  1.00  0.00     0.000 G0
ENDBRANCH   5   6
ENDBRANCH   4   5
ENDBRANCH   3   4
BRANCH   3  10
ATOM     10  C   UNL     1     135.337 132.896 134.092  1.00  0.00    -0.010 C 
ATOM     11  C   UNL     1     135.441 131.719 133.110  1.00  0.00     0.008 C 
ATOM     12  C   UNL     1     134.242 132.618 135.137  1.00  0.00     0.008 C 
ENDBRANCH   3  10
ENDBRANCH   2   3
BRANCH   1  13
ATOM     13  C   UNL     1     137.937 133.110 137.547  1.00  0.00    -0.055 C 
ATOM     14  C   UNL     1     137.046 133.180 138.541  1.00  0.00     0.012 C 
BRANCH  13  15
ATOM     15  C   UNL     1     139.025 134.171 137.467  1.00  0.00     0.039 C 
BRANCH  15  16
ATOM     16  C   UNL     1     138.590 135.518 136.843  1.00  0.00     0.032 CG0
ATOM     17  G   UNL     1     139.475 135.888 135.673  1.00  0.00     0.000 G0
ENDBRANCH  15  16
ENDBRANCH  13  15
ENDBRANCH   1  13
TORSDOF 1
ENDMDL
MODEL 4
REMARK VINA RESULT:    -3.169      1.932      4.742
REMARK INTER + INTRA:          -5.368
REMARK INTER:                  -4.669
REMARK INTRA:                  -0.700
REMARK UNBOUND:                -0.718
REMARK SMILES C=C1C=C[C@H](C(C)C)CCC(C)=CCC1
REMARK SMILES IDX 3 1 4 2 5 3 9 4 10 5 11 6 12 7 13 8 6 10 7 11 8 12 2 13 1 14
REMARK SMILES IDX 15 15 14 16
REMARK H PARENT
REMARK Flexibility Score: 70.00
ROOT
ATOM      1  C   UNL     1     132.583 133.568 135.408  1.00  0.00    -0.001 C 
ATOM      2  C   UNL     1     133.641 132.935 135.936  1.00  0.00    -0.023 C 
ENDROOT
BRANCH   2   3
ATOM      3  C   UNL     1     135.086 133.364 135.787  1.00  0.00     0.014 C 
BRANCH   3   4
ATOM      4  C   UNL     1     135.649 133.809 137.159  1.00  0.00     0.012 C 
BRANCH   4   5
ATOM      5  C   UNL     1     135.956 135.315 137.234  1.00  0.00     0.031 C 
BRANCH   5   6
ATOM      6  C   UNL     1     134.862 136.096 137.943  1.00  0.00    -0.077 C 
ATOM      7  C   UNL     1     134.898 136.155 139.448  1.00  0.00     0.039 C 
ATOM      8  C   UNL     1     133.867 136.763 137.308  1.00  0.00    -0.028 CG0
ATOM      9  G   UNL     1     133.691 136.911 135.813  1.00  0.00     0.000 G0
ENDBRANCH   5   6
ENDBRANCH   4   5
ENDBRANCH   3   4
BRANCH   3  10
ATOM     10  C   UNL     1     135.913 132.229 135.110  1.00  0.00    -0.010 C 
ATOM     11  C   UNL     1     135.636 132.136 133.601  1.00  0.00     0.008 C 
ATOM     12  C   UNL     1     137.428 132.330 135.365  1.00  0.00     0.008 C 
ENDBRANCH   3  10
ENDBRANCH   2   3
BRANCH   1  13
ATOM     13  C   UNL     1     132.621 134.854 134.673  1.00  0.00    -0.055 C 
ATOM     14  C   UNL     1     132.826 134.808 133.353  1.00  0.00     0.012 C 
BRANCH  13  15
ATOM     15  C   UNL     1     132.404 136.208 135.331  1.00  0.00     0.039 C 
BRANCH  15  16
ATOM     16  C   UNL     1     133.690 136.925 135.809  1.00  0.00     0.032 CG0
ATOM     17  G   UNL     1     133.883 136.761 137.300  1.00  0.00     0.000 G0
ENDBRANCH  15  16
ENDBRANCH  13  15
ENDBRANCH   1  13
TORSDOF 1
ENDMDL
MODEL 5
REMARK VINA RESULT:    -3.159      3.290      4.942
REMARK INTER + INTRA:          -5.354
REMARK INTER:                  -4.856
REMARK INTRA:                  -0.498
REMARK UNBOUND:                -0.718
REMARK SMILES C=C1C=C[C@H](C(C)C)CCC(C)=CCC1
REMARK SMILES IDX 3 1 4 2 5 3 9 4 10 5 11 6 12 7 13 8 6 10 7 11 8 12 2 13 1 14
REMARK SMILES IDX 15 15 14 16
REMARK H PARENT
REMARK Flexibility Score: 70.00
ROOT
ATOM      1  C   UNL     1     134.962 140.504 137.036  1.00  0.00    -0.001 C 
ATOM      2  C   UNL     1     135.246 140.653 135.734  1.00  0.00    -0.023 C 
ENDROOT
BRANCH   2   3
ATOM      3  C   UNL     1     135.749 139.560 134.813  1.00  0.00     0.014 C 
BRANCH   3   4
ATOM      4  C   UNL     1     134.684 139.250 133.731  1.00  0.00     0.012 C 
BRANCH   4   5
ATOM      5  C   UNL     1     134.358 137.751 133.607  1.00  0.00     0.031 C 
BRANCH   5   6
ATOM      6  C   UNL     1     133.062 137.379 134.307  1.00  0.00    -0.077 C 
ATOM      7  C   UNL     1     131.814 137.265 133.470  1.00  0.00     0.039 C 
ATOM      8  C   UNL     1     132.958 137.121 135.634  1.00  0.00    -0.028 CG0
ATOM      9  G   UNL     1     134.088 137.090 136.638  1.00  0.00     0.000 G0
ENDBRANCH   5   6
ENDBRANCH   4   5
ENDBRANCH   3   4
BRANCH   3  10
ATOM     10  C   UNL     1     137.139 139.952 134.228  1.00  0.00    -0.010 C 
ATOM     11  C   UNL     1     137.983 138.718 133.874  1.00  0.00     0.008 C 
ATOM     12  C   UNL     1     137.058 140.902 133.020  1.00  0.00     0.008 C 
ENDBRANCH   3  10
ENDBRANCH   2   3
BRANCH   1  13
ATOM     13  C   UNL     1     134.987 139.227 137.787  1.00  0.00    -0.055 C 
ATOM     14  C   UNL     1     136.032 138.999 138.588  1.00  0.00     0.012 C 
BRANCH  13  15
ATOM     15  C   UNL     1     133.877 138.188 137.722  1.00  0.00     0.039 C 
BRANCH  15  16
ATOM     16  C   UNL     1     134.070 137.082 136.657  1.00  0.00     0.032 CG0
ATOM     17  G   UNL     1     132.961 137.117 135.629  1.00  0.00     0.000 G0
ENDBRANCH  15  16
ENDBRANCH  13  15
ENDBRANCH   1  13
TORSDOF 1
ENDMDL
MODEL 6
REMARK VINA RESULT:    -3.126      4.696      6.196
REMARK INTER + INTRA:          -5.305
REMARK INTER:                  -4.593
REMARK INTRA:                  -0.712
REMARK UNBOUND:                -0.718
REMARK SMILES C=C1C=C[C@H](C(C)C)CCC(C)=CCC1
REMARK SMILES IDX 3 1 4 2 5 3 9 4 10 5 11 6 12 7 13 8 6 10 7 11 8 12 2 13 1 14
REMARK SMILES IDX 15 15 14 16
REMARK H PARENT
REMARK Flexibility Score: 70.00
ROOT
ATOM      1  C   UNL     1     140.316 138.645 135.487  1.00  0.00    -0.001 C 
ATOM      2  C   UNL     1     139.332 139.344 136.070  1.00  0.00    -0.023 C 
ENDROOT
BRANCH   2   3
ATOM      3  C   UNL     1     137.848 139.109 135.870  1.00  0.00     0.014 C 
BRANCH   3   4
ATOM      4  C   UNL     1     137.205 138.635 137.196  1.00  0.00     0.012 C 
BRANCH   4   5
ATOM      5  C   UNL     1     136.743 137.167 137.160  1.00  0.00     0.031 C 
BRANCH   5   6
ATOM      6  C   UNL     1     137.756 136.224 137.788  1.00  0.00    -0.077 C 
ATOM      7  C   UNL     1     137.731 136.056 139.285  1.00  0.00     0.039 C 
ATOM      8  C   UNL     1     138.667 135.505 137.087  1.00  0.00    -0.028 CG0
ATOM      9  G   UNL     1     138.810 135.453 135.582  1.00  0.00     0.000 G0
ENDBRANCH   5   6
ENDBRANCH   4   5
ENDBRANCH   3   4
BRANCH   3  10
ATOM     10  C   UNL     1     137.181 140.385 135.273  1.00  0.00    -0.010 C 
ATOM     11  C   UNL     1     137.490 140.549 133.776  1.00  0.00     0.008 C 
ATOM     12  C   UNL     1     135.663 140.460 135.511  1.00  0.00     0.008 C 
ENDBRANCH   3  10
ENDBRANCH   2   3
BRANCH   1  13
ATOM     13  C   UNL     1     140.138 137.453 134.625  1.00  0.00    -0.055 C 
ATOM     14  C   UNL     1     139.958 137.655 133.316  1.00  0.00     0.012 C 
BRANCH  13  15
ATOM     15  C   UNL     1     140.187 136.023 135.142  1.00  0.00     0.039 C 
BRANCH  15  16
ATOM     16  C   UNL     1     138.825 135.432 135.580  1.00  0.00     0.032 CG0
ATOM     17  G   UNL     1     138.664 135.492 137.083  1.00  0.00     0.000 G0
ENDBRANCH  15  16
ENDBRANCH  13  15
ENDBRANCH   1  13
TORSDOF 1
ENDMDL
MODEL 7
REMARK VINA RESULT:    -3.111      4.273      6.191
REMARK INTER + INTRA:          -5.283
REMARK INTER:                  -4.601
REMARK INTRA:                  -0.682
REMARK UNBOUND:                -0.718
REMARK SMILES C=C1C=C[C@H](C(C)C)CCC(C)=CCC1
REMARK SMILES IDX 3 1 4 2 5 3 9 4 10 5 11 6 12 7 13 8 6 10 7 11 8 12 2 13 1 14
REMARK SMILES IDX 15 15 14 16
REMARK H PARENT
REMARK Flexibility Score: 70.00
ROOT
ATOM      1  C   UNL     1     134.809 140.752 136.458  1.00  0.00    -0.001 C 
ATOM      2  C   UNL     1     135.351 140.152 137.528  1.00  0.00    -0.023 C 
ENDROOT
BRANCH   2   3
ATOM      3  C   UNL     1     135.666 138.674 137.642  1.00  0.00     0.014 C 
BRANCH   3   4
ATOM      4  C   UNL     1     137.197 138.468 137.756  1.00  0.00     0.012 C 
BRANCH   4   5
ATOM      5  C   UNL     1     137.823 137.833 136.501  1.00  0.00     0.031 C 
BRANCH   5   6
ATOM      6  C   UNL     1     138.438 138.868 135.573  1.00  0.00    -0.077 C 
ATOM      7  C   UNL     1     139.827 139.361 135.888  1.00  0.00     0.039 C 
ATOM      8  C   UNL     1     137.829 139.360 134.467  1.00  0.00    -0.028 CG0
ATOM      9  G   UNL     1     136.483 138.943 133.917  1.00  0.00     0.000 G0
ENDBRANCH   5   6
ENDBRANCH   4   5
ENDBRANCH   3   4
BRANCH   3  10
ATOM     10  C   UNL     1     134.861 138.045 138.819  1.00  0.00    -0.010 C 
ATOM     11  C   UNL     1     134.196 139.116 139.698  1.00  0.00     0.008 C 
ATOM     12  C   UNL     1     133.818 137.005 138.371  1.00  0.00     0.008 C 
ENDBRANCH   3  10
ENDBRANCH   2   3
BRANCH   1  13
ATOM     13  C   UNL     1     134.516 140.105 135.158  1.00  0.00    -0.055 C 
ATOM     14  C   UNL     1     133.331 139.503 135.019  1.00  0.00     0.012 C 
BRANCH  13  15
ATOM     15  C   UNL     1     135.470 140.122 133.973  1.00  0.00     0.039 C 
BRANCH  15  16
ATOM     16  C   UNL     1     136.475 138.947 133.917  1.00  0.00     0.032 CG0
ATOM     17  G   UNL     1     137.827 139.361 134.455  1.00  0.00     0.000 G0
ENDBRANCH  15  16
ENDBRANCH  13  15
ENDBRANCH   1  13
TORSDOF 1
ENDMDL
MODEL 8
REMARK VINA RESULT:    -3.027      2.493      5.394
REMARK INTER + INTRA:          -5.160
REMARK INTER:                  -4.445
REMARK INTRA:                  -0.715
REMARK UNBOUND:                -0.718
REMARK SMILES C=C1C=C[C@H](C(C)C)CCC(C)=CCC1
REMARK SMILES IDX 3 1 4 2 5 3 9 4 10 5 11 6 12 7 13 8 6 10 7 11 8 12 2 13 1 14
REMARK SMILES IDX 15 15 14 16
REMARK H PARENT
REMARK Flexibility Score: 70.00
ROOT
ATOM      1  C   UNL     1     137.964 132.137 136.601  1.00  0.00    -0.001 C 
ATOM      2  C   UNL     1     137.286 132.569 137.675  1.00  0.00    -0.023 C 
ENDROOT
BRANCH   2   3
ATOM      3  C   UNL     1     136.865 134.002 137.930  1.00  0.00     0.014 C 
BRANCH   3   4
ATOM      4  C   UNL     1     135.320 134.104 137.946  1.00  0.00     0.012 C 
BRANCH   4   5
ATOM      5  C   UNL     1     134.744 134.857 136.733  1.00  0.00     0.031 C 
BRANCH   5   6
ATOM      6  C   UNL     1     134.297 133.917 135.626  1.00  0.00    -0.077 C 
ATOM      7  C   UNL     1     132.921 133.310 135.727  1.00  0.00     0.039 C 
ATOM      8  C   UNL     1     135.045 133.606 134.539  1.00  0.00    -0.028 CG0
ATOM      9  G   UNL     1     136.407 134.165 134.192  1.00  0.00     0.000 G0
ENDBRANCH   5   6
ENDBRANCH   4   5
ENDBRANCH   3   4
BRANCH   3  10
ATOM     10  C   UNL     1     137.540 134.534 139.231  1.00  0.00    -0.010 C 
ATOM     11  C   UNL     1     137.412 133.537 140.393  1.00  0.00     0.008 C 
ATOM     12  C   UNL     1     139.012 134.942 139.042  1.00  0.00     0.008 C 
ENDBRANCH   3  10
ENDBRANCH   2   3
BRANCH   1  13
ATOM     13  C   UNL     1     138.335 132.956 135.424  1.00  0.00    -0.055 C 
ATOM     14  C   UNL     1     139.498 133.613 135.467  1.00  0.00     0.012 C 
BRANCH  13  15
ATOM     15  C   UNL     1     137.486 133.057 134.165  1.00  0.00     0.039 C 
BRANCH  15  16
ATOM     16  C   UNL     1     136.411 134.170 134.181  1.00  0.00     0.032 CG0
ATOM     17  G   UNL     1     135.052 133.611 134.539  1.00  0.00     0.000 G0
ENDBRANCH  15  16
ENDBRANCH  13  15
ENDBRANCH   1  13
TORSDOF 1
ENDMDL
MODEL 9
REMARK VINA RESULT:    -2.973      2.295      5.021
REMARK INTER + INTRA:          -5.081
REMARK INTER:                  -4.594
REMARK INTRA:                  -0.488
REMARK UNBOUND:                -0.718
REMARK SMILES C=C1C=C[C@H](C(C)C)CCC(C)=CCC1
REMARK SMILES IDX 3 1 4 2 5 3 9 4 10 5 11 6 12 7 13 8 6 10 7 11 8 12 2 13 1 14
REMARK SMILES IDX 15 15 14 16
REMARK H PARENT
REMARK Flexibility Score: 70.00
ROOT
ATOM      1  C   UNL     1     131.922 134.509 136.268  1.00  0.00    -0.001 C 
ATOM      2  C   UNL     1     132.382 134.911 137.462  1.00  0.00    -0.023 C 
ENDROOT
BRANCH   2   3
ATOM      3  C   UNL     1     133.751 135.505 137.722  1.00  0.00     0.014 C 
BRANCH   3   4
ATOM      4  C   UNL     1     133.719 137.034 137.479  1.00  0.00     0.012 C 
BRANCH   4   5
ATOM      5  C   UNL     1     134.611 137.484 136.308  1.00  0.00     0.031 C 
BRANCH   5   6
ATOM      6  C   UNL     1     133.883 138.407 135.345  1.00  0.00    -0.077 C 
ATOM      7  C   UNL     1     133.739 139.858 135.729  1.00  0.00     0.039 C 
ATOM      8  C   UNL     1     133.373 138.017 134.152  1.00  0.00    -0.028 CG0
ATOM      9  G   UNL     1     133.479 136.641 133.532  1.00  0.00     0.000 G0
ENDBRANCH   5   6
ENDBRANCH   4   5
ENDBRANCH   3   4
BRANCH   3  10
ATOM     10  C   UNL     1     134.242 135.109 139.148  1.00  0.00    -0.010 C 
ATOM     11  C   UNL     1     133.594 135.974 140.240  1.00  0.00     0.008 C 
ATOM     12  C   UNL     1     134.057 133.616 139.475  1.00  0.00     0.008 C 
ENDBRANCH   3  10
ENDBRANCH   2   3
BRANCH   1  13
ATOM     13  C   UNL     1     132.626 134.663 134.972  1.00  0.00    -0.055 C 
ATOM     14  C   UNL     1     133.585 133.781 134.678  1.00  0.00     0.012 C 
BRANCH  13  15
ATOM     15  C   UNL     1     132.289 135.743 133.954  1.00  0.00     0.039 C 
BRANCH  15  16
ATOM     16  C   UNL     1     133.476 136.638 133.524  1.00  0.00     0.032 CG0
ATOM     17  G   UNL     1     133.378 138.010 134.155  1.00  0.00     0.000 G0
ENDBRANCH  15  16
ENDBRANCH  13  15
ENDBRANCH   1  13
TORSDOF 1
ENDMDL
