MODEL 1
REMARK VINA RESULT:    -1.874      0.000      0.000
REMARK INTER + INTRA:          -2.594
REMARK INTER:                  -2.422
REMARK INTRA:                  -0.172
REMARK UNBOUND:                -0.172
REMARK SMILES CCCCCCC(=O)[O-]
REMARK SMILES IDX 5 1 6 2 7 3 8 4 9 5 4 6 3 7 2 8 1 9
REMARK H PARENT
REMARK Flexibility Score: inf
ROOT
ATOM      1  C   UNL     1     173.051 177.460 198.101  1.00  0.00     0.006 C 
ENDROOT
BRANCH   1   2
ATOM      2  C   UNL     1     172.982 177.807 199.595  1.00  0.00     0.053 C 
BRANCH   2   3
ATOM      3  C   UNL     1     171.567 177.946 200.069  1.00  0.00     0.041 C 
ATOM      4  O   UNL     1     170.875 176.921 200.304  1.00  0.00    -0.550 OA
ATOM      5  O   UNL     1     171.003 179.207 200.216  1.00  0.00    -0.550 OA
ENDBRANCH   2   3
ENDBRANCH   1   2
BRANCH   1   6
ATOM      6  C   UNL     1     173.102 178.718 197.216  1.00  0.00     0.000 C 
BRANCH   6   7
ATOM      7  C   UNL     1     173.263 178.383 195.725  1.00  0.00    -0.000 C 
BRANCH   7   8
ATOM      8  C   UNL     1     172.546 177.085 195.330  1.00  0.00    -0.003 C 
ATOM      9  C   UNL     1     172.212 177.073 193.840  1.00  0.00     0.004 C 
ENDBRANCH   7   8
ENDBRANCH   6   7
ENDBRANCH   1   6
TORSDOF 5
ENDMDL
MODEL 2
REMARK VINA RESULT:    -1.727      2.611      4.513
REMARK INTER + INTRA:          -2.403
REMARK INTER:                  -2.086
REMARK INTRA:                  -0.318
REMARK UNBOUND:                -0.172
REMARK SMILES CCCCCCC(=O)[O-]
REMARK SMILES IDX 5 1 6 2 7 3 8 4 9 5 4 6 3 7 2 8 1 9
REMARK H PARENT
REMARK Flexibility Score: inf
ROOT
ATOM      1  C   UNL     1     174.077 177.572 198.288  1.00  0.00     0.006 C 
ENDROOT
BRANCH   1   2
ATOM      2  C   UNL     1     173.055 176.958 197.321  1.00  0.00     0.053 C 
BRANCH   2   3
ATOM      3  C   UNL     1     172.881 177.796 196.091  1.00  0.00     0.041 C 
ATOM      4  O   UNL     1     173.132 179.029 196.125  1.00  0.00    -0.550 OA
ATOM      5  O   UNL     1     172.408 177.221 194.918  1.00  0.00    -0.550 OA
ENDBRANCH   2   3
ENDBRANCH   1   2
BRANCH   1   6
ATOM      6  C   UNL     1     173.527 177.680 199.721  1.00  0.00     0.000 C 
BRANCH   6   7
ATOM      7  C   UNL     1     172.003 177.496 199.783  1.00  0.00    -0.000 C 
BRANCH   7   8
ATOM      8  C   UNL     1     171.281 178.730 200.342  1.00  0.00    -0.003 C 
ATOM      9  C   UNL     1     171.696 179.996 199.596  1.00  0.00     0.004 C 
ENDBRANCH   7   8
ENDBRANCH   6   7
ENDBRANCH   1   6
TORSDOF 5
ENDMDL
MODEL 3
REMARK VINA RESULT:    -1.689      2.866      4.697
REMARK INTER + INTRA:          -2.355
REMARK INTER:                  -2.112
REMARK INTRA:                  -0.243
REMARK UNBOUND:                -0.172
REMARK SMILES CCCCCCC(=O)[O-]
REMARK SMILES IDX 5 1 6 2 7 3 8 4 9 5 4 6 3 7 2 8 1 9
REMARK H PARENT
REMARK Flexibility Score: inf
ROOT
ATOM      1  C   UNL     1     173.153 179.197 197.672  1.00  0.00     0.006 C 
ENDROOT
BRANCH   1   2
ATOM      2  C   UNL     1     173.081 177.756 197.146  1.00  0.00     0.053 C 
BRANCH   2   3
ATOM      3  C   UNL     1     172.986 177.715 195.651  1.00  0.00     0.041 C 
ATOM      4  O   UNL     1     172.237 176.875 195.087  1.00  0.00    -0.550 OA
ATOM      5  O   UNL     1     173.752 178.581 194.881  1.00  0.00    -0.550 OA
ENDBRANCH   2   3
ENDBRANCH   1   2
BRANCH   1   6
ATOM      6  C   UNL     1     172.401 179.366 199.003  1.00  0.00     0.000 C 
BRANCH   6   7
ATOM      7  C   UNL     1     173.106 178.663 200.173  1.00  0.00    -0.000 C 
BRANCH   7   8
ATOM      8  C   UNL     1     172.122 177.968 201.125  1.00  0.00    -0.003 C 
ATOM      9  C   UNL     1     171.057 177.198 200.348  1.00  0.00     0.004 C 
ENDBRANCH   7   8
ENDBRANCH   6   7
ENDBRANCH   1   6
TORSDOF 5
ENDMDL
MODEL 4
REMARK VINA RESULT:    -1.669      1.624      2.661
REMARK INTER + INTRA:          -2.329
REMARK INTER:                  -2.139
REMARK INTRA:                  -0.190
REMARK UNBOUND:                -0.172
REMARK SMILES CCCCCCC(=O)[O-]
REMARK SMILES IDX 5 1 6 2 7 3 8 4 9 5 4 6 3 7 2 8 1 9
REMARK H PARENT
REMARK Flexibility Score: inf
ROOT
ATOM      1  C   UNL     1     173.627 178.437 195.923  1.00  0.00     0.006 C 
ENDROOT
BRANCH   1   2
ATOM      2  C   UNL     1     173.052 177.407 196.906  1.00  0.00     0.053 C 
BRANCH   2   3
ATOM      3  C   UNL     1     173.015 177.937 198.306  1.00  0.00     0.041 C 
ATOM      4  O   UNL     1     172.537 179.078 198.539  1.00  0.00    -0.550 OA
ATOM      5  O   UNL     1     173.540 177.184 199.350  1.00  0.00    -0.550 OA
ENDBRANCH   2   3
ENDBRANCH   1   2
BRANCH   1   6
ATOM      6  C   UNL     1     173.000 178.316 194.523  1.00  0.00     0.000 C 
BRANCH   6   7
ATOM      7  C   UNL     1     172.224 177.003 194.336  1.00  0.00    -0.000 C 
BRANCH   7   8
ATOM      8  C   UNL     1     171.607 176.875 192.936  1.00  0.00    -0.003 C 
ATOM      9  C   UNL     1     171.779 178.167 192.139  1.00  0.00     0.004 C 
ENDBRANCH   7   8
ENDBRANCH   6   7
ENDBRANCH   1   6
TORSDOF 5
ENDMDL
MODEL 5
REMARK VINA RESULT:    -1.639      2.456      3.771
REMARK INTER + INTRA:          -2.290
REMARK INTER:                  -2.071
REMARK INTRA:                  -0.219
REMARK UNBOUND:                -0.172
REMARK SMILES CCCCCCC(=O)[O-]
REMARK SMILES IDX 5 1 6 2 7 3 8 4 9 5 4 6 3 7 2 8 1 9
REMARK H PARENT
REMARK Flexibility Score: inf
ROOT
ATOM      1  C   UNL     1     173.279 177.977 194.531  1.00  0.00     0.006 C 
ENDROOT
BRANCH   1   2
ATOM      2  C   UNL     1     173.155 178.766 195.842  1.00  0.00     0.053 C 
BRANCH   2   3
ATOM      3  C   UNL     1     173.710 178.001 197.005  1.00  0.00     0.041 C 
ATOM      4  O   UNL     1     174.949 177.993 197.224  1.00  0.00    -0.550 OA
ATOM      5  O   UNL     1     172.860 177.269 197.825  1.00  0.00    -0.550 OA
ENDBRANCH   2   3
ENDBRANCH   1   2
BRANCH   1   6
ATOM      6  C   UNL     1     172.211 176.875 194.414  1.00  0.00     0.000 C 
BRANCH   6   7
ATOM      7  C   UNL     1     171.504 176.881 193.050  1.00  0.00    -0.000 C 
BRANCH   7   8
ATOM      8  C   UNL     1     171.769 178.165 192.252  1.00  0.00    -0.003 C 
ATOM      9  C   UNL     1     172.052 177.852 190.784  1.00  0.00     0.004 C 
ENDBRANCH   7   8
ENDBRANCH   6   7
ENDBRANCH   1   6
TORSDOF 5
ENDMDL
MODEL 6
REMARK VINA RESULT:    -1.607      2.302      3.426
REMARK INTER + INTRA:          -2.248
REMARK INTER:                  -2.026
REMARK INTRA:                  -0.222
REMARK UNBOUND:                -0.172
REMARK SMILES CCCCCCC(=O)[O-]
REMARK SMILES IDX 5 1 6 2 7 3 8 4 9 5 4 6 3 7 2 8 1 9
REMARK H PARENT
REMARK Flexibility Score: inf
ROOT
ATOM      1  C   UNL     1     173.128 178.332 195.022  1.00  0.00     0.006 C 
ENDROOT
BRANCH   1   2
ATOM      2  C   UNL     1     173.150 178.759 196.496  1.00  0.00     0.053 C 
BRANCH   2   3
ATOM      3  C   UNL     1     173.657 177.665 197.384  1.00  0.00     0.041 C 
ATOM      4  O   UNL     1     172.946 177.237 198.331  1.00  0.00    -0.550 OA
ATOM      5  O   UNL     1     174.929 177.141 197.188  1.00  0.00    -0.550 OA
ENDBRANCH   2   3
ENDBRANCH   1   2
BRANCH   1   6
ATOM      6  C   UNL     1     172.354 177.020 194.810  1.00  0.00     0.000 C 
BRANCH   6   7
ATOM      7  C   UNL     1     171.817 176.875 193.377  1.00  0.00    -0.000 C 
BRANCH   7   8
ATOM      8  C   UNL     1     172.628 177.689 192.358  1.00  0.00    -0.003 C 
ATOM      9  C   UNL     1     171.735 178.673 191.606  1.00  0.00     0.004 C 
ENDBRANCH   7   8
ENDBRANCH   6   7
ENDBRANCH   1   6
TORSDOF 5
ENDMDL
MODEL 7
REMARK VINA RESULT:    -1.513      3.825      4.498
REMARK INTER + INTRA:          -2.127
REMARK INTER:                  -1.799
REMARK INTRA:                  -0.328
REMARK UNBOUND:                -0.172
REMARK SMILES CCCCCCC(=O)[O-]
REMARK SMILES IDX 5 1 6 2 7 3 8 4 9 5 4 6 3 7 2 8 1 9
REMARK H PARENT
REMARK Flexibility Score: inf
ROOT
ATOM      1  C   UNL     1     173.531 178.332 194.704  1.00  0.00     0.006 C 
ENDROOT
BRANCH   1   2
ATOM      2  C   UNL     1     173.309 179.365 195.817  1.00  0.00     0.053 C 
BRANCH   2   3
ATOM      3  C   UNL     1     172.894 180.695 195.267  1.00  0.00     0.041 C 
ATOM      4  O   UNL     1     172.292 180.763 194.163  1.00  0.00    -0.550 OA
ATOM      5  O   UNL     1     173.203 181.861 195.956  1.00  0.00    -0.550 OA
ENDBRANCH   2   3
ENDBRANCH   1   2
BRANCH   1   6
ATOM      6  C   UNL     1     172.520 177.174 194.776  1.00  0.00     0.000 C 
BRANCH   6   7
ATOM      7  C   UNL     1     171.723 177.004 193.473  1.00  0.00    -0.000 C 
BRANCH   7   8
ATOM      8  C   UNL     1     172.419 177.650 192.267  1.00  0.00    -0.003 C 
ATOM      9  C   UNL     1     171.490 178.633 191.558  1.00  0.00     0.004 C 
ENDBRANCH   7   8
ENDBRANCH   6   7
ENDBRANCH   1   6
TORSDOF 5
ENDMDL
MODEL 8
REMARK VINA RESULT:    -1.492      1.760      2.205
REMARK INTER + INTRA:          -2.101
REMARK INTER:                  -1.802
REMARK INTRA:                  -0.299
REMARK UNBOUND:                -0.172
REMARK SMILES CCCCCCC(=O)[O-]
REMARK SMILES IDX 5 1 6 2 7 3 8 4 9 5 4 6 3 7 2 8 1 9
REMARK H PARENT
REMARK Flexibility Score: inf
ROOT
ATOM      1  C   UNL     1     173.547 177.220 198.536  1.00  0.00     0.006 C 
ENDROOT
BRANCH   1   2
ATOM      2  C   UNL     1     172.373 177.613 199.442  1.00  0.00     0.053 C 
BRANCH   2   3
ATOM      3  C   UNL     1     172.436 179.057 199.839  1.00  0.00     0.041 C 
ATOM      4  O   UNL     1     171.729 179.909 199.240  1.00  0.00    -0.550 OA
ATOM      5  O   UNL     1     173.301 179.465 200.846  1.00  0.00    -0.550 OA
ENDBRANCH   2   3
ENDBRANCH   1   2
BRANCH   1   6
ATOM      6  C   UNL     1     173.110 177.015 197.075  1.00  0.00     0.000 C 
BRANCH   6   7
ATOM      7  C   UNL     1     173.934 177.856 196.088  1.00  0.00    -0.000 C 
BRANCH   7   8
ATOM      8  C   UNL     1     173.102 178.952 195.408  1.00  0.00    -0.003 C 
ATOM      9  C   UNL     1     173.259 180.289 196.129  1.00  0.00     0.004 C 
ENDBRANCH   7   8
ENDBRANCH   6   7
ENDBRANCH   1   6
TORSDOF 5
ENDMDL
MODEL 9
REMARK VINA RESULT:    -1.451      1.768      2.283
REMARK INTER + INTRA:          -2.047
REMARK INTER:                  -1.836
REMARK INTRA:                  -0.211
REMARK UNBOUND:                -0.172
REMARK SMILES CCCCCCC(=O)[O-]
REMARK SMILES IDX 5 1 6 2 7 3 8 4 9 5 4 6 3 7 2 8 1 9
REMARK H PARENT
REMARK Flexibility Score: inf
ROOT
ATOM      1  C   UNL     1     172.986 176.875 196.724  1.00  0.00     0.006 C 
ENDROOT
BRANCH   1   2
ATOM      2  C   UNL     1     173.249 178.020 197.712  1.00  0.00     0.053 C 
BRANCH   2   3
ATOM      3  C   UNL     1     173.113 177.569 199.134  1.00  0.00     0.041 C 
ATOM      4  O   UNL     1     171.975 177.487 199.666  1.00  0.00    -0.550 OA
ATOM      5  O   UNL     1     174.246 177.273 199.882  1.00  0.00    -0.550 OA
ENDBRANCH   2   3
ENDBRANCH   1   2
BRANCH   1   6
ATOM      6  C   UNL     1     172.769 177.385 195.289  1.00  0.00     0.000 C 
BRANCH   6   7
ATOM      7  C   UNL     1     173.325 178.802 195.076  1.00  0.00    -0.000 C 
BRANCH   7   8
ATOM      8  C   UNL     1     174.632 178.809 194.271  1.00  0.00    -0.003 C 
ATOM      9  C   UNL     1     174.575 177.806 193.121  1.00  0.00     0.004 C 
ENDBRANCH   7   8
ENDBRANCH   6   7
ENDBRANCH   1   6
TORSDOF 5
ENDMDL
