MODEL 1
REMARK VINA RESULT:    -6.551      0.000      0.000
REMARK INTER + INTRA:          -7.395
REMARK INTER:                  -6.934
REMARK INTRA:                  -0.461
REMARK UNBOUND:                -0.461
REMARK SMILES CC1=C[C@H]2C(=C(C)CC[C@H]2C(C)C)CC1
REMARK SMILES IDX 1 1 2 2 3 3 4 4 10 5 9 6 8 7 6 8 5 9 14 10 15 11 7 12 11 13
REMARK SMILES IDX 12 14 13 15
REMARK H PARENT
REMARK Flexibility Score: inf
ROOT
ATOM      1  C   UNL     1       7.498  34.198  19.046  1.00  0.00     0.039 C 
ATOM      2  C   UNL     1       7.894  33.676  20.399  1.00  0.00    -0.076 C 
ATOM      3  C   UNL     1       8.609  34.457  21.230  1.00  0.00    -0.020 C 
ATOM      4  C   UNL     1       8.991  34.028  22.629  1.00  0.00     0.041 C 
ATOM      5  C   UNL     1      10.528  33.867  22.926  1.00  0.00     0.003 C 
ATOM      6  C   UNL     1      10.735  33.275  24.370  1.00  0.00     0.009 C 
ATOM      7  C   UNL     1       9.459  33.214  25.225  1.00  0.00     0.031 C 
ATOM      8  C   UNL     1       8.379  32.492  24.448  1.00  0.00    -0.073 C 
ATOM      9  C   UNL     1       8.191  32.842  23.150  1.00  0.00    -0.064 C 
ATOM     10  C   UNL     1       7.153  32.178  22.268  1.00  0.00     0.036 C 
ATOM     11  C   UNL     1       7.560  32.259  20.796  1.00  0.00     0.035 C 
ATOM     12  C   UNL     1       7.591  31.389  25.112  1.00  0.00     0.039 C 
ENDROOT
BRANCH   5  13
ATOM     13  C   UNL     1      11.377  33.052  21.875  1.00  0.00    -0.013 C 
ATOM     14  C   UNL     1      11.161  31.529  22.043  1.00  0.00     0.007 C 
ATOM     15  C   UNL     1      12.897  33.308  21.967  1.00  0.00     0.007 C 
ENDBRANCH   5  13
TORSDOF 1
ENDMDL
MODEL 2
REMARK VINA RESULT:    -6.219      1.798      3.775
REMARK INTER + INTRA:          -7.044
REMARK INTER:                  -6.561
REMARK INTRA:                  -0.483
REMARK UNBOUND:                -0.461
REMARK SMILES CC1=C[C@H]2C(=C(C)CC[C@H]2C(C)C)CC1
REMARK SMILES IDX 1 1 2 2 3 3 4 4 10 5 9 6 8 7 6 8 5 9 14 10 15 11 7 12 11 13
REMARK SMILES IDX 12 14 13 15
REMARK H PARENT
REMARK Flexibility Score: inf
ROOT
ATOM      1  C   UNL     1       9.521  35.018  24.820  1.00  0.00     0.039 C 
ATOM      2  C   UNL     1       9.753  34.060  23.685  1.00  0.00    -0.076 C 
ATOM      3  C   UNL     1      10.598  33.025  23.850  1.00  0.00    -0.020 C 
ATOM      4  C   UNL     1      10.835  31.985  22.779  1.00  0.00     0.041 C 
ATOM      5  C   UNL     1      12.290  31.898  22.184  1.00  0.00     0.003 C 
ATOM      6  C   UNL     1      12.319  30.875  20.987  1.00  0.00     0.009 C 
ATOM      7  C   UNL     1      11.037  30.043  20.826  1.00  0.00     0.031 C 
ATOM      8  C   UNL     1       9.847  30.977  20.766  1.00  0.00    -0.073 C 
ATOM      9  C   UNL     1       9.779  31.976  21.682  1.00  0.00    -0.064 C 
ATOM     10  C   UNL     1       8.646  32.983  21.710  1.00  0.00     0.036 C 
ATOM     11  C   UNL     1       9.103  34.297  22.344  1.00  0.00     0.035 C 
ATOM     12  C   UNL     1       8.816  30.806  19.677  1.00  0.00     0.039 C 
ENDROOT
BRANCH   5  13
ATOM     13  C   UNL     1      12.968  33.257  21.756  1.00  0.00    -0.013 C 
ATOM     14  C   UNL     1      12.533  33.675  20.332  1.00  0.00     0.007 C 
ATOM     15  C   UNL     1      14.511  33.214  21.767  1.00  0.00     0.007 C 
ENDBRANCH   5  13
TORSDOF 1
ENDMDL
MODEL 3
REMARK VINA RESULT:    -6.145      1.408      4.822
REMARK INTER + INTRA:          -6.966
REMARK INTER:                  -6.472
REMARK INTRA:                  -0.494
REMARK UNBOUND:                -0.461
REMARK SMILES CC1=C[C@H]2C(=C(C)CC[C@H]2C(C)C)CC1
REMARK SMILES IDX 1 1 2 2 3 3 4 4 10 5 9 6 8 7 6 8 5 9 14 10 15 11 7 12 11 13
REMARK SMILES IDX 12 14 13 15
REMARK H PARENT
REMARK Flexibility Score: inf
ROOT
ATOM      1  C   UNL     1      10.416  32.737  26.126  1.00  0.00     0.039 C 
ATOM      2  C   UNL     1       9.838  32.837  24.741  1.00  0.00    -0.076 C 
ATOM      3  C   UNL     1       8.502  32.814  24.575  1.00  0.00    -0.020 C 
ATOM      4  C   UNL     1       7.844  32.973  23.223  1.00  0.00     0.041 C 
ATOM      5  C   UNL     1       7.018  31.745  22.687  1.00  0.00     0.003 C 
ATOM      6  C   UNL     1       6.534  32.026  21.216  1.00  0.00     0.009 C 
ATOM      7  C   UNL     1       6.756  33.468  20.734  1.00  0.00     0.031 C 
ATOM      8  C   UNL     1       8.206  33.844  20.952  1.00  0.00    -0.073 C 
ATOM      9  C   UNL     1       8.766  33.540  22.151  1.00  0.00    -0.064 C 
ATOM     10  C   UNL     1      10.213  33.850  22.479  1.00  0.00     0.036 C 
ATOM     11  C   UNL     1      10.747  32.886  23.538  1.00  0.00     0.035 C 
ATOM     12  C   UNL     1       8.989  34.486  19.833  1.00  0.00     0.039 C 
ENDROOT
BRANCH   5  13
ATOM     13  C   UNL     1       7.708  30.329  22.774  1.00  0.00    -0.013 C 
ATOM     14  C   UNL     1       8.343  29.933  21.420  1.00  0.00     0.007 C 
ATOM     15  C   UNL     1       6.746  29.190  23.175  1.00  0.00     0.007 C 
ENDBRANCH   5  13
TORSDOF 1
ENDMDL
MODEL 4
REMARK VINA RESULT:    -6.085      1.305      3.678
REMARK INTER + INTRA:          -6.902
REMARK INTER:                  -6.506
REMARK INTRA:                  -0.396
REMARK UNBOUND:                -0.461
REMARK SMILES CC1=C[C@H]2C(=C(C)CC[C@H]2C(C)C)CC1
REMARK SMILES IDX 1 1 2 2 3 3 4 4 10 5 9 6 8 7 6 8 5 9 14 10 15 11 7 12 11 13
REMARK SMILES IDX 12 14 13 15
REMARK H PARENT
REMARK Flexibility Score: inf
ROOT
ATOM      1  C   UNL     1       6.031  33.128  19.949  1.00  0.00     0.039 C 
ATOM      2  C   UNL     1       7.437  33.198  20.478  1.00  0.00    -0.076 C 
ATOM      3  C   UNL     1       7.868  32.266  21.348  1.00  0.00    -0.020 C 
ATOM      4  C   UNL     1       9.285  32.233  21.875  1.00  0.00     0.041 C 
ATOM      5  C   UNL     1       9.472  32.454  23.422  1.00  0.00     0.003 C 
ATOM      6  C   UNL     1      11.005  32.538  23.770  1.00  0.00     0.009 C 
ATOM      7  C   UNL     1      11.945  32.161  22.614  1.00  0.00     0.031 C 
ATOM      8  C   UNL     1      11.578  32.978  21.394  1.00  0.00    -0.073 C 
ATOM      9  C   UNL     1      10.265  33.073  21.066  1.00  0.00    -0.064 C 
ATOM     10  C   UNL     1       9.775  33.877  19.878  1.00  0.00     0.036 C 
ATOM     11  C   UNL     1       8.337  34.348  20.097  1.00  0.00     0.035 C 
ATOM     12  C   UNL     1      12.659  33.694  20.620  1.00  0.00     0.039 C 
ENDROOT
BRANCH   5  13
ATOM     13  C   UNL     1       8.698  33.668  24.068  1.00  0.00    -0.013 C 
ATOM     14  C   UNL     1       9.642  34.533  24.937  1.00  0.00     0.007 C 
ATOM     15  C   UNL     1       7.513  33.247  24.964  1.00  0.00     0.007 C 
ENDBRANCH   5  13
TORSDOF 1
ENDMDL
MODEL 5
REMARK VINA RESULT:    -6.083      2.500      5.081
REMARK INTER + INTRA:          -6.900
REMARK INTER:                  -6.409
REMARK INTRA:                  -0.491
REMARK UNBOUND:                -0.461
REMARK SMILES CC1=C[C@H]2C(=C(C)CC[C@H]2C(C)C)CC1
REMARK SMILES IDX 1 1 2 2 3 3 4 4 10 5 9 6 8 7 6 8 5 9 14 10 15 11 7 12 11 13
REMARK SMILES IDX 12 14 13 15
REMARK H PARENT
REMARK Flexibility Score: inf
ROOT
ATOM      1  C   UNL     1      15.991  34.053  18.659  1.00  0.00     0.039 C 
ATOM      2  C   UNL     1      14.696  33.737  19.355  1.00  0.00    -0.076 C 
ATOM      3  C   UNL     1      14.683  33.570  20.691  1.00  0.00    -0.020 C 
ATOM      4  C   UNL     1      13.412  33.314  21.469  1.00  0.00     0.041 C 
ATOM      5  C   UNL     1      13.301  31.928  22.209  1.00  0.00     0.003 C 
ATOM      6  C   UNL     1      11.866  31.770  22.837  1.00  0.00     0.009 C 
ATOM      7  C   UNL     1      11.009  33.045  22.802  1.00  0.00     0.031 C 
ATOM      8  C   UNL     1      10.969  33.574  21.384  1.00  0.00    -0.073 C 
ATOM      9  C   UNL     1      12.139  33.643  20.701  1.00  0.00    -0.064 C 
ATOM     10  C   UNL     1      12.223  34.138  19.271  1.00  0.00     0.036 C 
ATOM     11  C   UNL     1      13.432  33.534  18.557  1.00  0.00     0.035 C 
ATOM     12  C   UNL     1       9.646  33.954  20.764  1.00  0.00     0.039 C 
ENDROOT
BRANCH   5  13
ATOM     13  C   UNL     1      13.675  30.642  21.374  1.00  0.00    -0.013 C 
ATOM     14  C   UNL     1      12.408  29.934  20.840  1.00  0.00     0.007 C 
ATOM     15  C   UNL     1      14.480  29.593  22.172  1.00  0.00     0.007 C 
ENDBRANCH   5  13
TORSDOF 1
ENDMDL
MODEL 6
REMARK VINA RESULT:    -6.069      1.770      3.099
REMARK INTER + INTRA:          -6.885
REMARK INTER:                  -6.620
REMARK INTRA:                  -0.265
REMARK UNBOUND:                -0.461
REMARK SMILES CC1=C[C@H]2C(=C(C)CC[C@H]2C(C)C)CC1
REMARK SMILES IDX 1 1 2 2 3 3 4 4 10 5 9 6 8 7 6 8 5 9 14 10 15 11 7 12 11 13
REMARK SMILES IDX 12 14 13 15
REMARK H PARENT
REMARK Flexibility Score: inf
ROOT
ATOM      1  C   UNL     1       8.801  34.413  20.111  1.00  0.00     0.039 C 
ATOM      2  C   UNL     1       8.550  33.270  21.056  1.00  0.00    -0.076 C 
ATOM      3  C   UNL     1       7.734  33.448  22.111  1.00  0.00    -0.020 C 
ATOM      4  C   UNL     1       7.382  32.331  23.068  1.00  0.00     0.041 C 
ATOM      5  C   UNL     1       7.853  32.502  24.561  1.00  0.00     0.003 C 
ATOM      6  C   UNL     1       7.539  31.192  25.376  1.00  0.00     0.009 C 
ATOM      7  C   UNL     1       6.661  30.172  24.632  1.00  0.00     0.031 C 
ATOM      8  C   UNL     1       7.279  29.884  23.280  1.00  0.00    -0.073 C 
ATOM      9  C   UNL     1       7.697  30.939  22.537  1.00  0.00    -0.064 C 
ATOM     10  C   UNL     1       8.346  30.775  21.177  1.00  0.00     0.036 C 
ATOM     11  C   UNL     1       9.266  31.956  20.868  1.00  0.00     0.035 C 
ATOM     12  C   UNL     1       7.454  28.455  22.827  1.00  0.00     0.039 C 
ENDROOT
BRANCH   5  13
ATOM     13  C   UNL     1       9.352  32.940  24.790  1.00  0.00    -0.013 C 
ATOM     14  C   UNL     1       9.909  32.358  26.111  1.00  0.00     0.007 C 
ATOM     15  C   UNL     1       9.553  34.470  24.846  1.00  0.00     0.007 C 
ENDBRANCH   5  13
TORSDOF 1
ENDMDL
MODEL 7
REMARK VINA RESULT:    -6.005      3.339      6.811
REMARK INTER + INTRA:          -6.817
REMARK INTER:                  -6.344
REMARK INTRA:                  -0.473
REMARK UNBOUND:                -0.461
REMARK SMILES CC1=C[C@H]2C(=C(C)CC[C@H]2C(C)C)CC1
REMARK SMILES IDX 1 1 2 2 3 3 4 4 10 5 9 6 8 7 6 8 5 9 14 10 15 11 7 12 11 13
REMARK SMILES IDX 12 14 13 15
REMARK H PARENT
REMARK Flexibility Score: inf
ROOT
ATOM      1  C   UNL     1      14.066  27.088  20.124  1.00  0.00     0.039 C 
ATOM      2  C   UNL     1      14.167  28.587  20.197  1.00  0.00    -0.076 C 
ATOM      3  C   UNL     1      14.001  29.208  21.379  1.00  0.00    -0.020 C 
ATOM      4  C   UNL     1      14.150  30.703  21.544  1.00  0.00     0.041 C 
ATOM      5  C   UNL     1      12.864  31.501  21.976  1.00  0.00     0.003 C 
ATOM      6  C   UNL     1      13.159  33.048  21.954  1.00  0.00     0.009 C 
ATOM      7  C   UNL     1      14.640  33.413  21.759  1.00  0.00     0.031 C 
ATOM      8  C   UNL     1      15.166  32.700  20.531  1.00  0.00    -0.073 C 
ATOM      9  C   UNL     1      14.870  31.384  20.387  1.00  0.00    -0.064 C 
ATOM     10  C   UNL     1      15.325  30.570  19.192  1.00  0.00     0.036 C 
ATOM     11  C   UNL     1      14.378  29.397  18.941  1.00  0.00     0.035 C 
ATOM     12  C   UNL     1      15.948  33.472  19.496  1.00  0.00     0.039 C 
ENDROOT
BRANCH   5  13
ATOM     13  C   UNL     1      11.533  31.189  21.189  1.00  0.00    -0.013 C 
ATOM     14  C   UNL     1      11.498  31.933  19.833  1.00  0.00     0.007 C 
ATOM     15  C   UNL     1      10.249  31.578  21.955  1.00  0.00     0.007 C 
ENDBRANCH   5  13
TORSDOF 1
ENDMDL
MODEL 8
REMARK VINA RESULT:    -5.993      1.310      4.119
REMARK INTER + INTRA:          -6.804
REMARK INTER:                  -6.307
REMARK INTRA:                  -0.497
REMARK UNBOUND:                -0.461
REMARK SMILES CC1=C[C@H]2C(=C(C)CC[C@H]2C(C)C)CC1
REMARK SMILES IDX 1 1 2 2 3 3 4 4 10 5 9 6 8 7 6 8 5 9 14 10 15 11 7 12 11 13
REMARK SMILES IDX 12 14 13 15
REMARK H PARENT
REMARK Flexibility Score: inf
ROOT
ATOM      1  C   UNL     1      13.072  30.699  20.830  1.00  0.00     0.039 C 
ATOM      2  C   UNL     1      11.978  31.539  21.430  1.00  0.00    -0.076 C 
ATOM      3  C   UNL     1      10.719  31.064  21.464  1.00  0.00    -0.020 C 
ATOM      4  C   UNL     1       9.578  31.821  22.107  1.00  0.00     0.041 C 
ATOM      5  C   UNL     1       8.409  32.282  21.158  1.00  0.00     0.003 C 
ATOM      6  C   UNL     1       7.391  33.177  21.958  1.00  0.00     0.009 C 
ATOM      7  C   UNL     1       7.620  33.204  23.478  1.00  0.00     0.031 C 
ATOM      8  C   UNL     1       9.062  33.573  23.752  1.00  0.00    -0.073 C 
ATOM      9  C   UNL     1      10.026  32.945  23.032  1.00  0.00    -0.064 C 
ATOM     10  C   UNL     1      11.501  33.244  23.205  1.00  0.00     0.036 C 
ATOM     11  C   UNL     1      12.272  32.935  21.922  1.00  0.00     0.035 C 
ATOM     12  C   UNL     1       9.380  34.647  24.765  1.00  0.00     0.039 C 
ENDROOT
BRANCH   5  13
ATOM     13  C   UNL     1       8.822  32.995  19.812  1.00  0.00    -0.013 C 
ATOM     14  C   UNL     1       8.781  34.534  19.960  1.00  0.00     0.007 C 
ATOM     15  C   UNL     1       7.923  32.629  18.611  1.00  0.00     0.007 C 
ENDBRANCH   5  13
TORSDOF 1
ENDMDL
MODEL 9
REMARK VINA RESULT:    -5.854      1.381      2.133
REMARK INTER + INTRA:          -6.658
REMARK INTER:                  -6.255
REMARK INTRA:                  -0.402
REMARK UNBOUND:                -0.461
REMARK SMILES CC1=C[C@H]2C(=C(C)CC[C@H]2C(C)C)CC1
REMARK SMILES IDX 1 1 2 2 3 3 4 4 10 5 9 6 8 7 6 8 5 9 14 10 15 11 7 12 11 13
REMARK SMILES IDX 12 14 13 15
REMARK H PARENT
REMARK Flexibility Score: inf
ROOT
ATOM      1  C   UNL     1       5.875  30.966  19.735  1.00  0.00     0.039 C 
ATOM      2  C   UNL     1       6.684  31.451  20.906  1.00  0.00    -0.076 C 
ATOM      3  C   UNL     1       6.853  32.772  21.096  1.00  0.00    -0.020 C 
ATOM      4  C   UNL     1       7.599  33.338  22.284  1.00  0.00     0.041 C 
ATOM      5  C   UNL     1       8.920  34.137  21.977  1.00  0.00     0.003 C 
ATOM      6  C   UNL     1       9.640  34.520  23.324  1.00  0.00     0.009 C 
ATOM      7  C   UNL     1       8.810  34.255  24.590  1.00  0.00     0.031 C 
ATOM      8  C   UNL     1       8.330  32.819  24.574  1.00  0.00    -0.073 C 
ATOM      9  C   UNL     1       7.796  32.343  23.420  1.00  0.00    -0.064 C 
ATOM     10  C   UNL     1       7.299  30.918  23.278  1.00  0.00     0.036 C 
ATOM     11  C   UNL     1       7.367  30.463  21.820  1.00  0.00     0.035 C 
ATOM     12  C   UNL     1       8.503  31.959  25.802  1.00  0.00     0.039 C 
ENDROOT
BRANCH   5  13
ATOM     13  C   UNL     1       9.945  33.465  20.983  1.00  0.00    -0.013 C 
ATOM     14  C   UNL     1      11.363  33.406  21.598  1.00  0.00     0.007 C 
ATOM     15  C   UNL     1      10.068  34.195  19.627  1.00  0.00     0.007 C 
ENDBRANCH   5  13
TORSDOF 1
ENDMDL
