MODEL 1
REMARK VINA RESULT:    -1.365      0.000      0.000
REMARK INTER + INTRA:          -1.586
REMARK INTER:                  -1.525
REMARK INTRA:                  -0.062
REMARK UNBOUND:                -0.062
REMARK SMILES CCCC(=O)[O-]
REMARK SMILES IDX 3 1 4 2 5 3 6 4 2 5 1 6
REMARK H PARENT
REMARK Flexibility Score: inf
ROOT
ATOM      1  C   UNL     1     173.394 177.466 199.238  1.00  0.00     0.052 C 
ENDROOT
BRANCH   1   2
ATOM      2  C   UNL     1     173.009 177.855 197.843  1.00  0.00     0.041 C 
ATOM      3  O   UNL     1     172.891 179.071 197.533  1.00  0.00    -0.550 OA
ATOM      4  O   UNL     1     172.812 176.876 196.878  1.00  0.00    -0.550 OA
ENDBRANCH   1   2
BRANCH   1   5
ATOM      5  C   UNL     1     172.379 177.975 200.269  1.00  0.00     0.003 C 
ATOM      6  C   UNL     1     171.092 177.152 200.273  1.00  0.00     0.004 C 
ENDBRANCH   1   5
TORSDOF 2
ENDMDL
MODEL 2
REMARK VINA RESULT:    -1.289      4.594      6.011
REMARK INTER + INTRA:          -1.502
REMARK INTER:                  -1.454
REMARK INTRA:                  -0.047
REMARK UNBOUND:                -0.062
REMARK SMILES CCCC(=O)[O-]
REMARK SMILES IDX 3 1 4 2 5 3 6 4 2 5 1 6
REMARK H PARENT
REMARK Flexibility Score: inf
ROOT
ATOM      1  C   UNL     1     171.663 176.879 193.225  1.00  0.00     0.052 C 
ENDROOT
BRANCH   1   2
ATOM      2  C   UNL     1     172.778 176.997 194.219  1.00  0.00     0.041 C 
ATOM      3  O   UNL     1     173.976 177.016 193.830  1.00  0.00    -0.550 OA
ATOM      4  O   UNL     1     172.492 177.120 195.573  1.00  0.00    -0.550 OA
ENDBRANCH   1   2
BRANCH   1   5
ATOM      5  C   UNL     1     171.987 177.617 191.920  1.00  0.00     0.003 C 
ATOM      6  C   UNL     1     171.722 179.118 192.019  1.00  0.00     0.004 C 
ENDBRANCH   1   5
TORSDOF 2
ENDMDL
MODEL 3
REMARK VINA RESULT:    -1.276      1.908      3.008
REMARK INTER + INTRA:          -1.487
REMARK INTER:                  -1.472
REMARK INTRA:                  -0.015
REMARK UNBOUND:                -0.062
REMARK SMILES CCCC(=O)[O-]
REMARK SMILES IDX 3 1 4 2 5 3 6 4 2 5 1 6
REMARK H PARENT
REMARK Flexibility Score: inf
ROOT
ATOM      1  C   UNL     1     173.376 178.212 197.623  1.00  0.00     0.052 C 
ENDROOT
BRANCH   1   2
ATOM      2  C   UNL     1     172.536 178.449 198.841  1.00  0.00     0.041 C 
ATOM      3  O   UNL     1     172.238 179.623 199.187  1.00  0.00    -0.550 OA
ATOM      4  O   UNL     1     172.055 177.372 199.575  1.00  0.00    -0.550 OA
ENDBRANCH   1   2
BRANCH   1   5
ATOM      5  C   UNL     1     173.035 176.875 196.951  1.00  0.00     0.003 C 
ATOM      6  C   UNL     1     172.646 177.044 195.484  1.00  0.00     0.004 C 
ENDBRANCH   1   5
TORSDOF 2
ENDMDL
MODEL 4
REMARK VINA RESULT:    -1.276      2.263      2.670
REMARK INTER + INTRA:          -1.486
REMARK INTER:                  -1.418
REMARK INTRA:                  -0.068
REMARK UNBOUND:                -0.062
REMARK SMILES CCCC(=O)[O-]
REMARK SMILES IDX 3 1 4 2 5 3 6 4 2 5 1 6
REMARK H PARENT
REMARK Flexibility Score: inf
ROOT
ATOM      1  C   UNL     1     172.624 178.594 200.711  1.00  0.00     0.052 C 
ENDROOT
BRANCH   1   2
ATOM      2  C   UNL     1     172.007 177.569 199.809  1.00  0.00     0.041 C 
ATOM      3  O   UNL     1     170.966 176.954 200.165  1.00  0.00    -0.550 OA
ATOM      4  O   UNL     1     172.562 177.317 198.561  1.00  0.00    -0.550 OA
ENDBRANCH   1   2
BRANCH   1   5
ATOM      5  C   UNL     1     171.613 179.672 201.120  1.00  0.00     0.003 C 
ATOM      6  C   UNL     1     171.149 180.514 199.933  1.00  0.00     0.004 C 
ENDBRANCH   1   5
TORSDOF 2
ENDMDL
MODEL 5
REMARK VINA RESULT:    -1.259      2.294      3.120
REMARK INTER + INTRA:          -1.467
REMARK INTER:                  -1.454
REMARK INTRA:                  -0.013
REMARK UNBOUND:                -0.062
REMARK SMILES CCCC(=O)[O-]
REMARK SMILES IDX 3 1 4 2 5 3 6 4 2 5 1 6
REMARK H PARENT
REMARK Flexibility Score: inf
ROOT
ATOM      1  C   UNL     1     172.882 177.954 199.304  1.00  0.00     0.052 C 
ENDROOT
BRANCH   1   2
ATOM      2  C   UNL     1     171.599 178.034 200.074  1.00  0.00     0.041 C 
ATOM      3  O   UNL     1     171.155 179.151 200.454  1.00  0.00    -0.550 OA
ATOM      4  O   UNL     1     170.875 176.879 200.342  1.00  0.00    -0.550 OA
ENDBRANCH   1   2
BRANCH   1   5
ATOM      5  C   UNL     1     172.987 179.071 198.259  1.00  0.00     0.003 C 
ATOM      6  C   UNL     1     173.180 178.529 196.844  1.00  0.00     0.004 C 
ENDBRANCH   1   5
TORSDOF 2
ENDMDL
MODEL 6
REMARK VINA RESULT:    -1.244      2.524      3.339
REMARK INTER + INTRA:          -1.451
REMARK INTER:                  -1.443
REMARK INTRA:                  -0.009
REMARK UNBOUND:                -0.062
REMARK SMILES CCCC(=O)[O-]
REMARK SMILES IDX 3 1 4 2 5 3 6 4 2 5 1 6
REMARK H PARENT
REMARK Flexibility Score: inf
ROOT
ATOM      1  C   UNL     1     173.142 178.278 195.967  1.00  0.00     0.052 C 
ENDROOT
BRANCH   1   2
ATOM      2  C   UNL     1     172.776 177.949 194.552  1.00  0.00     0.041 C 
ATOM      3  O   UNL     1     173.251 178.624 193.600  1.00  0.00    -0.550 OA
ATOM      4  O   UNL     1     171.937 176.875 194.283  1.00  0.00    -0.550 OA
ENDBRANCH   1   2
BRANCH   1   5
ATOM      5  C   UNL     1     173.059 177.046 196.876  1.00  0.00     0.003 C 
ATOM      6  C   UNL     1     173.257 177.395 198.350  1.00  0.00     0.004 C 
ENDBRANCH   1   5
TORSDOF 2
ENDMDL
MODEL 7
REMARK VINA RESULT:    -1.232      1.495      2.171
REMARK INTER + INTRA:          -1.437
REMARK INTER:                  -1.431
REMARK INTRA:                  -0.006
REMARK UNBOUND:                -0.062
REMARK SMILES CCCC(=O)[O-]
REMARK SMILES IDX 3 1 4 2 5 3 6 4 2 5 1 6
REMARK H PARENT
REMARK Flexibility Score: inf
ROOT
ATOM      1  C   UNL     1     173.125 177.122 197.375  1.00  0.00     0.052 C 
ENDROOT
BRANCH   1   2
ATOM      2  C   UNL     1     173.132 177.695 195.991  1.00  0.00     0.041 C 
ATOM      3  O   UNL     1     172.375 177.218 195.103  1.00  0.00    -0.550 OA
ATOM      4  O   UNL     1     173.950 178.777 195.690  1.00  0.00    -0.550 OA
ENDBRANCH   1   2
BRANCH   1   5
ATOM      5  C   UNL     1     172.821 178.193 198.430  1.00  0.00     0.003 C 
ATOM      6  C   UNL     1     172.077 177.625 199.638  1.00  0.00     0.004 C 
ENDBRANCH   1   5
TORSDOF 2
ENDMDL
MODEL 8
REMARK VINA RESULT:    -1.223      3.209      4.605
REMARK INTER + INTRA:          -1.427
REMARK INTER:                  -1.390
REMARK INTRA:                  -0.037
REMARK UNBOUND:                -0.062
REMARK SMILES CCCC(=O)[O-]
REMARK SMILES IDX 3 1 4 2 5 3 6 4 2 5 1 6
REMARK H PARENT
REMARK Flexibility Score: inf
ROOT
ATOM      1  C   UNL     1     173.632 178.023 194.460  1.00  0.00     0.052 C 
ENDROOT
BRANCH   1   2
ATOM      2  C   UNL     1     173.121 178.054 195.868  1.00  0.00     0.041 C 
ATOM      3  O   UNL     1     173.018 179.150 196.482  1.00  0.00    -0.550 OA
ATOM      4  O   UNL     1     172.728 176.876 196.491  1.00  0.00    -0.550 OA
ENDBRANCH   1   2
BRANCH   1   5
ATOM      5  C   UNL     1     172.499 178.199 193.442  1.00  0.00     0.003 C 
ATOM      6  C   UNL     1     171.818 176.876 193.094  1.00  0.00     0.004 C 
ENDBRANCH   1   5
TORSDOF 2
ENDMDL
MODEL 9
REMARK VINA RESULT:    -1.210      3.092      4.243
REMARK INTER + INTRA:          -1.413
REMARK INTER:                  -1.395
REMARK INTRA:                  -0.018
REMARK UNBOUND:                -0.062
REMARK SMILES CCCC(=O)[O-]
REMARK SMILES IDX 3 1 4 2 5 3 6 4 2 5 1 6
REMARK H PARENT
REMARK Flexibility Score: inf
ROOT
ATOM      1  C   UNL     1     173.273 179.109 196.156  1.00  0.00     0.052 C 
ENDROOT
BRANCH   1   2
ATOM      2  C   UNL     1     172.885 177.663 196.083  1.00  0.00     0.041 C 
ATOM      3  O   UNL     1     172.567 177.147 194.978  1.00  0.00    -0.550 OA
ATOM      4  O   UNL     1     172.907 176.879 197.228  1.00  0.00    -0.550 OA
ENDBRANCH   1   2
BRANCH   1   5
ATOM      5  C   UNL     1     173.185 179.789 194.784  1.00  0.00     0.003 C 
ATOM      6  C   UNL     1     172.663 181.222 194.878  1.00  0.00     0.004 C 
ENDBRANCH   1   5
TORSDOF 2
ENDMDL
