MODEL 1
REMARK VINA RESULT:    -4.619      0.000      0.000
REMARK INTER + INTRA:         -10.040
REMARK INTER:                  -8.399
REMARK INTRA:                  -1.642
REMARK UNBOUND:                -1.642
REMARK SMILES CCCCCCCCCCCCCCCC(=O)[O-]
REMARK SMILES IDX 9 1 10 2 11 3 12 4 13 5 14 6 15 7 16 8 17 9 18 10 8 11 7 12
REMARK SMILES IDX 6 13 5 14 4 15 3 16 2 17 1 18
REMARK H PARENT
REMARK Flexibility Score: inf
ROOT
ATOM      1  C   UNL     1      -3.880  -0.234   9.756  1.00  0.00     0.000 C 
ENDROOT
BRANCH   1   2
ATOM      2  C   UNL     1      -3.908   0.823  10.881  1.00  0.00     0.000 C 
BRANCH   2   3
ATOM      3  C   UNL     1      -4.412   0.278  12.232  1.00  0.00     0.000 C 
BRANCH   3   4
ATOM      4  C   UNL     1      -5.342   1.229  13.009  1.00  0.00     0.000 C 
BRANCH   4   5
ATOM      5  C   UNL     1      -4.764   1.778  14.326  1.00  0.00     0.000 C 
BRANCH   5   6
ATOM      6  C   UNL     1      -5.075   3.258  14.619  1.00  0.00     0.006 C 
BRANCH   6   7
ATOM      7  C   UNL     1      -5.539   3.528  16.062  1.00  0.00     0.053 C 
BRANCH   7   8
ATOM      8  C   UNL     1      -6.923   3.016  16.330  1.00  0.00     0.041 C 
ATOM      9  O   UNL     1      -7.100   2.056  17.126  1.00  0.00    -0.550 OA
ATOM     10  O   UNL     1      -8.019   3.622  15.731  1.00  0.00    -0.550 OA
ENDBRANCH   7   8
ENDBRANCH   6   7
ENDBRANCH   5   6
ENDBRANCH   4   5
ENDBRANCH   3   4
ENDBRANCH   2   3
ENDBRANCH   1   2
BRANCH   1  11
ATOM     11  C   UNL     1      -2.597  -0.160   8.910  1.00  0.00     0.000 C 
BRANCH  11  12
ATOM     12  C   UNL     1      -2.235  -1.508   8.268  1.00  0.00    -0.000 C 
BRANCH  12  13
ATOM     13  C   UNL     1      -3.342  -2.560   8.441  1.00  0.00    -0.000 C 
BRANCH  13  14
ATOM     14  C   UNL     1      -2.829  -3.872   9.058  1.00  0.00    -0.000 C 
BRANCH  14  15
ATOM     15  C   UNL     1      -3.585  -4.289  10.339  1.00  0.00    -0.000 C 
BRANCH  15  16
ATOM     16  C   UNL     1      -3.244  -3.388  11.535  1.00  0.00    -0.000 C 
BRANCH  16  17
ATOM     17  C   UNL     1      -1.727  -3.274  11.722  1.00  0.00    -0.003 C 
ATOM     18  C   UNL     1      -1.316  -1.835  12.022  1.00  0.00     0.004 C 
ENDBRANCH  16  17
ENDBRANCH  15  16
ENDBRANCH  14  15
ENDBRANCH  13  14
ENDBRANCH  12  13
ENDBRANCH  11  12
ENDBRANCH   1  11
TORSDOF 14
ENDMDL
MODEL 2
REMARK VINA RESULT:    -4.503      5.423      8.373
REMARK INTER + INTRA:          -9.830
REMARK INTER:                  -8.880
REMARK INTRA:                  -0.951
REMARK UNBOUND:                -1.642
REMARK SMILES CCCCCCCCCCCCCCCC(=O)[O-]
REMARK SMILES IDX 9 1 10 2 11 3 12 4 13 5 14 6 15 7 16 8 17 9 18 10 8 11 7 12
REMARK SMILES IDX 6 13 5 14 4 15 3 16 2 17 1 18
REMARK H PARENT
REMARK Flexibility Score: inf
ROOT
ATOM      1  C   UNL     1      -2.522   2.016  10.081  1.00  0.00     0.000 C 
ENDROOT
BRANCH   1   2
ATOM      2  C   UNL     1      -2.493   0.682   9.305  1.00  0.00     0.000 C 
BRANCH   2   3
ATOM      3  C   UNL     1      -3.692  -0.238   9.606  1.00  0.00     0.000 C 
BRANCH   3   4
ATOM      4  C   UNL     1      -3.685  -0.875  11.009  1.00  0.00     0.000 C 
BRANCH   4   5
ATOM      5  C   UNL     1      -2.386  -1.613  11.386  1.00  0.00     0.000 C 
BRANCH   5   6
ATOM      6  C   UNL     1      -2.399  -3.135  11.155  1.00  0.00     0.006 C 
BRANCH   6   7
ATOM      7  C   UNL     1      -3.747  -3.807  11.474  1.00  0.00     0.053 C 
BRANCH   7   8
ATOM      8  C   UNL     1      -4.393  -4.413  10.265  1.00  0.00     0.041 C 
ATOM      9  O   UNL     1      -5.435  -5.110  10.384  1.00  0.00    -0.550 OA
ATOM     10  O   UNL     1      -3.866  -4.177   9.002  1.00  0.00    -0.550 OA
ENDBRANCH   7   8
ENDBRANCH   6   7
ENDBRANCH   5   6
ENDBRANCH   4   5
ENDBRANCH   3   4
ENDBRANCH   2   3
ENDBRANCH   1   2
BRANCH   1  11
ATOM     11  C   UNL     1      -3.923   2.651  10.108  1.00  0.00     0.000 C 
BRANCH  11  12
ATOM     12  C   UNL     1      -3.876   4.186  10.087  1.00  0.00    -0.000 C 
BRANCH  12  13
ATOM     13  C   UNL     1      -3.076   4.736   8.894  1.00  0.00    -0.000 C 
BRANCH  13  14
ATOM     14  C   UNL     1      -2.647   6.200   9.085  1.00  0.00    -0.000 C 
BRANCH  14  15
ATOM     15  C   UNL     1      -3.113   7.134   7.947  1.00  0.00    -0.000 C 
BRANCH  15  16
ATOM     16  C   UNL     1      -4.293   6.547   7.159  1.00  0.00    -0.000 C 
BRANCH  16  17
ATOM     17  C   UNL     1      -4.025   6.597   5.650  1.00  0.00    -0.003 C 
ATOM     18  C   UNL     1      -3.478   7.959   5.232  1.00  0.00     0.004 C 
ENDBRANCH  16  17
ENDBRANCH  15  16
ENDBRANCH  14  15
ENDBRANCH  13  14
ENDBRANCH  12  13
ENDBRANCH  11  12
ENDBRANCH   1  11
TORSDOF 14
ENDMDL
MODEL 3
REMARK VINA RESULT:    -4.464      1.193      2.014
REMARK INTER + INTRA:          -9.760
REMARK INTER:                  -8.600
REMARK INTRA:                  -1.160
REMARK UNBOUND:                -1.642
REMARK SMILES CCCCCCCCCCCCCCCC(=O)[O-]
REMARK SMILES IDX 9 1 10 2 11 3 12 4 13 5 14 6 15 7 16 8 17 9 18 10 8 11 7 12
REMARK SMILES IDX 6 13 5 14 4 15 3 16 2 17 1 18
REMARK H PARENT
REMARK Flexibility Score: inf
ROOT
ATOM      1  C   UNL     1      -3.160   0.499  11.294  1.00  0.00     0.000 C 
ENDROOT
BRANCH   1   2
ATOM      2  C   UNL     1      -4.211  -0.069  12.273  1.00  0.00     0.000 C 
BRANCH   2   3
ATOM      3  C   UNL     1      -5.130   1.004  12.889  1.00  0.00     0.000 C 
BRANCH   3   4
ATOM      4  C   UNL     1      -4.805   1.377  14.347  1.00  0.00     0.000 C 
BRANCH   4   5
ATOM      5  C   UNL     1      -4.707   2.888  14.630  1.00  0.00     0.000 C 
BRANCH   5   6
ATOM      6  C   UNL     1      -5.283   3.347  15.982  1.00  0.00     0.006 C 
BRANCH   6   7
ATOM      7  C   UNL     1      -6.740   2.914  16.223  1.00  0.00     0.053 C 
BRANCH   7   8
ATOM      8  C   UNL     1      -7.721   4.021  15.979  1.00  0.00     0.041 C 
ATOM      9  O   UNL     1      -8.493   3.977  14.984  1.00  0.00    -0.550 OA
ATOM     10  O   UNL     1      -7.810   5.083  16.869  1.00  0.00    -0.550 OA
ENDBRANCH   7   8
ENDBRANCH   6   7
ENDBRANCH   5   6
ENDBRANCH   4   5
ENDBRANCH   3   4
ENDBRANCH   2   3
ENDBRANCH   1   2
BRANCH   1  11
ATOM     11  C   UNL     1      -3.759   0.833   9.916  1.00  0.00     0.000 C 
BRANCH  11  12
ATOM     12  C   UNL     1      -3.943  -0.413   9.037  1.00  0.00    -0.000 C 
BRANCH  12  13
ATOM     13  C   UNL     1      -2.725  -1.350   9.077  1.00  0.00    -0.000 C 
BRANCH  13  14
ATOM     14  C   UNL     1      -2.999  -2.715   8.424  1.00  0.00    -0.000 C 
BRANCH  14  15
ATOM     15  C   UNL     1      -2.856  -3.905   9.397  1.00  0.00    -0.000 C 
BRANCH  15  16
ATOM     16  C   UNL     1      -2.746  -3.451  10.860  1.00  0.00    -0.000 C 
BRANCH  16  17
ATOM     17  C   UNL     1      -3.942  -3.948  11.681  1.00  0.00    -0.003 C 
ATOM     18  C   UNL     1      -4.688  -5.060  10.950  1.00  0.00     0.004 C 
ENDBRANCH  16  17
ENDBRANCH  15  16
ENDBRANCH  14  15
ENDBRANCH  13  14
ENDBRANCH  12  13
ENDBRANCH  11  12
ENDBRANCH   1  11
TORSDOF 14
ENDMDL
MODEL 4
REMARK VINA RESULT:    -4.439      1.280      2.785
REMARK INTER + INTRA:          -9.713
REMARK INTER:                  -8.173
REMARK INTRA:                  -1.540
REMARK UNBOUND:                -1.642
REMARK SMILES CCCCCCCCCCCCCCCC(=O)[O-]
REMARK SMILES IDX 9 1 10 2 11 3 12 4 13 5 14 6 15 7 16 8 17 9 18 10 8 11 7 12
REMARK SMILES IDX 6 13 5 14 4 15 3 16 2 17 1 18
REMARK H PARENT
REMARK Flexibility Score: inf
ROOT
ATOM      1  C   UNL     1      -2.098  -1.138   8.131  1.00  0.00     0.000 C 
ENDROOT
BRANCH   1   2
ATOM      2  C   UNL     1      -2.560   0.107   8.920  1.00  0.00     0.000 C 
BRANCH   2   3
ATOM      3  C   UNL     1      -3.914  -0.077   9.632  1.00  0.00     0.000 C 
BRANCH   3   4
ATOM      4  C   UNL     1      -3.847  -0.056  11.171  1.00  0.00     0.000 C 
BRANCH   4   5
ATOM      5  C   UNL     1      -4.372   1.233  11.831  1.00  0.00     0.000 C 
BRANCH   5   6
ATOM      6  C   UNL     1      -5.339   1.025  13.012  1.00  0.00     0.006 C 
BRANCH   6   7
ATOM      7  C   UNL     1      -4.744   1.396  14.383  1.00  0.00     0.053 C 
BRANCH   7   8
ATOM      8  C   UNL     1      -5.283   2.688  14.918  1.00  0.00     0.041 C 
ATOM      9  O   UNL     1      -5.440   2.845  16.158  1.00  0.00    -0.550 OA
ATOM     10  O   UNL     1      -5.578   3.732  14.051  1.00  0.00    -0.550 OA
ENDBRANCH   7   8
ENDBRANCH   6   7
ENDBRANCH   5   6
ENDBRANCH   4   5
ENDBRANCH   3   4
ENDBRANCH   2   3
ENDBRANCH   1   2
BRANCH   1  11
ATOM     11  C   UNL     1      -2.904  -2.398   8.496  1.00  0.00     0.000 C 
BRANCH  11  12
ATOM     12  C   UNL     1      -2.047  -3.672   8.474  1.00  0.00    -0.000 C 
BRANCH  12  13
ATOM     13  C   UNL     1      -1.193  -3.832   9.742  1.00  0.00    -0.000 C 
BRANCH  13  14
ATOM     14  C   UNL     1      -1.768  -3.073  10.950  1.00  0.00    -0.000 C 
BRANCH  14  15
ATOM     15  C   UNL     1      -2.617  -3.958  11.888  1.00  0.00    -0.000 C 
BRANCH  15  16
ATOM     16  C   UNL     1      -4.121  -3.827  11.607  1.00  0.00    -0.000 C 
BRANCH  16  17
ATOM     17  C   UNL     1      -4.696  -5.141  11.066  1.00  0.00    -0.003 C 
ATOM     18  C   UNL     1      -5.450  -4.915   9.759  1.00  0.00     0.004 C 
ENDBRANCH  16  17
ENDBRANCH  15  16
ENDBRANCH  14  15
ENDBRANCH  13  14
ENDBRANCH  12  13
ENDBRANCH  11  12
ENDBRANCH   1  11
TORSDOF 14
ENDMDL
MODEL 5
REMARK VINA RESULT:    -4.341      3.412      8.310
REMARK INTER + INTRA:          -9.535
REMARK INTER:                  -8.581
REMARK INTRA:                  -0.954
REMARK UNBOUND:                -1.642
REMARK SMILES CCCCCCCCCCCCCCCC(=O)[O-]
REMARK SMILES IDX 9 1 10 2 11 3 12 4 13 5 14 6 15 7 16 8 17 9 18 10 8 11 7 12
REMARK SMILES IDX 6 13 5 14 4 15 3 16 2 17 1 18
REMARK H PARENT
REMARK Flexibility Score: inf
ROOT
ATOM      1  C   UNL     1      -4.395   1.402  11.815  1.00  0.00     0.000 C 
ENDROOT
BRANCH   1   2
ATOM      2  C   UNL     1      -3.101   0.562  11.864  1.00  0.00     0.000 C 
BRANCH   2   3
ATOM      3  C   UNL     1      -2.769  -0.145  10.535  1.00  0.00     0.000 C 
BRANCH   3   4
ATOM      4  C   UNL     1      -3.868  -0.056   9.460  1.00  0.00     0.000 C 
BRANCH   4   5
ATOM      5  C   UNL     1      -4.247  -1.395   8.800  1.00  0.00     0.000 C 
BRANCH   5   6
ATOM      6  C   UNL     1      -3.109  -2.428   8.697  1.00  0.00     0.006 C 
BRANCH   6   7
ATOM      7  C   UNL     1      -3.564  -3.886   8.895  1.00  0.00     0.053 C 
BRANCH   7   8
ATOM      8  C   UNL     1      -3.909  -4.196  10.320  1.00  0.00     0.041 C 
ATOM      9  O   UNL     1      -3.256  -3.669  11.260  1.00  0.00    -0.550 OA
ATOM     10  O   UNL     1      -4.974  -5.038  10.612  1.00  0.00    -0.550 OA
ENDBRANCH   7   8
ENDBRANCH   6   7
ENDBRANCH   5   6
ENDBRANCH   4   5
ENDBRANCH   3   4
ENDBRANCH   2   3
ENDBRANCH   1   2
BRANCH   1  11
ATOM     11  C   UNL     1      -5.294   1.169  13.042  1.00  0.00     0.000 C 
BRANCH  11  12
ATOM     12  C   UNL     1      -4.537   1.339  14.368  1.00  0.00    -0.000 C 
BRANCH  12  13
ATOM     13  C   UNL     1      -4.819   2.693  15.039  1.00  0.00    -0.000 C 
BRANCH  13  14
ATOM     14  C   UNL     1      -6.280   3.146  14.884  1.00  0.00    -0.000 C 
BRANCH  14  15
ATOM     15  C   UNL     1      -7.105   3.027  16.184  1.00  0.00    -0.000 C 
BRANCH  15  16
ATOM     16  C   UNL     1      -7.792   4.348  16.560  1.00  0.00    -0.000 C 
BRANCH  16  17
ATOM     17  C   UNL     1      -6.925   5.550  16.166  1.00  0.00    -0.003 C 
ATOM     18  C   UNL     1      -6.580   6.402  17.384  1.00  0.00     0.004 C 
ENDBRANCH  16  17
ENDBRANCH  15  16
ENDBRANCH  14  15
ENDBRANCH  13  14
ENDBRANCH  12  13
ENDBRANCH  11  12
ENDBRANCH   1  11
TORSDOF 14
ENDMDL
MODEL 6
REMARK VINA RESULT:    -4.288      3.534      8.326
REMARK INTER + INTRA:          -9.439
REMARK INTER:                  -8.085
REMARK INTRA:                  -1.353
REMARK UNBOUND:                -1.642
REMARK SMILES CCCCCCCCCCCCCCCC(=O)[O-]
REMARK SMILES IDX 9 1 10 2 11 3 12 4 13 5 14 6 15 7 16 8 17 9 18 10 8 11 7 12
REMARK SMILES IDX 6 13 5 14 4 15 3 16 2 17 1 18
REMARK H PARENT
REMARK Flexibility Score: inf
ROOT
ATOM      1  C   UNL     1      -5.522   1.776  13.567  1.00  0.00     0.000 C 
ENDROOT
BRANCH   1   2
ATOM      2  C   UNL     1      -4.833   0.684  12.721  1.00  0.00     0.000 C 
BRANCH   2   3
ATOM      3  C   UNL     1      -3.739   1.226  11.780  1.00  0.00     0.000 C 
BRANCH   3   4
ATOM      4  C   UNL     1      -4.142   1.314  10.297  1.00  0.00     0.000 C 
BRANCH   4   5
ATOM      5  C   UNL     1      -3.438   0.307   9.367  1.00  0.00     0.000 C 
BRANCH   5   6
ATOM      6  C   UNL     1      -4.019  -1.120   9.376  1.00  0.00     0.006 C 
BRANCH   6   7
ATOM      7  C   UNL     1      -3.107  -2.164  10.045  1.00  0.00     0.053 C 
BRANCH   7   8
ATOM      8  C   UNL     1      -3.829  -3.436  10.375  1.00  0.00     0.041 C 
ATOM      9  O   UNL     1      -4.433  -4.074   9.472  1.00  0.00    -0.550 OA
ATOM     10  O   UNL     1      -3.804  -3.936  11.670  1.00  0.00    -0.550 OA
ENDBRANCH   7   8
ENDBRANCH   6   7
ENDBRANCH   5   6
ENDBRANCH   4   5
ENDBRANCH   3   4
ENDBRANCH   2   3
ENDBRANCH   1   2
BRANCH   1  11
ATOM     11  C   UNL     1      -4.730   2.121  14.840  1.00  0.00     0.000 C 
BRANCH  11  12
ATOM     12  C   UNL     1      -5.636   2.591  15.989  1.00  0.00    -0.000 C 
BRANCH  12  13
ATOM     13  C   UNL     1      -6.944   3.225  15.488  1.00  0.00    -0.000 C 
BRANCH  13  14
ATOM     14  C   UNL     1      -7.320   4.504  16.254  1.00  0.00    -0.000 C 
BRANCH  14  15
ATOM     15  C   UNL     1      -6.662   5.781  15.685  1.00  0.00    -0.000 C 
BRANCH  15  16
ATOM     16  C   UNL     1      -6.573   5.756  14.152  1.00  0.00    -0.000 C 
BRANCH  16  17
ATOM     17  C   UNL     1      -5.218   6.287  13.672  1.00  0.00    -0.003 C 
ATOM     18  C   UNL     1      -4.453   5.221  12.893  1.00  0.00     0.004 C 
ENDBRANCH  16  17
ENDBRANCH  15  16
ENDBRANCH  14  15
ENDBRANCH  13  14
ENDBRANCH  12  13
ENDBRANCH  11  12
ENDBRANCH   1  11
TORSDOF 14
ENDMDL
MODEL 7
REMARK VINA RESULT:    -4.279      1.340      2.225
REMARK INTER + INTRA:          -9.422
REMARK INTER:                  -7.404
REMARK INTRA:                  -2.018
REMARK UNBOUND:                -1.642
REMARK SMILES CCCCCCCCCCCCCCCC(=O)[O-]
REMARK SMILES IDX 9 1 10 2 11 3 12 4 13 5 14 6 15 7 16 8 17 9 18 10 8 11 7 12
REMARK SMILES IDX 6 13 5 14 4 15 3 16 2 17 1 18
REMARK H PARENT
REMARK Flexibility Score: inf
ROOT
ATOM      1  C   UNL     1      -2.469   0.251   8.832  1.00  0.00     0.000 C 
ENDROOT
BRANCH   1   2
ATOM      2  C   UNL     1      -3.711   0.621   9.672  1.00  0.00     0.000 C 
BRANCH   2   3
ATOM      3  C   UNL     1      -3.687   2.063  10.215  1.00  0.00     0.000 C 
BRANCH   3   4
ATOM      4  C   UNL     1      -3.730   2.180  11.750  1.00  0.00     0.000 C 
BRANCH   4   5
ATOM      5  C   UNL     1      -4.283   0.945  12.485  1.00  0.00     0.000 C 
BRANCH   5   6
ATOM      6  C   UNL     1      -5.564   1.184  13.307  1.00  0.00     0.006 C 
BRANCH   6   7
ATOM      7  C   UNL     1      -5.638   2.574  13.964  1.00  0.00     0.053 C 
BRANCH   7   8
ATOM      8  C   UNL     1      -5.151   2.571  15.382  1.00  0.00     0.041 C 
ATOM      9  O   UNL     1      -5.971   2.494  16.334  1.00  0.00    -0.550 OA
ATOM     10  O   UNL     1      -3.789   2.616  15.651  1.00  0.00    -0.550 OA
ENDBRANCH   7   8
ENDBRANCH   6   7
ENDBRANCH   5   6
ENDBRANCH   4   5
ENDBRANCH   3   4
ENDBRANCH   2   3
ENDBRANCH   1   2
BRANCH   1  11
ATOM     11  C   UNL     1      -2.324  -1.267   8.633  1.00  0.00     0.000 C 
BRANCH  11  12
ATOM     12  C   UNL     1      -3.675  -1.997   8.656  1.00  0.00    -0.000 C 
BRANCH  12  13
ATOM     13  C   UNL     1      -3.687  -3.188   9.627  1.00  0.00    -0.000 C 
BRANCH  13  14
ATOM     14  C   UNL     1      -3.446  -2.772  11.088  1.00  0.00    -0.000 C 
BRANCH  14  15
ATOM     15  C   UNL     1      -2.240  -3.482  11.742  1.00  0.00    -0.000 C 
BRANCH  15  16
ATOM     16  C   UNL     1      -1.024  -2.555  11.880  1.00  0.00    -0.000 C 
BRANCH  16  17
ATOM     17  C   UNL     1      -1.459  -1.121  12.204  1.00  0.00    -0.003 C 
ATOM     18  C   UNL     1      -0.266  -0.170  12.203  1.00  0.00     0.004 C 
ENDBRANCH  16  17
ENDBRANCH  15  16
ENDBRANCH  14  15
ENDBRANCH  13  14
ENDBRANCH  12  13
ENDBRANCH  11  12
ENDBRANCH   1  11
TORSDOF 14
ENDMDL
MODEL 8
REMARK VINA RESULT:    -4.223      1.639      3.569
REMARK INTER + INTRA:          -9.320
REMARK INTER:                  -7.077
REMARK INTRA:                  -2.244
REMARK UNBOUND:                -1.642
REMARK SMILES CCCCCCCCCCCCCCCC(=O)[O-]
REMARK SMILES IDX 9 1 10 2 11 3 12 4 13 5 14 6 15 7 16 8 17 9 18 10 8 11 7 12
REMARK SMILES IDX 6 13 5 14 4 15 3 16 2 17 1 18
REMARK H PARENT
REMARK Flexibility Score: inf
ROOT
ATOM      1  C   UNL     1      -3.433  -2.460   8.536  1.00  0.00     0.000 C 
ENDROOT
BRANCH   1   2
ATOM      2  C   UNL     1      -3.835  -0.978   8.698  1.00  0.00     0.000 C 
BRANCH   2   3
ATOM      3  C   UNL     1      -2.635  -0.022   8.849  1.00  0.00     0.000 C 
BRANCH   3   4
ATOM      4  C   UNL     1      -2.763   1.005   9.989  1.00  0.00     0.000 C 
BRANCH   4   5
ATOM      5  C   UNL     1      -4.126   1.022  10.706  1.00  0.00     0.000 C 
BRANCH   5   6
ATOM      6  C   UNL     1      -4.089   0.675  12.206  1.00  0.00     0.006 C 
BRANCH   6   7
ATOM      7  C   UNL     1      -5.348   1.107  12.982  1.00  0.00     0.053 C 
BRANCH   7   8
ATOM      8  C   UNL     1      -5.053   2.125  14.042  1.00  0.00     0.041 C 
ATOM      9  O   UNL     1      -5.518   3.291  13.947  1.00  0.00    -0.550 OA
ATOM     10  O   UNL     1      -4.297   1.775  15.153  1.00  0.00    -0.550 OA
ENDBRANCH   7   8
ENDBRANCH   6   7
ENDBRANCH   5   6
ENDBRANCH   4   5
ENDBRANCH   3   4
ENDBRANCH   2   3
ENDBRANCH   1   2
BRANCH   1  11
ATOM     11  C   UNL     1      -3.989  -3.346   9.665  1.00  0.00     0.000 C 
BRANCH  11  12
ATOM     12  C   UNL     1      -3.621  -2.823  11.061  1.00  0.00    -0.000 C 
BRANCH  12  13
ATOM     13  C   UNL     1      -2.836  -3.852  11.890  1.00  0.00    -0.000 C 
BRANCH  13  14
ATOM     14  C   UNL     1      -1.413  -3.383  12.235  1.00  0.00    -0.000 C 
BRANCH  14  15
ATOM     15  C   UNL     1      -1.017  -2.057  11.551  1.00  0.00    -0.000 C 
BRANCH  15  16
ATOM     16  C   UNL     1      -0.059  -2.274  10.371  1.00  0.00    -0.000 C 
BRANCH  16  17
ATOM     17  C   UNL     1       0.264  -3.762  10.192  1.00  0.00    -0.003 C 
ATOM     18  C   UNL     1      -0.199  -4.266   8.827  1.00  0.00     0.004 C 
ENDBRANCH  16  17
ENDBRANCH  15  16
ENDBRANCH  14  15
ENDBRANCH  13  14
ENDBRANCH  12  13
ENDBRANCH  11  12
ENDBRANCH   1  11
TORSDOF 14
ENDMDL
MODEL 9
REMARK VINA RESULT:    -4.198      0.952      2.282
REMARK INTER + INTRA:          -9.276
REMARK INTER:                  -7.452
REMARK INTRA:                  -1.823
REMARK UNBOUND:                -1.642
REMARK SMILES CCCCCCCCCCCCCCCC(=O)[O-]
REMARK SMILES IDX 9 1 10 2 11 3 12 4 13 5 14 6 15 7 16 8 17 9 18 10 8 11 7 12
REMARK SMILES IDX 6 13 5 14 4 15 3 16 2 17 1 18
REMARK H PARENT
REMARK Flexibility Score: inf
ROOT
ATOM      1  C   UNL     1      -2.527   1.341  10.373  1.00  0.00     0.000 C 
ENDROOT
BRANCH   1   2
ATOM      2  C   UNL     1      -4.016   1.436  10.769  1.00  0.00     0.000 C 
BRANCH   2   3
ATOM      3  C   UNL     1      -4.411   0.502  11.930  1.00  0.00     0.000 C 
BRANCH   3   4
ATOM      4  C   UNL     1      -5.354   1.127  12.975  1.00  0.00     0.000 C 
BRANCH   4   5
ATOM      5  C   UNL     1      -4.805   2.377  13.688  1.00  0.00     0.000 C 
BRANCH   5   6
ATOM      6  C   UNL     1      -4.789   2.308  15.226  1.00  0.00     0.006 C 
BRANCH   6   7
ATOM      7  C   UNL     1      -5.508   3.483  15.915  1.00  0.00     0.053 C 
BRANCH   7   8
ATOM      8  C   UNL     1      -6.896   3.131  16.360  1.00  0.00     0.041 C 
ATOM      9  O   UNL     1      -7.094   2.110  17.070  1.00  0.00    -0.550 OA
ATOM     10  O   UNL     1      -7.965   3.950  16.022  1.00  0.00    -0.550 OA
ENDBRANCH   7   8
ENDBRANCH   6   7
ENDBRANCH   5   6
ENDBRANCH   4   5
ENDBRANCH   3   4
ENDBRANCH   2   3
ENDBRANCH   1   2
BRANCH   1  11
ATOM     11  C   UNL     1      -1.635   0.889  11.542  1.00  0.00     0.000 C 
BRANCH  11  12
ATOM     12  C   UNL     1      -0.903  -0.429  11.250  1.00  0.00    -0.000 C 
BRANCH  12  13
ATOM     13  C   UNL     1      -1.274  -1.543  12.242  1.00  0.00    -0.000 C 
BRANCH  13  14
ATOM     14  C   UNL     1      -1.750  -2.829  11.547  1.00  0.00    -0.000 C 
BRANCH  14  15
ATOM     15  C   UNL     1      -3.231  -2.785  11.113  1.00  0.00    -0.000 C 
BRANCH  15  16
ATOM     16  C   UNL     1      -3.410  -3.111   9.623  1.00  0.00    -0.000 C 
BRANCH  16  17
ATOM     17  C   UNL     1      -3.443  -1.831   8.780  1.00  0.00    -0.003 C 
ATOM     18  C   UNL     1      -2.133  -1.637   8.022  1.00  0.00     0.004 C 
ENDBRANCH  16  17
ENDBRANCH  15  16
ENDBRANCH  14  15
ENDBRANCH  13  14
ENDBRANCH  12  13
ENDBRANCH  11  12
ENDBRANCH   1  11
TORSDOF 14
ENDMDL
