MODEL 1
REMARK VINA RESULT:    -5.170      0.000      0.000
REMARK INTER + INTRA:          -5.760
REMARK INTER:                  -5.624
REMARK INTRA:                  -0.136
REMARK UNBOUND:                -0.136
REMARK SMILES CC1=CC[C@](O)(C(C)C)CC1
REMARK SMILES IDX 1 1 2 2 3 3 4 4 5 5 10 6 11 7 7 8 8 9 9 10 6 11
REMARK H PARENT 6 12
REMARK Flexibility Score: inf
ROOT
ATOM      1  C   UNL     1     121.031 116.501 116.617  1.00  0.00     0.039 C 
ATOM      2  C   UNL     1     122.312 117.199 116.247  1.00  0.00    -0.077 C 
ATOM      3  C   UNL     1     123.396 117.042 117.036  1.00  0.00    -0.025 C 
ATOM      4  C   UNL     1     124.708 117.741 116.775  1.00  0.00     0.062 C 
ATOM      5  C   UNL     1     124.895 118.116 115.284  1.00  0.00     0.071 C 
ATOM      6  C   UNL     1     123.613 118.858 114.825  1.00  0.00     0.040 C 
ATOM      7  C   UNL     1     122.379 117.951 114.933  1.00  0.00     0.033 C 
ENDROOT
BRANCH   5   8
ATOM      8  C   UNL     1     126.182 118.990 115.041  1.00  0.00     0.015 C 
ATOM      9  C   UNL     1     127.421 118.415 115.750  1.00  0.00     0.010 C 
ATOM     10  C   UNL     1     126.031 120.481 115.402  1.00  0.00     0.010 C 
ENDBRANCH   5   8
BRANCH   5  11
ATOM     11  O   UNL     1     125.020 116.914 114.555  1.00  0.00    -0.389 OA
ATOM     12  H   UNL     1     125.617 116.305 115.065  1.00  0.00     0.211 HD
ENDBRANCH   5  11
TORSDOF 2
ENDMDL
MODEL 2
REMARK VINA RESULT:    -4.833     16.792     17.611
REMARK INTER + INTRA:          -5.393
REMARK INTER:                  -5.274
REMARK INTRA:                  -0.119
REMARK UNBOUND:                -0.136
REMARK SMILES CC1=CC[C@](O)(C(C)C)CC1
REMARK SMILES IDX 1 1 2 2 3 3 4 4 5 5 10 6 11 7 7 8 8 9 9 10 6 11
REMARK H PARENT 6 12
REMARK Flexibility Score: inf
ROOT
ATOM      1  C   UNL     1     121.497 129.512 125.447  1.00  0.00     0.039 C 
ATOM      2  C   UNL     1     120.048 129.898 125.571  1.00  0.00    -0.077 C 
ATOM      3  C   UNL     1     119.726 131.201 125.709  1.00  0.00    -0.025 C 
ATOM      4  C   UNL     1     118.307 131.681 125.891  1.00  0.00     0.062 C 
ATOM      5  C   UNL     1     117.267 130.695 125.304  1.00  0.00     0.071 C 
ATOM      6  C   UNL     1     117.597 129.284 125.858  1.00  0.00     0.040 C 
ATOM      7  C   UNL     1     118.991 128.824 125.407  1.00  0.00     0.033 C 
ENDROOT
BRANCH   5   8
ATOM      8  C   UNL     1     115.787 131.111 125.640  1.00  0.00     0.015 C 
ATOM      9  C   UNL     1     115.064 131.725 124.428  1.00  0.00     0.010 C 
ATOM     10  C   UNL     1     115.636 132.047 126.855  1.00  0.00     0.010 C 
ENDBRANCH   5   8
BRANCH   5  11
ATOM     11  O   UNL     1     117.428 130.690 123.901  1.00  0.00    -0.389 OA
ATOM     12  H   UNL     1     116.581 131.010 123.494  1.00  0.00     0.211 HD
ENDBRANCH   5  11
TORSDOF 2
ENDMDL
MODEL 3
REMARK VINA RESULT:    -4.766      1.124      4.390
REMARK INTER + INTRA:          -5.321
REMARK INTER:                  -5.174
REMARK INTRA:                  -0.147
REMARK UNBOUND:                -0.136
REMARK SMILES CC1=CC[C@](O)(C(C)C)CC1
REMARK SMILES IDX 1 1 2 2 3 3 4 4 5 5 10 6 11 7 7 8 8 9 9 10 6 11
REMARK H PARENT 6 12
REMARK Flexibility Score: inf
ROOT
ATOM      1  C   UNL     1     125.887 120.449 115.316  1.00  0.00     0.039 C 
ATOM      2  C   UNL     1     124.951 119.295 115.551  1.00  0.00    -0.077 C 
ATOM      3  C   UNL     1     123.895 119.130 114.727  1.00  0.00    -0.025 C 
ATOM      4  C   UNL     1     122.873 118.035 114.912  1.00  0.00     0.062 C 
ATOM      5  C   UNL     1     123.441 116.816 115.679  1.00  0.00     0.071 C 
ATOM      6  C   UNL     1     124.124 117.350 116.965  1.00  0.00     0.040 C 
ATOM      7  C   UNL     1     125.295 118.283 116.625  1.00  0.00     0.033 C 
ENDROOT
BRANCH   5   8
ATOM      8  C   UNL     1     122.335 115.748 116.018  1.00  0.00     0.015 C 
ATOM      9  C   UNL     1     121.005 116.399 116.439  1.00  0.00     0.010 C 
ATOM     10  C   UNL     1     122.748 114.699 117.069  1.00  0.00     0.010 C 
ENDBRANCH   5   8
BRANCH   5  11
ATOM     11  O   UNL     1     124.417 116.211 114.856  1.00  0.00    -0.389 OA
ATOM     12  H   UNL     1     123.945 115.694 114.151  1.00  0.00     0.211 HD
ENDBRANCH   5  11
TORSDOF 2
ENDMDL
MODEL 4
REMARK VINA RESULT:    -4.670     15.544     17.308
REMARK INTER + INTRA:          -5.216
REMARK INTER:                  -5.113
REMARK INTRA:                  -0.102
REMARK UNBOUND:                -0.136
REMARK SMILES CC1=CC[C@](O)(C(C)C)CC1
REMARK SMILES IDX 1 1 2 2 3 3 4 4 5 5 10 6 11 7 7 8 8 9 9 10 6 11
REMARK H PARENT 6 12
REMARK Flexibility Score: inf
ROOT
ATOM      1  C   UNL     1     111.993 117.014 124.318  1.00  0.00     0.039 C 
ATOM      2  C   UNL     1     112.363 117.021 125.777  1.00  0.00    -0.077 C 
ATOM      3  C   UNL     1     111.695 117.837 126.619  1.00  0.00    -0.025 C 
ATOM      4  C   UNL     1     112.028 117.951 128.087  1.00  0.00     0.062 C 
ATOM      5  C   UNL     1     112.717 116.680 128.640  1.00  0.00     0.071 C 
ATOM      6  C   UNL     1     113.892 116.333 127.689  1.00  0.00     0.040 C 
ATOM      7  C   UNL     1     113.385 116.019 126.274  1.00  0.00     0.033 C 
ENDROOT
BRANCH   5   8
ATOM      8  C   UNL     1     113.213 116.861 130.123  1.00  0.00     0.015 C 
ATOM      9  C   UNL     1     113.936 115.610 130.653  1.00  0.00     0.010 C 
ATOM     10  C   UNL     1     112.121 117.285 131.125  1.00  0.00     0.010 C 
ENDBRANCH   5   8
BRANCH   5  11
ATOM     11  O   UNL     1     111.770 115.632 128.605  1.00  0.00    -0.389 OA
ATOM     12  H   UNL     1     112.074 114.922 129.230  1.00  0.00     0.211 HD
ENDBRANCH   5  11
TORSDOF 2
ENDMDL
MODEL 5
REMARK VINA RESULT:    -4.622     14.964     15.474
REMARK INTER + INTRA:          -5.164
REMARK INTER:                  -5.063
REMARK INTRA:                  -0.102
REMARK UNBOUND:                -0.136
REMARK SMILES CC1=CC[C@](O)(C(C)C)CC1
REMARK SMILES IDX 1 1 2 2 3 3 4 4 5 5 10 6 11 7 7 8 8 9 9 10 6 11
REMARK H PARENT 6 12
REMARK Flexibility Score: inf
ROOT
ATOM      1  C   UNL     1     116.599 125.232 126.261  1.00  0.00     0.039 C 
ATOM      2  C   UNL     1     117.574 126.378 126.272  1.00  0.00    -0.077 C 
ATOM      3  C   UNL     1     118.836 126.169 125.843  1.00  0.00    -0.025 C 
ATOM      4  C   UNL     1     119.898 127.242 125.864  1.00  0.00     0.062 C 
ATOM      5  C   UNL     1     119.301 128.670 125.818  1.00  0.00     0.071 C 
ATOM      6  C   UNL     1     118.208 128.755 126.915  1.00  0.00     0.040 C 
ATOM      7  C   UNL     1     117.072 127.758 126.645  1.00  0.00     0.033 C 
ENDROOT
BRANCH   5   8
ATOM      8  C   UNL     1     120.394 129.786 126.009  1.00  0.00     0.015 C 
ATOM      9  C   UNL     1     119.829 131.200 125.786  1.00  0.00     0.010 C 
ATOM     10  C   UNL     1     121.664 129.601 125.155  1.00  0.00     0.010 C 
ENDBRANCH   5   8
BRANCH   5  11
ATOM     11  O   UNL     1     118.698 128.838 124.552  1.00  0.00    -0.389 OA
ATOM     12  H   UNL     1     118.996 129.712 124.184  1.00  0.00     0.211 HD
ENDBRANCH   5  11
TORSDOF 2
ENDMDL
MODEL 6
REMARK VINA RESULT:    -4.613     15.089     16.091
REMARK INTER + INTRA:          -5.154
REMARK INTER:                  -5.044
REMARK INTRA:                  -0.110
REMARK UNBOUND:                -0.136
REMARK SMILES CC1=CC[C@](O)(C(C)C)CC1
REMARK SMILES IDX 1 1 2 2 3 3 4 4 5 5 10 6 11 7 7 8 8 9 9 10 6 11
REMARK H PARENT 6 12
REMARK Flexibility Score: inf
ROOT
ATOM      1  C   UNL     1     121.084 129.512 125.530  1.00  0.00     0.039 C 
ATOM      2  C   UNL     1     119.881 128.660 125.832  1.00  0.00    -0.077 C 
ATOM      3  C   UNL     1     119.928 127.339 125.558  1.00  0.00    -0.025 C 
ATOM      4  C   UNL     1     118.756 126.413 125.778  1.00  0.00     0.062 C 
ATOM      5  C   UNL     1     117.782 126.935 126.864  1.00  0.00     0.071 C 
ATOM      6  C   UNL     1     117.445 128.409 126.519  1.00  0.00     0.040 C 
ATOM      7  C   UNL     1     118.704 129.288 126.551  1.00  0.00     0.033 C 
ENDROOT
BRANCH   5   8
ATOM      8  C   UNL     1     116.480 126.059 126.975  1.00  0.00     0.015 C 
ATOM      9  C   UNL     1     116.067 125.809 128.437  1.00  0.00     0.010 C 
ATOM     10  C   UNL     1     116.536 124.715 126.222  1.00  0.00     0.010 C 
ENDBRANCH   5   8
BRANCH   5  11
ATOM     11  O   UNL     1     118.463 126.894 128.101  1.00  0.00    -0.389 OA
ATOM     12  H   UNL     1     119.438 126.850 127.913  1.00  0.00     0.211 HD
ENDBRANCH   5  11
TORSDOF 2
ENDMDL
MODEL 7
REMARK VINA RESULT:    -4.613     14.547     16.036
REMARK INTER + INTRA:          -5.154
REMARK INTER:                  -4.999
REMARK INTRA:                  -0.155
REMARK UNBOUND:                -0.136
REMARK SMILES CC1=CC[C@](O)(C(C)C)CC1
REMARK SMILES IDX 1 1 2 2 3 3 4 4 5 5 10 6 11 7 7 8 8 9 9 10 6 11
REMARK H PARENT 6 12
REMARK Flexibility Score: inf
ROOT
ATOM      1  C   UNL     1     112.062 116.439 129.057  1.00  0.00     0.039 C 
ATOM      2  C   UNL     1     111.987 116.877 127.620  1.00  0.00    -0.077 C 
ATOM      3  C   UNL     1     111.497 118.102 127.333  1.00  0.00    -0.025 C 
ATOM      4  C   UNL     1     111.335 118.611 125.921  1.00  0.00     0.062 C 
ATOM      5  C   UNL     1     112.303 117.922 124.927  1.00  0.00     0.071 C 
ATOM      6  C   UNL     1     112.169 116.390 125.130  1.00  0.00     0.040 C 
ATOM      7  C   UNL     1     112.582 115.982 126.551  1.00  0.00     0.033 C 
ENDROOT
BRANCH   5   8
ATOM      8  C   UNL     1     112.021 118.329 123.433  1.00  0.00     0.015 C 
ATOM      9  C   UNL     1     110.940 119.419 123.318  1.00  0.00     0.010 C 
ATOM     10  C   UNL     1     111.667 117.156 122.497  1.00  0.00     0.010 C 
ENDBRANCH   5   8
BRANCH   5  11
ATOM     11  O   UNL     1     113.615 118.320 125.265  1.00  0.00    -0.389 OA
ATOM     12  H   UNL     1     114.212 118.082 124.507  1.00  0.00     0.211 HD
ENDBRANCH   5  11
TORSDOF 2
ENDMDL
MODEL 8
REMARK VINA RESULT:    -4.531     14.383     16.171
REMARK INTER + INTRA:          -5.064
REMARK INTER:                  -4.949
REMARK INTRA:                  -0.115
REMARK UNBOUND:                -0.136
REMARK SMILES CC1=CC[C@](O)(C(C)C)CC1
REMARK SMILES IDX 1 1 2 2 3 3 4 4 5 5 10 6 11 7 7 8 8 9 9 10 6 11
REMARK H PARENT 6 12
REMARK Flexibility Score: inf
ROOT
ATOM      1  C   UNL     1     111.992 116.803 122.480  1.00  0.00     0.039 C 
ATOM      2  C   UNL     1     112.014 117.000 123.971  1.00  0.00    -0.077 C 
ATOM      3  C   UNL     1     112.358 115.963 124.764  1.00  0.00    -0.025 C 
ATOM      4  C   UNL     1     112.360 116.047 126.271  1.00  0.00     0.062 C 
ATOM      5  C   UNL     1     112.546 117.497 126.784  1.00  0.00     0.071 C 
ATOM      6  C   UNL     1     111.518 118.390 126.042  1.00  0.00     0.040 C 
ATOM      7  C   UNL     1     111.774 118.389 124.528  1.00  0.00     0.033 C 
ENDROOT
BRANCH   5   8
ATOM      8  C   UNL     1     112.381 117.608 128.345  1.00  0.00     0.015 C 
ATOM      9  C   UNL     1     113.639 118.176 129.026  1.00  0.00     0.010 C 
ATOM     10  C   UNL     1     111.964 116.301 129.048  1.00  0.00     0.010 C 
ENDBRANCH   5   8
BRANCH   5  11
ATOM     11  O   UNL     1     113.851 117.908 126.436  1.00  0.00    -0.389 OA
ATOM     12  H   UNL     1     114.239 118.390 127.214  1.00  0.00     0.211 HD
ENDBRANCH   5  11
TORSDOF 2
ENDMDL
MODEL 9
REMARK VINA RESULT:    -4.481     15.505     17.075
REMARK INTER + INTRA:          -5.010
REMARK INTER:                  -4.898
REMARK INTRA:                  -0.112
REMARK UNBOUND:                -0.136
REMARK SMILES CC1=CC[C@](O)(C(C)C)CC1
REMARK SMILES IDX 1 1 2 2 3 3 4 4 5 5 10 6 11 7 7 8 8 9 9 10 6 11
REMARK H PARENT 6 12
REMARK Flexibility Score: inf
ROOT
ATOM      1  C   UNL     1     112.423 117.150 131.125  1.00  0.00     0.039 C 
ATOM      2  C   UNL     1     112.511 117.190 129.623  1.00  0.00    -0.077 C 
ATOM      3  C   UNL     1     111.864 116.250 128.903  1.00  0.00    -0.025 C 
ATOM      4  C   UNL     1     111.934 116.177 127.397  1.00  0.00     0.062 C 
ATOM      5  C   UNL     1     112.257 117.547 126.751  1.00  0.00     0.071 C 
ATOM      6  C   UNL     1     113.502 118.123 127.475  1.00  0.00     0.040 C 
ATOM      7  C   UNL     1     113.217 118.359 128.965  1.00  0.00     0.033 C 
ENDROOT
BRANCH   5   8
ATOM      8  C   UNL     1     112.494 117.440 125.199  1.00  0.00     0.015 C 
ATOM      9  C   UNL     1     111.697 118.495 124.412  1.00  0.00     0.010 C 
ATOM     10  C   UNL     1     112.231 116.045 124.598  1.00  0.00     0.010 C 
ENDBRANCH   5   8
BRANCH   5  11
ATOM     11  O   UNL     1     111.154 118.398 126.982  1.00  0.00    -0.389 OA
ATOM     12  H   UNL     1     111.499 119.256 127.347  1.00  0.00     0.211 HD
ENDBRANCH   5  11
TORSDOF 2
ENDMDL
