MODEL 1
REMARK VINA RESULT:    -4.135      0.000      0.000
REMARK INTER + INTRA:          -9.988
REMARK INTER:                  -7.760
REMARK INTRA:                  -2.228
REMARK UNBOUND:                -2.228
REMARK SMILES O=C([O-])CCCCCCCCCCCCCCC(=O)[O-]
REMARK SMILES IDX 10 1 9 2 8 3 7 4 6 5 5 6 4 7 2 8 1 9 3 10 11 11 12 12 13 13
REMARK SMILES IDX 14 14 15 15 16 16 17 17 18 18 19 19 20 20
REMARK H PARENT
REMARK Flexibility Score: inf
ROOT
ATOM      1  C   UNL     1      28.111   3.561  10.598  1.00  0.00     0.000 C 
ENDROOT
BRANCH   1   2
ATOM      2  C   UNL     1      28.687   2.985   9.293  1.00  0.00     0.000 C 
BRANCH   2   3
ATOM      3  C   UNL     1      28.656   1.448   9.261  1.00  0.00     0.000 C 
BRANCH   3   4
ATOM      4  C   UNL     1      28.584   0.887   7.831  1.00  0.00     0.000 C 
BRANCH   4   5
ATOM      5  C   UNL     1      28.285   1.969   6.783  1.00  0.00     0.000 C 
BRANCH   5   6
ATOM      6  C   UNL     1      27.146   1.529   5.850  1.00  0.00     0.006 C 
BRANCH   6   7
ATOM      7  C   UNL     1      26.086   0.697   6.583  1.00  0.00     0.053 C 
BRANCH   7   8
ATOM      8  C   UNL     1      24.699   1.051   6.141  1.00  0.00     0.041 C 
ATOM      9  O   UNL     1      24.507   1.582   5.015  1.00  0.00    -0.550 OA
ATOM     10  O   UNL     1      23.614   0.759   6.958  1.00  0.00    -0.550 OA
ENDBRANCH   7   8
ENDBRANCH   6   7
ENDBRANCH   5   6
ENDBRANCH   4   5
ENDBRANCH   3   4
ENDBRANCH   2   3
ENDBRANCH   1   2
BRANCH   1  11
ATOM     11  C   UNL     1      27.052   4.649  10.345  1.00  0.00     0.000 C 
BRANCH  11  12
ATOM     12  C   UNL     1      25.616   4.117  10.481  1.00  0.00     0.000 C 
BRANCH  12  13
ATOM     13  C   UNL     1      25.164   3.305   9.254  1.00  0.00     0.000 C 
BRANCH  13  14
ATOM     14  C   UNL     1      24.563   4.203   8.151  1.00  0.00     0.000 C 
BRANCH  14  15
ATOM     15  C   UNL     1      25.555   4.544   7.027  1.00  0.00     0.000 C 
BRANCH  15  16
ATOM     16  C   UNL     1      25.706   6.055   6.803  1.00  0.00     0.006 C 
BRANCH  16  17
ATOM     17  C   UNL     1      25.180   6.846   8.004  1.00  0.00     0.053 C 
BRANCH  17  18
ATOM     18  C   UNL     1      26.087   7.994   8.313  1.00  0.00     0.041 C 
ATOM     19  O   UNL     1      27.215   8.079   7.758  1.00  0.00    -0.550 OA
ATOM     20  O   UNL     1      25.666   9.002   9.171  1.00  0.00    -0.550 OA
ENDBRANCH  17  18
ENDBRANCH  16  17
ENDBRANCH  15  16
ENDBRANCH  14  15
ENDBRANCH  13  14
ENDBRANCH  12  13
ENDBRANCH  11  12
ENDBRANCH   1  11
TORSDOF 15
ENDMDL
MODEL 2
REMARK VINA RESULT:    -3.982      1.882      4.777
REMARK INTER + INTRA:          -9.702
REMARK INTER:                  -7.417
REMARK INTRA:                  -2.285
REMARK UNBOUND:                -2.228
REMARK SMILES O=C([O-])CCCCCCCCCCCCCCC(=O)[O-]
REMARK SMILES IDX 10 1 9 2 8 3 7 4 6 5 5 6 4 7 2 8 1 9 3 10 11 11 12 12 13 13
REMARK SMILES IDX 14 14 15 15 16 16 17 17 18 18 19 19 20 20
REMARK H PARENT
REMARK Flexibility Score: inf
ROOT
ATOM      1  C   UNL     1      28.376   2.676   7.371  1.00  0.00     0.000 C 
ENDROOT
BRANCH   1   2
ATOM      2  C   UNL     1      27.811   2.138   8.696  1.00  0.00     0.000 C 
BRANCH   2   3
ATOM      3  C   UNL     1      28.672   2.534   9.908  1.00  0.00     0.000 C 
BRANCH   3   4
ATOM      4  C   UNL     1      28.188   3.829  10.580  1.00  0.00     0.000 C 
BRANCH   4   5
ATOM      5  C   UNL     1      26.716   4.143  10.275  1.00  0.00     0.000 C 
BRANCH   5   6
ATOM      6  C   UNL     1      26.526   5.636   9.966  1.00  0.00     0.006 C 
BRANCH   6   7
ATOM      7  C   UNL     1      26.932   5.987   8.530  1.00  0.00     0.053 C 
BRANCH   7   8
ATOM      8  C   UNL     1      26.622   7.414   8.197  1.00  0.00     0.041 C 
ATOM      9  O   UNL     1      26.993   7.905   7.098  1.00  0.00    -0.550 OA
ATOM     10  O   UNL     1      25.890   8.191   9.086  1.00  0.00    -0.550 OA
ENDBRANCH   7   8
ENDBRANCH   6   7
ENDBRANCH   5   6
ENDBRANCH   4   5
ENDBRANCH   3   4
ENDBRANCH   2   3
ENDBRANCH   1   2
BRANCH   1  11
ATOM     11  C   UNL     1      27.990   1.799   6.166  1.00  0.00     0.000 C 
BRANCH  11  12
ATOM     12  C   UNL     1      27.365   0.459   6.589  1.00  0.00     0.000 C 
BRANCH  12  13
ATOM     13  C   UNL     1      25.956   0.250   6.007  1.00  0.00     0.000 C 
BRANCH  13  14
ATOM     14  C   UNL     1      25.371   1.551   5.415  1.00  0.00     0.000 C 
BRANCH  14  15
ATOM     15  C   UNL     1      24.287   2.194   6.294  1.00  0.00     0.000 C 
BRANCH  15  16
ATOM     16  C   UNL     1      24.747   3.505   6.947  1.00  0.00     0.006 C 
BRANCH  16  17
ATOM     17  C   UNL     1      23.747   3.974   8.008  1.00  0.00     0.053 C 
BRANCH  17  18
ATOM     18  C   UNL     1      23.243   5.344   7.684  1.00  0.00     0.041 C 
ATOM     19  O   UNL     1      22.786   5.596   6.537  1.00  0.00    -0.550 OA
ATOM     20  O   UNL     1      23.224   6.328   8.663  1.00  0.00    -0.550 OA
ENDBRANCH  17  18
ENDBRANCH  16  17
ENDBRANCH  15  16
ENDBRANCH  14  15
ENDBRANCH  13  14
ENDBRANCH  12  13
ENDBRANCH  11  12
ENDBRANCH   1  11
TORSDOF 15
ENDMDL
MODEL 3
REMARK VINA RESULT:    -3.976      2.407      3.924
REMARK INTER + INTRA:          -9.690
REMARK INTER:                  -7.083
REMARK INTRA:                  -2.608
REMARK UNBOUND:                -2.228
REMARK SMILES O=C([O-])CCCCCCCCCCCCCCC(=O)[O-]
REMARK SMILES IDX 10 1 9 2 8 3 7 4 6 5 5 6 4 7 2 8 1 9 3 10 11 11 12 12 13 13
REMARK SMILES IDX 14 14 15 15 16 16 17 17 18 18 19 19 20 20
REMARK H PARENT
REMARK Flexibility Score: inf
ROOT
ATOM      1  C   UNL     1      27.926   2.248   5.500  1.00  0.00     0.000 C 
ENDROOT
BRANCH   1   2
ATOM      2  C   UNL     1      28.851   2.111   6.721  1.00  0.00     0.000 C 
BRANCH   2   3
ATOM      3  C   UNL     1      28.165   2.536   8.031  1.00  0.00     0.000 C 
BRANCH   3   4
ATOM      4  C   UNL     1      27.830   1.341   8.938  1.00  0.00     0.000 C 
BRANCH   4   5
ATOM      5  C   UNL     1      28.941   0.282   8.960  1.00  0.00     0.000 C 
BRANCH   5   6
ATOM      6  C   UNL     1      28.373  -1.115   8.663  1.00  0.00     0.006 C 
BRANCH   6   7
ATOM      7  C   UNL     1      28.715  -1.590   7.245  1.00  0.00     0.053 C 
BRANCH   7   8
ATOM      8  C   UNL     1      27.831  -2.718   6.809  1.00  0.00     0.041 C 
ATOM      9  O   UNL     1      26.711  -2.896   7.358  1.00  0.00    -0.550 OA
ATOM     10  O   UNL     1      28.227  -3.549   5.768  1.00  0.00    -0.550 OA
ENDBRANCH   7   8
ENDBRANCH   6   7
ENDBRANCH   5   6
ENDBRANCH   4   5
ENDBRANCH   3   4
ENDBRANCH   2   3
ENDBRANCH   1   2
BRANCH   1  11
ATOM     11  C   UNL     1      27.322   0.901   5.063  1.00  0.00     0.000 C 
BRANCH  11  12
ATOM     12  C   UNL     1      25.791   0.870   5.197  1.00  0.00     0.000 C 
BRANCH  12  13
ATOM     13  C   UNL     1      25.325   0.389   6.583  1.00  0.00     0.000 C 
BRANCH  13  14
ATOM     14  C   UNL     1      24.419   1.424   7.284  1.00  0.00     0.000 C 
BRANCH  14  15
ATOM     15  C   UNL     1      24.355   2.778   6.557  1.00  0.00     0.000 C 
BRANCH  15  16
ATOM     16  C   UNL     1      24.597   3.970   7.492  1.00  0.00     0.006 C 
BRANCH  16  17
ATOM     17  C   UNL     1      25.657   4.915   6.918  1.00  0.00     0.053 C 
BRANCH  17  18
ATOM     18  C   UNL     1      25.983   5.995   7.900  1.00  0.00     0.041 C 
ATOM     19  O   UNL     1      27.147   6.091   8.373  1.00  0.00    -0.550 OA
ATOM     20  O   UNL     1      25.019   6.931   8.250  1.00  0.00    -0.550 OA
ENDBRANCH  17  18
ENDBRANCH  16  17
ENDBRANCH  15  16
ENDBRANCH  14  15
ENDBRANCH  13  14
ENDBRANCH  12  13
ENDBRANCH  11  12
ENDBRANCH   1  11
TORSDOF 15
ENDMDL
MODEL 4
REMARK VINA RESULT:    -3.975      1.533      2.104
REMARK INTER + INTRA:          -9.689
REMARK INTER:                  -7.348
REMARK INTRA:                  -2.340
REMARK UNBOUND:                -2.228
REMARK SMILES O=C([O-])CCCCCCCCCCCCCCC(=O)[O-]
REMARK SMILES IDX 10 1 9 2 8 3 7 4 6 5 5 6 4 7 2 8 1 9 3 10 11 11 12 12 13 13
REMARK SMILES IDX 14 14 15 15 16 16 17 17 18 18 19 19 20 20
REMARK H PARENT
REMARK Flexibility Score: inf
ROOT
ATOM      1  C   UNL     1      27.936   3.752  10.035  1.00  0.00     0.000 C 
ENDROOT
BRANCH   1   2
ATOM      2  C   UNL     1      28.392   3.949   8.579  1.00  0.00     0.000 C 
BRANCH   2   3
ATOM      3  C   UNL     1      28.317   2.652   7.757  1.00  0.00     0.000 C 
BRANCH   3   4
ATOM      4  C   UNL     1      27.300   1.649   8.326  1.00  0.00     0.000 C 
BRANCH   4   5
ATOM      5  C   UNL     1      25.880   1.871   7.786  1.00  0.00     0.000 C 
BRANCH   5   6
ATOM      6  C   UNL     1      25.919   2.420   6.351  1.00  0.00     0.006 C 
BRANCH   6   7
ATOM      7  C   UNL     1      25.304   1.444   5.340  1.00  0.00     0.053 C 
BRANCH   7   8
ATOM      8  C   UNL     1      26.330   0.511   4.774  1.00  0.00     0.041 C 
ATOM      9  O   UNL     1      26.490  -0.635   5.271  1.00  0.00    -0.550 OA
ATOM     10  O   UNL     1      27.085   0.895   3.672  1.00  0.00    -0.550 OA
ENDBRANCH   7   8
ENDBRANCH   6   7
ENDBRANCH   5   6
ENDBRANCH   4   5
ENDBRANCH   3   4
ENDBRANCH   2   3
ENDBRANCH   1   2
BRANCH   1  11
ATOM     11  C   UNL     1      26.935   4.830  10.490  1.00  0.00     0.000 C 
BRANCH  11  12
ATOM     12  C   UNL     1      25.490   4.308  10.539  1.00  0.00     0.000 C 
BRANCH  12  13
ATOM     13  C   UNL     1      24.455   5.434  10.716  1.00  0.00     0.000 C 
BRANCH  13  14
ATOM     14  C   UNL     1      23.391   5.427   9.598  1.00  0.00     0.000 C 
BRANCH  14  15
ATOM     15  C   UNL     1      23.901   4.851   8.266  1.00  0.00     0.000 C 
BRANCH  15  16
ATOM     16  C   UNL     1      24.314   5.939   7.265  1.00  0.00     0.006 C 
BRANCH  16  17
ATOM     17  C   UNL     1      25.833   6.131   7.254  1.00  0.00     0.053 C 
BRANCH  17  18
ATOM     18  C   UNL     1      26.195   7.480   7.786  1.00  0.00     0.041 C 
ATOM     19  O   UNL     1      25.390   8.107   8.525  1.00  0.00    -0.550 OA
ATOM     20  O   UNL     1      27.443   8.024   7.512  1.00  0.00    -0.550 OA
ENDBRANCH  17  18
ENDBRANCH  16  17
ENDBRANCH  15  16
ENDBRANCH  14  15
ENDBRANCH  13  14
ENDBRANCH  12  13
ENDBRANCH  11  12
ENDBRANCH   1  11
TORSDOF 15
ENDMDL
MODEL 5
REMARK VINA RESULT:    -3.969      1.664      3.260
REMARK INTER + INTRA:          -9.677
REMARK INTER:                  -7.523
REMARK INTRA:                  -2.154
REMARK UNBOUND:                -2.228
REMARK SMILES O=C([O-])CCCCCCCCCCCCCCC(=O)[O-]
REMARK SMILES IDX 10 1 9 2 8 3 7 4 6 5 5 6 4 7 2 8 1 9 3 10 11 11 12 12 13 13
REMARK SMILES IDX 14 14 15 15 16 16 17 17 18 18 19 19 20 20
REMARK H PARENT
REMARK Flexibility Score: inf
ROOT
ATOM      1  C   UNL     1      28.755  -0.084   7.895  1.00  0.00     0.000 C 
ENDROOT
BRANCH   1   2
ATOM      2  C   UNL     1      27.829  -0.199   6.673  1.00  0.00     0.000 C 
BRANCH   2   3
ATOM      3  C   UNL     1      26.417  -0.683   7.045  1.00  0.00     0.000 C 
BRANCH   3   4
ATOM      4  C   UNL     1      25.315   0.252   6.523  1.00  0.00     0.000 C 
BRANCH   4   5
ATOM      5  C   UNL     1      25.869   1.568   5.959  1.00  0.00     0.000 C 
BRANCH   5   6
ATOM      6  C   UNL     1      25.252   2.777   6.679  1.00  0.00     0.006 C 
BRANCH   6   7
ATOM      7  C   UNL     1      24.822   2.441   8.112  1.00  0.00     0.053 C 
BRANCH   7   8
ATOM      8  C   UNL     1      23.573   3.170   8.503  1.00  0.00     0.041 C 
ATOM      9  O   UNL     1      23.438   4.392   8.226  1.00  0.00    -0.550 OA
ATOM     10  O   UNL     1      22.543   2.491   9.142  1.00  0.00    -0.550 OA
ENDBRANCH   7   8
ENDBRANCH   6   7
ENDBRANCH   5   6
ENDBRANCH   4   5
ENDBRANCH   3   4
ENDBRANCH   2   3
ENDBRANCH   1   2
BRANCH   1  11
ATOM     11  C   UNL     1      28.476   1.180   8.730  1.00  0.00     0.000 C 
BRANCH  11  12
ATOM     12  C   UNL     1      28.702   2.474   7.932  1.00  0.00     0.000 C 
BRANCH  12  13
ATOM     13  C   UNL     1      28.786   3.720   8.832  1.00  0.00     0.000 C 
BRANCH  13  14
ATOM     14  C   UNL     1      27.985   3.549  10.140  1.00  0.00     0.000 C 
BRANCH  14  15
ATOM     15  C   UNL     1      26.872   4.595  10.322  1.00  0.00     0.000 C 
BRANCH  15  16
ATOM     16  C   UNL     1      26.816   5.612   9.174  1.00  0.00     0.006 C 
BRANCH  16  17
ATOM     17  C   UNL     1      25.741   6.673   9.430  1.00  0.00     0.053 C 
BRANCH  17  18
ATOM     18  C   UNL     1      26.049   7.924   8.670  1.00  0.00     0.041 C 
ATOM     19  O   UNL     1      27.026   7.959   7.875  1.00  0.00    -0.550 OA
ATOM     20  O   UNL     1      25.225   9.035   8.796  1.00  0.00    -0.550 OA
ENDBRANCH  17  18
ENDBRANCH  16  17
ENDBRANCH  15  16
ENDBRANCH  14  15
ENDBRANCH  13  14
ENDBRANCH  12  13
ENDBRANCH  11  12
ENDBRANCH   1  11
TORSDOF 15
ENDMDL
MODEL 6
REMARK VINA RESULT:    -3.964      1.511      5.679
REMARK INTER + INTRA:          -9.667
REMARK INTER:                  -7.766
REMARK INTRA:                  -1.901
REMARK UNBOUND:                -2.228
REMARK SMILES O=C([O-])CCCCCCCCCCCCCCC(=O)[O-]
REMARK SMILES IDX 10 1 9 2 8 3 7 4 6 5 5 6 4 7 2 8 1 9 3 10 11 11 12 12 13 13
REMARK SMILES IDX 14 14 15 15 16 16 17 17 18 18 19 19 20 20
REMARK H PARENT
REMARK Flexibility Score: inf
ROOT
ATOM      1  C   UNL     1      27.953   1.312   8.987  1.00  0.00     0.000 C 
ENDROOT
BRANCH   1   2
ATOM      2  C   UNL     1      28.444   2.464   8.095  1.00  0.00     0.000 C 
BRANCH   2   3
ATOM      3  C   UNL     1      28.697   3.758   8.887  1.00  0.00     0.000 C 
BRANCH   3   4
ATOM      4  C   UNL     1      27.557   4.779   8.732  1.00  0.00     0.000 C 
BRANCH   4   5
ATOM      5  C   UNL     1      26.860   5.098  10.062  1.00  0.00     0.000 C 
BRANCH   5   6
ATOM      6  C   UNL     1      25.559   5.881   9.825  1.00  0.00     0.006 C 
BRANCH   6   7
ATOM      7  C   UNL     1      25.522   6.536   8.439  1.00  0.00     0.053 C 
BRANCH   7   8
ATOM      8  C   UNL     1      26.084   7.925   8.465  1.00  0.00     0.041 C 
ATOM      9  O   UNL     1      25.531   8.821   9.156  1.00  0.00    -0.550 OA
ATOM     10  O   UNL     1      27.241   8.219   7.755  1.00  0.00    -0.550 OA
ENDBRANCH   7   8
ENDBRANCH   6   7
ENDBRANCH   5   6
ENDBRANCH   4   5
ENDBRANCH   3   4
ENDBRANCH   2   3
ENDBRANCH   1   2
BRANCH   1  11
ATOM     11  C   UNL     1      28.816   0.046   8.844  1.00  0.00     0.000 C 
BRANCH  11  12
ATOM     12  C   UNL     1      28.962  -0.406   7.382  1.00  0.00     0.000 C 
BRANCH  12  13
ATOM     13  C   UNL     1      27.953  -1.502   6.994  1.00  0.00     0.000 C 
BRANCH  13  14
ATOM     14  C   UNL     1      26.798  -0.950   6.130  1.00  0.00     0.000 C 
BRANCH  14  15
ATOM     15  C   UNL     1      27.131   0.381   5.436  1.00  0.00     0.000 C 
BRANCH  15  16
ATOM     16  C   UNL     1      25.947   1.357   5.420  1.00  0.00     0.006 C 
BRANCH  16  17
ATOM     17  C   UNL     1      25.087   1.203   6.678  1.00  0.00     0.053 C 
BRANCH  17  18
ATOM     18  C   UNL     1      24.872   2.531   7.332  1.00  0.00     0.041 C 
ATOM     19  O   UNL     1      24.953   3.591   6.656  1.00  0.00    -0.550 OA
ATOM     20  O   UNL     1      24.527   2.596   8.676  1.00  0.00    -0.550 OA
ENDBRANCH  17  18
ENDBRANCH  16  17
ENDBRANCH  15  16
ENDBRANCH  14  15
ENDBRANCH  13  14
ENDBRANCH  12  13
ENDBRANCH  11  12
ENDBRANCH   1  11
TORSDOF 15
ENDMDL
MODEL 7
REMARK VINA RESULT:    -3.962      1.974      4.036
REMARK INTER + INTRA:          -9.663
REMARK INTER:                  -7.212
REMARK INTRA:                  -2.451
REMARK UNBOUND:                -2.228
REMARK SMILES O=C([O-])CCCCCCCCCCCCCCC(=O)[O-]
REMARK SMILES IDX 10 1 9 2 8 3 7 4 6 5 5 6 4 7 2 8 1 9 3 10 11 11 12 12 13 13
REMARK SMILES IDX 14 14 15 15 16 16 17 17 18 18 19 19 20 20
REMARK H PARENT
REMARK Flexibility Score: inf
ROOT
ATOM      1  C   UNL     1      28.477   2.210   7.059  1.00  0.00     0.000 C 
ENDROOT
BRANCH   1   2
ATOM      2  C   UNL     1      27.147   2.556   6.368  1.00  0.00     0.000 C 
BRANCH   2   3
ATOM      3  C   UNL     1      25.934   1.930   7.077  1.00  0.00     0.000 C 
BRANCH   3   4
ATOM      4  C   UNL     1      24.968   2.986   7.640  1.00  0.00     0.000 C 
BRANCH   4   5
ATOM      5  C   UNL     1      24.249   2.515   8.912  1.00  0.00     0.000 C 
BRANCH   5   6
ATOM      6  C   UNL     1      22.881   3.201   9.054  1.00  0.00     0.006 C 
BRANCH   6   7
ATOM      7  C   UNL     1      23.002   4.729   9.114  1.00  0.00     0.053 C 
BRANCH   7   8
ATOM      8  C   UNL     1      22.121   5.397   8.103  1.00  0.00     0.041 C 
ATOM      9  O   UNL     1      21.235   6.212   8.473  1.00  0.00    -0.550 OA
ATOM     10  O   UNL     1      22.304   5.146   6.749  1.00  0.00    -0.550 OA
ENDBRANCH   7   8
ENDBRANCH   6   7
ENDBRANCH   5   6
ENDBRANCH   4   5
ENDBRANCH   3   4
ENDBRANCH   2   3
ENDBRANCH   1   2
BRANCH   1  11
ATOM     11  C   UNL     1      28.292   1.248   8.247  1.00  0.00     0.000 C 
BRANCH  11  12
ATOM     12  C   UNL     1      28.796   1.844   9.571  1.00  0.00     0.000 C 
BRANCH  12  13
ATOM     13  C   UNL     1      28.615   3.372   9.644  1.00  0.00     0.000 C 
BRANCH  13  14
ATOM     14  C   UNL     1      27.490   3.778  10.620  1.00  0.00     0.000 C 
BRANCH  14  15
ATOM     15  C   UNL     1      26.737   5.050  10.196  1.00  0.00     0.000 C 
BRANCH  15  16
ATOM     16  C   UNL     1      27.160   5.560   8.812  1.00  0.00     0.006 C 
BRANCH  16  17
ATOM     17  C   UNL     1      26.083   6.465   8.205  1.00  0.00     0.053 C 
BRANCH  17  18
ATOM     18  C   UNL     1      26.587   7.868   8.082  1.00  0.00     0.041 C 
ATOM     19  O   UNL     1      26.017   8.803   8.704  1.00  0.00    -0.550 OA
ATOM     20  O   UNL     1      27.719   8.136   7.324  1.00  0.00    -0.550 OA
ENDBRANCH  17  18
ENDBRANCH  16  17
ENDBRANCH  15  16
ENDBRANCH  14  15
ENDBRANCH  13  14
ENDBRANCH  12  13
ENDBRANCH  11  12
ENDBRANCH   1  11
TORSDOF 15
ENDMDL
MODEL 8
REMARK VINA RESULT:    -3.877      1.827      6.618
REMARK INTER + INTRA:          -9.504
REMARK INTER:                  -7.489
REMARK INTRA:                  -2.014
REMARK UNBOUND:                -2.228
REMARK SMILES O=C([O-])CCCCCCCCCCCCCCC(=O)[O-]
REMARK SMILES IDX 10 1 9 2 8 3 7 4 6 5 5 6 4 7 2 8 1 9 3 10 11 11 12 12 13 13
REMARK SMILES IDX 14 14 15 15 16 16 17 17 18 18 19 19 20 20
REMARK H PARENT
REMARK Flexibility Score: inf
ROOT
ATOM      1  C   UNL     1      25.948   2.244   7.006  1.00  0.00     0.000 C 
ENDROOT
BRANCH   1   2
ATOM      2  C   UNL     1      25.547   2.259   8.490  1.00  0.00     0.000 C 
BRANCH   2   3
ATOM      3  C   UNL     1      24.380   3.219   8.777  1.00  0.00     0.000 C 
BRANCH   3   4
ATOM      4  C   UNL     1      24.684   4.191   9.929  1.00  0.00     0.000 C 
BRANCH   4   5
ATOM      5  C   UNL     1      26.159   4.168  10.353  1.00  0.00     0.000 C 
BRANCH   5   6
ATOM      6  C   UNL     1      26.921   5.361   9.754  1.00  0.00     0.006 C 
BRANCH   6   7
ATOM      7  C   UNL     1      25.975   6.455   9.244  1.00  0.00     0.053 C 
BRANCH   7   8
ATOM      8  C   UNL     1      26.231   6.785   7.806  1.00  0.00     0.041 C 
ATOM      9  O   UNL     1      25.779   6.044   6.893  1.00  0.00    -0.550 OA
ATOM     10  O   UNL     1      26.939   7.934   7.472  1.00  0.00    -0.550 OA
ENDBRANCH   7   8
ENDBRANCH   6   7
ENDBRANCH   5   6
ENDBRANCH   4   5
ENDBRANCH   3   4
ENDBRANCH   2   3
ENDBRANCH   1   2
BRANCH   1  11
ATOM     11  C   UNL     1      27.323   2.893   6.760  1.00  0.00     0.000 C 
BRANCH  11  12
ATOM     12  C   UNL     1      28.361   2.494   7.821  1.00  0.00     0.000 C 
BRANCH  12  13
ATOM     13  C   UNL     1      28.787   1.018   7.712  1.00  0.00     0.000 C 
BRANCH  13  14
ATOM     14  C   UNL     1      28.624   0.265   9.049  1.00  0.00     0.000 C 
BRANCH  14  15
ATOM     15  C   UNL     1      28.326  -1.234   8.879  1.00  0.00     0.000 C 
BRANCH  15  16
ATOM     16  C   UNL     1      28.529  -1.723   7.438  1.00  0.00     0.006 C 
BRANCH  16  17
ATOM     17  C   UNL     1      27.260  -2.387   6.897  1.00  0.00     0.053 C 
BRANCH  17  18
ATOM     18  C   UNL     1      26.334  -1.361   6.325  1.00  0.00     0.041 C 
ATOM     19  O   UNL     1      26.695  -0.660   5.342  1.00  0.00    -0.550 OA
ATOM     20  O   UNL     1      25.053  -1.217   6.840  1.00  0.00    -0.550 OA
ENDBRANCH  17  18
ENDBRANCH  16  17
ENDBRANCH  15  16
ENDBRANCH  14  15
ENDBRANCH  13  14
ENDBRANCH  12  13
ENDBRANCH  11  12
ENDBRANCH   1  11
TORSDOF 15
ENDMDL
MODEL 9
REMARK VINA RESULT:    -3.867      2.279      4.006
REMARK INTER + INTRA:          -9.486
REMARK INTER:                  -7.241
REMARK INTRA:                  -2.244
REMARK UNBOUND:                -2.228
REMARK SMILES O=C([O-])CCCCCCCCCCCCCCC(=O)[O-]
REMARK SMILES IDX 10 1 9 2 8 3 7 4 6 5 5 6 4 7 2 8 1 9 3 10 11 11 12 12 13 13
REMARK SMILES IDX 14 14 15 15 16 16 17 17 18 18 19 19 20 20
REMARK H PARENT
REMARK Flexibility Score: inf
ROOT
ATOM      1  C   UNL     1      28.363  -2.418   8.646  1.00  0.00     0.000 C 
ENDROOT
BRANCH   1   2
ATOM      2  C   UNL     1      28.706  -2.168   7.168  1.00  0.00     0.000 C 
BRANCH   2   3
ATOM      3  C   UNL     1      27.476  -2.271   6.250  1.00  0.00     0.000 C 
BRANCH   3   4
ATOM      4  C   UNL     1      26.882  -0.897   5.901  1.00  0.00     0.000 C 
BRANCH   4   5
ATOM      5  C   UNL     1      25.631  -0.563   6.726  1.00  0.00     0.000 C 
BRANCH   5   6
ATOM      6  C   UNL     1      24.643   0.282   5.907  1.00  0.00     0.006 C 
BRANCH   6   7
ATOM      7  C   UNL     1      25.221   0.691   4.546  1.00  0.00     0.053 C 
BRANCH   7   8
ATOM      8  C   UNL     1      24.409   0.146   3.411  1.00  0.00     0.041 C 
ATOM      9  O   UNL     1      23.503   0.845   2.885  1.00  0.00    -0.550 OA
ATOM     10  O   UNL     1      24.679  -1.122   2.911  1.00  0.00    -0.550 OA
ENDBRANCH   7   8
ENDBRANCH   6   7
ENDBRANCH   5   6
ENDBRANCH   4   5
ENDBRANCH   3   4
ENDBRANCH   2   3
ENDBRANCH   1   2
BRANCH   1  11
ATOM     11  C   UNL     1      28.360  -1.123   9.478  1.00  0.00     0.000 C 
BRANCH  11  12
ATOM     12  C   UNL     1      29.102   0.028   8.780  1.00  0.00     0.000 C 
BRANCH  12  13
ATOM     13  C   UNL     1      28.240   1.296   8.644  1.00  0.00     0.000 C 
BRANCH  13  14
ATOM     14  C   UNL     1      28.637   2.141   7.414  1.00  0.00     0.000 C 
BRANCH  14  15
ATOM     15  C   UNL     1      27.433   2.702   6.639  1.00  0.00     0.000 C 
BRANCH  15  16
ATOM     16  C   UNL     1      26.316   3.212   7.559  1.00  0.00     0.006 C 
BRANCH  16  17
ATOM     17  C   UNL     1      26.214   4.740   7.509  1.00  0.00     0.053 C 
BRANCH  17  18
ATOM     18  C   UNL     1      26.797   5.345   8.746  1.00  0.00     0.041 C 
ATOM     19  O   UNL     1      27.306   4.608   9.633  1.00  0.00    -0.550 OA
ATOM     20  O   UNL     1      26.830   6.725   8.897  1.00  0.00    -0.550 OA
ENDBRANCH  17  18
ENDBRANCH  16  17
ENDBRANCH  15  16
ENDBRANCH  14  15
ENDBRANCH  13  14
ENDBRANCH  12  13
ENDBRANCH  11  12
ENDBRANCH   1  11
TORSDOF 15
ENDMDL
