MODEL 1
REMARK VINA RESULT:    -3.897      0.000      0.000
REMARK INTER + INTRA:          -5.192
REMARK INTER:                  -5.036
REMARK INTRA:                  -0.157
REMARK UNBOUND:                -0.157
REMARK SMILES CCCCCCC(=O)[O-]
REMARK SMILES IDX 5 1 6 2 7 3 8 4 9 5 4 6 3 7 2 8 1 9
REMARK H PARENT
REMARK Flexibility Score: inf
ROOT
ATOM      1  C   UNL     1      32.417   5.876  47.736  1.00  0.00     0.006 C 
ENDROOT
BRANCH   1   2
ATOM      2  C   UNL     1      33.506   6.769  47.127  1.00  0.00     0.053 C 
BRANCH   2   3
ATOM      3  C   UNL     1      34.031   6.208  45.841  1.00  0.00     0.041 C 
ATOM      4  O   UNL     1      34.743   5.169  45.849  1.00  0.00    -0.550 OA
ATOM      5  O   UNL     1      33.707   6.811  44.633  1.00  0.00    -0.550 OA
ENDBRANCH   2   3
ENDBRANCH   1   2
BRANCH   1   6
ATOM      6  C   UNL     1      31.009   6.271  47.263  1.00  0.00     0.000 C 
BRANCH   6   7
ATOM      7  C   UNL     1      30.188   6.860  48.416  1.00  0.00    -0.000 C 
BRANCH   7   8
ATOM      8  C   UNL     1      29.088   5.888  48.859  1.00  0.00    -0.003 C 
ATOM      9  C   UNL     1      28.185   5.508  47.689  1.00  0.00     0.004 C 
ENDBRANCH   7   8
ENDBRANCH   6   7
ENDBRANCH   1   6
TORSDOF 5
ENDMDL
MODEL 2
REMARK VINA RESULT:    -3.794      0.615      1.234
REMARK INTER + INTRA:          -5.060
REMARK INTER:                  -4.918
REMARK INTRA:                  -0.142
REMARK UNBOUND:                -0.157
REMARK SMILES CCCCCCC(=O)[O-]
REMARK SMILES IDX 5 1 6 2 7 3 8 4 9 5 4 6 3 7 2 8 1 9
REMARK H PARENT
REMARK Flexibility Score: inf
ROOT
ATOM      1  C   UNL     1      32.014   6.283  47.132  1.00  0.00     0.006 C 
ENDROOT
BRANCH   1   2
ATOM      2  C   UNL     1      33.541   6.128  47.161  1.00  0.00     0.053 C 
BRANCH   2   3
ATOM      3  C   UNL     1      34.109   5.966  45.784  1.00  0.00     0.041 C 
ATOM      4  O   UNL     1      33.885   6.834  44.901  1.00  0.00    -0.550 OA
ATOM      5  O   UNL     1      34.915   4.874  45.487  1.00  0.00    -0.550 OA
ENDBRANCH   2   3
ENDBRANCH   1   2
BRANCH   1   6
ATOM      6  C   UNL     1      31.452   6.746  48.485  1.00  0.00     0.000 C 
BRANCH   6   7
ATOM      7  C   UNL     1      29.938   6.972  48.401  1.00  0.00    -0.000 C 
BRANCH   7   8
ATOM      8  C   UNL     1      29.176   5.651  48.563  1.00  0.00    -0.003 C 
ATOM      9  C   UNL     1      28.038   5.545  47.551  1.00  0.00     0.004 C 
ENDBRANCH   7   8
ENDBRANCH   6   7
ENDBRANCH   1   6
TORSDOF 5
ENDMDL
MODEL 3
REMARK VINA RESULT:    -3.729      1.084      1.650
REMARK INTER + INTRA:          -4.976
REMARK INTER:                  -4.750
REMARK INTRA:                  -0.226
REMARK UNBOUND:                -0.157
REMARK SMILES CCCCCCC(=O)[O-]
REMARK SMILES IDX 5 1 6 2 7 3 8 4 9 5 4 6 3 7 2 8 1 9
REMARK H PARENT
REMARK Flexibility Score: inf
ROOT
ATOM      1  C   UNL     1      32.374   5.218  47.716  1.00  0.00     0.006 C 
ENDROOT
BRANCH   1   2
ATOM      2  C   UNL     1      33.790   5.799  47.601  1.00  0.00     0.053 C 
BRANCH   2   3
ATOM      3  C   UNL     1      34.431   5.446  46.294  1.00  0.00     0.041 C 
ATOM      4  O   UNL     1      35.228   4.474  46.223  1.00  0.00    -0.550 OA
ATOM      5  O   UNL     1      34.124   6.170  45.149  1.00  0.00    -0.550 OA
ENDBRANCH   2   3
ENDBRANCH   1   2
BRANCH   1   6
ATOM      6  C   UNL     1      31.293   6.236  47.323  1.00  0.00     0.000 C 
BRANCH   6   7
ATOM      7  C   UNL     1      30.053   6.091  48.212  1.00  0.00    -0.000 C 
BRANCH   7   8
ATOM      8  C   UNL     1      29.725   7.413  48.917  1.00  0.00    -0.003 C 
ATOM      9  C   UNL     1      30.843   8.433  48.721  1.00  0.00     0.004 C 
ENDBRANCH   7   8
ENDBRANCH   6   7
ENDBRANCH   1   6
TORSDOF 5
ENDMDL
MODEL 4
REMARK VINA RESULT:    -3.518     15.228     16.565
REMARK INTER + INTRA:          -4.702
REMARK INTER:                  -4.519
REMARK INTRA:                  -0.183
REMARK UNBOUND:                -0.157
REMARK SMILES CCCCCCC(=O)[O-]
REMARK SMILES IDX 5 1 6 2 7 3 8 4 9 5 4 6 3 7 2 8 1 9
REMARK H PARENT
REMARK Flexibility Score: inf
ROOT
ATOM      1  C   UNL     1      20.783   9.507  35.473  1.00  0.00     0.006 C 
ENDROOT
BRANCH   1   2
ATOM      2  C   UNL     1      19.808   8.661  36.303  1.00  0.00     0.053 C 
BRANCH   2   3
ATOM      3  C   UNL     1      19.877   7.211  35.935  1.00  0.00     0.041 C 
ATOM      4  O   UNL     1      20.307   6.865  34.803  1.00  0.00    -0.550 OA
ATOM      5  O   UNL     1      19.497   6.240  36.854  1.00  0.00    -0.550 OA
ENDBRANCH   2   3
ENDBRANCH   1   2
BRANCH   1   6
ATOM      6  C   UNL     1      20.567  11.014  35.679  1.00  0.00     0.000 C 
BRANCH   6   7
ATOM      7  C   UNL     1      21.902  11.768  35.656  1.00  0.00    -0.000 C 
BRANCH   7   8
ATOM      8  C   UNL     1      22.973  10.966  34.905  1.00  0.00    -0.003 C 
ATOM      9  C   UNL     1      24.264  10.881  35.714  1.00  0.00     0.004 C 
ENDBRANCH   7   8
ENDBRANCH   6   7
ENDBRANCH   1   6
TORSDOF 5
ENDMDL
MODEL 5
REMARK VINA RESULT:    -3.505      3.054      5.043
REMARK INTER + INTRA:          -4.686
REMARK INTER:                  -4.473
REMARK INTRA:                  -0.212
REMARK UNBOUND:                -0.157
REMARK SMILES CCCCCCC(=O)[O-]
REMARK SMILES IDX 5 1 6 2 7 3 8 4 9 5 4 6 3 7 2 8 1 9
REMARK H PARENT
REMARK Flexibility Score: inf
ROOT
ATOM      1  C   UNL     1      31.772   6.312  46.812  1.00  0.00     0.006 C 
ENDROOT
BRANCH   1   2
ATOM      2  C   UNL     1      31.103   5.839  48.109  1.00  0.00     0.053 C 
BRANCH   2   3
ATOM      3  C   UNL     1      29.778   6.502  48.327  1.00  0.00     0.041 C 
ATOM      4  O   UNL     1      28.712   5.900  48.031  1.00  0.00    -0.550 OA
ATOM      5  O   UNL     1      29.717   7.772  48.887  1.00  0.00    -0.550 OA
ENDBRANCH   2   3
ENDBRANCH   1   2
BRANCH   1   6
ATOM      6  C   UNL     1      33.270   6.594  46.999  1.00  0.00     0.000 C 
BRANCH   6   7
ATOM      7  C   UNL     1      34.060   6.222  45.738  1.00  0.00    -0.000 C 
BRANCH   7   8
ATOM      8  C   UNL     1      34.901   4.961  45.970  1.00  0.00    -0.003 C 
ATOM      9  C   UNL     1      35.057   4.669  47.460  1.00  0.00     0.004 C 
ENDBRANCH   7   8
ENDBRANCH   6   7
ENDBRANCH   1   6
TORSDOF 5
ENDMDL
MODEL 6
REMARK VINA RESULT:    -3.474     15.835     16.447
REMARK INTER + INTRA:          -4.646
REMARK INTER:                  -4.434
REMARK INTRA:                  -0.212
REMARK UNBOUND:                -0.157
REMARK SMILES CCCCCCC(=O)[O-]
REMARK SMILES IDX 5 1 6 2 7 3 8 4 9 5 4 6 3 7 2 8 1 9
REMARK H PARENT
REMARK Flexibility Score: inf
ROOT
ATOM      1  C   UNL     1      20.790   9.733  35.922  1.00  0.00     0.006 C 
ENDROOT
BRANCH   1   2
ATOM      2  C   UNL     1      21.222  11.159  35.555  1.00  0.00     0.053 C 
BRANCH   2   3
ATOM      3  C   UNL     1      22.475  11.167  34.734  1.00  0.00     0.041 C 
ATOM      4  O   UNL     1      23.568  10.805  35.244  1.00  0.00    -0.550 OA
ATOM      5  O   UNL     1      22.431  11.542  33.397  1.00  0.00    -0.550 OA
ENDBRANCH   2   3
ENDBRANCH   1   2
BRANCH   1   6
ATOM      6  C   UNL     1      20.537   8.865  34.680  1.00  0.00     0.000 C 
BRANCH   6   7
ATOM      7  C   UNL     1      20.512   7.376  35.047  1.00  0.00    -0.000 C 
BRANCH   7   8
ATOM      8  C   UNL     1      19.161   6.985  35.659  1.00  0.00    -0.003 C 
ATOM      9  C   UNL     1      19.349   6.269  36.995  1.00  0.00     0.004 C 
ENDBRANCH   7   8
ENDBRANCH   6   7
ENDBRANCH   1   6
TORSDOF 5
ENDMDL
MODEL 7
REMARK VINA RESULT:    -3.461     16.317     16.760
REMARK INTER + INTRA:          -4.630
REMARK INTER:                  -4.486
REMARK INTRA:                  -0.144
REMARK UNBOUND:                -0.157
REMARK SMILES CCCCCCC(=O)[O-]
REMARK SMILES IDX 5 1 6 2 7 3 8 4 9 5 4 6 3 7 2 8 1 9
REMARK H PARENT
REMARK Flexibility Score: inf
ROOT
ATOM      1  C   UNL     1      21.813  10.149  35.617  1.00  0.00     0.006 C 
ENDROOT
BRANCH   1   2
ATOM      2  C   UNL     1      22.099  11.656  35.579  1.00  0.00     0.053 C 
BRANCH   2   3
ATOM      3  C   UNL     1      21.739  12.257  34.255  1.00  0.00     0.041 C 
ATOM      4  O   UNL     1      21.154  13.371  34.204  1.00  0.00    -0.550 OA
ATOM      5  O   UNL     1      22.080  11.604  33.077  1.00  0.00    -0.550 OA
ENDBRANCH   2   3
ENDBRANCH   1   2
BRANCH   1   6
ATOM      6  C   UNL     1      20.309   9.844  35.695  1.00  0.00     0.000 C 
BRANCH   6   7
ATOM      7  C   UNL     1      20.052   8.333  35.645  1.00  0.00    -0.000 C 
BRANCH   7   8
ATOM      8  C   UNL     1      19.441   7.837  36.961  1.00  0.00    -0.003 C 
ATOM      9  C   UNL     1      19.301   6.317  36.964  1.00  0.00     0.004 C 
ENDBRANCH   7   8
ENDBRANCH   6   7
ENDBRANCH   1   6
TORSDOF 5
ENDMDL
MODEL 8
REMARK VINA RESULT:    -3.452     15.985     16.965
REMARK INTER + INTRA:          -4.618
REMARK INTER:                  -4.374
REMARK INTRA:                  -0.244
REMARK UNBOUND:                -0.157
REMARK SMILES CCCCCCC(=O)[O-]
REMARK SMILES IDX 5 1 6 2 7 3 8 4 9 5 4 6 3 7 2 8 1 9
REMARK H PARENT
REMARK Flexibility Score: inf
ROOT
ATOM      1  C   UNL     1      20.385  10.006  35.709  1.00  0.00     0.006 C 
ENDROOT
BRANCH   1   2
ATOM      2  C   UNL     1      19.871   8.824  34.876  1.00  0.00     0.053 C 
BRANCH   2   3
ATOM      3  C   UNL     1      20.055   7.519  35.588  1.00  0.00     0.041 C 
ATOM      4  O   UNL     1      20.916   6.694  35.185  1.00  0.00    -0.550 OA
ATOM      5  O   UNL     1      19.299   7.229  36.718  1.00  0.00    -0.550 OA
ENDBRANCH   2   3
ENDBRANCH   1   2
BRANCH   1   6
ATOM      6  C   UNL     1      21.916  10.128  35.662  1.00  0.00     0.000 C 
BRANCH   6   7
ATOM      7  C   UNL     1      22.342  11.551  35.284  1.00  0.00    -0.000 C 
BRANCH   7   8
ATOM      8  C   UNL     1      21.217  12.554  35.566  1.00  0.00    -0.003 C 
ATOM      9  C   UNL     1      20.988  13.475  34.371  1.00  0.00     0.004 C 
ENDBRANCH   7   8
ENDBRANCH   6   7
ENDBRANCH   1   6
TORSDOF 5
ENDMDL
MODEL 9
REMARK VINA RESULT:    -3.425     16.120     17.358
REMARK INTER + INTRA:          -4.583
REMARK INTER:                  -4.118
REMARK INTRA:                  -0.465
REMARK UNBOUND:                -0.157
REMARK SMILES CCCCCCC(=O)[O-]
REMARK SMILES IDX 5 1 6 2 7 3 8 4 9 5 4 6 3 7 2 8 1 9
REMARK H PARENT
REMARK Flexibility Score: inf
ROOT
ATOM      1  C   UNL     1      22.413  11.432  35.021  1.00  0.00     0.006 C 
ENDROOT
BRANCH   1   2
ATOM      2  C   UNL     1      22.061  10.090  35.678  1.00  0.00     0.053 C 
BRANCH   2   3
ATOM      3  C   UNL     1      20.688   9.629  35.299  1.00  0.00     0.041 C 
ATOM      4  O   UNL     1      19.830   9.395  36.192  1.00  0.00    -0.550 OA
ATOM      5  O   UNL     1      20.343   9.488  33.961  1.00  0.00    -0.550 OA
ENDBRANCH   2   3
ENDBRANCH   1   2
BRANCH   1   6
ATOM      6  C   UNL     1      21.611  12.599  35.618  1.00  0.00     0.000 C 
BRANCH   6   7
ATOM      7  C   UNL     1      20.831  13.343  34.528  1.00  0.00    -0.000 C 
BRANCH   7   8
ATOM      8  C   UNL     1      19.328  13.058  34.636  1.00  0.00    -0.003 C 
ATOM      9  C   UNL     1      18.888  12.973  36.095  1.00  0.00     0.004 C 
ENDBRANCH   7   8
ENDBRANCH   6   7
ENDBRANCH   1   6
TORSDOF 5
ENDMDL
