MODEL 1
REMARK VINA RESULT:    -4.805      0.000      0.000
REMARK INTER + INTRA:          -6.045
REMARK INTER:                  -5.788
REMARK INTRA:                  -0.257
REMARK UNBOUND:                -0.257
REMARK SMILES O=c1ccn([C@@H]2O[C@H](CO)[C@@H](O)[C@@H]2O)c(=O)[nH]1
REMARK SMILES IDX 6 1 13 2 11 3 8 4 7 5 5 6 3 7 4 8 2 9 17 10 1 11 15 12 16 14
REMARK SMILES IDX 14 15 12 17 9 19 10 20
REMARK H PARENT 17 13 14 16 12 18 10 21
REMARK Flexibility Score: inf
ROOT
ATOM      1  C   UNL     1      27.398  30.001 140.400  1.00  0.00     0.255 C 
ATOM      2  C   UNL     1      28.470  29.538 139.418  1.00  0.00     0.196 C 
ATOM      3  C   UNL     1      29.745  29.949 140.116  1.00  0.00     0.179 C 
ATOM      4  C   UNL     1      29.299  31.096 141.041  1.00  0.00     0.178 C 
ATOM      5  O   UNL     1      27.889  31.107 141.126  1.00  0.00    -0.347 OA
ENDROOT
BRANCH   1   6
ATOM      6  N   UNL     1      26.130  30.331 139.714  1.00  0.00    -0.271 N 
ATOM      7  C   UNL     1      24.720  31.926 138.604  1.00  0.00     0.090 A 
ATOM      8  C   UNL     1      25.898  31.608 139.274  1.00  0.00     0.099 A 
ATOM      9  C   UNL     1      23.790  30.919 138.376  1.00  0.00     0.253 A 
ATOM     10  N   UNL     1      24.045  29.653 138.801  1.00  0.00    -0.274 N 
ATOM     11  O   UNL     1      22.714  31.178 137.773  1.00  0.00    -0.269 OA
ATOM     12  C   UNL     1      25.202  29.352 139.455  1.00  0.00     0.330 A 
ATOM     13  H   UNL     1      23.345  28.899 138.618  1.00  0.00     0.175 HD
ATOM     14  O   UNL     1      25.409  28.160 139.816  1.00  0.00    -0.248 OA
ENDBRANCH   1   6
BRANCH   2  15
ATOM     15  O   UNL     1      28.350  30.217 138.191  1.00  0.00    -0.386 OA
ATOM     16  H   UNL     1      28.817  29.662 137.514  1.00  0.00     0.211 HD
ENDBRANCH   2  15
BRANCH   3  17
ATOM     17  O   UNL     1      30.291  28.880 140.854  1.00  0.00    -0.387 OA
ATOM     18  H   UNL     1      30.488  28.136 140.225  1.00  0.00     0.211 HD
ENDBRANCH   3  17
BRANCH   4  19
ATOM     19  C   UNL     1      29.772  32.463 140.530  1.00  0.00     0.191 C 
BRANCH  19  20
ATOM     20  O   UNL     1      30.399  32.319 139.286  1.00  0.00    -0.394 OA
ATOM     21  H   UNL     1      30.476  33.235 138.910  1.00  0.00     0.210 HD
ENDBRANCH  19  20
ENDBRANCH   4  19
TORSDOF 5
ENDMDL
MODEL 2
REMARK VINA RESULT:    -4.790     12.673     13.927
REMARK INTER + INTRA:          -6.027
REMARK INTER:                  -5.971
REMARK INTRA:                  -0.056
REMARK UNBOUND:                -0.257
REMARK SMILES O=c1ccn([C@@H]2O[C@H](CO)[C@@H](O)[C@@H]2O)c(=O)[nH]1
REMARK SMILES IDX 6 1 13 2 11 3 8 4 7 5 5 6 3 7 4 8 2 9 17 10 1 11 15 12 16 14
REMARK SMILES IDX 14 15 12 17 9 19 10 20
REMARK H PARENT 17 13 14 16 12 18 10 21
REMARK Flexibility Score: inf
ROOT
ATOM      1  C   UNL     1      25.483  43.149 140.736  1.00  0.00     0.255 C 
ATOM      2  C   UNL     1      26.595  43.938 141.420  1.00  0.00     0.196 C 
ATOM      3  C   UNL     1      26.043  44.128 142.814  1.00  0.00     0.179 C 
ATOM      4  C   UNL     1      24.521  44.012 142.621  1.00  0.00     0.178 C 
ATOM      5  O   UNL     1      24.250  43.472 141.344  1.00  0.00    -0.347 OA
ENDROOT
BRANCH   1   6
ATOM      6  N   UNL     1      25.444  43.404 139.279  1.00  0.00    -0.271 N 
ATOM      7  C   UNL     1      24.596  44.644 137.407  1.00  0.00     0.090 A 
ATOM      8  C   UNL     1      24.623  44.377 138.773  1.00  0.00     0.099 A 
ATOM      9  C   UNL     1      25.431  43.916 136.568  1.00  0.00     0.253 A 
ATOM     10  N   UNL     1      26.254  42.969 137.090  1.00  0.00    -0.274 N 
ATOM     11  O   UNL     1      25.426  44.136 135.328  1.00  0.00    -0.269 OA
ATOM     12  C   UNL     1      26.274  42.715 138.429  1.00  0.00     0.330 A 
ATOM     13  H   UNL     1      26.886  42.431 136.454  1.00  0.00     0.175 HD
ATOM     14  O   UNL     1      27.067  41.840 138.875  1.00  0.00    -0.248 OA
ENDBRANCH   1   6
BRANCH   2  15
ATOM     15  O   UNL     1      26.776  45.187 140.798  1.00  0.00    -0.386 OA
ATOM     16  H   UNL     1      25.903  45.432 140.396  1.00  0.00     0.211 HD
ENDBRANCH   2  15
BRANCH   3  17
ATOM     17  O   UNL     1      26.525  43.138 143.693  1.00  0.00    -0.387 OA
ATOM     18  H   UNL     1      27.325  43.498 144.159  1.00  0.00     0.211 HD
ENDBRANCH   3  17
BRANCH   4  19
ATOM     19  C   UNL     1      23.821  45.371 142.739  1.00  0.00     0.191 C 
BRANCH  19  20
ATOM     20  O   UNL     1      23.111  45.443 143.945  1.00  0.00    -0.394 OA
ATOM     21  H   UNL     1      23.313  46.335 144.331  1.00  0.00     0.210 HD
ENDBRANCH  19  20
ENDBRANCH   4  19
TORSDOF 5
ENDMDL
MODEL 3
REMARK VINA RESULT:    -4.663      1.692      5.213
REMARK INTER + INTRA:          -5.874
REMARK INTER:                  -5.815
REMARK INTRA:                  -0.059
REMARK UNBOUND:                -0.257
REMARK SMILES O=c1ccn([C@@H]2O[C@H](CO)[C@@H](O)[C@@H]2O)c(=O)[nH]1
REMARK SMILES IDX 6 1 13 2 11 3 8 4 7 5 5 6 3 7 4 8 2 9 17 10 1 11 15 12 16 14
REMARK SMILES IDX 14 15 12 17 9 19 10 20
REMARK H PARENT 17 13 14 16 12 18 10 21
REMARK Flexibility Score: inf
ROOT
ATOM      1  C   UNL     1      27.175  29.945 139.349  1.00  0.00     0.255 C 
ATOM      2  C   UNL     1      26.228  29.577 140.487  1.00  0.00     0.196 C 
ATOM      3  C   UNL     1      24.946  29.264 139.750  1.00  0.00     0.179 C 
ATOM      4  C   UNL     1      25.083  30.049 138.434  1.00  0.00     0.178 C 
ATOM      5  O   UNL     1      26.421  30.473 138.278  1.00  0.00    -0.347 OA
ENDROOT
BRANCH   1   6
ATOM      6  N   UNL     1      28.220  30.895 139.787  1.00  0.00    -0.271 N 
ATOM      7  C   UNL     1      28.995  33.150 140.066  1.00  0.00     0.090 A 
ATOM      8  C   UNL     1      28.031  32.244 139.633  1.00  0.00     0.099 A 
ATOM      9  C   UNL     1      30.146  32.661 140.672  1.00  0.00     0.253 A 
ATOM     10  N   UNL     1      30.307  31.321 140.836  1.00  0.00    -0.274 N 
ATOM     11  O   UNL     1      31.036  33.458 141.072  1.00  0.00    -0.269 OA
ATOM     12  C   UNL     1      29.357  30.442 140.410  1.00  0.00     0.330 A 
ATOM     13  H   UNL     1      31.171  30.961 141.301  1.00  0.00     0.175 HD
ATOM     14  O   UNL     1      29.537  29.207 140.598  1.00  0.00    -0.248 OA
ENDBRANCH   1   6
BRANCH   2  15
ATOM     15  O   UNL     1      26.035  30.672 141.349  1.00  0.00    -0.386 OA
ATOM     16  H   UNL     1      25.922  31.471 140.771  1.00  0.00     0.211 HD
ENDBRANCH   2  15
BRANCH   3  17
ATOM     17  O   UNL     1      24.820  27.881 139.512  1.00  0.00    -0.387 OA
ATOM     18  H   UNL     1      24.767  27.417 140.388  1.00  0.00     0.211 HD
ENDBRANCH   3  17
BRANCH   4  19
ATOM     19  C   UNL     1      24.169  31.280 138.401  1.00  0.00     0.191 C 
BRANCH  19  20
ATOM     20  O   UNL     1      23.004  30.994 137.678  1.00  0.00    -0.394 OA
ATOM     21  H   UNL     1      22.772  31.827 137.190  1.00  0.00     0.210 HD
ENDBRANCH  19  20
ENDBRANCH   4  19
TORSDOF 5
ENDMDL
MODEL 4
REMARK VINA RESULT:    -4.603      1.644      2.894
REMARK INTER + INTRA:          -5.802
REMARK INTER:                  -5.707
REMARK INTRA:                  -0.095
REMARK UNBOUND:                -0.257
REMARK SMILES O=c1ccn([C@@H]2O[C@H](CO)[C@@H](O)[C@@H]2O)c(=O)[nH]1
REMARK SMILES IDX 6 1 13 2 11 3 8 4 7 5 5 6 3 7 4 8 2 9 17 10 1 11 15 12 16 14
REMARK SMILES IDX 14 15 12 17 9 19 10 20
REMARK H PARENT 17 13 14 16 12 18 10 21
REMARK Flexibility Score: inf
ROOT
ATOM      1  C   UNL     1      28.062  31.732 139.074  1.00  0.00     0.255 C 
ATOM      2  C   UNL     1      28.269  32.189 140.514  1.00  0.00     0.196 C 
ATOM      3  C   UNL     1      29.650  31.660 140.824  1.00  0.00     0.179 C 
ATOM      4  C   UNL     1      29.819  30.488 139.842  1.00  0.00     0.178 C 
ATOM      5  O   UNL     1      28.811  30.555 138.854  1.00  0.00    -0.347 OA
ENDROOT
BRANCH   1   6
ATOM      6  N   UNL     1      26.631  31.521 138.764  1.00  0.00    -0.271 N 
ATOM      7  C   UNL     1      24.711  30.082 138.687  1.00  0.00     0.090 A 
ATOM      8  C   UNL     1      26.062  30.288 138.949  1.00  0.00     0.099 A 
ATOM      9  C   UNL     1      23.946  31.157 138.248  1.00  0.00     0.253 A 
ATOM     10  N   UNL     1      24.522  32.377 138.090  1.00  0.00    -0.274 N 
ATOM     11  O   UNL     1      22.720  30.999 138.001  1.00  0.00    -0.269 OA
ATOM     12  C   UNL     1      25.846  32.569 138.351  1.00  0.00     0.330 A 
ATOM     13  H   UNL     1      23.938  33.183 137.768  1.00  0.00     0.175 HD
ATOM     14  O   UNL     1      26.337  33.723 138.209  1.00  0.00    -0.248 OA
ENDBRANCH   1   6
BRANCH   2  15
ATOM     15  O   UNL     1      27.321  31.596 141.368  1.00  0.00    -0.386 OA
ATOM     16  H   UNL     1      27.677  31.683 142.290  1.00  0.00     0.211 HD
ENDBRANCH   2  15
BRANCH   3  17
ATOM     17  O   UNL     1      30.634  32.648 140.616  1.00  0.00    -0.387 OA
ATOM     18  H   UNL     1      30.345  33.221 139.859  1.00  0.00     0.211 HD
ENDBRANCH   3  17
BRANCH   4  19
ATOM     19  C   UNL     1      29.726  29.129 140.548  1.00  0.00     0.191 C 
BRANCH  19  20
ATOM     20  O   UNL     1      30.460  29.157 141.741  1.00  0.00    -0.394 OA
ATOM     21  H   UNL     1      29.853  28.808 142.445  1.00  0.00     0.210 HD
ENDBRANCH  19  20
ENDBRANCH   4  19
TORSDOF 5
ENDMDL
MODEL 5
REMARK VINA RESULT:    -4.542     12.765     13.935
REMARK INTER + INTRA:          -5.728
REMARK INTER:                  -5.622
REMARK INTRA:                  -0.106
REMARK UNBOUND:                -0.257
REMARK SMILES O=c1ccn([C@@H]2O[C@H](CO)[C@@H](O)[C@@H]2O)c(=O)[nH]1
REMARK SMILES IDX 6 1 13 2 11 3 8 4 7 5 5 6 3 7 4 8 2 9 17 10 1 11 15 12 16 14
REMARK SMILES IDX 14 15 12 17 9 19 10 20
REMARK H PARENT 17 13 14 16 12 18 10 21
REMARK Flexibility Score: inf
ROOT
ATOM      1  C   UNL     1      26.660  44.748 142.487  1.00  0.00     0.255 C 
ATOM      2  C   UNL     1      26.436  43.779 143.644  1.00  0.00     0.196 C 
ATOM      3  C   UNL     1      27.843  43.547 144.146  1.00  0.00     0.179 C 
ATOM      4  C   UNL     1      28.721  43.861 142.922  1.00  0.00     0.178 C 
ATOM      5  O   UNL     1      27.946  44.528 141.947  1.00  0.00    -0.347 OA
ENDROOT
BRANCH   1   6
ATOM      6  N   UNL     1      25.614  44.615 141.449  1.00  0.00    -0.271 N 
ATOM      7  C   UNL     1      24.967  44.031 139.213  1.00  0.00     0.090 A 
ATOM      8  C   UNL     1      25.945  44.185 140.191  1.00  0.00     0.099 A 
ATOM      9  C   UNL     1      23.645  44.307 139.542  1.00  0.00     0.253 A 
ATOM     10  N   UNL     1      23.332  44.713 140.801  1.00  0.00    -0.274 N 
ATOM     11  O   UNL     1      22.739  44.178 138.676  1.00  0.00    -0.269 OA
ATOM     12  C   UNL     1      24.297  44.860 141.752  1.00  0.00     0.330 A 
ATOM     13  H   UNL     1      22.335  44.910 141.044  1.00  0.00     0.175 HD
ATOM     14  O   UNL     1      23.962  45.221 142.914  1.00  0.00    -0.248 OA
ENDBRANCH   1   6
BRANCH   2  15
ATOM     15  O   UNL     1      25.882  42.571 143.183  1.00  0.00    -0.386 OA
ATOM     16  H   UNL     1      25.328  42.797 142.393  1.00  0.00     0.211 HD
ENDBRANCH   2  15
BRANCH   3  17
ATOM     17  O   UNL     1      28.146  44.399 145.226  1.00  0.00    -0.387 OA
ATOM     18  H   UNL     1      28.728  45.132 144.892  1.00  0.00     0.211 HD
ENDBRANCH   3  17
BRANCH   4  19
ATOM     19  C   UNL     1      29.310  42.590 142.296  1.00  0.00     0.191 C 
BRANCH  19  20
ATOM     20  O   UNL     1      28.416  42.058 141.359  1.00  0.00    -0.394 OA
ATOM     21  H   UNL     1      28.352  42.727 140.629  1.00  0.00     0.210 HD
ENDBRANCH  19  20
ENDBRANCH   4  19
TORSDOF 5
ENDMDL
MODEL 6
REMARK VINA RESULT:    -4.482      2.302      5.187
REMARK INTER + INTRA:          -5.656
REMARK INTER:                  -5.608
REMARK INTRA:                  -0.048
REMARK UNBOUND:                -0.257
REMARK SMILES O=c1ccn([C@@H]2O[C@H](CO)[C@@H](O)[C@@H]2O)c(=O)[nH]1
REMARK SMILES IDX 6 1 13 2 11 3 8 4 7 5 5 6 3 7 4 8 2 9 17 10 1 11 15 12 16 14
REMARK SMILES IDX 14 15 12 17 9 19 10 20
REMARK H PARENT 17 13 14 16 12 18 10 21
REMARK Flexibility Score: inf
ROOT
ATOM      1  C   UNL     1      26.921  30.280 138.883  1.00  0.00     0.255 C 
ATOM      2  C   UNL     1      26.405  30.698 140.257  1.00  0.00     0.196 C 
ATOM      3  C   UNL     1      24.992  30.162 140.246  1.00  0.00     0.179 C 
ATOM      4  C   UNL     1      24.649  30.074 138.748  1.00  0.00     0.178 C 
ATOM      5  O   UNL     1      25.832  30.204 137.988  1.00  0.00    -0.347 OA
ENDROOT
BRANCH   1   6
ATOM      6  N   UNL     1      27.962  31.203 138.383  1.00  0.00    -0.271 N 
ATOM      7  C   UNL     1      28.601  33.078 137.026  1.00  0.00     0.090 A 
ATOM      8  C   UNL     1      27.636  32.186 137.485  1.00  0.00     0.099 A 
ATOM      9  C   UNL     1      29.899  32.962 137.508  1.00  0.00     0.253 A 
ATOM     10  N   UNL     1      30.201  31.995 138.414  1.00  0.00    -0.274 N 
ATOM     11  O   UNL     1      30.794  33.755 137.109  1.00  0.00    -0.269 OA
ATOM     12  C   UNL     1      29.249  31.127 138.858  1.00  0.00     0.330 A 
ATOM     13  H   UNL     1      31.177  31.920 138.779  1.00  0.00     0.175 HD
ATOM     14  O   UNL     1      29.566  30.256 139.715  1.00  0.00    -0.248 OA
ENDBRANCH   1   6
BRANCH   2  15
ATOM     15  O   UNL     1      26.390  32.099 140.378  1.00  0.00    -0.386 OA
ATOM     16  H   UNL     1      26.451  32.300 141.348  1.00  0.00     0.211 HD
ENDBRANCH   2  15
BRANCH   3  17
ATOM     17  O   UNL     1      24.921  28.898 140.864  1.00  0.00    -0.387 OA
ATOM     18  H   UNL     1      25.560  28.886 141.623  1.00  0.00     0.211 HD
ENDBRANCH   3  17
BRANCH   4  19
ATOM     19  C   UNL     1      23.664  31.169 138.319  1.00  0.00     0.191 C 
BRANCH  19  20
ATOM     20  O   UNL     1      22.560  30.595 137.675  1.00  0.00    -0.394 OA
ATOM     21  H   UNL     1      21.810  30.639 138.324  1.00  0.00     0.210 HD
ENDBRANCH  19  20
ENDBRANCH   4  19
TORSDOF 5
ENDMDL
MODEL 7
REMARK VINA RESULT:    -4.460     12.083     14.002
REMARK INTER + INTRA:          -5.629
REMARK INTER:                  -5.399
REMARK INTRA:                  -0.230
REMARK UNBOUND:                -0.257
REMARK SMILES O=c1ccn([C@@H]2O[C@H](CO)[C@@H](O)[C@@H]2O)c(=O)[nH]1
REMARK SMILES IDX 6 1 13 2 11 3 8 4 7 5 5 6 3 7 4 8 2 9 17 10 1 11 15 12 16 14
REMARK SMILES IDX 14 15 12 17 9 19 10 20
REMARK H PARENT 17 13 14 16 12 18 10 21
REMARK Flexibility Score: inf
ROOT
ATOM      1  C   UNL     1      25.939  43.344 141.512  1.00  0.00     0.255 C 
ATOM      2  C   UNL     1      24.657  42.575 141.814  1.00  0.00     0.196 C 
ATOM      3  C   UNL     1      23.588  43.536 141.349  1.00  0.00     0.179 C 
ATOM      4  C   UNL     1      24.276  44.911 141.428  1.00  0.00     0.178 C 
ATOM      5  O   UNL     1      25.669  44.729 141.579  1.00  0.00    -0.347 OA
ENDROOT
BRANCH   1   6
ATOM      6  N   UNL     1      27.035  42.969 142.432  1.00  0.00    -0.271 N 
ATOM      7  C   UNL     1      28.328  43.393 144.409  1.00  0.00     0.090 A 
ATOM      8  C   UNL     1      27.317  43.749 143.522  1.00  0.00     0.099 A 
ATOM      9  C   UNL     1      29.037  42.220 144.176  1.00  0.00     0.253 A 
ATOM     10  N   UNL     1      28.731  41.447 143.101  1.00  0.00    -0.274 N 
ATOM     11  O   UNL     1      29.959  41.874 144.962  1.00  0.00    -0.269 OA
ATOM     12  C   UNL     1      27.738  41.804 142.239  1.00  0.00     0.330 A 
ATOM     13  H   UNL     1      29.263  40.562 142.937  1.00  0.00     0.175 HD
ATOM     14  O   UNL     1      27.473  41.048 141.263  1.00  0.00    -0.248 OA
ENDBRANCH   1   6
BRANCH   2  15
ATOM     15  O   UNL     1      24.529  42.340 143.195  1.00  0.00    -0.386 OA
ATOM     16  H   UNL     1      23.562  42.206 143.371  1.00  0.00     0.211 HD
ENDBRANCH   2  15
BRANCH   3  17
ATOM     17  O   UNL     1      23.176  43.245 140.034  1.00  0.00    -0.387 OA
ATOM     18  H   UNL     1      22.532  42.489 140.069  1.00  0.00     0.211 HD
ENDBRANCH   3  17
BRANCH   4  19
ATOM     19  C   UNL     1      23.759  45.746 142.606  1.00  0.00     0.191 C 
BRANCH  19  20
ATOM     20  O   UNL     1      23.373  44.904 143.658  1.00  0.00    -0.394 OA
ATOM     21  H   UNL     1      24.152  44.317 143.840  1.00  0.00     0.210 HD
ENDBRANCH  19  20
ENDBRANCH   4  19
TORSDOF 5
ENDMDL
MODEL 8
REMARK VINA RESULT:    -4.408     12.063     14.070
REMARK INTER + INTRA:          -5.568
REMARK INTER:                  -5.289
REMARK INTRA:                  -0.279
REMARK UNBOUND:                -0.257
REMARK SMILES O=c1ccn([C@@H]2O[C@H](CO)[C@@H](O)[C@@H]2O)c(=O)[nH]1
REMARK SMILES IDX 6 1 13 2 11 3 8 4 7 5 5 6 3 7 4 8 2 9 17 10 1 11 15 12 16 14
REMARK SMILES IDX 14 15 12 17 9 19 10 20
REMARK H PARENT 17 13 14 16 12 18 10 21
REMARK Flexibility Score: inf
ROOT
ATOM      1  C   UNL     1      25.883  43.658 143.423  1.00  0.00     0.255 C 
ATOM      2  C   UNL     1      26.027  44.598 142.230  1.00  0.00     0.196 C 
ATOM      3  C   UNL     1      24.595  44.759 141.773  1.00  0.00     0.179 C 
ATOM      4  C   UNL     1      23.902  43.488 142.294  1.00  0.00     0.178 C 
ATOM      5  O   UNL     1      24.742  42.848 143.234  1.00  0.00    -0.347 OA
ENDROOT
BRANCH   1   6
ATOM      6  N   UNL     1      27.095  42.836 143.625  1.00  0.00    -0.271 N 
ATOM      7  C   UNL     1      28.299  40.787 143.282  1.00  0.00     0.090 A 
ATOM      8  C   UNL     1      27.154  41.563 143.121  1.00  0.00     0.099 A 
ATOM      9  C   UNL     1      29.388  41.336 143.950  1.00  0.00     0.253 A 
ATOM     10  N   UNL     1      29.319  42.607 144.425  1.00  0.00    -0.274 N 
ATOM     11  O   UNL     1      30.437  40.656 144.110  1.00  0.00    -0.269 OA
ATOM     12  C   UNL     1      28.194  43.359 144.262  1.00  0.00     0.330 A 
ATOM     13  H   UNL     1      30.145  43.016 144.918  1.00  0.00     0.175 HD
ATOM     14  O   UNL     1      28.179  44.542 144.701  1.00  0.00    -0.248 OA
ENDBRANCH   1   6
BRANCH   2  15
ATOM     15  O   UNL     1      26.794  44.000 141.214  1.00  0.00    -0.386 OA
ATOM     16  H   UNL     1      27.074  43.112 141.556  1.00  0.00     0.211 HD
ENDBRANCH   2  15
BRANCH   3  17
ATOM     17  O   UNL     1      24.013  45.920 142.319  1.00  0.00    -0.387 OA
ATOM     18  H   UNL     1      24.694  46.643 142.312  1.00  0.00     0.211 HD
ENDBRANCH   3  17
BRANCH   4  19
ATOM     19  C   UNL     1      23.587  42.501 141.164  1.00  0.00     0.191 C 
BRANCH  19  20
ATOM     20  O   UNL     1      24.192  42.925 139.973  1.00  0.00    -0.394 OA
ATOM     21  H   UNL     1      24.439  42.099 139.481  1.00  0.00     0.210 HD
ENDBRANCH  19  20
ENDBRANCH   4  19
TORSDOF 5
ENDMDL
MODEL 9
REMARK VINA RESULT:    -4.343      2.396      5.070
REMARK INTER + INTRA:          -5.488
REMARK INTER:                  -5.248
REMARK INTRA:                  -0.240
REMARK UNBOUND:                -0.257
REMARK SMILES O=c1ccn([C@@H]2O[C@H](CO)[C@@H](O)[C@@H]2O)c(=O)[nH]1
REMARK SMILES IDX 6 1 13 2 11 3 8 4 7 5 5 6 3 7 4 8 2 9 17 10 1 11 15 12 16 14
REMARK SMILES IDX 14 15 12 17 9 19 10 20
REMARK H PARENT 17 13 14 16 12 18 10 21
REMARK Flexibility Score: inf
ROOT
ATOM      1  C   UNL     1      27.381  31.065 140.001  1.00  0.00     0.255 C 
ATOM      2  C   UNL     1      27.307  29.865 139.062  1.00  0.00     0.196 C 
ATOM      3  C   UNL     1      26.433  30.386 137.944  1.00  0.00     0.179 C 
ATOM      4  C   UNL     1      25.622  31.511 138.610  1.00  0.00     0.178 C 
ATOM      5  O   UNL     1      26.205  31.834 139.856  1.00  0.00    -0.347 OA
ENDROOT
BRANCH   1   6
ATOM      6  N   UNL     1      27.579  30.651 141.407  1.00  0.00    -0.271 N 
ATOM      7  C   UNL     1      26.687  30.225 143.595  1.00  0.00     0.090 A 
ATOM      8  C   UNL     1      26.519  30.638 142.276  1.00  0.00     0.099 A 
ATOM      9  C   UNL     1      27.947  29.812 144.009  1.00  0.00     0.253 A 
ATOM     10  N   UNL     1      28.982  29.812 143.129  1.00  0.00    -0.274 N 
ATOM     11  O   UNL     1      28.128  29.435 145.198  1.00  0.00    -0.269 OA
ATOM     12  C   UNL     1      28.808  30.216 141.839  1.00  0.00     0.330 A 
ATOM     13  H   UNL     1      29.926  29.491 143.445  1.00  0.00     0.175 HD
ATOM     14  O   UNL     1      29.791  30.183 141.048  1.00  0.00    -0.248 OA
ENDBRANCH   1   6
BRANCH   2  15
ATOM     15  O   UNL     1      26.684  28.774 139.694  1.00  0.00    -0.386 OA
ATOM     16  H   UNL     1      25.813  28.643 139.238  1.00  0.00     0.211 HD
ENDBRANCH   2  15
BRANCH   3  17
ATOM     17  O   UNL     1      27.210  30.877 136.876  1.00  0.00    -0.387 OA
ATOM     18  H   UNL     1      26.596  31.219 136.174  1.00  0.00     0.211 HD
ENDBRANCH   3  17
BRANCH   4  19
ATOM     19  C   UNL     1      24.161  31.107 138.840  1.00  0.00     0.191 C 
BRANCH  19  20
ATOM     20  O   UNL     1      23.947  29.799 138.386  1.00  0.00    -0.394 OA
ATOM     21  H   UNL     1      23.877  29.859 137.398  1.00  0.00     0.210 HD
ENDBRANCH  19  20
ENDBRANCH   4  19
TORSDOF 5
ENDMDL
