MODEL 1
REMARK VINA RESULT:    -4.250      0.000      0.000
REMARK INTER + INTRA:          -4.920
REMARK INTER:                  -4.871
REMARK INTRA:                  -0.049
REMARK UNBOUND:                -0.049
REMARK SMILES O=C([O-])c1cc(O)c(O)c(O)c1
REMARK SMILES IDX 4 1 5 2 12 3 6 4 10 5 8 6 2 7 1 8 3 9 7 10 11 12 9 14
REMARK H PARENT 7 11 11 13 9 15
REMARK Flexibility Score: inf
ROOT
ATOM      1  C   UNL     1      -2.948  -9.095  39.689  1.00  0.00     0.005 A 
ATOM      2  C   UNL     1      -3.393  -9.473  40.964  1.00  0.00     0.060 A 
ATOM      3  C   UNL     1      -1.767  -9.664  39.183  1.00  0.00     0.060 A 
ATOM      4  C   UNL     1      -2.674 -10.405  41.724  1.00  0.00     0.162 A 
ATOM      5  C   UNL     1      -1.039 -10.597  39.932  1.00  0.00     0.162 A 
ATOM      6  C   UNL     1      -1.497 -10.972  41.217  1.00  0.00     0.200 A 
ENDROOT
BRANCH   1   7
ATOM      7  C   UNL     1      -3.711  -8.110  38.890  1.00  0.00     0.072 C 
ATOM      8  O   UNL     1      -4.970  -8.111  38.904  1.00  0.00    -0.545 OA
ATOM      9  O   UNL     1      -3.047  -7.167  38.114  1.00  0.00    -0.545 OA
ENDBRANCH   1   7
BRANCH   4  10
ATOM     10  O   UNL     1      -3.126 -10.773  42.989  1.00  0.00    -0.504 OA
ATOM     11  H   UNL     1      -2.517 -11.228  43.660  1.00  0.00     0.293 HD
ENDBRANCH   4  10
BRANCH   5  12
ATOM     12  O   UNL     1       0.125 -11.120  39.363  1.00  0.00    -0.504 OA
ATOM     13  H   UNL     1       0.140 -11.697  38.535  1.00  0.00     0.293 HD
ENDBRANCH   5  12
BRANCH   6  14
ATOM     14  O   UNL     1      -0.818 -11.895  42.017  1.00  0.00    -0.502 OA
ATOM     15  H   UNL     1      -0.329 -12.704  41.658  1.00  0.00     0.293 HD
ENDBRANCH   6  14
TORSDOF 4
ENDMDL
MODEL 2
REMARK VINA RESULT:    -4.105      2.496      3.855
REMARK INTER + INTRA:          -4.754
REMARK INTER:                  -4.707
REMARK INTRA:                  -0.047
REMARK UNBOUND:                -0.049
REMARK SMILES O=C([O-])c1cc(O)c(O)c(O)c1
REMARK SMILES IDX 4 1 5 2 12 3 6 4 10 5 8 6 2 7 1 8 3 9 7 10 11 12 9 14
REMARK H PARENT 7 11 11 13 9 15
REMARK Flexibility Score: inf
ROOT
ATOM      1  C   UNL     1      -3.383 -11.088  41.896  1.00  0.00     0.005 A 
ATOM      2  C   UNL     1      -2.024 -11.220  42.215  1.00  0.00     0.060 A 
ATOM      3  C   UNL     1      -4.206 -12.227  41.936  1.00  0.00     0.060 A 
ATOM      4  C   UNL     1      -1.492 -12.467  42.569  1.00  0.00     0.162 A 
ATOM      5  C   UNL     1      -3.688 -13.479  42.288  1.00  0.00     0.162 A 
ATOM      6  C   UNL     1      -2.315 -13.601  42.608  1.00  0.00     0.200 A 
ENDROOT
BRANCH   1   7
ATOM      7  C   UNL     1      -3.940  -9.768  41.523  1.00  0.00     0.072 C 
ATOM      8  O   UNL     1      -3.436  -9.102  40.582  1.00  0.00    -0.545 OA
ATOM      9  O   UNL     1      -5.032  -9.246  42.209  1.00  0.00    -0.545 OA
ENDBRANCH   1   7
BRANCH   4  10
ATOM     10  O   UNL     1      -0.140 -12.587  42.884  1.00  0.00    -0.504 OA
ATOM     11  H   UNL     1       0.543 -11.911  42.562  1.00  0.00     0.293 HD
ENDBRANCH   4  10
BRANCH   5  12
ATOM     12  O   UNL     1      -4.566 -14.564  42.305  1.00  0.00    -0.504 OA
ATOM     13  H   UNL     1      -5.566 -14.481  42.417  1.00  0.00     0.293 HD
ENDBRANCH   5  12
BRANCH   6  14
ATOM     14  O   UNL     1      -1.733 -14.820  42.966  1.00  0.00    -0.502 OA
ATOM     15  H   UNL     1      -1.616 -15.600  42.334  1.00  0.00     0.293 HD
ENDBRANCH   6  14
TORSDOF 4
ENDMDL
MODEL 3
REMARK VINA RESULT:    -4.097      1.570      3.387
REMARK INTER + INTRA:          -4.745
REMARK INTER:                  -4.692
REMARK INTRA:                  -0.052
REMARK UNBOUND:                -0.049
REMARK SMILES O=C([O-])c1cc(O)c(O)c(O)c1
REMARK SMILES IDX 4 1 5 2 12 3 6 4 10 5 8 6 2 7 1 8 3 9 7 10 11 12 9 14
REMARK H PARENT 7 11 11 13 9 15
REMARK Flexibility Score: inf
ROOT
ATOM      1  C   UNL     1      -3.585 -10.157  41.636  1.00  0.00     0.005 A 
ATOM      2  C   UNL     1      -3.267  -9.635  40.373  1.00  0.00     0.060 A 
ATOM      3  C   UNL     1      -2.661 -10.998  42.278  1.00  0.00     0.060 A 
ATOM      4  C   UNL     1      -2.046  -9.946  39.760  1.00  0.00     0.162 A 
ATOM      5  C   UNL     1      -1.437 -11.317  41.676  1.00  0.00     0.162 A 
ATOM      6  C   UNL     1      -1.126 -10.786  40.402  1.00  0.00     0.200 A 
ENDROOT
BRANCH   1   7
ATOM      7  C   UNL     1      -4.876  -9.824  42.279  1.00  0.00     0.072 C 
ATOM      8  O   UNL     1      -5.605  -8.907  41.819  1.00  0.00    -0.545 OA
ATOM      9  O   UNL     1      -5.303 -10.524  43.403  1.00  0.00    -0.545 OA
ENDBRANCH   1   7
BRANCH   4  10
ATOM     10  O   UNL     1      -1.740  -9.423  38.505  1.00  0.00    -0.504 OA
ATOM     11  H   UNL     1      -2.048  -9.873  37.651  1.00  0.00     0.293 HD
ENDBRANCH   4  10
BRANCH   5  12
ATOM     12  O   UNL     1      -0.570 -12.160  42.375  1.00  0.00    -0.504 OA
ATOM     13  H   UNL     1       0.342 -11.882  42.709  1.00  0.00     0.293 HD
ENDBRANCH   5  12
BRANCH   6  14
ATOM     14  O   UNL     1       0.076 -11.065  39.746  1.00  0.00    -0.502 OA
ATOM     15  H   UNL     1       0.890 -10.467  39.776  1.00  0.00     0.293 HD
ENDBRANCH   6  14
TORSDOF 4
ENDMDL
MODEL 4
REMARK VINA RESULT:    -4.039      1.525      3.032
REMARK INTER + INTRA:          -4.678
REMARK INTER:                  -4.626
REMARK INTRA:                  -0.053
REMARK UNBOUND:                -0.049
REMARK SMILES O=C([O-])c1cc(O)c(O)c(O)c1
REMARK SMILES IDX 4 1 5 2 12 3 6 4 10 5 8 6 2 7 1 8 3 9 7 10 11 12 9 14
REMARK H PARENT 7 11 11 13 9 15
REMARK Flexibility Score: inf
ROOT
ATOM      1  C   UNL     1      -3.655 -10.093  41.606  1.00  0.00     0.005 A 
ATOM      2  C   UNL     1      -2.735 -10.947  42.232  1.00  0.00     0.060 A 
ATOM      3  C   UNL     1      -3.337  -9.553  40.349  1.00  0.00     0.060 A 
ATOM      4  C   UNL     1      -1.517 -11.258  41.615  1.00  0.00     0.162 A 
ATOM      5  C   UNL     1      -2.123  -9.856  39.720  1.00  0.00     0.162 A 
ATOM      6  C   UNL     1      -1.201 -10.718  40.360  1.00  0.00     0.200 A 
ENDROOT
BRANCH   1   7
ATOM      7  C   UNL     1      -4.941  -9.768  42.262  1.00  0.00     0.072 C 
ATOM      8  O   UNL     1      -5.696  -8.878  41.789  1.00  0.00    -0.545 OA
ATOM      9  O   UNL     1      -5.335 -10.443  43.412  1.00  0.00    -0.545 OA
ENDBRANCH   1   7
BRANCH   4  10
ATOM     10  O   UNL     1      -0.610 -12.107  42.246  1.00  0.00    -0.504 OA
ATOM     11  H   UNL     1      -0.909 -12.963  42.698  1.00  0.00     0.293 HD
ENDBRANCH   4  10
BRANCH   5  12
ATOM     12  O   UNL     1      -1.876  -9.280  38.472  1.00  0.00    -0.504 OA
ATOM     13  H   UNL     1      -1.912  -8.288  38.289  1.00  0.00     0.293 HD
ENDBRANCH   5  12
BRANCH   6  14
ATOM     14  O   UNL     1       0.028 -11.060  39.790  1.00  0.00    -0.502 OA
ATOM     15  H   UNL     1       0.786 -10.408  39.644  1.00  0.00     0.293 HD
ENDBRANCH   6  14
TORSDOF 4
ENDMDL
MODEL 5
REMARK VINA RESULT:    -3.987      1.400      3.729
REMARK INTER + INTRA:          -4.619
REMARK INTER:                  -4.566
REMARK INTRA:                  -0.053
REMARK UNBOUND:                -0.049
REMARK SMILES O=C([O-])c1cc(O)c(O)c(O)c1
REMARK SMILES IDX 4 1 5 2 12 3 6 4 10 5 8 6 2 7 1 8 3 9 7 10 11 12 9 14
REMARK H PARENT 7 11 11 13 9 15
REMARK Flexibility Score: inf
ROOT
ATOM      1  C   UNL     1      -3.021  -9.731  40.932  1.00  0.00     0.005 A 
ATOM      2  C   UNL     1      -1.929 -10.581  40.705  1.00  0.00     0.060 A 
ATOM      3  C   UNL     1      -3.125  -8.543  40.189  1.00  0.00     0.060 A 
ATOM      4  C   UNL     1      -0.956 -10.254  39.752  1.00  0.00     0.162 A 
ATOM      5  C   UNL     1      -2.160  -8.204  39.233  1.00  0.00     0.162 A 
ATOM      6  C   UNL     1      -1.062  -9.069  39.012  1.00  0.00     0.200 A 
ENDROOT
BRANCH   1   7
ATOM      7  C   UNL     1      -4.046 -10.081  41.940  1.00  0.00     0.072 C 
ATOM      8  O   UNL     1      -3.940 -11.132  42.625  1.00  0.00    -0.545 OA
ATOM      9  O   UNL     1      -5.143  -9.252  42.146  1.00  0.00    -0.545 OA
ENDBRANCH   1   7
BRANCH   4  10
ATOM     10  O   UNL     1       0.125 -11.107  39.535  1.00  0.00    -0.504 OA
ATOM     11  H   UNL     1       0.899 -10.842  38.937  1.00  0.00     0.293 HD
ENDBRANCH   4  10
BRANCH   5  12
ATOM     12  O   UNL     1      -2.330  -7.007  38.533  1.00  0.00    -0.504 OA
ATOM     13  H   UNL     1      -2.289  -6.092  38.959  1.00  0.00     0.293 HD
ENDBRANCH   5  12
BRANCH   6  14
ATOM     14  O   UNL     1      -0.063  -8.790  38.074  1.00  0.00    -0.502 OA
ATOM     15  H   UNL     1       0.899  -9.085  38.167  1.00  0.00     0.293 HD
ENDBRANCH   6  14
TORSDOF 4
ENDMDL
MODEL 6
REMARK VINA RESULT:    -3.978      2.124      2.844
REMARK INTER + INTRA:          -4.609
REMARK INTER:                  -4.556
REMARK INTRA:                  -0.053
REMARK UNBOUND:                -0.049
REMARK SMILES O=C([O-])c1cc(O)c(O)c(O)c1
REMARK SMILES IDX 4 1 5 2 12 3 6 4 10 5 8 6 2 7 1 8 3 9 7 10 11 12 9 14
REMARK H PARENT 7 11 11 13 9 15
REMARK Flexibility Score: inf
ROOT
ATOM      1  C   UNL     1      -2.503 -10.420  41.019  1.00  0.00     0.005 A 
ATOM      2  C   UNL     1      -3.646 -11.222  40.887  1.00  0.00     0.060 A 
ATOM      3  C   UNL     1      -1.389 -10.930  41.707  1.00  0.00     0.060 A 
ATOM      4  C   UNL     1      -3.679 -12.513  41.430  1.00  0.00     0.162 A 
ATOM      5  C   UNL     1      -1.408 -12.219  42.255  1.00  0.00     0.162 A 
ATOM      6  C   UNL     1      -2.566 -13.020  42.116  1.00  0.00     0.200 A 
ENDROOT
BRANCH   1   7
ATOM      7  C   UNL     1      -2.474  -9.057  40.443  1.00  0.00     0.072 C 
ATOM      8  O   UNL     1      -1.401  -8.398  40.408  1.00  0.00    -0.545 OA
ATOM      9  O   UNL     1      -3.632  -8.485  39.929  1.00  0.00    -0.545 OA
ENDBRANCH   1   7
BRANCH   4  10
ATOM     10  O   UNL     1      -4.820 -13.301  41.293  1.00  0.00    -0.504 OA
ATOM     11  H   UNL     1      -5.530 -13.093  40.601  1.00  0.00     0.293 HD
ENDBRANCH   4  10
BRANCH   5  12
ATOM     12  O   UNL     1      -0.263 -12.657  42.924  1.00  0.00    -0.504 OA
ATOM     13  H   UNL     1      -0.279 -13.231  43.755  1.00  0.00     0.293 HD
ENDBRANCH   5  12
BRANCH   6  14
ATOM     14  O   UNL     1      -2.652 -14.313  42.639  1.00  0.00    -0.502 OA
ATOM     15  H   UNL     1      -2.383 -14.562  43.580  1.00  0.00     0.293 HD
ENDBRANCH   6  14
TORSDOF 4
ENDMDL
MODEL 7
REMARK VINA RESULT:    -3.781      1.319      2.639
REMARK INTER + INTRA:          -4.383
REMARK INTER:                  -4.334
REMARK INTRA:                  -0.050
REMARK UNBOUND:                -0.049
REMARK SMILES O=C([O-])c1cc(O)c(O)c(O)c1
REMARK SMILES IDX 4 1 5 2 12 3 6 4 10 5 8 6 2 7 1 8 3 9 7 10 11 12 9 14
REMARK H PARENT 7 11 11 13 9 15
REMARK Flexibility Score: inf
ROOT
ATOM      1  C   UNL     1      -1.466  -9.693  39.473  1.00  0.00     0.005 A 
ATOM      2  C   UNL     1      -2.728  -9.204  39.840  1.00  0.00     0.060 A 
ATOM      3  C   UNL     1      -0.833 -10.635  40.302  1.00  0.00     0.060 A 
ATOM      4  C   UNL     1      -3.351  -9.647  41.013  1.00  0.00     0.162 A 
ATOM      5  C   UNL     1      -1.445 -11.087  41.478  1.00  0.00     0.162 A 
ATOM      6  C   UNL     1      -2.719 -10.587  41.839  1.00  0.00     0.200 A 
ENDROOT
BRANCH   1   7
ATOM      7  C   UNL     1      -0.812  -9.222  38.232  1.00  0.00     0.072 C 
ATOM      8  O   UNL     1      -0.132 -10.012  37.525  1.00  0.00    -0.545 OA
ATOM      9  O   UNL     1      -0.940  -7.898  37.827  1.00  0.00    -0.545 OA
ENDBRANCH   1   7
BRANCH   4  10
ATOM     10  O   UNL     1      -4.606  -9.154  41.368  1.00  0.00    -0.504 OA
ATOM     11  H   UNL     1      -5.456  -9.511  40.948  1.00  0.00     0.293 HD
ENDBRANCH   4  10
BRANCH   5  12
ATOM     12  O   UNL     1      -0.755 -12.023  42.250  1.00  0.00    -0.504 OA
ATOM     13  H   UNL     1      -0.566 -11.914  43.237  1.00  0.00     0.293 HD
ENDBRANCH   5  12
BRANCH   6  14
ATOM     14  O   UNL     1      -3.384 -10.994  42.998  1.00  0.00    -0.502 OA
ATOM     15  H   UNL     1      -4.328 -10.723  43.234  1.00  0.00     0.293 HD
ENDBRANCH   6  14
TORSDOF 4
ENDMDL
MODEL 8
REMARK VINA RESULT:    -3.756      1.490      4.581
REMARK INTER + INTRA:          -4.354
REMARK INTER:                  -4.304
REMARK INTRA:                  -0.051
REMARK UNBOUND:                -0.049
REMARK SMILES O=C([O-])c1cc(O)c(O)c(O)c1
REMARK SMILES IDX 4 1 5 2 12 3 6 4 10 5 8 6 2 7 1 8 3 9 7 10 11 12 9 14
REMARK H PARENT 7 11 11 13 9 15
REMARK Flexibility Score: inf
ROOT
ATOM      1  C   UNL     1      -2.128  -9.101  39.664  1.00  0.00     0.005 A 
ATOM      2  C   UNL     1      -3.474  -8.710  39.619  1.00  0.00     0.060 A 
ATOM      3  C   UNL     1      -1.220  -8.524  38.759  1.00  0.00     0.060 A 
ATOM      4  C   UNL     1      -3.910  -7.758  38.689  1.00  0.00     0.162 A 
ATOM      5  C   UNL     1      -1.642  -7.571  37.824  1.00  0.00     0.162 A 
ATOM      6  C   UNL     1      -3.003  -7.183  37.788  1.00  0.00     0.200 A 
ENDROOT
BRANCH   1   7
ATOM      7  C   UNL     1      -1.672 -10.108  40.649  1.00  0.00     0.072 C 
ATOM      8  O   UNL     1      -0.686 -10.849  40.399  1.00  0.00    -0.545 OA
ATOM      9  O   UNL     1      -2.329 -10.249  41.866  1.00  0.00    -0.545 OA
ENDBRANCH   1   7
BRANCH   4  10
ATOM     10  O   UNL     1      -5.249  -7.376  38.654  1.00  0.00    -0.504 OA
ATOM     11  H   UNL     1      -5.658  -6.944  37.834  1.00  0.00     0.293 HD
ENDBRANCH   4  10
BRANCH   5  12
ATOM     12  O   UNL     1      -0.683  -7.042  36.958  1.00  0.00    -0.504 OA
ATOM     13  H   UNL     1      -0.796  -6.985  35.956  1.00  0.00     0.293 HD
ENDBRANCH   5  12
BRANCH   6  14
ATOM     14  O   UNL     1      -3.490  -6.239  36.880  1.00  0.00    -0.502 OA
ATOM     15  H   UNL     1      -4.187  -5.543  37.106  1.00  0.00     0.293 HD
ENDBRANCH   6  14
TORSDOF 4
ENDMDL
MODEL 9
REMARK VINA RESULT:    -3.724      0.099      2.437
REMARK INTER + INTRA:          -4.318
REMARK INTER:                  -4.268
REMARK INTRA:                  -0.050
REMARK UNBOUND:                -0.049
REMARK SMILES O=C([O-])c1cc(O)c(O)c(O)c1
REMARK SMILES IDX 4 1 5 2 12 3 6 4 10 5 8 6 2 7 1 8 3 9 7 10 11 12 9 14
REMARK H PARENT 7 11 11 13 9 15
REMARK Flexibility Score: inf
ROOT
ATOM      1  C   UNL     1      -2.974  -9.094  39.715  1.00  0.00     0.005 A 
ATOM      2  C   UNL     1      -1.773  -9.649  39.249  1.00  0.00     0.060 A 
ATOM      3  C   UNL     1      -3.462  -9.485  40.973  1.00  0.00     0.060 A 
ATOM      4  C   UNL     1      -1.068 -10.577  40.025  1.00  0.00     0.162 A 
ATOM      5  C   UNL     1      -2.767 -10.412  41.760  1.00  0.00     0.162 A 
ATOM      6  C   UNL     1      -1.556 -10.965  41.281  1.00  0.00     0.200 A 
ENDROOT
BRANCH   1   7
ATOM      7  C   UNL     1      -3.715  -8.113  38.891  1.00  0.00     0.072 C 
ATOM      8  O   UNL     1      -4.973  -8.070  38.921  1.00  0.00    -0.545 OA
ATOM      9  O   UNL     1      -3.031  -7.223  38.071  1.00  0.00    -0.545 OA
ENDBRANCH   1   7
BRANCH   4  10
ATOM     10  O   UNL     1       0.125 -11.122  39.553  1.00  0.00    -0.504 OA
ATOM     11  H   UNL     1       0.152 -11.704  38.724  1.00  0.00     0.293 HD
ENDBRANCH   4  10
BRANCH   5  12
ATOM     12  O   UNL     1      -3.313 -10.751  42.999  1.00  0.00    -0.504 OA
ATOM     13  H   UNL     1      -3.245 -11.669  43.416  1.00  0.00     0.293 HD
ENDBRANCH   5  12
BRANCH   6  14
ATOM     14  O   UNL     1      -0.814 -11.896  42.013  1.00  0.00    -0.502 OA
ATOM     15  H   UNL     1       0.092 -11.705  42.419  1.00  0.00     0.293 HD
ENDBRANCH   6  14
TORSDOF 4
ENDMDL
