MODEL 1
REMARK VINA RESULT:    45.878      0.000      0.000
REMARK INTER + INTRA:          69.962
REMARK INTER:                  67.335
REMARK INTRA:                   2.627
REMARK UNBOUND:                 2.627
REMARK SMILES Cc1cc2c(C(C)C)c(O)c(O)c(C=O)c2c(O)c1-c1c(C)cc2c(C(C)C)c(O)c(O)c(C=O)c2c1O
REMARK SMILES IDX 1 1 2 2 3 3 4 4 16 5 13 6 11 7 9 8 5 9 17 10 19 11 20 12
REMARK SMILES IDX 37 13 21 14 36 15 23 16 22 17 24 18 33 19 25 20 31 21 29 22
REMARK SMILES IDX 38 23 34 25 35 26 26 27 27 28 28 29 32 30 30 32 18 34 6 36
REMARK SMILES IDX 7 37 8 38 14 39 15 40 10 41 12 43
REMARK H PARENT 38 24 32 31 30 33 18 35 10 42 12 44
REMARK Flexibility Score: inf
ROOT
ATOM      1  C   UNL     1     -53.033   9.871 -12.553  1.00  0.00     0.045 C 
ATOM      2  C   UNL     1     -52.899   9.600 -14.031  1.00  0.00    -0.039 A 
ATOM      3  C   UNL     1     -53.998   9.105 -14.740  1.00  0.00     0.013 A 
ATOM      4  C   UNL     1     -53.913   8.788 -16.116  1.00  0.00    -0.006 A 
ATOM      5  C   UNL     1     -52.682   9.029 -16.794  1.00  0.00     0.039 A 
ATOM      6  C   UNL     1     -52.545   8.592 -18.139  1.00  0.00     0.072 A 
ATOM      7  C   UNL     1     -53.689   8.259 -18.880  1.00  0.00     0.169 A 
ATOM      8  C   UNL     1     -54.944   8.195 -18.249  1.00  0.00     0.162 A 
ATOM      9  C   UNL     1     -55.034   8.272 -16.839  1.00  0.00     0.008 A 
ATOM     10  C   UNL     1     -51.641   9.720 -16.108  1.00  0.00     0.132 A 
ATOM     11  C   UNL     1     -51.723   9.932 -14.724  1.00  0.00     0.031 A 
ENDROOT
BRANCH  11  12
ATOM     12  C   UNL     1     -50.591  10.593 -14.024  1.00  0.00     0.031 A 
ATOM     13  C   UNL     1     -50.670  11.961 -13.688  1.00  0.00     0.132 A 
ATOM     14  C   UNL     1     -49.430   9.860 -13.728  1.00  0.00    -0.039 A 
ATOM     15  C   UNL     1     -49.601  12.596 -12.984  1.00  0.00     0.039 A 
ATOM     16  C   UNL     1     -48.363  10.490 -13.087  1.00  0.00     0.013 A 
ATOM     17  C   UNL     1     -49.314   8.400 -14.097  1.00  0.00     0.045 C 
ATOM     18  C   UNL     1     -48.432  11.838 -12.671  1.00  0.00    -0.006 A 
ATOM     19  C   UNL     1     -49.642  13.977 -12.627  1.00  0.00     0.072 A 
ATOM     20  C   UNL     1     -47.340  12.454 -11.983  1.00  0.00     0.008 A 
ATOM     21  C   UNL     1     -48.483  14.608 -12.134  1.00  0.00     0.169 A 
ATOM     22  C   UNL     1     -47.337  13.859 -11.847  1.00  0.00     0.162 A 
BRANCH  13  23
ATOM     23  O   UNL     1     -51.791  12.698 -14.086  1.00  0.00    -0.507 OA
ATOM     24  H   UNL     1     -52.725  12.314 -14.158  1.00  0.00     0.293 HD
ENDBRANCH  13  23
BRANCH  19  25
ATOM     25  C   UNL     1     -50.875  14.784 -12.720  1.00  0.00     0.264 C 
ATOM     26  O   UNL     1     -51.653  14.645 -13.701  1.00  0.00    -0.298 OA
ENDBRANCH  19  25
BRANCH  20  27
ATOM     27  C   UNL     1     -46.166  11.632 -11.421  1.00  0.00     0.017 C 
ATOM     28  C   UNL     1     -44.894  11.866 -12.241  1.00  0.00     0.012 C 
ATOM     29  C   UNL     1     -45.911  11.857  -9.918  1.00  0.00     0.012 C 
ENDBRANCH  20  27
BRANCH  21  30
ATOM     30  O   UNL     1     -48.448  15.985 -11.886  1.00  0.00    -0.504 OA
ATOM     31  H   UNL     1     -49.265  16.581 -11.878  1.00  0.00     0.293 HD
ENDBRANCH  21  30
BRANCH  22  32
ATOM     32  O   UNL     1     -46.182  14.516 -11.417  1.00  0.00    -0.504 OA
ATOM     33  H   UNL     1     -46.140  15.053 -10.559  1.00  0.00     0.293 HD
ENDBRANCH  22  32
ENDBRANCH  11  12
BRANCH  10  34
ATOM     34  O   UNL     1     -50.553  10.288 -16.780  1.00  0.00    -0.507 OA
ATOM     35  H   UNL     1     -50.083  11.124 -16.457  1.00  0.00     0.293 HD
ENDBRANCH  10  34
BRANCH   9  36
ATOM     36  C   UNL     1     -56.344   7.876 -16.134  1.00  0.00     0.017 C 
ATOM     37  C   UNL     1     -56.579   8.744 -14.895  1.00  0.00     0.012 C 
ATOM     38  C   UNL     1     -57.577   7.876 -17.057  1.00  0.00     0.012 C 
ENDBRANCH   9  36
BRANCH   6  39
ATOM     39  C   UNL     1     -51.227   8.322 -18.762  1.00  0.00     0.264 C 
ATOM     40  O   UNL     1     -50.891   8.889 -19.836  1.00  0.00    -0.298 OA
ENDBRANCH   6  39
BRANCH   8  41
ATOM     41  O   UNL     1     -56.112   8.055 -19.004  1.00  0.00    -0.504 OA
ATOM     42  H   UNL     1     -56.995   8.480 -18.760  1.00  0.00     0.293 HD
ENDBRANCH   8  41
BRANCH   7  43
ATOM     43  O   UNL     1     -53.543   7.943 -20.236  1.00  0.00    -0.504 OA
ATOM     44  H   UNL     1     -53.576   8.623 -20.981  1.00  0.00     0.293 HD
ENDBRANCH   7  43
TORSDOF 11
ENDMDL
