MODEL 1
REMARK VINA RESULT:     2.008      0.000      0.000
REMARK INTER + INTRA:           3.427
REMARK INTER:                   3.886
REMARK INTRA:                  -0.459
REMARK UNBOUND:                -0.459
REMARK SMILES CCCCCCCCCCCCCCCCCC(=O)[O-]
REMARK SMILES IDX 10 1 11 2 12 3 13 4 14 5 15 6 16 7 17 8 18 9 19 10 20 11
REMARK SMILES IDX 9 12 8 13 7 14 6 15 5 16 4 17 3 18 2 19 1 20
REMARK H PARENT
REMARK Flexibility Score: inf
ROOT
ATOM      1  C   UNL     1       0.158  -8.082  -6.507  1.00  0.00     0.000 C 
ENDROOT
BRANCH   1   2
ATOM      2  C   UNL     1      -1.283  -7.673  -6.870  1.00  0.00     0.000 C 
BRANCH   2   3
ATOM      3  C   UNL     1      -2.084  -7.025  -5.724  1.00  0.00     0.000 C 
BRANCH   3   4
ATOM      4  C   UNL     1      -2.915  -8.006  -4.876  1.00  0.00     0.000 C 
BRANCH   4   5
ATOM      5  C   UNL     1      -4.015  -8.713  -5.683  1.00  0.00     0.000 C 
BRANCH   5   6
ATOM      6  C   UNL     1      -3.595 -10.144  -6.049  1.00  0.00     0.000 C 
BRANCH   6   7
ATOM      7  C   UNL     1      -4.176 -10.618  -7.393  1.00  0.00     0.006 C 
BRANCH   7   8
ATOM      8  C   UNL     1      -5.344 -11.611  -7.254  1.00  0.00     0.053 C 
BRANCH   8   9
ATOM      9  C   UNL     1      -5.772 -11.806  -5.831  1.00  0.00     0.041 C 
ATOM     10  O   UNL     1      -6.712 -11.121  -5.350  1.00  0.00    -0.550 OA
ATOM     11  O   UNL     1      -5.106 -12.722  -5.025  1.00  0.00    -0.550 OA
ENDBRANCH   8   9
ENDBRANCH   7   8
ENDBRANCH   6   7
ENDBRANCH   5   6
ENDBRANCH   4   5
ENDBRANCH   3   4
ENDBRANCH   2   3
ENDBRANCH   1   2
BRANCH   1  12
ATOM     12  C   UNL     1       0.549  -7.756  -5.049  1.00  0.00     0.000 C 
BRANCH  12  13
ATOM     13  C   UNL     1       1.104  -6.328  -4.896  1.00  0.00    -0.000 C 
BRANCH  13  14
ATOM     14  C   UNL     1       2.603  -6.236  -5.235  1.00  0.00    -0.000 C 
BRANCH  14  15
ATOM     15  C   UNL     1       3.241  -4.875  -4.899  1.00  0.00    -0.000 C 
BRANCH  15  16
ATOM     16  C   UNL     1       4.779  -4.931  -4.914  1.00  0.00    -0.000 C 
BRANCH  16  17
ATOM     17  C   UNL     1       5.330  -6.087  -5.769  1.00  0.00    -0.000 C 
BRANCH  17  18
ATOM     18  C   UNL     1       6.435  -5.691  -6.765  1.00  0.00    -0.000 C 
BRANCH  18  19
ATOM     19  C   UNL     1       7.720  -5.212  -6.073  1.00  0.00    -0.003 C 
ATOM     20  C   UNL     1       8.156  -6.189  -4.984  1.00  0.00     0.004 C 
ENDBRANCH  18  19
ENDBRANCH  17  18
ENDBRANCH  16  17
ENDBRANCH  15  16
ENDBRANCH  14  15
ENDBRANCH  13  14
ENDBRANCH  12  13
ENDBRANCH   1  12
TORSDOF 16
ENDMDL
