MODEL 1
REMARK VINA RESULT:    -4.744      0.000      0.000
REMARK INTER + INTRA:          -6.439
REMARK INTER:                  -6.131
REMARK INTRA:                  -0.308
REMARK UNBOUND:                -0.308
REMARK SMILES CCO[C@@H]1O[C@@H](CO)[C@H](O)[C@@H](O)[C@@H]1O
REMARK SMILES IDX 4 1 13 2 11 3 9 4 6 5 5 6 3 7 2 8 1 9 14 10 12 12 7 14 8 15
REMARK SMILES IDX 10 17
REMARK H PARENT 14 11 12 13 8 16 10 18
REMARK Flexibility Score: inf
ROOT
ATOM      1  C   UNL     1      23.387   3.714  40.392  1.00  0.00     0.281 C 
ATOM      2  C   UNL     1      21.936   3.593  39.884  1.00  0.00     0.202 C 
ATOM      3  C   UNL     1      21.803   4.227  38.490  1.00  0.00     0.179 C 
ATOM      4  C   UNL     1      22.882   3.667  37.544  1.00  0.00     0.177 C 
ATOM      5  C   UNL     1      24.269   3.802  38.209  1.00  0.00     0.178 C 
ATOM      6  O   UNL     1      24.293   3.134  39.463  1.00  0.00    -0.341 OA
ENDROOT
BRANCH   1   7
ATOM      7  O   UNL     1      23.705   5.077  40.645  1.00  0.00    -0.350 OA
BRANCH   7   8
ATOM      8  C   UNL     1      23.978   5.315  42.014  1.00  0.00     0.160 C 
ATOM      9  C   UNL     1      24.071   6.809  42.314  1.00  0.00     0.035 C 
ENDBRANCH   7   8
ENDBRANCH   1   7
BRANCH   2  10
ATOM     10  O   UNL     1      21.054   4.230  40.773  1.00  0.00    -0.385 OA
ATOM     11  H   UNL     1      21.594   4.880  41.295  1.00  0.00     0.211 HD
ENDBRANCH   2  10
BRANCH   3  12
ATOM     12  O   UNL     1      20.514   4.018  37.967  1.00  0.00    -0.387 OA
ATOM     13  H   UNL     1      19.863   4.140  38.706  1.00  0.00     0.211 HD
ENDBRANCH   3  12
BRANCH   5  14
ATOM     14  C   UNL     1      25.360   3.193  37.316  1.00  0.00     0.191 C 
BRANCH  14  15
ATOM     15  O   UNL     1      25.940   4.181  36.508  1.00  0.00    -0.394 OA
ATOM     16  H   UNL     1      25.563   5.050  36.806  1.00  0.00     0.210 HD
ENDBRANCH  14  15
ENDBRANCH   5  14
BRANCH   4  17
ATOM     17  O   UNL     1      22.866   4.383  36.335  1.00  0.00    -0.387 OA
ATOM     18  H   UNL     1      23.724   4.879  36.283  1.00  0.00     0.211 HD
ENDBRANCH   4  17
TORSDOF 7
ENDMDL
MODEL 2
REMARK VINA RESULT:    -4.730      2.514      4.007
REMARK INTER + INTRA:          -6.421
REMARK INTER:                  -5.997
REMARK INTRA:                  -0.423
REMARK UNBOUND:                -0.308
REMARK SMILES CCO[C@@H]1O[C@@H](CO)[C@H](O)[C@@H](O)[C@@H]1O
REMARK SMILES IDX 4 1 13 2 11 3 9 4 6 5 5 6 3 7 2 8 1 9 14 10 12 12 7 14 8 15
REMARK SMILES IDX 10 17
REMARK H PARENT 14 11 12 13 8 16 10 18
REMARK Flexibility Score: inf
ROOT
ATOM      1  C   UNL     1      21.851   1.415  39.003  1.00  0.00     0.281 C 
ATOM      2  C   UNL     1      20.717   2.230  39.658  1.00  0.00     0.202 C 
ATOM      3  C   UNL     1      21.301   3.310  40.583  1.00  0.00     0.179 C 
ATOM      4  C   UNL     1      22.362   4.138  39.835  1.00  0.00     0.177 C 
ATOM      5  C   UNL     1      23.391   3.188  39.185  1.00  0.00     0.178 C 
ATOM      6  O   UNL     1      22.748   2.272  38.310  1.00  0.00    -0.341 OA
ENDROOT
BRANCH   1   7
ATOM      7  O   UNL     1      22.527   0.641  39.986  1.00  0.00    -0.350 OA
BRANCH   7   8
ATOM      8  C   UNL     1      22.588  -0.730  39.635  1.00  0.00     0.160 C 
ATOM      9  C   UNL     1      21.731  -1.584  40.566  1.00  0.00     0.035 C 
ENDBRANCH   7   8
ENDBRANCH   1   7
BRANCH   2  10
ATOM     10  O   UNL     1      19.875   1.386  40.399  1.00  0.00    -0.385 OA
ATOM     11  H   UNL     1      19.699   1.843  41.262  1.00  0.00     0.211 HD
ENDBRANCH   2  10
BRANCH   3  12
ATOM     12  O   UNL     1      20.283   4.135  41.093  1.00  0.00    -0.387 OA
ATOM     13  H   UNL     1      20.276   4.973  40.560  1.00  0.00     0.211 HD
ENDBRANCH   3  12
BRANCH   5  14
ATOM     14  C   UNL     1      24.427   3.983  38.376  1.00  0.00     0.191 C 
BRANCH  14  15
ATOM     15  O   UNL     1      23.938   5.262  38.076  1.00  0.00    -0.394 OA
ATOM     16  H   UNL     1      24.513   5.908  38.563  1.00  0.00     0.210 HD
ENDBRANCH  14  15
ENDBRANCH   5  14
BRANCH   4  17
ATOM     17  O   UNL     1      23.014   4.996  40.737  1.00  0.00    -0.387 OA
ATOM     18  H   UNL     1      22.881   5.921  40.403  1.00  0.00     0.211 HD
ENDBRANCH   4  17
TORSDOF 7
ENDMDL
MODEL 3
REMARK VINA RESULT:    -4.675      1.216      4.152
REMARK INTER + INTRA:          -6.349
REMARK INTER:                  -5.888
REMARK INTRA:                  -0.461
REMARK UNBOUND:                -0.308
REMARK SMILES CCO[C@@H]1O[C@@H](CO)[C@H](O)[C@@H](O)[C@@H]1O
REMARK SMILES IDX 4 1 13 2 11 3 9 4 6 5 5 6 3 7 2 8 1 9 14 10 12 12 7 14 8 15
REMARK SMILES IDX 10 17
REMARK H PARENT 14 11 12 13 8 16 10 18
REMARK Flexibility Score: inf
ROOT
ATOM      1  C   UNL     1      23.853   4.398  37.945  1.00  0.00     0.281 C 
ATOM      2  C   UNL     1      22.363   4.341  37.547  1.00  0.00     0.202 C 
ATOM      3  C   UNL     1      21.568   3.518  38.574  1.00  0.00     0.179 C 
ATOM      4  C   UNL     1      21.851   4.025  40.000  1.00  0.00     0.177 C 
ATOM      5  C   UNL     1      23.377   4.085  40.231  1.00  0.00     0.178 C 
ATOM      6  O   UNL     1      24.001   4.915  39.260  1.00  0.00    -0.341 OA
ENDROOT
BRANCH   1   7
ATOM      7  O   UNL     1      24.441   3.109  37.824  1.00  0.00    -0.350 OA
BRANCH   7   8
ATOM      8  C   UNL     1      25.766   3.173  37.328  1.00  0.00     0.160 C 
ATOM      9  C   UNL     1      25.791   3.530  35.844  1.00  0.00     0.035 C 
ENDBRANCH   7   8
ENDBRANCH   1   7
BRANCH   2  10
ATOM     10  O   UNL     1      22.221   3.765  36.275  1.00  0.00    -0.385 OA
ATOM     11  H   UNL     1      21.286   3.936  35.986  1.00  0.00     0.211 HD
ENDBRANCH   2  10
BRANCH   3  12
ATOM     12  O   UNL     1      20.192   3.558  38.288  1.00  0.00    -0.387 OA
ATOM     13  H   UNL     1      19.716   3.080  39.017  1.00  0.00     0.211 HD
ENDBRANCH   3  12
BRANCH   5  14
ATOM     14  C   UNL     1      23.693   4.649  41.624  1.00  0.00     0.191 C 
BRANCH  14  15
ATOM     15  O   UNL     1      22.616   5.411  42.100  1.00  0.00    -0.394 OA
ATOM     16  H   UNL     1      22.206   5.849  41.309  1.00  0.00     0.210 HD
ENDBRANCH  14  15
ENDBRANCH   5  14
BRANCH   4  17
ATOM     17  O   UNL     1      21.266   3.155  40.935  1.00  0.00    -0.387 OA
ATOM     18  H   UNL     1      21.016   3.705  41.723  1.00  0.00     0.211 HD
ENDBRANCH   4  17
TORSDOF 7
ENDMDL
MODEL 4
REMARK VINA RESULT:    -4.637      2.131      4.042
REMARK INTER + INTRA:          -6.300
REMARK INTER:                  -6.099
REMARK INTRA:                  -0.201
REMARK UNBOUND:                -0.308
REMARK SMILES CCO[C@@H]1O[C@@H](CO)[C@H](O)[C@@H](O)[C@@H]1O
REMARK SMILES IDX 4 1 13 2 11 3 9 4 6 5 5 6 3 7 2 8 1 9 14 10 12 12 7 14 8 15
REMARK SMILES IDX 10 17
REMARK H PARENT 14 11 12 13 8 16 10 18
REMARK Flexibility Score: inf
ROOT
ATOM      1  C   UNL     1      22.473   2.049  40.393  1.00  0.00     0.281 C 
ATOM      2  C   UNL     1      23.175   1.751  39.053  1.00  0.00     0.202 C 
ATOM      3  C   UNL     1      23.360   3.048  38.248  1.00  0.00     0.179 C 
ATOM      4  C   UNL     1      24.031   4.127  39.119  1.00  0.00     0.177 C 
ATOM      5  C   UNL     1      23.255   4.270  40.446  1.00  0.00     0.178 C 
ATOM      6  O   UNL     1      23.194   3.027  41.131  1.00  0.00    -0.341 OA
ENDROOT
BRANCH   1   7
ATOM      7  O   UNL     1      21.131   2.459  40.161  1.00  0.00    -0.350 OA
BRANCH   7   8
ATOM      8  C   UNL     1      20.198   1.640  40.844  1.00  0.00     0.160 C 
ATOM      9  C   UNL     1      20.892   0.498  41.582  1.00  0.00     0.035 C 
ENDBRANCH   7   8
ENDBRANCH   1   7
BRANCH   2  10
ATOM     10  O   UNL     1      22.421   0.838  38.300  1.00  0.00    -0.385 OA
ATOM     11  H   UNL     1      21.502   0.846  38.676  1.00  0.00     0.211 HD
ENDBRANCH   2  10
BRANCH   3  12
ATOM     12  O   UNL     1      24.105   2.808  37.079  1.00  0.00    -0.387 OA
ATOM     13  H   UNL     1      24.853   3.461  37.056  1.00  0.00     0.211 HD
ENDBRANCH   3  12
BRANCH   5  14
ATOM     14  C   UNL     1      23.937   5.295  41.365  1.00  0.00     0.191 C 
BRANCH  14  15
ATOM     15  O   UNL     1      22.988   5.944  42.166  1.00  0.00    -0.394 OA
ATOM     16  H   UNL     1      22.107   5.542  41.946  1.00  0.00     0.210 HD
ENDBRANCH  14  15
ENDBRANCH   5  14
BRANCH   4  17
ATOM     17  O   UNL     1      24.029   5.354  38.435  1.00  0.00    -0.387 OA
ATOM     18  H   UNL     1      24.955   5.505  38.111  1.00  0.00     0.211 HD
ENDBRANCH   4  17
TORSDOF 7
ENDMDL
MODEL 5
REMARK VINA RESULT:    -4.591      1.935      5.283
REMARK INTER + INTRA:          -6.240
REMARK INTER:                  -5.770
REMARK INTRA:                  -0.471
REMARK UNBOUND:                -0.308
REMARK SMILES CCO[C@@H]1O[C@@H](CO)[C@H](O)[C@@H](O)[C@@H]1O
REMARK SMILES IDX 4 1 13 2 11 3 9 4 6 5 5 6 3 7 2 8 1 9 14 10 12 12 7 14 8 15
REMARK SMILES IDX 10 17
REMARK H PARENT 14 11 12 13 8 16 10 18
REMARK Flexibility Score: inf
ROOT
ATOM      1  C   UNL     1      21.466   3.484  36.806  1.00  0.00     0.281 C 
ATOM      2  C   UNL     1      22.993   3.503  37.020  1.00  0.00     0.202 C 
ATOM      3  C   UNL     1      23.351   4.375  38.234  1.00  0.00     0.179 C 
ATOM      4  C   UNL     1      22.517   3.954  39.459  1.00  0.00     0.177 C 
ATOM      5  C   UNL     1      21.021   3.924  39.077  1.00  0.00     0.178 C 
ATOM      6  O   UNL     1      20.800   3.046  37.982  1.00  0.00    -0.341 OA
ENDROOT
BRANCH   1   7
ATOM      7  O   UNL     1      21.013   4.770  36.401  1.00  0.00    -0.350 OA
BRANCH   7   8
ATOM      8  C   UNL     1      20.044   4.694  35.371  1.00  0.00     0.160 C 
ATOM      9  C   UNL     1      20.416   3.642  34.330  1.00  0.00     0.035 C 
ENDBRANCH   7   8
ENDBRANCH   1   7
BRANCH   2  10
ATOM     10  O   UNL     1      23.639   4.003  35.879  1.00  0.00    -0.385 OA
ATOM     11  H   UNL     1      23.444   4.976  35.842  1.00  0.00     0.211 HD
ENDBRANCH   2  10
BRANCH   3  12
ATOM     12  O   UNL     1      24.728   4.305  38.512  1.00  0.00    -0.387 OA
ATOM     13  H   UNL     1      24.917   4.920  39.268  1.00  0.00     0.211 HD
ENDBRANCH   3  12
BRANCH   5  14
ATOM     14  C   UNL     1      20.169   3.444  40.261  1.00  0.00     0.191 C 
BRANCH  14  15
ATOM     15  O   UNL     1      19.892   4.510  41.129  1.00  0.00    -0.394 OA
ATOM     16  H   UNL     1      19.675   4.109  42.011  1.00  0.00     0.210 HD
ENDBRANCH  14  15
ENDBRANCH   5  14
BRANCH   4  17
ATOM     17  O   UNL     1      22.719   4.870  40.505  1.00  0.00    -0.387 OA
ATOM     18  H   UNL     1      23.027   4.347  41.291  1.00  0.00     0.211 HD
ENDBRANCH   4  17
TORSDOF 7
ENDMDL
MODEL 6
REMARK VINA RESULT:    -4.551     10.810     12.395
REMARK INTER + INTRA:          -6.189
REMARK INTER:                  -5.774
REMARK INTRA:                  -0.416
REMARK UNBOUND:                -0.308
REMARK SMILES CCO[C@@H]1O[C@@H](CO)[C@H](O)[C@@H](O)[C@@H]1O
REMARK SMILES IDX 4 1 13 2 11 3 9 4 6 5 5 6 3 7 2 8 1 9 14 10 12 12 7 14 8 15
REMARK SMILES IDX 10 17
REMARK H PARENT 14 11 12 13 8 16 10 18
REMARK Flexibility Score: inf
ROOT
ATOM      1  C   UNL     1      33.453   2.238  42.867  1.00  0.00     0.281 C 
ATOM      2  C   UNL     1      33.817   3.498  42.055  1.00  0.00     0.202 C 
ATOM      3  C   UNL     1      34.448   4.559  42.972  1.00  0.00     0.179 C 
ATOM      4  C   UNL     1      35.601   3.943  43.786  1.00  0.00     0.177 C 
ATOM      5  C   UNL     1      35.105   2.662  44.491  1.00  0.00     0.178 C 
ATOM      6  O   UNL     1      34.594   1.732  43.545  1.00  0.00    -0.341 OA
ENDROOT
BRANCH   1   7
ATOM      7  O   UNL     1      32.396   2.527  43.772  1.00  0.00    -0.350 OA
BRANCH   7   8
ATOM      8  C   UNL     1      31.391   1.529  43.754  1.00  0.00     0.160 C 
ATOM      9  C   UNL     1      30.351   1.802  42.670  1.00  0.00     0.035 C 
ENDBRANCH   7   8
ENDBRANCH   1   7
BRANCH   2  10
ATOM     10  O   UNL     1      32.671   4.032  41.445  1.00  0.00    -0.385 OA
ATOM     11  H   UNL     1      32.838   4.024  40.466  1.00  0.00     0.211 HD
ENDBRANCH   2  10
BRANCH   3  12
ATOM     12  O   UNL     1      34.892   5.665  42.225  1.00  0.00    -0.387 OA
ATOM     13  H   UNL     1      35.657   5.366  41.666  1.00  0.00     0.211 HD
ENDBRANCH   3  12
BRANCH   5  14
ATOM     14  C   UNL     1      36.251   1.988  45.261  1.00  0.00     0.191 C 
BRANCH  14  15
ATOM     15  O   UNL     1      36.307   2.469  46.576  1.00  0.00    -0.394 OA
ATOM     16  H   UNL     1      35.370   2.627  46.861  1.00  0.00     0.210 HD
ENDBRANCH  14  15
ENDBRANCH   5  14
BRANCH   4  17
ATOM     17  O   UNL     1      36.048   4.867  44.746  1.00  0.00    -0.387 OA
ATOM     18  H   UNL     1      37.026   4.973  44.610  1.00  0.00     0.211 HD
ENDBRANCH   4  17
TORSDOF 7
ENDMDL
MODEL 7
REMARK VINA RESULT:    -4.505     14.880     16.388
REMARK INTER + INTRA:          -6.129
REMARK INTER:                  -5.681
REMARK INTRA:                  -0.448
REMARK UNBOUND:                -0.308
REMARK SMILES CCO[C@@H]1O[C@@H](CO)[C@H](O)[C@@H](O)[C@@H]1O
REMARK SMILES IDX 4 1 13 2 11 3 9 4 6 5 5 6 3 7 2 8 1 9 14 10 12 12 7 14 8 15
REMARK SMILES IDX 10 17
REMARK H PARENT 14 11 12 13 8 16 10 18
REMARK Flexibility Score: inf
ROOT
ATOM      1  C   UNL     1      36.880   1.397  44.546  1.00  0.00     0.281 C 
ATOM      2  C   UNL     1      37.428   1.918  45.890  1.00  0.00     0.202 C 
ATOM      3  C   UNL     1      38.165   0.795  46.637  1.00  0.00     0.179 C 
ATOM      4  C   UNL     1      39.204   0.132  45.714  1.00  0.00     0.177 C 
ATOM      5  C   UNL     1      38.525  -0.282  44.390  1.00  0.00     0.178 C 
ATOM      6  O   UNL     1      37.925   0.842  43.759  1.00  0.00    -0.341 OA
ENDROOT
BRANCH   1   7
ATOM      7  O   UNL     1      35.843   0.450  44.774  1.00  0.00    -0.350 OA
BRANCH   7   8
ATOM      8  C   UNL     1      34.762   0.617  43.875  1.00  0.00     0.160 C 
ATOM      9  C   UNL     1      33.944   1.862  44.209  1.00  0.00     0.035 C 
ENDBRANCH   7   8
ENDBRANCH   1   7
BRANCH   2  10
ATOM     10  O   UNL     1      36.379   2.401  46.689  1.00  0.00    -0.385 OA
ATOM     11  H   UNL     1      36.137   3.296  46.334  1.00  0.00     0.211 HD
ENDBRANCH   2  10
BRANCH   3  12
ATOM     12  O   UNL     1      38.771   1.287  47.807  1.00  0.00    -0.387 OA
ATOM     13  H   UNL     1      39.355   2.049  47.549  1.00  0.00     0.211 HD
ENDBRANCH   3  12
BRANCH   5  14
ATOM     14  C   UNL     1      39.551  -0.889  43.421  1.00  0.00     0.191 C 
BRANCH  14  15
ATOM     15  O   UNL     1      39.750  -2.247  43.707  1.00  0.00    -0.394 OA
ATOM     16  H   UNL     1      40.532  -2.539  43.168  1.00  0.00     0.210 HD
ENDBRANCH  14  15
ENDBRANCH   5  14
BRANCH   4  17
ATOM     17  O   UNL     1      39.740  -1.004  46.345  1.00  0.00    -0.387 OA
ATOM     18  H   UNL     1      39.315  -1.062  47.240  1.00  0.00     0.211 HD
ENDBRANCH   4  17
TORSDOF 7
ENDMDL
MODEL 8
REMARK VINA RESULT:    -4.485     15.165     16.881
REMARK INTER + INTRA:          -6.103
REMARK INTER:                  -5.627
REMARK INTRA:                  -0.476
REMARK UNBOUND:                -0.308
REMARK SMILES CCO[C@@H]1O[C@@H](CO)[C@H](O)[C@@H](O)[C@@H]1O
REMARK SMILES IDX 4 1 13 2 11 3 9 4 6 5 5 6 3 7 2 8 1 9 14 10 12 12 7 14 8 15
REMARK SMILES IDX 10 17
REMARK H PARENT 14 11 12 13 8 16 10 18
REMARK Flexibility Score: inf
ROOT
ATOM      1  C   UNL     1      37.814  -0.389  44.979  1.00  0.00     0.281 C 
ATOM      2  C   UNL     1      38.697  -0.021  46.190  1.00  0.00     0.202 C 
ATOM      3  C   UNL     1      39.271   1.395  46.021  1.00  0.00     0.179 C 
ATOM      4  C   UNL     1      38.143   2.394  45.698  1.00  0.00     0.177 C 
ATOM      5  C   UNL     1      37.313   1.864  44.509  1.00  0.00     0.178 C 
ATOM      6  O   UNL     1      36.787   0.576  44.796  1.00  0.00    -0.341 OA
ENDROOT
BRANCH   1   7
ATOM      7  O   UNL     1      38.616  -0.522  43.813  1.00  0.00    -0.350 OA
BRANCH   7   8
ATOM      8  C   UNL     1      38.137  -1.538  42.950  1.00  0.00     0.160 C 
ATOM      9  C   UNL     1      37.563  -2.714  43.736  1.00  0.00     0.035 C 
ENDBRANCH   7   8
ENDBRANCH   1   7
BRANCH   2  10
ATOM     10  O   UNL     1      39.750  -0.939  46.322  1.00  0.00    -0.385 OA
ATOM     11  H   UNL     1      40.388  -0.551  46.976  1.00  0.00     0.211 HD
ENDBRANCH   2  10
BRANCH   3  12
ATOM     12  O   UNL     1      39.979   1.788  47.171  1.00  0.00    -0.387 OA
ATOM     13  H   UNL     1      40.946   1.652  46.993  1.00  0.00     0.211 HD
ENDBRANCH   3  12
BRANCH   5  14
ATOM     14  C   UNL     1      36.140   2.808  44.203  1.00  0.00     0.191 C 
BRANCH  14  15
ATOM     15  O   UNL     1      35.755   3.500  45.360  1.00  0.00    -0.394 OA
ATOM     16  H   UNL     1      34.764   3.561  45.338  1.00  0.00     0.210 HD
ENDBRANCH  14  15
ENDBRANCH   5  14
BRANCH   4  17
ATOM     17  O   UNL     1      38.699   3.642  45.368  1.00  0.00    -0.387 OA
ATOM     18  H   UNL     1      39.684   3.550  45.451  1.00  0.00     0.211 HD
ENDBRANCH   4  17
TORSDOF 7
ENDMDL
MODEL 9
REMARK VINA RESULT:    -4.453      1.796      4.927
REMARK INTER + INTRA:          -6.062
REMARK INTER:                  -5.581
REMARK INTRA:                  -0.481
REMARK UNBOUND:                -0.308
REMARK SMILES CCO[C@@H]1O[C@@H](CO)[C@H](O)[C@@H](O)[C@@H]1O
REMARK SMILES IDX 4 1 13 2 11 3 9 4 6 5 5 6 3 7 2 8 1 9 14 10 12 12 7 14 8 15
REMARK SMILES IDX 10 17
REMARK H PARENT 14 11 12 13 8 16 10 18
REMARK Flexibility Score: inf
ROOT
ATOM      1  C   UNL     1      23.075   2.747  37.787  1.00  0.00     0.281 C 
ATOM      2  C   UNL     1      24.000   3.693  38.581  1.00  0.00     0.202 C 
ATOM      3  C   UNL     1      23.183   4.508  39.597  1.00  0.00     0.179 C 
ATOM      4  C   UNL     1      22.305   3.574  40.450  1.00  0.00     0.177 C 
ATOM      5  C   UNL     1      21.485   2.650  39.522  1.00  0.00     0.178 C 
ATOM      6  O   UNL     1      22.343   1.906  38.668  1.00  0.00    -0.341 OA
ENDROOT
BRANCH   1   7
ATOM      7  O   UNL     1      22.210   3.500  36.947  1.00  0.00    -0.350 OA
BRANCH   7   8
ATOM      8  C   UNL     1      22.063   2.912  35.668  1.00  0.00     0.160 C 
ATOM      9  C   UNL     1      23.393   2.379  35.141  1.00  0.00     0.035 C 
ENDBRANCH   7   8
ENDBRANCH   1   7
BRANCH   2  10
ATOM     10  O   UNL     1      24.667   4.567  37.709  1.00  0.00    -0.385 OA
ATOM     11  H   UNL     1      24.435   4.284  36.786  1.00  0.00     0.211 HD
ENDBRANCH   2  10
BRANCH   3  12
ATOM     12  O   UNL     1      24.028   5.286  40.408  1.00  0.00    -0.387 OA
ATOM     13  H   UNL     1      23.811   5.083  41.355  1.00  0.00     0.211 HD
ENDBRANCH   3  12
BRANCH   5  14
ATOM     14  C   UNL     1      20.646   1.661  40.345  1.00  0.00     0.191 C 
BRANCH  14  15
ATOM     15  O   UNL     1      21.261   1.406  41.579  1.00  0.00    -0.394 OA
ATOM     16  H   UNL     1      21.576   0.465  41.550  1.00  0.00     0.210 HD
ENDBRANCH  14  15
ENDBRANCH   5  14
BRANCH   4  17
ATOM     17  O   UNL     1      21.434   4.339  41.244  1.00  0.00    -0.387 OA
ATOM     18  H   UNL     1      21.968   5.089  41.615  1.00  0.00     0.211 HD
ENDBRANCH   4  17
TORSDOF 7
ENDMDL
