MODEL 1
REMARK VINA RESULT:    -4.940      0.000      0.000
REMARK INTER + INTRA:          -6.227
REMARK INTER:                  -5.951
REMARK INTRA:                  -0.276
REMARK UNBOUND:                -0.276
REMARK SMILES O=c1c(O)c(-c2ccc(O)c(O)c2)oc2cc(O)cc(O)c12
REMARK SMILES IDX 5 1 3 2 2 3 1 4 22 5 20 6 19 7 17 8 16 9 15 10 14 11 6 12
REMARK SMILES IDX 7 13 8 14 9 15 13 16 11 17 10 18 12 20 4 22 21 24 18 26
REMARK H PARENT 10 19 12 21 4 23 21 25 18 27
REMARK Flexibility Score: inf
ROOT
ATOM      1  C   UNL     1     -21.579  56.519   1.497  1.00  0.00     0.180 A 
ATOM      2  C   UNL     1     -22.944  56.725   1.230  1.00  0.00     0.208 A 
ATOM      3  C   UNL     1     -23.899  56.040   1.999  1.00  0.00     0.238 A 
ATOM      4  O   UNL     1     -25.118  56.188   1.718  1.00  0.00    -0.285 OA
ATOM      5  C   UNL     1     -23.479  55.171   3.034  1.00  0.00     0.111 A 
ATOM      6  C   UNL     1     -24.361  54.458   3.901  1.00  0.00     0.134 A 
ATOM      7  C   UNL     1     -23.836  53.527   4.805  1.00  0.00     0.093 A 
ATOM      8  C   UNL     1     -22.461  53.329   4.919  1.00  0.00     0.123 A 
ATOM      9  C   UNL     1     -21.586  54.065   4.118  1.00  0.00     0.094 A 
ATOM     10  C   UNL     1     -22.081  54.975   3.181  1.00  0.00     0.146 A 
ATOM     11  O   UNL     1     -21.217  55.648   2.431  1.00  0.00    -0.452 OA
ENDROOT
BRANCH   1  12
ATOM     12  C   UNL     1     -20.514  57.223   0.746  1.00  0.00     0.025 A 
ATOM     13  C   UNL     1     -19.810  58.300   1.312  1.00  0.00     0.016 A 
ATOM     14  C   UNL     1     -18.792  58.932   0.594  1.00  0.00     0.051 A 
ATOM     15  C   UNL     1     -18.455  58.492  -0.692  1.00  0.00     0.157 A 
ATOM     16  C   UNL     1     -20.158  56.772  -0.536  1.00  0.00     0.062 A 
ATOM     17  C   UNL     1     -19.137  57.407  -1.257  1.00  0.00     0.158 A 
BRANCH  15  18
ATOM     18  O   UNL     1     -17.441  59.122  -1.412  1.00  0.00    -0.504 OA
ATOM     19  H   UNL     1     -17.566  59.387  -2.383  1.00  0.00     0.293 HD
ENDBRANCH  15  18
BRANCH  17  20
ATOM     20  O   UNL     1     -18.796  56.966  -2.534  1.00  0.00    -0.504 OA
ATOM     21  H   UNL     1     -18.296  56.097  -2.678  1.00  0.00     0.293 HD
ENDBRANCH  17  20
ENDBRANCH   1  12
BRANCH   2  22
ATOM     22  O   UNL     1     -23.337  57.570   0.189  1.00  0.00    -0.502 OA
ATOM     23  H   UNL     1     -23.181  57.342  -0.785  1.00  0.00     0.293 HD
ENDBRANCH   2  22
BRANCH   6  24
ATOM     24  O   UNL     1     -25.745  54.647   3.933  1.00  0.00    -0.507 OA
ATOM     25  H   UNL     1     -26.237  55.189   4.628  1.00  0.00     0.293 HD
ENDBRANCH   6  24
BRANCH   8  26
ATOM     26  O   UNL     1     -21.973  52.405   5.840  1.00  0.00    -0.508 OA
ATOM     27  H   UNL     1     -22.130  51.409   5.725  1.00  0.00     0.293 HD
ENDBRANCH   8  26
TORSDOF 6
ENDMDL
MODEL 2
REMARK VINA RESULT:    -4.914      2.223      7.234
REMARK INTER + INTRA:          -6.196
REMARK INTER:                  -5.869
REMARK INTRA:                  -0.327
REMARK UNBOUND:                -0.276
REMARK SMILES O=c1c(O)c(-c2ccc(O)c(O)c2)oc2cc(O)cc(O)c12
REMARK SMILES IDX 5 1 3 2 2 3 1 4 22 5 20 6 19 7 17 8 16 9 15 10 14 11 6 12
REMARK SMILES IDX 7 13 8 14 9 15 13 16 11 17 10 18 12 20 4 22 21 24 18 26
REMARK H PARENT 10 19 12 21 4 23 21 25 18 27
REMARK Flexibility Score: inf
ROOT
ATOM      1  C   UNL     1     -22.722  56.666   1.669  1.00  0.00     0.180 A 
ATOM      2  C   UNL     1     -21.326  56.821   1.620  1.00  0.00     0.208 A 
ATOM      3  C   UNL     1     -20.751  57.477   0.521  1.00  0.00     0.238 A 
ATOM      4  O   UNL     1     -19.497  57.564   0.457  1.00  0.00    -0.285 OA
ATOM      5  C   UNL     1     -21.580  57.986  -0.508  1.00  0.00     0.111 A 
ATOM      6  C   UNL     1     -21.108  58.703  -1.648  1.00  0.00     0.134 A 
ATOM      7  C   UNL     1     -22.004  59.046  -2.668  1.00  0.00     0.093 A 
ATOM      8  C   UNL     1     -23.363  58.755  -2.560  1.00  0.00     0.123 A 
ATOM      9  C   UNL     1     -23.846  58.106  -1.422  1.00  0.00     0.094 A 
ATOM     10  C   UNL     1     -22.970  57.719  -0.405  1.00  0.00     0.146 A 
ATOM     11  O   UNL     1     -23.466  57.095   0.657  1.00  0.00    -0.452 OA
ENDROOT
BRANCH   1  12
ATOM     12  C   UNL     1     -23.403  56.006   2.807  1.00  0.00     0.025 A 
ATOM     13  C   UNL     1     -23.879  56.746   3.903  1.00  0.00     0.016 A 
ATOM     14  C   UNL     1     -24.541  56.105   4.954  1.00  0.00     0.051 A 
ATOM     15  C   UNL     1     -24.747  54.721   4.919  1.00  0.00     0.157 A 
ATOM     16  C   UNL     1     -23.631  54.621   2.767  1.00  0.00     0.062 A 
ATOM     17  C   UNL     1     -24.295  53.977   3.822  1.00  0.00     0.158 A 
BRANCH  15  18
ATOM     18  O   UNL     1     -25.406  54.078   5.966  1.00  0.00    -0.504 OA
ATOM     19  H   UNL     1     -25.808  53.154   5.852  1.00  0.00     0.293 HD
ENDBRANCH  15  18
BRANCH  17  20
ATOM     20  O   UNL     1     -24.508  52.601   3.785  1.00  0.00    -0.504 OA
ATOM     21  H   UNL     1     -24.254  52.004   4.563  1.00  0.00     0.293 HD
ENDBRANCH  17  20
ENDBRANCH   1  12
BRANCH   2  22
ATOM     22  O   UNL     1     -20.524  56.292   2.636  1.00  0.00    -0.502 OA
ATOM     23  H   UNL     1     -20.911  55.810   3.439  1.00  0.00     0.293 HD
ENDBRANCH   2  22
BRANCH   6  24
ATOM     24  O   UNL     1     -19.785  59.125  -1.812  1.00  0.00    -0.507 OA
ATOM     25  H   UNL     1     -18.978  58.646  -1.442  1.00  0.00     0.293 HD
ENDBRANCH   6  24
BRANCH   8  26
ATOM     26  O   UNL     1     -24.229  59.124  -3.588  1.00  0.00    -0.508 OA
ATOM     27  H   UNL     1     -24.758  58.433  -4.109  1.00  0.00     0.293 HD
ENDBRANCH   8  26
TORSDOF 6
ENDMDL
MODEL 3
REMARK VINA RESULT:    -4.832      1.524      3.191
REMARK INTER + INTRA:          -6.097
REMARK INTER:                  -6.464
REMARK INTRA:                   0.367
REMARK UNBOUND:                -0.276
REMARK SMILES O=c1c(O)c(-c2ccc(O)c(O)c2)oc2cc(O)cc(O)c12
REMARK SMILES IDX 5 1 3 2 2 3 1 4 22 5 20 6 19 7 17 8 16 9 15 10 14 11 6 12
REMARK SMILES IDX 7 13 8 14 9 15 13 16 11 17 10 18 12 20 4 22 21 24 18 26
REMARK H PARENT 10 19 12 21 4 23 21 25 18 27
REMARK Flexibility Score: inf
ROOT
ATOM      1  C   UNL     1     -21.669  56.573   1.213  1.00  0.00     0.180 A 
ATOM      2  C   UNL     1     -21.420  55.526   2.118  1.00  0.00     0.208 A 
ATOM      3  C   UNL     1     -22.505  54.918   2.770  1.00  0.00     0.238 A 
ATOM      4  O   UNL     1     -22.271  54.018   3.619  1.00  0.00    -0.285 OA
ATOM      5  C   UNL     1     -23.824  55.352   2.498  1.00  0.00     0.111 A 
ATOM      6  C   UNL     1     -25.000  54.779   3.071  1.00  0.00     0.134 A 
ATOM      7  C   UNL     1     -26.244  55.373   2.830  1.00  0.00     0.093 A 
ATOM      8  C   UNL     1     -26.365  56.477   1.987  1.00  0.00     0.123 A 
ATOM      9  C   UNL     1     -25.229  57.009   1.373  1.00  0.00     0.094 A 
ATOM     10  C   UNL     1     -23.969  56.460   1.623  1.00  0.00     0.146 A 
ATOM     11  O   UNL     1     -22.912  57.001   1.029  1.00  0.00    -0.452 OA
ENDROOT
BRANCH   1  12
ATOM     12  C   UNL     1     -20.580  57.247   0.469  1.00  0.00     0.025 A 
ATOM     13  C   UNL     1     -19.254  57.227   0.936  1.00  0.00     0.016 A 
ATOM     14  C   UNL     1     -18.239  57.849   0.204  1.00  0.00     0.051 A 
ATOM     15  C   UNL     1     -18.531  58.487  -1.008  1.00  0.00     0.157 A 
ATOM     16  C   UNL     1     -20.863  57.871  -0.757  1.00  0.00     0.062 A 
ATOM     17  C   UNL     1     -19.844  58.495  -1.492  1.00  0.00     0.158 A 
BRANCH  15  18
ATOM     18  O   UNL     1     -17.520  59.110  -1.740  1.00  0.00    -0.504 OA
ATOM     19  H   UNL     1     -17.164  58.708  -2.599  1.00  0.00     0.293 HD
ENDBRANCH  15  18
BRANCH  17  20
ATOM     20  O   UNL     1     -20.132  59.124  -2.701  1.00  0.00    -0.504 OA
ATOM     21  H   UNL     1     -19.630  59.951  -3.001  1.00  0.00     0.293 HD
ENDBRANCH  17  20
ENDBRANCH   1  12
BRANCH   2  22
ATOM     22  O   UNL     1     -20.108  55.128   2.388  1.00  0.00    -0.502 OA
ATOM     23  H   UNL     1     -19.574  55.504   3.162  1.00  0.00     0.293 HD
ENDBRANCH   2  22
BRANCH   6  24
ATOM     24  O   UNL     1     -25.002  53.621   3.853  1.00  0.00    -0.507 OA
ATOM     25  H   UNL     1     -25.117  53.604   4.856  1.00  0.00     0.293 HD
ENDBRANCH   6  24
BRANCH   8  26
ATOM     26  O   UNL     1     -27.621  57.034   1.758  1.00  0.00    -0.508 OA
ATOM     27  H   UNL     1     -27.899  57.356   0.837  1.00  0.00     0.293 HD
ENDBRANCH   8  26
TORSDOF 6
ENDMDL
MODEL 4
REMARK VINA RESULT:    -4.782      1.711      6.731
REMARK INTER + INTRA:          -6.037
REMARK INTER:                  -5.798
REMARK INTRA:                  -0.239
REMARK UNBOUND:                -0.276
REMARK SMILES O=c1c(O)c(-c2ccc(O)c(O)c2)oc2cc(O)cc(O)c12
REMARK SMILES IDX 5 1 3 2 2 3 1 4 22 5 20 6 19 7 17 8 16 9 15 10 14 11 6 12
REMARK SMILES IDX 7 13 8 14 9 15 13 16 11 17 10 18 12 20 4 22 21 24 18 26
REMARK H PARENT 10 19 12 21 4 23 21 25 18 27
REMARK Flexibility Score: inf
ROOT
ATOM      1  C   UNL     1     -22.949  56.856   1.647  1.00  0.00     0.180 A 
ATOM      2  C   UNL     1     -23.650  57.577   0.663  1.00  0.00     0.208 A 
ATOM      3  C   UNL     1     -22.933  58.165  -0.390  1.00  0.00     0.238 A 
ATOM      4  O   UNL     1     -23.561  58.854  -1.236  1.00  0.00    -0.285 OA
ATOM      5  C   UNL     1     -21.528  58.013  -0.458  1.00  0.00     0.111 A 
ATOM      6  C   UNL     1     -20.705  58.533  -1.503  1.00  0.00     0.134 A 
ATOM      7  C   UNL     1     -19.313  58.433  -1.400  1.00  0.00     0.093 A 
ATOM      8  C   UNL     1     -18.715  57.778  -0.324  1.00  0.00     0.123 A 
ATOM      9  C   UNL     1     -19.511  57.214   0.674  1.00  0.00     0.094 A 
ATOM     10  C   UNL     1     -20.903  57.328   0.617  1.00  0.00     0.146 A 
ATOM     11  O   UNL     1     -21.625  56.787   1.591  1.00  0.00    -0.452 OA
ENDROOT
BRANCH   1  12
ATOM     12  C   UNL     1     -23.637  56.187   2.774  1.00  0.00     0.025 A 
ATOM     13  C   UNL     1     -24.194  56.925   3.834  1.00  0.00     0.016 A 
ATOM     14  C   UNL     1     -24.861  56.274   4.874  1.00  0.00     0.051 A 
ATOM     15  C   UNL     1     -24.992  54.879   4.866  1.00  0.00     0.157 A 
ATOM     16  C   UNL     1     -23.791  54.791   2.761  1.00  0.00     0.062 A 
ATOM     17  C   UNL     1     -24.460  54.137   3.805  1.00  0.00     0.158 A 
BRANCH  15  18
ATOM     18  O   UNL     1     -25.655  54.225   5.904  1.00  0.00    -0.504 OA
ATOM     19  H   UNL     1     -25.304  54.249   6.854  1.00  0.00     0.293 HD
ENDBRANCH  15  18
BRANCH  17  20
ATOM     20  O   UNL     1     -24.598  52.750   3.795  1.00  0.00    -0.504 OA
ATOM     21  H   UNL     1     -25.134  52.276   3.078  1.00  0.00     0.293 HD
ENDBRANCH  17  20
ENDBRANCH   1  12
BRANCH   2  22
ATOM     22  O   UNL     1     -25.036  57.733   0.761  1.00  0.00    -0.502 OA
ATOM     23  H   UNL     1     -25.677  57.338   0.085  1.00  0.00     0.293 HD
ENDBRANCH   2  22
BRANCH   6  24
ATOM     24  O   UNL     1     -21.204  59.125  -2.666  1.00  0.00    -0.507 OA
ATOM     25  H   UNL     1     -22.114  59.553  -2.750  1.00  0.00     0.293 HD
ENDBRANCH   6  24
BRANCH   8  26
ATOM     26  O   UNL     1     -17.326  57.685  -0.261  1.00  0.00    -0.508 OA
ATOM     27  H   UNL     1     -16.823  57.845   0.605  1.00  0.00     0.293 HD
ENDBRANCH   8  26
TORSDOF 6
ENDMDL
MODEL 5
REMARK VINA RESULT:    -4.736      2.109      6.668
REMARK INTER + INTRA:          -5.982
REMARK INTER:                  -5.851
REMARK INTRA:                  -0.130
REMARK UNBOUND:                -0.276
REMARK SMILES O=c1c(O)c(-c2ccc(O)c(O)c2)oc2cc(O)cc(O)c12
REMARK SMILES IDX 5 1 3 2 2 3 1 4 22 5 20 6 19 7 17 8 16 9 15 10 14 11 6 12
REMARK SMILES IDX 7 13 8 14 9 15 13 16 11 17 10 18 12 20 4 22 21 24 18 26
REMARK H PARENT 10 19 12 21 4 23 21 25 18 27
REMARK Flexibility Score: inf
ROOT
ATOM      1  C   UNL     1     -23.677  55.054   2.811  1.00  0.00     0.180 A 
ATOM      2  C   UNL     1     -24.999  55.527   2.735  1.00  0.00     0.208 A 
ATOM      3  C   UNL     1     -25.288  56.604   1.883  1.00  0.00     0.238 A 
ATOM      4  O   UNL     1     -26.463  57.058   1.861  1.00  0.00    -0.285 OA
ATOM      5  C   UNL     1     -24.258  57.185   1.106  1.00  0.00     0.111 A 
ATOM      6  C   UNL     1     -24.447  58.255   0.179  1.00  0.00     0.134 A 
ATOM      7  C   UNL     1     -23.334  58.837  -0.439  1.00  0.00     0.093 A 
ATOM      8  C   UNL     1     -22.047  58.348  -0.216  1.00  0.00     0.123 A 
ATOM      9  C   UNL     1     -21.857  57.263   0.643  1.00  0.00     0.094 A 
ATOM     10  C   UNL     1     -22.944  56.685   1.303  1.00  0.00     0.146 A 
ATOM     11  O   UNL     1     -22.721  55.662   2.118  1.00  0.00    -0.452 OA
ENDROOT
BRANCH   1  12
ATOM     12  C   UNL     1     -23.298  53.907   3.667  1.00  0.00     0.025 A 
ATOM     13  C   UNL     1     -22.417  54.063   4.752  1.00  0.00     0.016 A 
ATOM     14  C   UNL     1     -22.094  52.971   5.561  1.00  0.00     0.051 A 
ATOM     15  C   UNL     1     -22.654  51.713   5.307  1.00  0.00     0.157 A 
ATOM     16  C   UNL     1     -23.873  52.647   3.430  1.00  0.00     0.062 A 
ATOM     17  C   UNL     1     -23.548  51.551   4.242  1.00  0.00     0.158 A 
BRANCH  15  18
ATOM     18  O   UNL     1     -22.332  50.620   6.112  1.00  0.00    -0.504 OA
ATOM     19  H   UNL     1     -21.390  50.247   6.147  1.00  0.00     0.293 HD
ENDBRANCH  15  18
BRANCH  17  20
ATOM     20  O   UNL     1     -24.110  50.300   3.995  1.00  0.00    -0.504 OA
ATOM     21  H   UNL     1     -24.822  49.910   4.601  1.00  0.00     0.293 HD
ENDBRANCH  17  20
ENDBRANCH   1  12
BRANCH   2  22
ATOM     22  O   UNL     1     -25.997  54.953   3.527  1.00  0.00    -0.502 OA
ATOM     23  H   UNL     1     -26.762  55.492   3.913  1.00  0.00     0.293 HD
ENDBRANCH   2  22
BRANCH   6  24
ATOM     24  O   UNL     1     -25.698  58.758  -0.187  1.00  0.00    -0.507 OA
ATOM     25  H   UNL     1     -25.866  59.694  -0.523  1.00  0.00     0.293 HD
ENDBRANCH   6  24
BRANCH   8  26
ATOM     26  O   UNL     1     -20.964  58.942  -0.859  1.00  0.00    -0.508 OA
ATOM     27  H   UNL     1     -20.110  59.168  -0.361  1.00  0.00     0.293 HD
ENDBRANCH   8  26
TORSDOF 6
ENDMDL
MODEL 6
REMARK VINA RESULT:    -4.692      2.932      6.895
REMARK INTER + INTRA:          -5.928
REMARK INTER:                  -5.618
REMARK INTRA:                  -0.310
REMARK UNBOUND:                -0.276
REMARK SMILES O=c1c(O)c(-c2ccc(O)c(O)c2)oc2cc(O)cc(O)c12
REMARK SMILES IDX 5 1 3 2 2 3 1 4 22 5 20 6 19 7 17 8 16 9 15 10 14 11 6 12
REMARK SMILES IDX 7 13 8 14 9 15 13 16 11 17 10 18 12 20 4 22 21 24 18 26
REMARK H PARENT 10 19 12 21 4 23 21 25 18 27
REMARK Flexibility Score: inf
ROOT
ATOM      1  C   UNL     1     -24.075  57.360   0.946  1.00  0.00     0.180 A 
ATOM      2  C   UNL     1     -24.117  58.065  -0.270  1.00  0.00     0.208 A 
ATOM      3  C   UNL     1     -22.910  58.410  -0.899  1.00  0.00     0.238 A 
ATOM      4  O   UNL     1     -22.954  59.089  -1.958  1.00  0.00    -0.285 OA
ATOM      5  C   UNL     1     -21.678  58.032  -0.315  1.00  0.00     0.111 A 
ATOM      6  C   UNL     1     -20.396  58.293  -0.886  1.00  0.00     0.134 A 
ATOM      7  C   UNL     1     -19.240  57.988  -0.158  1.00  0.00     0.093 A 
ATOM      8  C   UNL     1     -19.317  57.373   1.091  1.00  0.00     0.123 A 
ATOM      9  C   UNL     1     -20.564  57.058   1.634  1.00  0.00     0.094 A 
ATOM     10  C   UNL     1     -21.736  57.384   0.947  1.00  0.00     0.146 A 
ATOM     11  O   UNL     1     -22.903  57.077   1.501  1.00  0.00    -0.452 OA
ENDROOT
BRANCH   1  12
ATOM     12  C   UNL     1     -25.305  56.940   1.656  1.00  0.00     0.025 A 
ATOM     13  C   UNL     1     -25.858  57.721   2.686  1.00  0.00     0.016 A 
ATOM     14  C   UNL     1     -27.033  57.317   3.325  1.00  0.00     0.051 A 
ATOM     15  C   UNL     1     -27.678  56.136   2.937  1.00  0.00     0.157 A 
ATOM     16  C   UNL     1     -25.967  55.767   1.258  1.00  0.00     0.062 A 
ATOM     17  C   UNL     1     -27.147  55.362   1.899  1.00  0.00     0.158 A 
BRANCH  15  18
ATOM     18  O   UNL     1     -28.850  55.729   3.574  1.00  0.00    -0.504 OA
ATOM     19  H   UNL     1     -29.728  56.214   3.428  1.00  0.00     0.293 HD
ENDBRANCH  15  18
BRANCH  17  20
ATOM     20  O   UNL     1     -27.794  54.190   1.510  1.00  0.00    -0.504 OA
ATOM     21  H   UNL     1     -28.073  54.033   0.549  1.00  0.00     0.293 HD
ENDBRANCH  17  20
ENDBRANCH   1  12
BRANCH   2  22
ATOM     22  O   UNL     1     -25.344  58.449  -0.818  1.00  0.00    -0.502 OA
ATOM     23  H   UNL     1     -26.126  58.746  -0.247  1.00  0.00     0.293 HD
ENDBRANCH   2  22
BRANCH   6  24
ATOM     24  O   UNL     1     -20.205  58.821  -2.166  1.00  0.00    -0.507 OA
ATOM     25  H   UNL     1     -20.543  59.720  -2.475  1.00  0.00     0.293 HD
ENDBRANCH   6  24
BRANCH   8  26
ATOM     26  O   UNL     1     -18.145  57.070   1.782  1.00  0.00    -0.508 OA
ATOM     27  H   UNL     1     -18.036  56.195   2.283  1.00  0.00     0.293 HD
ENDBRANCH   8  26
TORSDOF 6
ENDMDL
MODEL 7
REMARK VINA RESULT:    -4.687      2.084      2.881
REMARK INTER + INTRA:          -5.923
REMARK INTER:                  -5.639
REMARK INTRA:                  -0.284
REMARK UNBOUND:                -0.276
REMARK SMILES O=c1c(O)c(-c2ccc(O)c(O)c2)oc2cc(O)cc(O)c12
REMARK SMILES IDX 5 1 3 2 2 3 1 4 22 5 20 6 19 7 17 8 16 9 15 10 14 11 6 12
REMARK SMILES IDX 7 13 8 14 9 15 13 16 11 17 10 18 12 20 4 22 21 24 18 26
REMARK H PARENT 10 19 12 21 4 23 21 25 18 27
REMARK Flexibility Score: inf
ROOT
ATOM      1  C   UNL     1     -21.728  56.937   1.695  1.00  0.00     0.180 A 
ATOM      2  C   UNL     1     -21.987  55.559   1.790  1.00  0.00     0.208 A 
ATOM      3  C   UNL     1     -22.975  55.111   2.681  1.00  0.00     0.238 A 
ATOM      4  O   UNL     1     -23.163  53.872   2.801  1.00  0.00    -0.285 OA
ATOM      5  C   UNL     1     -23.704  56.047   3.453  1.00  0.00     0.111 A 
ATOM      6  C   UNL     1     -24.755  55.709   4.357  1.00  0.00     0.134 A 
ATOM      7  C   UNL     1     -25.319  56.704   5.165  1.00  0.00     0.093 A 
ATOM      8  C   UNL     1     -24.916  58.034   5.056  1.00  0.00     0.123 A 
ATOM      9  C   UNL     1     -23.930  58.387   4.133  1.00  0.00     0.094 A 
ATOM     10  C   UNL     1     -23.323  57.410   3.339  1.00  0.00     0.146 A 
ATOM     11  O   UNL     1     -22.383  57.784   2.479  1.00  0.00    -0.452 OA
ENDROOT
BRANCH   1  12
ATOM     12  C   UNL     1     -20.718  57.487   0.761  1.00  0.00     0.025 A 
ATOM     13  C   UNL     1     -19.344  57.433   1.054  1.00  0.00     0.016 A 
ATOM     14  C   UNL     1     -18.409  57.936   0.147  1.00  0.00     0.051 A 
ATOM     15  C   UNL     1     -18.830  58.487  -1.070  1.00  0.00     0.157 A 
ATOM     16  C   UNL     1     -21.133  58.023  -0.469  1.00  0.00     0.062 A 
ATOM     17  C   UNL     1     -20.194  58.528  -1.380  1.00  0.00     0.158 A 
BRANCH  15  18
ATOM     18  O   UNL     1     -17.899  58.992  -1.977  1.00  0.00    -0.504 OA
ATOM     19  H   UNL     1     -16.906  58.992  -1.772  1.00  0.00     0.293 HD
ENDBRANCH  15  18
BRANCH  17  20
ATOM     20  O   UNL     1     -20.611  59.070  -2.594  1.00  0.00    -0.504 OA
ATOM     21  H   UNL     1     -20.879  60.044  -2.676  1.00  0.00     0.293 HD
ENDBRANCH  17  20
ENDBRANCH   1  12
BRANCH   2  22
ATOM     22  O   UNL     1     -21.240  54.650   1.035  1.00  0.00    -0.502 OA
ATOM     23  H   UNL     1     -21.455  53.661   1.005  1.00  0.00     0.293 HD
ENDBRANCH   2  22
BRANCH   6  24
ATOM     24  O   UNL     1     -25.297  54.426   4.478  1.00  0.00    -0.507 OA
ATOM     25  H   UNL     1     -26.211  54.219   4.851  1.00  0.00     0.293 HD
ENDBRANCH   6  24
BRANCH   8  26
ATOM     26  O   UNL     1     -25.509  59.000   5.865  1.00  0.00    -0.508 OA
ATOM     27  H   UNL     1     -25.190  59.963   5.862  1.00  0.00     0.293 HD
ENDBRANCH   8  26
TORSDOF 6
ENDMDL
MODEL 8
REMARK VINA RESULT:    -4.467      2.954      6.834
REMARK INTER + INTRA:          -5.657
REMARK INTER:                  -5.383
REMARK INTRA:                  -0.274
REMARK UNBOUND:                -0.276
REMARK SMILES O=c1c(O)c(-c2ccc(O)c(O)c2)oc2cc(O)cc(O)c12
REMARK SMILES IDX 5 1 3 2 2 3 1 4 22 5 20 6 19 7 17 8 16 9 15 10 14 11 6 12
REMARK SMILES IDX 7 13 8 14 9 15 13 16 11 17 10 18 12 20 4 22 21 24 18 26
REMARK H PARENT 10 19 12 21 4 23 21 25 18 27
REMARK Flexibility Score: inf
ROOT
ATOM      1  C   UNL     1     -23.650  54.779   3.048  1.00  0.00     0.180 A 
ATOM      2  C   UNL     1     -22.742  55.373   2.153  1.00  0.00     0.208 A 
ATOM      3  C   UNL     1     -23.135  56.520   1.446  1.00  0.00     0.238 A 
ATOM      4  O   UNL     1     -22.338  57.014   0.607  1.00  0.00    -0.285 OA
ATOM      5  C   UNL     1     -24.423  57.070   1.654  1.00  0.00     0.111 A 
ATOM      6  C   UNL     1     -24.911  58.253   1.022  1.00  0.00     0.134 A 
ATOM      7  C   UNL     1     -26.246  58.632   1.204  1.00  0.00     0.093 A 
ATOM      8  C   UNL     1     -27.092  57.909   2.044  1.00  0.00     0.123 A 
ATOM      9  C   UNL     1     -26.609  56.785   2.714  1.00  0.00     0.094 A 
ATOM     10  C   UNL     1     -25.291  56.360   2.525  1.00  0.00     0.146 A 
ATOM     11  O   UNL     1     -24.872  55.280   3.173  1.00  0.00    -0.452 OA
ENDROOT
BRANCH   1  12
ATOM     12  C   UNL     1     -23.300  53.582   3.847  1.00  0.00     0.025 A 
ATOM     13  C   UNL     1     -22.440  53.669   4.956  1.00  0.00     0.016 A 
ATOM     14  C   UNL     1     -22.144  52.530   5.710  1.00  0.00     0.051 A 
ATOM     15  C   UNL     1     -22.711  51.294   5.376  1.00  0.00     0.157 A 
ATOM     16  C   UNL     1     -23.882  52.344   3.529  1.00  0.00     0.062 A 
ATOM     17  C   UNL     1     -23.585  51.202   4.286  1.00  0.00     0.158 A 
BRANCH  15  18
ATOM     18  O   UNL     1     -22.417  50.156   6.125  1.00  0.00    -0.504 OA
ATOM     19  H   UNL     1     -21.513  50.031   6.567  1.00  0.00     0.293 HD
ENDBRANCH  15  18
BRANCH  17  20
ATOM     20  O   UNL     1     -24.154  49.972   3.959  1.00  0.00    -0.504 OA
ATOM     21  H   UNL     1     -23.622  49.249   3.491  1.00  0.00     0.293 HD
ENDBRANCH  17  20
ENDBRANCH   1  12
BRANCH   2  22
ATOM     22  O   UNL     1     -21.484  54.801   1.946  1.00  0.00    -0.502 OA
ATOM     23  H   UNL     1     -20.663  55.089   2.464  1.00  0.00     0.293 HD
ENDBRANCH   2  22
BRANCH   6  24
ATOM     24  O   UNL     1     -24.123  59.099   0.236  1.00  0.00    -0.507 OA
ATOM     25  H   UNL     1     -24.134  59.124  -0.772  1.00  0.00     0.293 HD
ENDBRANCH   6  24
BRANCH   8  26
ATOM     26  O   UNL     1     -28.412  58.324   2.212  1.00  0.00    -0.508 OA
ATOM     27  H   UNL     1     -28.754  59.185   1.799  1.00  0.00     0.293 HD
ENDBRANCH   8  26
TORSDOF 6
ENDMDL
MODEL 9
REMARK VINA RESULT:    -4.422      2.197      7.246
REMARK INTER + INTRA:          -5.603
REMARK INTER:                  -5.400
REMARK INTRA:                  -0.203
REMARK UNBOUND:                -0.276
REMARK SMILES O=c1c(O)c(-c2ccc(O)c(O)c2)oc2cc(O)cc(O)c12
REMARK SMILES IDX 5 1 3 2 2 3 1 4 22 5 20 6 19 7 17 8 16 9 15 10 14 11 6 12
REMARK SMILES IDX 7 13 8 14 9 15 13 16 11 17 10 18 12 20 4 22 21 24 18 26
REMARK H PARENT 10 19 12 21 4 23 21 25 18 27
REMARK Flexibility Score: inf
ROOT
ATOM      1  C   UNL     1     -22.655  56.966   1.758  1.00  0.00     0.180 A 
ATOM      2  C   UNL     1     -21.381  56.663   2.269  1.00  0.00     0.208 A 
ATOM      3  C   UNL     1     -20.248  56.966   1.497  1.00  0.00     0.238 A 
ATOM      4  O   UNL     1     -19.114  56.642   1.936  1.00  0.00    -0.285 OA
ATOM      5  C   UNL     1     -20.401  57.583   0.232  1.00  0.00     0.111 A 
ATOM      6  C   UNL     1     -19.321  57.972  -0.616  1.00  0.00     0.134 A 
ATOM      7  C   UNL     1     -19.593  58.456  -1.902  1.00  0.00     0.093 A 
ATOM      8  C   UNL     1     -20.903  58.626  -2.345  1.00  0.00     0.123 A 
ATOM      9  C   UNL     1     -21.968  58.306  -1.502  1.00  0.00     0.094 A 
ATOM     10  C   UNL     1     -21.729  57.786  -0.227  1.00  0.00     0.146 A 
ATOM     11  O   UNL     1     -22.769  57.485   0.542  1.00  0.00    -0.452 OA
ENDROOT
BRANCH   1  12
ATOM     12  C   UNL     1     -23.895  56.698   2.523  1.00  0.00     0.025 A 
ATOM     13  C   UNL     1     -24.178  57.380   3.719  1.00  0.00     0.016 A 
ATOM     14  C   UNL     1     -25.366  57.129   4.411  1.00  0.00     0.051 A 
ATOM     15  C   UNL     1     -26.292  56.205   3.911  1.00  0.00     0.157 A 
ATOM     16  C   UNL     1     -24.837  55.788   2.016  1.00  0.00     0.062 A 
ATOM     17  C   UNL     1     -26.029  55.536   2.710  1.00  0.00     0.158 A 
BRANCH  15  18
ATOM     18  O   UNL     1     -27.478  55.951   4.600  1.00  0.00    -0.504 OA
ATOM     19  H   UNL     1     -27.925  55.042   4.567  1.00  0.00     0.293 HD
ENDBRANCH  15  18
BRANCH  17  20
ATOM     20  O   UNL     1     -26.955  54.622   2.211  1.00  0.00    -0.504 OA
ATOM     21  H   UNL     1     -26.826  54.172   1.313  1.00  0.00     0.293 HD
ENDBRANCH  17  20
ENDBRANCH   1  12
BRANCH   2  22
ATOM     22  O   UNL     1     -21.253  56.033   3.510  1.00  0.00    -0.502 OA
ATOM     23  H   UNL     1     -20.428  55.506   3.770  1.00  0.00     0.293 HD
ENDBRANCH   2  22
BRANCH   6  24
ATOM     24  O   UNL     1     -17.977  57.929  -0.237  1.00  0.00    -0.507 OA
ATOM     25  H   UNL     1     -17.398  58.739  -0.074  1.00  0.00     0.293 HD
ENDBRANCH   6  24
BRANCH   8  26
ATOM     26  O   UNL     1     -21.136  59.124  -3.625  1.00  0.00    -0.508 OA
ATOM     27  H   UNL     1     -21.978  59.647  -3.846  1.00  0.00     0.293 HD
ENDBRANCH   8  26
TORSDOF 6
ENDMDL
