MODEL 1
REMARK VINA RESULT:    19.875      0.000      0.000
REMARK INTER + INTRA:          27.207
REMARK INTER:                  27.427
REMARK INTRA:                  -0.220
REMARK UNBOUND:                -0.220
REMARK SMILES C=C(CC[C@H](C(=O)[O-])[C@H]1CC[C@]2(C)C3=CC[C@@H]4C(C)(C)[C@H](O)CC[C@]4(C)C3=CC[C@]12C)C(C)C
REMARK SMILES IDX 4 1 5 2 6 3 7 4 8 5 9 6 10 7 30 8 11 9 12 10 29 11 31 12
REMARK SMILES IDX 13 13 14 14 28 15 27 16 15 17 25 18 16 19 17 20 24 21 26 22
REMARK SMILES IDX 18 23 23 24 21 25 19 26 20 27 22 28 3 30 2 31 1 32 32 33
REMARK SMILES IDX 33 34 34 35
REMARK H PARENT 22 29
REMARK Flexibility Score: inf
ROOT
ATOM      1  C   UNL     1      53.166 -59.682 317.886  1.00  0.00     0.014 C 
ENDROOT
BRANCH   1   2
ATOM      2  C   UNL     1      52.246 -59.858 319.133  1.00  0.00     0.039 C 
BRANCH   2   3
ATOM      3  C   UNL     1      51.910 -61.305 319.393  1.00  0.00     0.045 C 
ATOM      4  O   UNL     1      50.817 -61.797 319.015  1.00  0.00    -0.550 OA
ATOM      5  O   UNL     1      52.798 -62.098 320.110  1.00  0.00    -0.550 OA
ENDBRANCH   2   3
BRANCH   2   6
ATOM      6  C   UNL     1      50.968 -58.947 319.209  1.00  0.00     0.005 C 
ATOM      7  C   UNL     1      49.744 -59.689 319.782  1.00  0.00     0.006 C 
ATOM      8  C   UNL     1      50.994 -57.539 319.910  1.00  0.00    -0.016 C 
ATOM      9  C   UNL     1      49.059 -58.718 320.731  1.00  0.00     0.012 C 
ATOM     10  C   UNL     1      49.475 -57.309 320.253  1.00  0.00    -0.002 C 
ATOM     11  C   UNL     1      51.546 -56.423 318.992  1.00  0.00     0.035 C 
ATOM     12  C   UNL     1      51.886 -57.534 321.186  1.00  0.00     0.013 C 
ATOM     13  C   UNL     1      49.213 -56.256 321.352  1.00  0.00     0.017 C 
ATOM     14  C   UNL     1      48.674 -56.889 318.998  1.00  0.00    -0.042 C 
ATOM     15  C   UNL     1      50.658 -56.018 317.858  1.00  0.00    -0.022 C 
ATOM     16  C   UNL     1      49.317 -56.131 317.880  1.00  0.00    -0.042 C 
ATOM     17  C   UNL     1      47.358 -57.129 318.911  1.00  0.00    -0.022 C 
ATOM     18  C   UNL     1      48.454 -55.263 316.910  1.00  0.00    -0.004 C 
ATOM     19  C   UNL     1      46.672 -57.021 317.597  1.00  0.00     0.032 C 
ATOM     20  C   UNL     1      46.904 -55.633 316.974  1.00  0.00     0.011 C 
ATOM     21  C   UNL     1      48.969 -55.407 315.445  1.00  0.00     0.014 C 
ATOM     22  C   UNL     1      48.660 -53.794 317.394  1.00  0.00     0.017 C 
ATOM     23  C   UNL     1      46.073 -55.457 315.623  1.00  0.00    -0.005 C 
ATOM     24  C   UNL     1      48.169 -54.621 314.387  1.00  0.00     0.033 C 
ATOM     25  C   UNL     1      46.697 -54.338 314.744  1.00  0.00     0.120 C 
ATOM     26  C   UNL     1      44.624 -55.029 315.983  1.00  0.00     0.014 C 
ATOM     27  C   UNL     1      45.964 -56.769 314.782  1.00  0.00     0.014 C 
BRANCH  25  28
ATOM     28  O   UNL     1      45.960 -54.180 313.554  1.00  0.00    -0.393 OA
ATOM     29  H   UNL     1      46.086 -55.011 313.017  1.00  0.00     0.210 HD
ENDBRANCH  25  28
ENDBRANCH   2   6
ENDBRANCH   1   2
BRANCH   1  30
ATOM     30  C   UNL     1      52.367 -59.742 316.572  1.00  0.00     0.031 C 
BRANCH  30  31
ATOM     31  C   UNL     1      52.745 -60.976 315.776  1.00  0.00    -0.075 C 
ATOM     32  C   UNL     1      53.127 -62.089 316.429  1.00  0.00     0.008 C 
BRANCH  31  33
ATOM     33  C   UNL     1      52.705 -60.928 314.252  1.00  0.00     0.008 C 
ATOM     34  C   UNL     1      52.122 -59.598 313.757  1.00  0.00     0.012 C 
ATOM     35  C   UNL     1      51.929 -62.125 313.677  1.00  0.00     0.012 C 
ENDBRANCH  31  33
ENDBRANCH  30  31
ENDBRANCH   1  30
TORSDOF 7
ENDMDL
