MODEL 1
REMARK VINA RESULT:    -4.586      0.000      0.000
REMARK INTER + INTRA:          -9.806
REMARK INTER:                  -8.071
REMARK INTRA:                  -1.736
REMARK UNBOUND:                -1.736
REMARK SMILES CCCCCCCCCCCCCCC(=O)[O-]
REMARK SMILES IDX 9 1 10 2 11 3 12 4 13 5 14 6 15 7 16 8 17 9 8 10 7 11 6 12
REMARK SMILES IDX 5 13 4 14 3 15 2 16 1 17
REMARK H PARENT
REMARK Flexibility Score: inf
ROOT
ATOM      1  C   UNL     1     -18.918   0.504  28.569  1.00  0.00     0.000 C 
ENDROOT
BRANCH   1   2
ATOM      2  C   UNL     1     -19.568  -0.151  29.800  1.00  0.00     0.000 C 
BRANCH   2   3
ATOM      3  C   UNL     1     -19.780  -1.668  29.612  1.00  0.00     0.000 C 
BRANCH   3   4
ATOM      4  C   UNL     1     -18.468  -2.471  29.526  1.00  0.00     0.000 C 
BRANCH   4   5
ATOM      5  C   UNL     1     -17.983  -3.068  30.861  1.00  0.00     0.006 C 
BRANCH   5   6
ATOM      6  C   UNL     1     -16.533  -2.706  31.224  1.00  0.00     0.053 C 
BRANCH   6   7
ATOM      7  C   UNL     1     -16.405  -1.281  31.666  1.00  0.00     0.041 C 
ATOM      8  O   UNL     1     -15.473  -0.560  31.224  1.00  0.00    -0.550 OA
ATOM      9  O   UNL     1     -17.298  -0.759  32.595  1.00  0.00    -0.550 OA
ENDBRANCH   6   7
ENDBRANCH   5   6
ENDBRANCH   4   5
ENDBRANCH   3   4
ENDBRANCH   2   3
ENDBRANCH   1   2
BRANCH   1  10
ATOM     10  C   UNL     1     -19.840   1.524  27.885  1.00  0.00     0.000 C 
BRANCH  10  11
ATOM     11  C   UNL     1     -20.028   1.237  26.387  1.00  0.00    -0.000 C 
BRANCH  11  12
ATOM     12  C   UNL     1     -20.869  -0.030  26.172  1.00  0.00    -0.000 C 
BRANCH  12  13
ATOM     13  C   UNL     1     -22.273   0.276  25.627  1.00  0.00    -0.000 C 
BRANCH  13  14
ATOM     14  C   UNL     1     -23.390  -0.266  26.535  1.00  0.00    -0.000 C 
BRANCH  14  15
ATOM     15  C   UNL     1     -23.437   0.442  27.899  1.00  0.00    -0.000 C 
BRANCH  15  16
ATOM     16  C   UNL     1     -23.238  -0.528  29.073  1.00  0.00    -0.003 C 
ATOM     17  C   UNL     1     -23.343  -1.979  28.612  1.00  0.00     0.004 C 
ENDBRANCH  15  16
ENDBRANCH  14  15
ENDBRANCH  13  14
ENDBRANCH  12  13
ENDBRANCH  11  12
ENDBRANCH  10  11
ENDBRANCH   1  10
TORSDOF 13
ENDMDL
MODEL 2
REMARK VINA RESULT:    -4.580      1.549      3.202
REMARK INTER + INTRA:          -9.797
REMARK INTER:                  -8.110
REMARK INTRA:                  -1.687
REMARK UNBOUND:                -1.736
REMARK SMILES CCCCCCCCCCCCCCC(=O)[O-]
REMARK SMILES IDX 9 1 10 2 11 3 12 4 13 5 14 6 15 7 16 8 17 9 8 10 7 11 6 12
REMARK SMILES IDX 5 13 4 14 3 15 2 16 1 17
REMARK H PARENT
REMARK Flexibility Score: inf
ROOT
ATOM      1  C   UNL     1     -20.513  -1.178  29.862  1.00  0.00     0.000 C 
ENDROOT
BRANCH   1   2
ATOM      2  C   UNL     1     -19.693  -2.478  29.927  1.00  0.00     0.000 C 
BRANCH   2   3
ATOM      3  C   UNL     1     -18.235  -2.274  29.463  1.00  0.00     0.000 C 
BRANCH   3   4
ATOM      4  C   UNL     1     -17.539  -1.066  30.119  1.00  0.00     0.000 C 
BRANCH   4   5
ATOM      5  C   UNL     1     -16.619  -1.413  31.306  1.00  0.00     0.006 C 
BRANCH   5   6
ATOM      6  C   UNL     1     -17.304  -1.323  32.680  1.00  0.00     0.053 C 
BRANCH   6   7
ATOM      7  C   UNL     1     -17.489  -2.673  33.302  1.00  0.00     0.041 C 
ATOM      8  O   UNL     1     -18.634  -3.195  33.355  1.00  0.00    -0.550 OA
ATOM      9  O   UNL     1     -16.402  -3.340  33.854  1.00  0.00    -0.550 OA
ENDBRANCH   6   7
ENDBRANCH   5   6
ENDBRANCH   4   5
ENDBRANCH   3   4
ENDBRANCH   2   3
ENDBRANCH   1   2
BRANCH   1  10
ATOM     10  C   UNL     1     -21.883  -1.375  29.195  1.00  0.00     0.000 C 
BRANCH  10  11
ATOM     11  C   UNL     1     -22.756  -0.113  29.257  1.00  0.00    -0.000 C 
BRANCH  11  12
ATOM     12  C   UNL     1     -23.031   0.434  27.848  1.00  0.00    -0.000 C 
BRANCH  12  13
ATOM     13  C   UNL     1     -22.680  -0.574  26.742  1.00  0.00    -0.000 C 
BRANCH  13  14
ATOM     14  C   UNL     1     -21.814   0.047  25.632  1.00  0.00    -0.000 C 
BRANCH  14  15
ATOM     15  C   UNL     1     -20.726   0.981  26.186  1.00  0.00    -0.000 C 
BRANCH  15  16
ATOM     16  C   UNL     1     -19.465   0.222  26.625  1.00  0.00    -0.003 C 
ATOM     17  C   UNL     1     -18.560   1.107  27.478  1.00  0.00     0.004 C 
ENDBRANCH  15  16
ENDBRANCH  14  15
ENDBRANCH  13  14
ENDBRANCH  12  13
ENDBRANCH  11  12
ENDBRANCH  10  11
ENDBRANCH   1  10
TORSDOF 13
ENDMDL
MODEL 3
REMARK VINA RESULT:    -4.561      1.753      3.749
REMARK INTER + INTRA:          -9.762
REMARK INTER:                  -8.554
REMARK INTRA:                  -1.208
REMARK UNBOUND:                -1.736
REMARK SMILES CCCCCCCCCCCCCCC(=O)[O-]
REMARK SMILES IDX 9 1 10 2 11 3 12 4 13 5 14 6 15 7 16 8 17 9 8 10 7 11 6 12
REMARK SMILES IDX 5 13 4 14 3 15 2 16 1 17
REMARK H PARENT
REMARK Flexibility Score: inf
ROOT
ATOM      1  C   UNL     1     -18.459  -2.765  30.539  1.00  0.00     0.000 C 
ENDROOT
BRANCH   1   2
ATOM      2  C   UNL     1     -18.457  -2.931  32.069  1.00  0.00     0.000 C 
BRANCH   2   3
ATOM      3  C   UNL     1     -17.224  -2.278  32.727  1.00  0.00     0.000 C 
BRANCH   3   4
ATOM      4  C   UNL     1     -16.867  -0.898  32.142  1.00  0.00     0.000 C 
BRANCH   4   5
ATOM      5  C   UNL     1     -15.685  -0.897  31.154  1.00  0.00     0.006 C 
BRANCH   5   6
ATOM      6  C   UNL     1     -14.436  -0.158  31.664  1.00  0.00     0.053 C 
BRANCH   6   7
ATOM      7  C   UNL     1     -13.650   0.452  30.546  1.00  0.00     0.041 C 
ATOM      8  O   UNL     1     -14.077   1.479  29.956  1.00  0.00    -0.550 OA
ATOM      9  O   UNL     1     -12.460  -0.135  30.131  1.00  0.00    -0.550 OA
ENDBRANCH   6   7
ENDBRANCH   5   6
ENDBRANCH   4   5
ENDBRANCH   3   4
ENDBRANCH   2   3
ENDBRANCH   1   2
BRANCH   1  10
ATOM     10  C   UNL     1     -19.750  -2.118  30.016  1.00  0.00     0.000 C 
BRANCH  10  11
ATOM     11  C   UNL     1     -19.566  -0.633  29.667  1.00  0.00    -0.000 C 
BRANCH  11  12
ATOM     12  C   UNL     1     -18.384  -0.437  28.706  1.00  0.00    -0.000 C 
BRANCH  12  13
ATOM     13  C   UNL     1     -18.510   0.843  27.864  1.00  0.00    -0.000 C 
BRANCH  13  14
ATOM     14  C   UNL     1     -19.973   1.202  27.552  1.00  0.00    -0.000 C 
BRANCH  14  15
ATOM     15  C   UNL     1     -20.363   0.881  26.100  1.00  0.00    -0.000 C 
BRANCH  15  16
ATOM     16  C   UNL     1     -21.801   0.357  25.978  1.00  0.00    -0.003 C 
ATOM     17  C   UNL     1     -22.352  -0.058  27.339  1.00  0.00     0.004 C 
ENDBRANCH  15  16
ENDBRANCH  14  15
ENDBRANCH  13  14
ENDBRANCH  12  13
ENDBRANCH  11  12
ENDBRANCH  10  11
ENDBRANCH   1  10
TORSDOF 13
ENDMDL
MODEL 4
REMARK VINA RESULT:    -4.488     14.835     16.701
REMARK INTER + INTRA:          -9.635
REMARK INTER:                  -7.911
REMARK INTRA:                  -1.724
REMARK UNBOUND:                -1.736
REMARK SMILES CCCCCCCCCCCCCCC(=O)[O-]
REMARK SMILES IDX 9 1 10 2 11 3 12 4 13 5 14 6 15 7 16 8 17 9 8 10 7 11 6 12
REMARK SMILES IDX 5 13 4 14 3 15 2 16 1 17
REMARK H PARENT
REMARK Flexibility Score: inf
ROOT
ATOM      1  C   UNL     1      -3.970   7.262  25.352  1.00  0.00     0.000 C 
ENDROOT
BRANCH   1   2
ATOM      2  C   UNL     1      -4.387   8.557  26.070  1.00  0.00     0.000 C 
BRANCH   2   3
ATOM      3  C   UNL     1      -4.560   8.354  27.590  1.00  0.00     0.000 C 
BRANCH   3   4
ATOM      4  C   UNL     1      -4.244   6.922  28.064  1.00  0.00     0.000 C 
BRANCH   4   5
ATOM      5  C   UNL     1      -4.580   6.638  29.541  1.00  0.00     0.006 C 
BRANCH   5   6
ATOM      6  C   UNL     1      -6.004   6.106  29.773  1.00  0.00     0.053 C 
BRANCH   6   7
ATOM      7  C   UNL     1      -6.955   7.198  30.152  1.00  0.00     0.041 C 
ATOM      8  O   UNL     1      -8.165   7.135  29.808  1.00  0.00    -0.550 OA
ATOM      9  O   UNL     1      -6.498   8.304  30.860  1.00  0.00    -0.550 OA
ENDBRANCH   6   7
ENDBRANCH   5   6
ENDBRANCH   4   5
ENDBRANCH   3   4
ENDBRANCH   2   3
ENDBRANCH   1   2
BRANCH   1  10
ATOM     10  C   UNL     1      -4.098   7.365  23.825  1.00  0.00     0.000 C 
BRANCH  10  11
ATOM     11  C   UNL     1      -4.228   8.817  23.340  1.00  0.00    -0.000 C 
BRANCH  11  12
ATOM     12  C   UNL     1      -5.470   8.991  22.454  1.00  0.00    -0.000 C 
BRANCH  12  13
ATOM     13  C   UNL     1      -6.636   8.085  22.883  1.00  0.00    -0.000 C 
BRANCH  13  14
ATOM     14  C   UNL     1      -7.871   8.885  23.332  1.00  0.00    -0.000 C 
BRANCH  14  15
ATOM     15  C   UNL     1      -7.781   9.335  24.799  1.00  0.00    -0.000 C 
BRANCH  15  16
ATOM     16  C   UNL     1      -8.660   8.488  25.730  1.00  0.00    -0.003 C 
ATOM     17  C   UNL     1      -7.838   7.412  26.435  1.00  0.00     0.004 C 
ENDBRANCH  15  16
ENDBRANCH  14  15
ENDBRANCH  13  14
ENDBRANCH  12  13
ENDBRANCH  11  12
ENDBRANCH  10  11
ENDBRANCH   1  10
TORSDOF 13
ENDMDL
MODEL 5
REMARK VINA RESULT:    -4.462      2.606      6.133
REMARK INTER + INTRA:          -9.589
REMARK INTER:                  -8.098
REMARK INTRA:                  -1.491
REMARK UNBOUND:                -1.736
REMARK SMILES CCCCCCCCCCCCCCC(=O)[O-]
REMARK SMILES IDX 9 1 10 2 11 3 12 4 13 5 14 6 15 7 16 8 17 9 8 10 7 11 6 12
REMARK SMILES IDX 5 13 4 14 3 15 2 16 1 17
REMARK H PARENT
REMARK Flexibility Score: inf
ROOT
ATOM      1  C   UNL     1     -19.261   1.210  27.203  1.00  0.00     0.000 C 
ENDROOT
BRANCH   1   2
ATOM      2  C   UNL     1     -20.259   1.230  26.032  1.00  0.00     0.000 C 
BRANCH   2   3
ATOM      3  C   UNL     1     -21.150  -0.030  26.001  1.00  0.00     0.000 C 
BRANCH   3   4
ATOM      4  C   UNL     1     -22.610   0.253  25.597  1.00  0.00     0.000 C 
BRANCH   4   5
ATOM      5  C   UNL     1     -23.667  -0.201  26.622  1.00  0.00     0.006 C 
BRANCH   5   6
ATOM      6  C   UNL     1     -23.483   0.401  28.026  1.00  0.00     0.053 C 
BRANCH   6   7
ATOM      7  C   UNL     1     -23.238  -0.653  29.060  1.00  0.00     0.041 C 
ATOM      8  O   UNL     1     -22.942  -1.827  28.712  1.00  0.00    -0.550 OA
ATOM      9  O   UNL     1     -23.369  -0.348  30.409  1.00  0.00    -0.550 OA
ENDBRANCH   6   7
ENDBRANCH   5   6
ENDBRANCH   4   5
ENDBRANCH   3   4
ENDBRANCH   2   3
ENDBRANCH   1   2
BRANCH   1  10
ATOM     10  C   UNL     1     -19.956   1.163  28.572  1.00  0.00     0.000 C 
BRANCH  10  11
ATOM     11  C   UNL     1     -19.542  -0.062  29.402  1.00  0.00    -0.000 C 
BRANCH  11  12
ATOM     12  C   UNL     1     -18.478  -0.890  28.666  1.00  0.00    -0.000 C 
BRANCH  12  13
ATOM     13  C   UNL     1     -18.272  -2.279  29.290  1.00  0.00    -0.000 C 
BRANCH  13  14
ATOM     14  C   UNL     1     -18.770  -2.353  30.744  1.00  0.00    -0.000 C 
BRANCH  14  15
ATOM     15  C   UNL     1     -17.639  -2.652  31.740  1.00  0.00    -0.000 C 
BRANCH  15  16
ATOM     16  C   UNL     1     -17.033  -1.376  32.344  1.00  0.00    -0.003 C 
ATOM     17  C   UNL     1     -15.888  -0.851  31.483  1.00  0.00     0.004 C 
ENDBRANCH  15  16
ENDBRANCH  14  15
ENDBRANCH  13  14
ENDBRANCH  12  13
ENDBRANCH  11  12
ENDBRANCH  10  11
ENDBRANCH   1  10
TORSDOF 13
ENDMDL
MODEL 6
REMARK VINA RESULT:    -4.451      0.754      1.419
REMARK INTER + INTRA:          -9.570
REMARK INTER:                  -8.064
REMARK INTRA:                  -1.506
REMARK UNBOUND:                -1.736
REMARK SMILES CCCCCCCCCCCCCCC(=O)[O-]
REMARK SMILES IDX 9 1 10 2 11 3 12 4 13 5 14 6 15 7 16 8 17 9 8 10 7 11 6 12
REMARK SMILES IDX 5 13 4 14 3 15 2 16 1 17
REMARK H PARENT
REMARK Flexibility Score: inf
ROOT
ATOM      1  C   UNL     1     -18.852   1.298  27.577  1.00  0.00     0.000 C 
ENDROOT
BRANCH   1   2
ATOM      2  C   UNL     1     -18.331   0.152  28.462  1.00  0.00     0.000 C 
BRANCH   2   3
ATOM      3  C   UNL     1     -19.325  -0.220  29.582  1.00  0.00     0.000 C 
BRANCH   3   4
ATOM      4  C   UNL     1     -19.261  -1.702  30.001  1.00  0.00     0.000 C 
BRANCH   4   5
ATOM      5  C   UNL     1     -17.899  -2.384  29.768  1.00  0.00     0.006 C 
BRANCH   5   6
ATOM      6  C   UNL     1     -17.104  -2.662  31.056  1.00  0.00     0.053 C 
BRANCH   6   7
ATOM      7  C   UNL     1     -16.631  -1.399  31.705  1.00  0.00     0.041 C 
ATOM      8  O   UNL     1     -17.187  -0.978  32.754  1.00  0.00    -0.550 OA
ATOM      9  O   UNL     1     -15.597  -0.667  31.134  1.00  0.00    -0.550 OA
ENDBRANCH   6   7
ENDBRANCH   5   6
ENDBRANCH   4   5
ENDBRANCH   3   4
ENDBRANCH   2   3
ENDBRANCH   1   2
BRANCH   1  10
ATOM     10  C   UNL     1     -20.349   1.168  27.260  1.00  0.00     0.000 C 
BRANCH  10  11
ATOM     11  C   UNL     1     -20.619   0.241  26.064  1.00  0.00    -0.000 C 
BRANCH  11  12
ATOM     12  C   UNL     1     -22.093   0.311  25.638  1.00  0.00    -0.000 C 
BRANCH  12  13
ATOM     13  C   UNL     1     -23.002  -0.581  26.498  1.00  0.00    -0.000 C 
BRANCH  13  14
ATOM     14  C   UNL     1     -23.946   0.234  27.399  1.00  0.00    -0.000 C 
BRANCH  14  15
ATOM     15  C   UNL     1     -23.567   0.143  28.886  1.00  0.00    -0.000 C 
BRANCH  15  16
ATOM     16  C   UNL     1     -22.832  -1.162  29.228  1.00  0.00    -0.003 C 
ATOM     17  C   UNL     1     -23.353  -1.761  30.532  1.00  0.00     0.004 C 
ENDBRANCH  15  16
ENDBRANCH  14  15
ENDBRANCH  13  14
ENDBRANCH  12  13
ENDBRANCH  11  12
ENDBRANCH  10  11
ENDBRANCH   1  10
TORSDOF 13
ENDMDL
MODEL 7
REMARK VINA RESULT:    -4.447      2.115      6.022
REMARK INTER + INTRA:          -9.562
REMARK INTER:                  -7.933
REMARK INTRA:                  -1.629
REMARK UNBOUND:                -1.736
REMARK SMILES CCCCCCCCCCCCCCC(=O)[O-]
REMARK SMILES IDX 9 1 10 2 11 3 12 4 13 5 14 6 15 7 16 8 17 9 8 10 7 11 6 12
REMARK SMILES IDX 5 13 4 14 3 15 2 16 1 17
REMARK H PARENT
REMARK Flexibility Score: inf
ROOT
ATOM      1  C   UNL     1     -22.475  -1.817  29.120  1.00  0.00     0.000 C 
ENDROOT
BRANCH   1   2
ATOM      2  C   UNL     1     -22.788  -0.310  29.131  1.00  0.00     0.000 C 
BRANCH   2   3
ATOM      3  C   UNL     1     -23.256   0.201  27.752  1.00  0.00     0.000 C 
BRANCH   3   4
ATOM      4  C   UNL     1     -22.475  -0.405  26.569  1.00  0.00     0.000 C 
BRANCH   4   5
ATOM      5  C   UNL     1     -21.447   0.540  25.918  1.00  0.00     0.006 C 
BRANCH   5   6
ATOM      6  C   UNL     1     -19.988   0.249  26.308  1.00  0.00     0.053 C 
BRANCH   6   7
ATOM      7  C   UNL     1     -19.457   1.258  27.278  1.00  0.00     0.041 C 
ATOM      8  O   UNL     1     -20.242   2.044  27.871  1.00  0.00    -0.550 OA
ATOM      9  O   UNL     1     -18.088   1.354  27.503  1.00  0.00    -0.550 OA
ENDBRANCH   6   7
ENDBRANCH   5   6
ENDBRANCH   4   5
ENDBRANCH   3   4
ENDBRANCH   2   3
ENDBRANCH   1   2
BRANCH   1  10
ATOM     10  C   UNL     1     -21.192  -2.160  29.891  1.00  0.00     0.000 C 
BRANCH  10  11
ATOM     11  C   UNL     1     -20.112  -1.077  29.750  1.00  0.00    -0.000 C 
BRANCH  11  12
ATOM     12  C   UNL     1     -18.775  -1.688  29.306  1.00  0.00    -0.000 C 
BRANCH  12  13
ATOM     13  C   UNL     1     -18.517  -3.068  29.932  1.00  0.00    -0.000 C 
BRANCH  13  14
ATOM     14  C   UNL     1     -17.297  -3.072  30.870  1.00  0.00    -0.000 C 
BRANCH  14  15
ATOM     15  C   UNL     1     -17.606  -2.448  32.240  1.00  0.00    -0.000 C 
BRANCH  15  16
ATOM     16  C   UNL     1     -17.076  -1.013  32.368  1.00  0.00    -0.003 C 
ATOM     17  C   UNL     1     -15.790  -0.828  31.566  1.00  0.00     0.004 C 
ENDBRANCH  15  16
ENDBRANCH  14  15
ENDBRANCH  13  14
ENDBRANCH  12  13
ENDBRANCH  11  12
ENDBRANCH  10  11
ENDBRANCH   1  10
TORSDOF 13
ENDMDL
MODEL 8
REMARK VINA RESULT:    -4.434     14.706     16.891
REMARK INTER + INTRA:          -9.540
REMARK INTER:                  -7.812
REMARK INTRA:                  -1.728
REMARK UNBOUND:                -1.736
REMARK SMILES CCCCCCCCCCCCCCC(=O)[O-]
REMARK SMILES IDX 9 1 10 2 11 3 12 4 13 5 14 6 15 7 16 8 17 9 8 10 7 11 6 12
REMARK SMILES IDX 5 13 4 14 3 15 2 16 1 17
REMARK H PARENT
REMARK Flexibility Score: inf
ROOT
ATOM      1  C   UNL     1      -3.972   6.989  27.327  1.00  0.00     0.000 C 
ENDROOT
BRANCH   1   2
ATOM      2  C   UNL     1      -3.973   8.278  28.167  1.00  0.00     0.000 C 
BRANCH   2   3
ATOM      3  C   UNL     1      -4.473   8.038  29.607  1.00  0.00     0.000 C 
BRANCH   3   4
ATOM      4  C   UNL     1      -4.644   6.549  29.964  1.00  0.00     0.000 C 
BRANCH   4   5
ATOM      5  C   UNL     1      -6.084   6.126  30.313  1.00  0.00     0.006 C 
BRANCH   5   6
ATOM      6  C   UNL     1      -7.166   7.102  29.820  1.00  0.00     0.053 C 
BRANCH   6   7
ATOM      7  C   UNL     1      -7.952   6.537  28.678  1.00  0.00     0.041 C 
ATOM      8  O   UNL     1      -9.090   6.998  28.401  1.00  0.00    -0.550 OA
ATOM      9  O   UNL     1      -7.441   5.476  27.939  1.00  0.00    -0.550 OA
ENDBRANCH   6   7
ENDBRANCH   5   6
ENDBRANCH   4   5
ENDBRANCH   3   4
ENDBRANCH   2   3
ENDBRANCH   1   2
BRANCH   1  10
ATOM     10  C   UNL     1      -4.905   7.076  26.110  1.00  0.00     0.000 C 
BRANCH  10  11
ATOM     11  C   UNL     1      -5.656   8.414  26.037  1.00  0.00    -0.000 C 
BRANCH  11  12
ATOM     12  C   UNL     1      -7.107   8.206  25.580  1.00  0.00    -0.000 C 
BRANCH  12  13
ATOM     13  C   UNL     1      -7.716   9.467  24.947  1.00  0.00    -0.000 C 
BRANCH  13  14
ATOM     14  C   UNL     1      -7.382   9.598  23.452  1.00  0.00    -0.000 C 
BRANCH  14  15
ATOM     15  C   UNL     1      -6.591  10.877  23.134  1.00  0.00    -0.000 C 
BRANCH  15  16
ATOM     16  C   UNL     1      -5.074  10.640  23.103  1.00  0.00    -0.003 C 
ATOM     17  C   UNL     1      -4.745   9.264  22.530  1.00  0.00     0.004 C 
ENDBRANCH  15  16
ENDBRANCH  14  15
ENDBRANCH  13  14
ENDBRANCH  12  13
ENDBRANCH  11  12
ENDBRANCH  10  11
ENDBRANCH   1  10
TORSDOF 13
ENDMDL
MODEL 9
REMARK VINA RESULT:    -4.369      2.564      5.792
REMARK INTER + INTRA:          -9.425
REMARK INTER:                  -7.849
REMARK INTRA:                  -1.577
REMARK UNBOUND:                -1.736
REMARK SMILES CCCCCCCCCCCCCCC(=O)[O-]
REMARK SMILES IDX 9 1 10 2 11 3 12 4 13 5 14 6 15 7 16 8 17 9 8 10 7 11 6 12
REMARK SMILES IDX 5 13 4 14 3 15 2 16 1 17
REMARK H PARENT
REMARK Flexibility Score: inf
ROOT
ATOM      1  C   UNL     1     -20.138   1.497  26.785  1.00  0.00     0.000 C 
ENDROOT
BRANCH   1   2
ATOM      2  C   UNL     1     -20.670   0.232  26.089  1.00  0.00     0.000 C 
BRANCH   2   3
ATOM      3  C   UNL     1     -22.087  -0.148  26.567  1.00  0.00     0.000 C 
BRANCH   3   4
ATOM      4  C   UNL     1     -22.488   0.511  27.901  1.00  0.00     0.000 C 
BRANCH   4   5
ATOM      5  C   UNL     1     -23.329  -0.378  28.838  1.00  0.00     0.006 C 
BRANCH   5   6
ATOM      6  C   UNL     1     -22.498  -1.275  29.771  1.00  0.00     0.053 C 
BRANCH   6   7
ATOM      7  C   UNL     1     -22.607  -2.721  29.401  1.00  0.00     0.041 C 
ATOM      8  O   UNL     1     -23.353  -3.079  28.452  1.00  0.00    -0.550 OA
ATOM      9  O   UNL     1     -21.910  -3.680  30.127  1.00  0.00    -0.550 OA
ENDBRANCH   6   7
ENDBRANCH   5   6
ENDBRANCH   4   5
ENDBRANCH   3   4
ENDBRANCH   2   3
ENDBRANCH   1   2
BRANCH   1  10
ATOM     10  C   UNL     1     -18.782   1.270  27.469  1.00  0.00     0.000 C 
BRANCH  10  11
ATOM     11  C   UNL     1     -18.518  -0.212  27.778  1.00  0.00    -0.000 C 
BRANCH  11  12
ATOM     12  C   UNL     1     -18.816  -0.527  29.251  1.00  0.00    -0.000 C 
BRANCH  12  13
ATOM     13  C   UNL     1     -18.840  -2.037  29.541  1.00  0.00    -0.000 C 
BRANCH  13  14
ATOM     14  C   UNL     1     -17.621  -2.501  30.356  1.00  0.00    -0.000 C 
BRANCH  14  15
ATOM     15  C   UNL     1     -16.836  -1.326  30.963  1.00  0.00    -0.000 C 
BRANCH  15  16
ATOM     16  C   UNL     1     -17.047  -1.196  32.478  1.00  0.00    -0.003 C 
ATOM     17  C   UNL     1     -17.527  -2.514  33.081  1.00  0.00     0.004 C 
ENDBRANCH  15  16
ENDBRANCH  14  15
ENDBRANCH  13  14
ENDBRANCH  12  13
ENDBRANCH  11  12
ENDBRANCH  10  11
ENDBRANCH   1  10
TORSDOF 13
ENDMDL
