MODEL 1
REMARK VINA RESULT:    -4.171      0.000      0.000
REMARK INTER + INTRA:          -8.454
REMARK INTER:                  -7.829
REMARK INTRA:                  -0.625
REMARK UNBOUND:                -0.625
REMARK SMILES CCCCCCCCC=CCCCCCCCC(=O)[O-]
REMARK SMILES IDX 10 1 9 2 11 3 12 4 13 5 14 6 15 7 16 8 17 9 18 10 19 11
REMARK SMILES IDX 20 12 8 13 7 14 6 15 5 16 4 17 3 18 2 19 1 20
REMARK H PARENT
REMARK Flexibility Score: inf
ROOT
ATOM      1  C   UNL     1     101.230  52.619  48.224  1.00  0.00    -0.031 C 
ATOM      2  C   UNL     1     101.732  53.855  48.067  1.00  0.00    -0.031 C 
ENDROOT
BRANCH   1   3
ATOM      3  C   UNL     1     101.151  51.647  47.079  1.00  0.00     0.027 C 
BRANCH   3   4
ATOM      4  C   UNL     1     100.486  52.291  45.851  1.00  0.00     0.004 C 
BRANCH   4   5
ATOM      5  C   UNL     1      99.457  51.364  45.184  1.00  0.00     0.000 C 
BRANCH   5   6
ATOM      6  C   UNL     1      99.141  51.780  43.737  1.00  0.00     0.000 C 
BRANCH   6   7
ATOM      7  C   UNL     1      98.756  50.588  42.841  1.00  0.00     0.000 C 
BRANCH   7   8
ATOM      8  C   UNL     1      99.274  50.665  41.394  1.00  0.00     0.006 C 
BRANCH   8   9
ATOM      9  C   UNL     1      98.145  50.681  40.354  1.00  0.00     0.053 C 
BRANCH   9  10
ATOM     10  C   UNL     1      98.710  50.692  38.969  1.00  0.00     0.041 C 
ATOM     11  O   UNL     1      99.880  51.115  38.765  1.00  0.00    -0.550 OA
ATOM     12  O   UNL     1      97.963  50.193  37.908  1.00  0.00    -0.550 OA
ENDBRANCH   9  10
ENDBRANCH   8   9
ENDBRANCH   7   8
ENDBRANCH   6   7
ENDBRANCH   5   6
ENDBRANCH   4   5
ENDBRANCH   3   4
ENDBRANCH   1   3
BRANCH   2  13
ATOM     13  C   UNL     1     101.844  54.809  49.224  1.00  0.00     0.027 C 
BRANCH  13  14
ATOM     14  C   UNL     1     101.222  54.213  50.496  1.00  0.00     0.004 C 
BRANCH  14  15
ATOM     15  C   UNL     1     101.589  54.997  51.769  1.00  0.00     0.000 C 
BRANCH  15  16
ATOM     16  C   UNL     1     100.902  54.515  53.065  1.00  0.00     0.000 C 
BRANCH  16  17
ATOM     17  C   UNL     1      99.575  53.756  52.857  1.00  0.00    -0.000 C 
BRANCH  17  18
ATOM     18  C   UNL     1      99.657  52.254  53.210  1.00  0.00    -0.000 C 
BRANCH  18  19
ATOM     19  C   UNL     1      98.308  51.524  53.102  1.00  0.00    -0.003 C 
ATOM     20  C   UNL     1      98.441  50.008  53.244  1.00  0.00     0.004 C 
ENDBRANCH  18  19
ENDBRANCH  17  18
ENDBRANCH  16  17
ENDBRANCH  15  16
ENDBRANCH  14  15
ENDBRANCH  13  14
ENDBRANCH   2  13
TORSDOF 15
ENDMDL
MODEL 2
REMARK VINA RESULT:    -4.014      4.729     11.035
REMARK INTER + INTRA:          -8.158
REMARK INTER:                  -7.517
REMARK INTRA:                  -0.642
REMARK UNBOUND:                -0.625
REMARK SMILES CCCCCCCCC=CCCCCCCCC(=O)[O-]
REMARK SMILES IDX 10 1 9 2 11 3 12 4 13 5 14 6 15 7 16 8 17 9 18 10 19 11
REMARK SMILES IDX 20 12 8 13 7 14 6 15 5 16 4 17 3 18 2 19 1 20
REMARK H PARENT
REMARK Flexibility Score: inf
ROOT
ATOM      1  C   UNL     1     100.541  52.134  46.093  1.00  0.00    -0.031 C 
ATOM      2  C   UNL     1      99.750  51.308  45.391  1.00  0.00    -0.031 C 
ENDROOT
BRANCH   1   3
ATOM      3  C   UNL     1     101.230  51.689  47.353  1.00  0.00     0.027 C 
BRANCH   3   4
ATOM      4  C   UNL     1     100.965  52.669  48.507  1.00  0.00     0.004 C 
BRANCH   4   5
ATOM      5  C   UNL     1     101.835  53.933  48.418  1.00  0.00     0.000 C 
BRANCH   5   6
ATOM      6  C   UNL     1     101.909  54.691  49.755  1.00  0.00     0.000 C 
BRANCH   6   7
ATOM      7  C   UNL     1     100.782  54.301  50.729  1.00  0.00     0.000 C 
BRANCH   7   8
ATOM      8  C   UNL     1     101.004  54.729  52.190  1.00  0.00     0.006 C 
BRANCH   8   9
ATOM      9  C   UNL     1     100.780  53.586  53.190  1.00  0.00     0.053 C 
BRANCH   9  10
ATOM     10  C   UNL     1      99.379  53.073  53.093  1.00  0.00     0.041 C 
ATOM     11  O   UNL     1      98.406  53.872  53.146  1.00  0.00    -0.550 OA
ATOM     12  O   UNL     1      99.147  51.716  52.895  1.00  0.00    -0.550 OA
ENDBRANCH   9  10
ENDBRANCH   8   9
ENDBRANCH   7   8
ENDBRANCH   6   7
ENDBRANCH   5   6
ENDBRANCH   4   5
ENDBRANCH   3   4
ENDBRANCH   1   3
BRANCH   2  13
ATOM     13  C   UNL     1      99.093  51.747  44.112  1.00  0.00     0.027 C 
BRANCH  13  14
ATOM     14  C   UNL     1      98.960  50.576  43.126  1.00  0.00     0.004 C 
BRANCH  14  15
ATOM     15  C   UNL     1      99.253  50.978  41.670  1.00  0.00     0.000 C 
BRANCH  15  16
ATOM     16  C   UNL     1      98.127  50.673  40.659  1.00  0.00     0.000 C 
BRANCH  16  17
ATOM     17  C   UNL     1      98.543  50.750  39.176  1.00  0.00    -0.000 C 
BRANCH  17  18
ATOM     18  C   UNL     1      97.358  50.966  38.208  1.00  0.00    -0.000 C 
BRANCH  18  19
ATOM     19  C   UNL     1      96.219  51.807  38.811  1.00  0.00    -0.003 C 
ATOM     20  C   UNL     1      94.840  51.191  38.577  1.00  0.00     0.004 C 
ENDBRANCH  18  19
ENDBRANCH  17  18
ENDBRANCH  16  17
ENDBRANCH  15  16
ENDBRANCH  14  15
ENDBRANCH  13  14
ENDBRANCH   2  13
TORSDOF 15
ENDMDL
MODEL 3
REMARK VINA RESULT:    -3.880      4.714     10.781
REMARK INTER + INTRA:          -7.907
REMARK INTER:                  -7.238
REMARK INTRA:                  -0.669
REMARK UNBOUND:                -0.625
REMARK SMILES CCCCCCCCC=CCCCCCCCC(=O)[O-]
REMARK SMILES IDX 10 1 9 2 11 3 12 4 13 5 14 6 15 7 16 8 17 9 18 10 19 11
REMARK SMILES IDX 20 12 8 13 7 14 6 15 5 16 4 17 3 18 2 19 1 20
REMARK H PARENT
REMARK Flexibility Score: inf
ROOT
ATOM      1  C   UNL     1     101.040  51.617  46.867  1.00  0.00    -0.031 C 
ATOM      2  C   UNL     1     100.320  52.163  45.874  1.00  0.00    -0.031 C 
ENDROOT
BRANCH   1   3
ATOM      3  C   UNL     1     102.080  52.404  47.614  1.00  0.00     0.027 C 
BRANCH   3   4
ATOM      4  C   UNL     1     101.627  53.857  47.830  1.00  0.00     0.004 C 
BRANCH   4   5
ATOM      5  C   UNL     1     101.911  54.358  49.255  1.00  0.00     0.000 C 
BRANCH   5   6
ATOM      6  C   UNL     1     100.867  53.864  50.271  1.00  0.00     0.000 C 
BRANCH   6   7
ATOM      7  C   UNL     1     101.038  54.500  51.663  1.00  0.00     0.000 C 
BRANCH   7   8
ATOM      8  C   UNL     1     100.508  53.657  52.836  1.00  0.00     0.006 C 
BRANCH   8   9
ATOM      9  C   UNL     1      98.981  53.497  52.818  1.00  0.00     0.053 C 
BRANCH   9  10
ATOM     10  C   UNL     1      98.603  52.060  52.991  1.00  0.00     0.041 C 
ATOM     11  O   UNL     1      99.494  51.168  53.011  1.00  0.00    -0.550 OA
ATOM     12  O   UNL     1      97.271  51.708  53.177  1.00  0.00    -0.550 OA
ENDBRANCH   9  10
ENDBRANCH   8   9
ENDBRANCH   7   8
ENDBRANCH   6   7
ENDBRANCH   5   6
ENDBRANCH   4   5
ENDBRANCH   3   4
ENDBRANCH   1   3
BRANCH   2  13
ATOM     13  C   UNL     1      99.255  51.382  45.155  1.00  0.00     0.027 C 
BRANCH  13  14
ATOM     14  C   UNL     1      99.229  51.728  43.658  1.00  0.00     0.004 C 
BRANCH  14  15
ATOM     15  C   UNL     1      98.995  50.499  42.761  1.00  0.00     0.000 C 
BRANCH  15  16
ATOM     16  C   UNL     1      99.254  50.720  41.255  1.00  0.00     0.000 C 
BRANCH  16  17
ATOM     17  C   UNL     1      97.990  50.725  40.370  1.00  0.00    -0.000 C 
BRANCH  17  18
ATOM     18  C   UNL     1      98.293  50.774  38.856  1.00  0.00    -0.000 C 
BRANCH  18  19
ATOM     19  C   UNL     1      97.113  51.285  38.011  1.00  0.00    -0.003 C 
ATOM     20  C   UNL     1      95.982  51.862  38.861  1.00  0.00     0.004 C 
ENDBRANCH  18  19
ENDBRANCH  17  18
ENDBRANCH  16  17
ENDBRANCH  15  16
ENDBRANCH  14  15
ENDBRANCH  13  14
ENDBRANCH   2  13
TORSDOF 15
ENDMDL
MODEL 4
REMARK VINA RESULT:    -3.827      1.780      3.418
REMARK INTER + INTRA:          -7.809
REMARK INTER:                  -7.194
REMARK INTRA:                  -0.615
REMARK UNBOUND:                -0.625
REMARK SMILES CCCCCCCCC=CCCCCCCCC(=O)[O-]
REMARK SMILES IDX 10 1 9 2 11 3 12 4 13 5 14 6 15 7 16 8 17 9 18 10 19 11
REMARK SMILES IDX 20 12 8 13 7 14 6 15 5 16 4 17 3 18 2 19 1 20
REMARK H PARENT
REMARK Flexibility Score: inf
ROOT
ATOM      1  C   UNL     1      99.764  51.355  45.347  1.00  0.00    -0.031 C 
ATOM      2  C   UNL     1     100.511  52.261  45.997  1.00  0.00    -0.031 C 
ENDROOT
BRANCH   1   3
ATOM      3  C   UNL     1      98.988  51.711  44.109  1.00  0.00     0.027 C 
BRANCH   3   4
ATOM      4  C   UNL     1      98.928  50.526  43.132  1.00  0.00     0.004 C 
BRANCH   4   5
ATOM      5  C   UNL     1      99.177  50.950  41.676  1.00  0.00     0.000 C 
BRANCH   5   6
ATOM      6  C   UNL     1      98.060  50.481  40.727  1.00  0.00     0.000 C 
BRANCH   6   7
ATOM      7  C   UNL     1      98.405  50.699  39.242  1.00  0.00     0.000 C 
BRANCH   7   8
ATOM      8  C   UNL     1      97.218  51.103  38.349  1.00  0.00     0.006 C 
BRANCH   8   9
ATOM      9  C   UNL     1      96.035  51.671  39.146  1.00  0.00     0.053 C 
BRANCH   9  10
ATOM     10  C   UNL     1      94.748  51.403  38.433  1.00  0.00     0.041 C 
ATOM     11  O   UNL     1      93.965  52.352  38.158  1.00  0.00    -0.550 OA
ATOM     12  O   UNL     1      94.431  50.110  38.029  1.00  0.00    -0.550 OA
ENDBRANCH   9  10
ENDBRANCH   8   9
ENDBRANCH   7   8
ENDBRANCH   6   7
ENDBRANCH   5   6
ENDBRANCH   4   5
ENDBRANCH   3   4
ENDBRANCH   1   3
BRANCH   2  13
ATOM     13  C   UNL     1     101.315  51.890  47.213  1.00  0.00     0.027 C 
BRANCH  13  14
ATOM     14  C   UNL     1     100.901  52.732  48.429  1.00  0.00     0.004 C 
BRANCH  14  15
ATOM     15  C   UNL     1     101.900  53.857  48.750  1.00  0.00     0.000 C 
BRANCH  15  16
ATOM     16  C   UNL     1     101.654  54.605  50.078  1.00  0.00     0.000 C 
BRANCH  16  17
ATOM     17  C   UNL     1     100.540  54.010  50.964  1.00  0.00    -0.000 C 
BRANCH  17  18
ATOM     18  C   UNL     1     100.676  54.373  52.460  1.00  0.00    -0.000 C 
BRANCH  18  19
ATOM     19  C   UNL     1     100.268  53.232  53.407  1.00  0.00    -0.003 C 
ATOM     20  C   UNL     1      99.373  52.193  52.733  1.00  0.00     0.004 C 
ENDBRANCH  18  19
ENDBRANCH  17  18
ENDBRANCH  16  17
ENDBRANCH  15  16
ENDBRANCH  14  15
ENDBRANCH  13  14
ENDBRANCH   2  13
TORSDOF 15
ENDMDL
MODEL 5
REMARK VINA RESULT:    -3.775      4.790     10.588
REMARK INTER + INTRA:          -7.710
REMARK INTER:                  -7.094
REMARK INTRA:                  -0.616
REMARK UNBOUND:                -0.625
REMARK SMILES CCCCCCCCC=CCCCCCCCC(=O)[O-]
REMARK SMILES IDX 10 1 9 2 11 3 12 4 13 5 14 6 15 7 16 8 17 9 18 10 19 11
REMARK SMILES IDX 20 12 8 13 7 14 6 15 5 16 4 17 3 18 2 19 1 20
REMARK H PARENT
REMARK Flexibility Score: inf
ROOT
ATOM      1  C   UNL     1     101.218  52.553  48.026  1.00  0.00    -0.031 C 
ATOM      2  C   UNL     1     101.121  52.444  46.691  1.00  0.00    -0.031 C 
ENDROOT
BRANCH   1   3
ATOM      3  C   UNL     1     101.652  53.832  48.685  1.00  0.00     0.027 C 
BRANCH   3   4
ATOM      4  C   UNL     1     100.941  54.028  50.034  1.00  0.00     0.004 C 
BRANCH   4   5
ATOM      5  C   UNL     1     101.625  55.089  50.912  1.00  0.00     0.000 C 
BRANCH   5   6
ATOM      6  C   UNL     1     101.542  54.754  52.412  1.00  0.00     0.000 C 
BRANCH   6   7
ATOM      7  C   UNL     1     100.115  54.402  52.869  1.00  0.00     0.000 C 
BRANCH   7   8
ATOM      8  C   UNL     1      99.964  53.022  53.533  1.00  0.00     0.006 C 
BRANCH   8   9
ATOM      9  C   UNL     1      99.615  51.910  52.533  1.00  0.00     0.053 C 
BRANCH   9  10
ATOM     10  C   UNL     1      98.457  51.105  53.028  1.00  0.00     0.041 C 
ATOM     11  O   UNL     1      98.599  49.877  53.277  1.00  0.00    -0.550 OA
ATOM     12  O   UNL     1      97.230  51.718  53.261  1.00  0.00    -0.550 OA
ENDBRANCH   9  10
ENDBRANCH   8   9
ENDBRANCH   7   8
ENDBRANCH   6   7
ENDBRANCH   5   6
ENDBRANCH   4   5
ENDBRANCH   3   4
ENDBRANCH   1   3
BRANCH   2  13
ATOM     13  C   UNL     1     100.651  51.174  46.038  1.00  0.00     0.027 C 
BRANCH  13  14
ATOM     14  C   UNL     1      99.271  51.363  45.388  1.00  0.00     0.004 C 
BRANCH  14  15
ATOM     15  C   UNL     1      99.354  51.708  43.890  1.00  0.00     0.000 C 
BRANCH  15  16
ATOM     16  C   UNL     1      98.957  50.570  42.925  1.00  0.00     0.000 C 
BRANCH  16  17
ATOM     17  C   UNL     1      99.253  50.844  41.436  1.00  0.00    -0.000 C 
BRANCH  17  18
ATOM     18  C   UNL     1      98.072  50.511  40.497  1.00  0.00    -0.000 C 
BRANCH  18  19
ATOM     19  C   UNL     1      98.343  50.861  39.024  1.00  0.00    -0.003 C 
ATOM     20  C   UNL     1      97.071  51.217  38.255  1.00  0.00     0.004 C 
ENDBRANCH  18  19
ENDBRANCH  17  18
ENDBRANCH  16  17
ENDBRANCH  15  16
ENDBRANCH  14  15
ENDBRANCH  13  14
ENDBRANCH   2  13
TORSDOF 15
ENDMDL
MODEL 6
REMARK VINA RESULT:    -3.508      2.163      4.034
REMARK INTER + INTRA:          -7.209
REMARK INTER:                  -6.661
REMARK INTRA:                  -0.547
REMARK UNBOUND:                -0.625
REMARK SMILES CCCCCCCCC=CCCCCCCCC(=O)[O-]
REMARK SMILES IDX 10 1 9 2 11 3 12 4 13 5 14 6 15 7 16 8 17 9 18 10 19 11
REMARK SMILES IDX 20 12 8 13 7 14 6 15 5 16 4 17 3 18 2 19 1 20
REMARK H PARENT
REMARK Flexibility Score: inf
ROOT
ATOM      1  C   UNL     1      99.260  51.356  44.690  1.00  0.00    -0.031 C 
ATOM      2  C   UNL     1     100.201  52.123  45.263  1.00  0.00    -0.031 C 
ENDROOT
BRANCH   1   3
ATOM      3  C   UNL     1      98.682  51.690  43.343  1.00  0.00     0.027 C 
BRANCH   3   4
ATOM      4  C   UNL     1      99.099  50.653  42.287  1.00  0.00     0.004 C 
BRANCH   4   5
ATOM      5  C   UNL     1      98.183  50.665  41.054  1.00  0.00     0.000 C 
BRANCH   5   6
ATOM      6  C   UNL     1      98.973  50.722  39.734  1.00  0.00     0.000 C 
BRANCH   6   7
ATOM      7  C   UNL     1      98.099  51.122  38.531  1.00  0.00     0.000 C 
BRANCH   7   8
ATOM      8  C   UNL     1      96.588  51.193  38.815  1.00  0.00     0.006 C 
BRANCH   8   9
ATOM      9  C   UNL     1      95.867  52.246  37.962  1.00  0.00     0.053 C 
BRANCH   9  10
ATOM     10  C   UNL     1      94.959  53.075  38.813  1.00  0.00     0.041 C 
ATOM     11  O   UNL     1      95.232  54.285  39.040  1.00  0.00    -0.550 OA
ATOM     12  O   UNL     1      93.784  52.528  39.318  1.00  0.00    -0.550 OA
ENDBRANCH   9  10
ENDBRANCH   8   9
ENDBRANCH   7   8
ENDBRANCH   6   7
ENDBRANCH   5   6
ENDBRANCH   4   5
ENDBRANCH   3   4
ENDBRANCH   1   3
BRANCH   2  13
ATOM     13  C   UNL     1     100.803  51.764  46.593  1.00  0.00     0.027 C 
BRANCH  13  14
ATOM     14  C   UNL     1     101.641  52.923  47.154  1.00  0.00     0.004 C 
BRANCH  14  15
ATOM     15  C   UNL     1     101.447  53.130  48.666  1.00  0.00     0.000 C 
BRANCH  15  16
ATOM     16  C   UNL     1     101.936  54.487  49.218  1.00  0.00     0.000 C 
BRANCH  16  17
ATOM     17  C   UNL     1     101.569  54.762  50.691  1.00  0.00    -0.000 C 
BRANCH  17  18
ATOM     18  C   UNL     1     100.382  53.916  51.204  1.00  0.00    -0.000 C 
BRANCH  18  19
ATOM     19  C   UNL     1     100.030  54.183  52.677  1.00  0.00    -0.003 C 
ATOM     20  C   UNL     1      99.999  52.909  53.519  1.00  0.00     0.004 C 
ENDBRANCH  18  19
ENDBRANCH  17  18
ENDBRANCH  16  17
ENDBRANCH  15  16
ENDBRANCH  14  15
ENDBRANCH  13  14
ENDBRANCH   2  13
TORSDOF 15
ENDMDL
MODEL 7
REMARK VINA RESULT:    -3.397      5.007     11.312
REMARK INTER + INTRA:          -7.002
REMARK INTER:                  -6.354
REMARK INTRA:                  -0.648
REMARK UNBOUND:                -0.625
REMARK SMILES CCCCCCCCC=CCCCCCCCC(=O)[O-]
REMARK SMILES IDX 10 1 9 2 11 3 12 4 13 5 14 6 15 7 16 8 17 9 18 10 19 11
REMARK SMILES IDX 20 12 8 13 7 14 6 15 5 16 4 17 3 18 2 19 1 20
REMARK H PARENT
REMARK Flexibility Score: inf
ROOT
ATOM      1  C   UNL     1      99.366  51.417  44.946  1.00  0.00    -0.031 C 
ATOM      2  C   UNL     1      99.417  51.481  43.606  1.00  0.00    -0.031 C 
ENDROOT
BRANCH   1   3
ATOM      3  C   UNL     1     100.167  52.348  45.813  1.00  0.00     0.027 C 
BRANCH   3   4
ATOM      4  C   UNL     1     101.225  51.580  46.622  1.00  0.00     0.004 C 
BRANCH   4   5
ATOM      5  C   UNL     1     102.077  52.506  47.506  1.00  0.00     0.000 C 
BRANCH   5   6
ATOM      6  C   UNL     1     101.227  53.312  48.504  1.00  0.00     0.000 C 
BRANCH   6   7
ATOM      7  C   UNL     1     102.000  54.483  49.138  1.00  0.00     0.000 C 
BRANCH   7   8
ATOM      8  C   UNL     1     101.535  54.883  50.550  1.00  0.00     0.006 C 
BRANCH   8   9
ATOM      9  C   UNL     1     100.419  53.979  51.092  1.00  0.00     0.053 C 
BRANCH   9  10
ATOM     10  C   UNL     1     100.454  53.944  52.587  1.00  0.00     0.041 C 
ATOM     11  O   UNL     1     101.017  54.871  53.230  1.00  0.00    -0.550 OA
ATOM     12  O   UNL     1      99.826  52.911  53.274  1.00  0.00    -0.550 OA
ENDBRANCH   9  10
ENDBRANCH   8   9
ENDBRANCH   7   8
ENDBRANCH   6   7
ENDBRANCH   5   6
ENDBRANCH   4   5
ENDBRANCH   3   4
ENDBRANCH   1   3
BRANCH   2  13
ATOM     13  C   UNL     1      98.586  50.572  42.744  1.00  0.00     0.027 C 
BRANCH  13  14
ATOM     14  C   UNL     1      99.081  50.582  41.290  1.00  0.00     0.004 C 
BRANCH  14  15
ATOM     15  C   UNL     1      97.936  50.530  40.263  1.00  0.00     0.000 C 
BRANCH  15  16
ATOM     16  C   UNL     1      98.326  50.897  38.815  1.00  0.00     0.000 C 
BRANCH  16  17
ATOM     17  C   UNL     1      97.140  51.202  37.877  1.00  0.00    -0.000 C 
BRANCH  17  18
ATOM     18  C   UNL     1      95.975  51.944  38.571  1.00  0.00    -0.000 C 
BRANCH  18  19
ATOM     19  C   UNL     1      94.587  51.509  38.071  1.00  0.00    -0.003 C 
ATOM     20  C   UNL     1      93.959  50.419  38.938  1.00  0.00     0.004 C 
ENDBRANCH  18  19
ENDBRANCH  17  18
ENDBRANCH  16  17
ENDBRANCH  15  16
ENDBRANCH  14  15
ENDBRANCH  13  14
ENDBRANCH   2  13
TORSDOF 15
ENDMDL
MODEL 8
REMARK VINA RESULT:    -2.817      4.807      9.881
REMARK INTER + INTRA:          -5.913
REMARK INTER:                  -4.757
REMARK INTRA:                  -1.156
REMARK UNBOUND:                -0.625
REMARK SMILES CCCCCCCCC=CCCCCCCCC(=O)[O-]
REMARK SMILES IDX 10 1 9 2 11 3 12 4 13 5 14 6 15 7 16 8 17 9 18 10 19 11
REMARK SMILES IDX 20 12 8 13 7 14 6 15 5 16 4 17 3 18 2 19 1 20
REMARK H PARENT
REMARK Flexibility Score: inf
ROOT
ATOM      1  C   UNL     1     100.716  52.745  48.670  1.00  0.00    -0.031 C 
ATOM      2  C   UNL     1     101.568  53.228  47.752  1.00  0.00    -0.031 C 
ENDROOT
BRANCH   1   3
ATOM      3  C   UNL     1     100.506  53.428  49.992  1.00  0.00     0.027 C 
BRANCH   3   4
ATOM      4  C   UNL     1     101.488  54.598  50.173  1.00  0.00     0.004 C 
BRANCH   4   5
ATOM      5  C   UNL     1     101.517  55.125  51.617  1.00  0.00     0.000 C 
BRANCH   5   6
ATOM      6  C   UNL     1     100.360  54.572  52.468  1.00  0.00     0.000 C 
BRANCH   6   7
ATOM      7  C   UNL     1     100.845  53.709  53.647  1.00  0.00     0.000 C 
BRANCH   7   8
ATOM      8  C   UNL     1      99.944  52.508  53.990  1.00  0.00     0.006 C 
BRANCH   8   9
ATOM      9  C   UNL     1      99.435  51.766  52.747  1.00  0.00     0.053 C 
BRANCH   9  10
ATOM     10  C   UNL     1      98.088  51.170  53.008  1.00  0.00     0.041 C 
ATOM     11  O   UNL     1      97.967  49.927  53.176  1.00  0.00    -0.550 OA
ATOM     12  O   UNL     1      96.971  51.992  53.112  1.00  0.00    -0.550 OA
ENDBRANCH   9  10
ENDBRANCH   8   9
ENDBRANCH   7   8
ENDBRANCH   6   7
ENDBRANCH   5   6
ENDBRANCH   4   5
ENDBRANCH   3   4
ENDBRANCH   1   3
BRANCH   2  13
ATOM     13  C   UNL     1     101.746  52.562  46.416  1.00  0.00     0.027 C 
BRANCH  13  14
ATOM     14  C   UNL     1     101.272  51.101  46.459  1.00  0.00     0.004 C 
BRANCH  14  15
ATOM     15  C   UNL     1     100.072  50.830  45.533  1.00  0.00     0.000 C 
BRANCH  15  16
ATOM     16  C   UNL     1      99.348  52.086  45.002  1.00  0.00     0.000 C 
BRANCH  16  17
ATOM     17  C   UNL     1      98.997  52.052  43.501  1.00  0.00    -0.000 C 
BRANCH  17  18
ATOM     18  C   UNL     1      99.000  50.630  42.895  1.00  0.00    -0.000 C 
BRANCH  18  19
ATOM     19  C   UNL     1      98.735  50.608  41.380  1.00  0.00    -0.003 C 
ATOM     20  C   UNL     1     100.003  50.821  40.554  1.00  0.00     0.004 C 
ENDBRANCH  18  19
ENDBRANCH  17  18
ENDBRANCH  16  17
ENDBRANCH  15  16
ENDBRANCH  14  15
ENDBRANCH  13  14
ENDBRANCH   2  13
TORSDOF 15
ENDMDL
MODEL 9
REMARK VINA RESULT:    -2.721      4.559     11.100
REMARK INTER + INTRA:          -5.731
REMARK INTER:                  -5.068
REMARK INTRA:                  -0.663
REMARK UNBOUND:                -0.625
REMARK SMILES CCCCCCCCC=CCCCCCCCC(=O)[O-]
REMARK SMILES IDX 10 1 9 2 11 3 12 4 13 5 14 6 15 7 16 8 17 9 18 10 19 11
REMARK SMILES IDX 20 12 8 13 7 14 6 15 5 16 4 17 3 18 2 19 1 20
REMARK H PARENT
REMARK Flexibility Score: inf
ROOT
ATOM      1  C   UNL     1      98.635  51.122  43.108  1.00  0.00    -0.031 C 
ATOM      2  C   UNL     1      99.009  51.142  41.818  1.00  0.00    -0.031 C 
ENDROOT
BRANCH   1   3
ATOM      3  C   UNL     1      99.279  52.014  44.131  1.00  0.00     0.027 C 
BRANCH   3   4
ATOM      4  C   UNL     1      99.740  51.209  45.357  1.00  0.00     0.004 C 
BRANCH   4   5
ATOM      5  C   UNL     1     100.303  52.104  46.473  1.00  0.00     0.000 C 
BRANCH   5   6
ATOM      6  C   UNL     1     101.533  51.485  47.160  1.00  0.00     0.000 C 
BRANCH   6   7
ATOM      7  C   UNL     1     102.395  52.527  47.896  1.00  0.00     0.000 C 
BRANCH   7   8
ATOM      8  C   UNL     1     101.733  53.903  48.090  1.00  0.00     0.006 C 
BRANCH   8   9
ATOM      9  C   UNL     1     102.030  54.523  49.463  1.00  0.00     0.053 C 
BRANCH   9  10
ATOM     10  C   UNL     1     101.030  54.059  50.473  1.00  0.00     0.041 C 
ATOM     11  O   UNL     1     100.232  53.124  50.193  1.00  0.00    -0.550 OA
ATOM     12  O   UNL     1     101.008  54.626  51.743  1.00  0.00    -0.550 OA
ENDBRANCH   9  10
ENDBRANCH   8   9
ENDBRANCH   7   8
ENDBRANCH   6   7
ENDBRANCH   5   6
ENDBRANCH   4   5
ENDBRANCH   3   4
ENDBRANCH   1   3
BRANCH   2  13
ATOM     13  C   UNL     1      98.336  50.275  40.791  1.00  0.00     0.027 C 
BRANCH  13  14
ATOM     14  C   UNL     1      98.791  50.642  39.370  1.00  0.00     0.004 C 
BRANCH  14  15
ATOM     15  C   UNL     1      97.639  51.141  38.480  1.00  0.00     0.000 C 
BRANCH  15  16
ATOM     16  C   UNL     1      96.315  51.441  39.214  1.00  0.00     0.000 C 
BRANCH  16  17
ATOM     17  C   UNL     1      95.282  52.242  38.396  1.00  0.00    -0.000 C 
BRANCH  17  18
ATOM     18  C   UNL     1      93.817  51.967  38.806  1.00  0.00    -0.000 C 
BRANCH  18  19
ATOM     19  C   UNL     1      93.560  50.510  39.223  1.00  0.00    -0.003 C 
ATOM     20  C   UNL     1      93.489  49.556  38.032  1.00  0.00     0.004 C 
ENDBRANCH  18  19
ENDBRANCH  17  18
ENDBRANCH  16  17
ENDBRANCH  15  16
ENDBRANCH  14  15
ENDBRANCH  13  14
ENDBRANCH   2  13
TORSDOF 15
ENDMDL
