MODEL 1
REMARK VINA RESULT:    -3.920      0.000      0.000
REMARK INTER + INTRA:          -7.814
REMARK INTER:                  -6.326
REMARK INTRA:                  -1.488
REMARK UNBOUND:                -1.488
REMARK SMILES CCCCCCCCCCCCO
REMARK SMILES IDX 7 1 6 2 5 3 4 4 3 5 2 6 1 7 8 8 9 9 10 10 11 11 12 12 13 13
REMARK H PARENT 13 14
REMARK Flexibility Score: inf
ROOT
ATOM      1  C   UNL     1      13.766  -0.151 -49.636  1.00  0.00     0.000 C 
ENDROOT
BRANCH   1   2
ATOM      2  C   UNL     1      12.829  -0.853 -48.646  1.00  0.00    -0.000 C 
BRANCH   2   3
ATOM      3  C   UNL     1      11.913   0.156 -47.943  1.00  0.00    -0.000 C 
BRANCH   3   4
ATOM      4  C   UNL     1      12.565   0.688 -46.658  1.00  0.00    -0.000 C 
BRANCH   4   5
ATOM      5  C   UNL     1      12.745   2.214 -46.673  1.00  0.00    -0.000 C 
BRANCH   5   6
ATOM      6  C   UNL     1      12.225   2.858 -47.966  1.00  0.00    -0.003 C 
ATOM      7  C   UNL     1      13.343   3.582 -48.708  1.00  0.00     0.004 C 
ENDBRANCH   5   6
ENDBRANCH   4   5
ENDBRANCH   3   4
ENDBRANCH   2   3
ENDBRANCH   1   2
BRANCH   1   8
ATOM      8  C   UNL     1      15.209  -0.656 -49.482  1.00  0.00     0.000 C 
BRANCH   8   9
ATOM      9  C   UNL     1      15.883  -0.142 -48.200  1.00  0.00     0.000 C 
BRANCH   9  10
ATOM     10  C   UNL     1      16.266   1.343 -48.287  1.00  0.00     0.002 C 
BRANCH  10  11
ATOM     11  C   UNL     1      16.413   1.954 -46.887  1.00  0.00     0.028 C 
BRANCH  11  12
ATOM     12  C   UNL     1      17.695   1.479 -46.192  1.00  0.00     0.156 C 
BRANCH  12  13
ATOM     13  O   UNL     1      17.398   0.616 -45.126  1.00  0.00    -0.396 OA
ATOM     14  H   UNL     1      17.891   0.960 -44.337  1.00  0.00     0.210 HD
ENDBRANCH  12  13
ENDBRANCH  11  12
ENDBRANCH  10  11
ENDBRANCH   9  10
ENDBRANCH   8   9
ENDBRANCH   1   8
TORSDOF 11
ENDMDL
MODEL 2
REMARK VINA RESULT:    -3.917      1.059      1.612
REMARK INTER + INTRA:          -7.809
REMARK INTER:                  -6.568
REMARK INTRA:                  -1.241
REMARK UNBOUND:                -1.488
REMARK SMILES CCCCCCCCCCCCO
REMARK SMILES IDX 7 1 6 2 5 3 4 4 3 5 2 6 1 7 8 8 9 9 10 10 11 11 12 12 13 13
REMARK H PARENT 13 14
REMARK Flexibility Score: inf
ROOT
ATOM      1  C   UNL     1      14.548  -1.627 -49.510  1.00  0.00     0.000 C 
ENDROOT
BRANCH   1   2
ATOM      2  C   UNL     1      13.713  -0.380 -49.823  1.00  0.00    -0.000 C 
BRANCH   2   3
ATOM      3  C   UNL     1      12.287  -0.520 -49.278  1.00  0.00    -0.000 C 
BRANCH   3   4
ATOM      4  C   UNL     1      11.922   0.671 -48.379  1.00  0.00    -0.000 C 
BRANCH   4   5
ATOM      5  C   UNL     1      12.791   1.909 -48.654  1.00  0.00    -0.000 C 
BRANCH   5   6
ATOM      6  C   UNL     1      13.233   2.619 -47.367  1.00  0.00    -0.003 C 
ATOM      7  C   UNL     1      12.983   1.745 -46.143  1.00  0.00     0.004 C 
ENDBRANCH   5   6
ENDBRANCH   4   5
ENDBRANCH   3   4
ENDBRANCH   2   3
ENDBRANCH   1   2
BRANCH   1   8
ATOM      8  C   UNL     1      15.977  -1.242 -49.095  1.00  0.00     0.000 C 
BRANCH   8   9
ATOM      9  C   UNL     1      16.115   0.251 -48.760  1.00  0.00     0.000 C 
BRANCH   9  10
ATOM     10  C   UNL     1      16.222   0.511 -47.249  1.00  0.00     0.002 C 
BRANCH  10  11
ATOM     11  C   UNL     1      16.953   1.832 -46.971  1.00  0.00     0.028 C 
BRANCH  11  12
ATOM     12  C   UNL     1      17.487   1.895 -45.536  1.00  0.00     0.156 C 
BRANCH  12  13
ATOM     13  O   UNL     1      18.828   1.490 -45.480  1.00  0.00    -0.396 OA
ATOM     14  H   UNL     1      18.946   0.801 -46.185  1.00  0.00     0.210 HD
ENDBRANCH  12  13
ENDBRANCH  11  12
ENDBRANCH  10  11
ENDBRANCH   9  10
ENDBRANCH   8   9
ENDBRANCH   1   8
TORSDOF 11
ENDMDL
MODEL 3
REMARK VINA RESULT:    -3.847      1.348      3.900
REMARK INTER + INTRA:          -7.696
REMARK INTER:                  -6.640
REMARK INTRA:                  -1.056
REMARK UNBOUND:                -1.488
REMARK SMILES CCCCCCCCCCCCO
REMARK SMILES IDX 7 1 6 2 5 3 4 4 3 5 2 6 1 7 8 8 9 9 10 10 11 11 12 12 13 13
REMARK H PARENT 13 14
REMARK Flexibility Score: inf
ROOT
ATOM      1  C   UNL     1      12.357   0.415 -47.747  1.00  0.00     0.000 C 
ENDROOT
BRANCH   1   2
ATOM      2  C   UNL     1      12.961   1.032 -49.015  1.00  0.00    -0.000 C 
BRANCH   2   3
ATOM      3  C   UNL     1      13.804   0.005 -49.780  1.00  0.00    -0.000 C 
BRANCH   3   4
ATOM      4  C   UNL     1      14.438  -1.012 -48.819  1.00  0.00    -0.000 C 
BRANCH   4   5
ATOM      5  C   UNL     1      15.921  -1.274 -49.129  1.00  0.00    -0.000 C 
BRANCH   5   6
ATOM      6  C   UNL     1      16.162  -2.666 -49.732  1.00  0.00    -0.003 C 
ATOM      7  C   UNL     1      14.984  -3.595 -49.458  1.00  0.00     0.004 C 
ENDBRANCH   5   6
ENDBRANCH   4   5
ENDBRANCH   3   4
ENDBRANCH   2   3
ENDBRANCH   1   2
BRANCH   1   8
ATOM      8  C   UNL     1      12.602   1.316 -46.527  1.00  0.00     0.000 C 
BRANCH   8   9
ATOM      9  C   UNL     1      13.885   2.151 -46.655  1.00  0.00     0.000 C 
BRANCH   9  10
ATOM     10  C   UNL     1      15.114   1.443 -46.064  1.00  0.00     0.002 C 
BRANCH  10  11
ATOM     11  C   UNL     1      16.344   1.642 -46.959  1.00  0.00     0.028 C 
BRANCH  11  12
ATOM     12  C   UNL     1      17.614   1.888 -46.135  1.00  0.00     0.156 C 
BRANCH  12  13
ATOM     13  O   UNL     1      17.927   0.771 -45.348  1.00  0.00    -0.396 OA
ATOM     14  H   UNL     1      18.043   0.008 -45.972  1.00  0.00     0.210 HD
ENDBRANCH  12  13
ENDBRANCH  11  12
ENDBRANCH  10  11
ENDBRANCH   9  10
ENDBRANCH   8   9
ENDBRANCH   1   8
TORSDOF 11
ENDMDL
MODEL 4
REMARK VINA RESULT:    -3.789      1.718      4.213
REMARK INTER + INTRA:          -7.603
REMARK INTER:                  -6.289
REMARK INTRA:                  -1.314
REMARK UNBOUND:                -1.488
REMARK SMILES CCCCCCCCCCCCO
REMARK SMILES IDX 7 1 6 2 5 3 4 4 3 5 2 6 1 7 8 8 9 9 10 10 11 11 12 12 13 13
REMARK H PARENT 13 14
REMARK Flexibility Score: inf
ROOT
ATOM      1  C   UNL     1      13.843  -0.368 -49.508  1.00  0.00     0.000 C 
ENDROOT
BRANCH   1   2
ATOM      2  C   UNL     1      15.125  -1.150 -49.198  1.00  0.00    -0.000 C 
BRANCH   2   3
ATOM      3  C   UNL     1      16.174  -0.249 -48.536  1.00  0.00    -0.000 C 
BRANCH   3   4
ATOM      4  C   UNL     1      15.781   1.232 -48.655  1.00  0.00    -0.000 C 
BRANCH   4   5
ATOM      5  C   UNL     1      16.596   2.138 -47.719  1.00  0.00    -0.000 C 
BRANCH   5   6
ATOM      6  C   UNL     1      16.569   1.658 -46.260  1.00  0.00    -0.003 C 
ATOM      7  C   UNL     1      17.974   1.623 -45.667  1.00  0.00     0.004 C 
ENDBRANCH   5   6
ENDBRANCH   4   5
ENDBRANCH   3   4
ENDBRANCH   2   3
ENDBRANCH   1   2
BRANCH   1   8
ATOM      8  C   UNL     1      12.658  -0.910 -48.692  1.00  0.00     0.000 C 
BRANCH   8   9
ATOM      9  C   UNL     1      11.951   0.184 -47.877  1.00  0.00     0.000 C 
BRANCH   9  10
ATOM     10  C   UNL     1      12.771   0.639 -46.660  1.00  0.00     0.002 C 
BRANCH  10  11
ATOM     11  C   UNL     1      12.704   2.163 -46.492  1.00  0.00     0.028 C 
BRANCH  11  12
ATOM     12  C   UNL     1      12.517   2.875 -47.837  1.00  0.00     0.156 C 
BRANCH  12  13
ATOM     13  O   UNL     1      13.477   3.883 -48.009  1.00  0.00    -0.396 OA
ATOM     14  H   UNL     1      13.918   4.008 -47.129  1.00  0.00     0.210 HD
ENDBRANCH  12  13
ENDBRANCH  11  12
ENDBRANCH  10  11
ENDBRANCH   9  10
ENDBRANCH   8   9
ENDBRANCH   1   8
TORSDOF 11
ENDMDL
MODEL 5
REMARK VINA RESULT:    -3.761     15.761     17.067
REMARK INTER + INTRA:          -7.558
REMARK INTER:                  -6.807
REMARK INTRA:                  -0.751
REMARK UNBOUND:                -1.488
REMARK SMILES CCCCCCCCCCCCO
REMARK SMILES IDX 7 1 6 2 5 3 4 4 3 5 2 6 1 7 8 8 9 9 10 10 11 11 12 12 13 13
REMARK H PARENT 13 14
REMARK Flexibility Score: inf
ROOT
ATOM      1  C   UNL     1      15.930  -6.460 -34.257  1.00  0.00     0.000 C 
ENDROOT
BRANCH   1   2
ATOM      2  C   UNL     1      14.668  -7.068 -33.633  1.00  0.00    -0.000 C 
BRANCH   2   3
ATOM      3  C   UNL     1      13.434  -6.211 -33.938  1.00  0.00    -0.000 C 
BRANCH   3   4
ATOM      4  C   UNL     1      12.404  -6.307 -32.802  1.00  0.00    -0.000 C 
BRANCH   4   5
ATOM      5  C   UNL     1      12.983  -6.946 -31.529  1.00  0.00    -0.000 C 
BRANCH   5   6
ATOM      6  C   UNL     1      12.957  -5.993 -30.326  1.00  0.00    -0.003 C 
ATOM      7  C   UNL     1      11.817  -4.987 -30.445  1.00  0.00     0.004 C 
ENDBRANCH   5   6
ENDBRANCH   4   5
ENDBRANCH   3   4
ENDBRANCH   2   3
ENDBRANCH   1   2
BRANCH   1   8
ATOM      8  C   UNL     1      16.145  -5.019 -33.768  1.00  0.00     0.000 C 
BRANCH   8   9
ATOM      9  C   UNL     1      16.572  -4.951 -32.294  1.00  0.00     0.000 C 
BRANCH   9  10
ATOM     10  C   UNL     1      17.838  -4.108 -32.082  1.00  0.00     0.002 C 
BRANCH  10  11
ATOM     11  C   UNL     1      18.484  -4.419 -30.725  1.00  0.00     0.028 C 
BRANCH  11  12
ATOM     12  C   UNL     1      19.174  -3.188 -30.127  1.00  0.00     0.156 C 
BRANCH  12  13
ATOM     13  O   UNL     1      20.188  -2.719 -30.975  1.00  0.00    -0.396 OA
ATOM     14  H   UNL     1      20.937  -2.433 -30.390  1.00  0.00     0.210 HD
ENDBRANCH  12  13
ENDBRANCH  11  12
ENDBRANCH  10  11
ENDBRANCH   9  10
ENDBRANCH   8   9
ENDBRANCH   1   8
TORSDOF 11
ENDMDL
MODEL 6
REMARK VINA RESULT:    -3.697     14.586     15.818
REMARK INTER + INTRA:          -7.455
REMARK INTER:                  -6.732
REMARK INTRA:                  -0.723
REMARK UNBOUND:                -1.488
REMARK SMILES CCCCCCCCCCCCO
REMARK SMILES IDX 7 1 6 2 5 3 4 4 3 5 2 6 1 7 8 8 9 9 10 10 11 11 12 12 13 13
REMARK H PARENT 13 14
REMARK Flexibility Score: inf
ROOT
ATOM      1  C   UNL     1      14.649  -6.332 -34.499  1.00  0.00     0.000 C 
ENDROOT
BRANCH   1   2
ATOM      2  C   UNL     1      14.220  -6.997 -33.185  1.00  0.00    -0.000 C 
BRANCH   2   3
ATOM      3  C   UNL     1      12.961  -6.332 -32.616  1.00  0.00    -0.000 C 
BRANCH   3   4
ATOM      4  C   UNL     1      11.942  -6.042 -33.727  1.00  0.00    -0.000 C 
BRANCH   4   5
ATOM      5  C   UNL     1      11.452  -4.585 -33.717  1.00  0.00    -0.000 C 
BRANCH   5   6
ATOM      6  C   UNL     1      10.947  -4.121 -35.091  1.00  0.00    -0.003 C 
ATOM      7  C   UNL     1      11.153  -5.203 -36.146  1.00  0.00     0.004 C 
ENDBRANCH   5   6
ENDBRANCH   4   5
ENDBRANCH   3   4
ENDBRANCH   2   3
ENDBRANCH   1   2
BRANCH   1   8
ATOM      8  C   UNL     1      16.053  -5.721 -34.373  1.00  0.00     0.000 C 
BRANCH   8   9
ATOM      9  C   UNL     1      16.101  -4.542 -33.390  1.00  0.00     0.000 C 
BRANCH   9  10
ATOM     10  C   UNL     1      17.499  -4.326 -32.791  1.00  0.00     0.002 C 
BRANCH  10  11
ATOM     11  C   UNL     1      17.482  -4.535 -31.270  1.00  0.00     0.028 C 
BRANCH  11  12
ATOM     12  C   UNL     1      18.803  -4.106 -30.622  1.00  0.00     0.156 C 
BRANCH  12  13
ATOM     13  O   UNL     1      19.148  -2.800 -31.001  1.00  0.00    -0.396 OA
ATOM     14  H   UNL     1      19.389  -2.318 -30.168  1.00  0.00     0.210 HD
ENDBRANCH  12  13
ENDBRANCH  11  12
ENDBRANCH  10  11
ENDBRANCH   9  10
ENDBRANCH   8   9
ENDBRANCH   1   8
TORSDOF 11
ENDMDL
MODEL 7
REMARK VINA RESULT:    -3.693      3.268      5.301
REMARK INTER + INTRA:          -7.448
REMARK INTER:                  -6.998
REMARK INTRA:                  -0.451
REMARK UNBOUND:                -1.488
REMARK SMILES CCCCCCCCCCCCO
REMARK SMILES IDX 7 1 6 2 5 3 4 4 3 5 2 6 1 7 8 8 9 9 10 10 11 11 12 12 13 13
REMARK H PARENT 13 14
REMARK Flexibility Score: inf
ROOT
ATOM      1  C   UNL     1      16.241  -1.432 -49.393  1.00  0.00     0.000 C 
ENDROOT
BRANCH   1   2
ATOM      2  C   UNL     1      15.724  -2.866 -49.560  1.00  0.00    -0.000 C 
BRANCH   2   3
ATOM      3  C   UNL     1      14.267  -2.985 -49.099  1.00  0.00    -0.000 C 
BRANCH   3   4
ATOM      4  C   UNL     1      13.622  -4.271 -49.638  1.00  0.00    -0.000 C 
BRANCH   4   5
ATOM      5  C   UNL     1      14.273  -5.542 -49.070  1.00  0.00    -0.000 C 
BRANCH   5   6
ATOM      6  C   UNL     1      13.239  -6.570 -48.587  1.00  0.00    -0.003 C 
ATOM      7  C   UNL     1      13.843  -7.511 -47.550  1.00  0.00     0.004 C 
ENDBRANCH   5   6
ENDBRANCH   4   5
ENDBRANCH   3   4
ENDBRANCH   2   3
ENDBRANCH   1   2
BRANCH   1   8
ATOM      8  C   UNL     1      15.115  -0.492 -48.934  1.00  0.00     0.000 C 
BRANCH   8   9
ATOM      9  C   UNL     1      15.644   0.787 -48.268  1.00  0.00     0.000 C 
BRANCH   9  10
ATOM     10  C   UNL     1      15.112   0.974 -46.839  1.00  0.00     0.002 C 
BRANCH  10  11
ATOM     11  C   UNL     1      16.243   1.373 -45.881  1.00  0.00     0.028 C 
BRANCH  11  12
ATOM     12  C   UNL     1      17.479   1.872 -46.637  1.00  0.00     0.156 C 
BRANCH  12  13
ATOM     13  O   UNL     1      18.657   1.529 -45.956  1.00  0.00    -0.396 OA
ATOM     14  H   UNL     1      18.469   0.683 -45.474  1.00  0.00     0.210 HD
ENDBRANCH  12  13
ENDBRANCH  11  12
ENDBRANCH  10  11
ENDBRANCH   9  10
ENDBRANCH   8   9
ENDBRANCH   1   8
TORSDOF 11
ENDMDL
MODEL 8
REMARK VINA RESULT:    -3.667      1.846      3.329
REMARK INTER + INTRA:          -7.405
REMARK INTER:                  -6.317
REMARK INTRA:                  -1.088
REMARK UNBOUND:                -1.488
REMARK SMILES CCCCCCCCCCCCO
REMARK SMILES IDX 7 1 6 2 5 3 4 4 3 5 2 6 1 7 8 8 9 9 10 10 11 11 12 12 13 13
REMARK H PARENT 13 14
REMARK Flexibility Score: inf
ROOT
ATOM      1  C   UNL     1      16.149  -1.858 -49.662  1.00  0.00     0.000 C 
ENDROOT
BRANCH   1   2
ATOM      2  C   UNL     1      15.400  -2.900 -48.822  1.00  0.00    -0.000 C 
BRANCH   2   3
ATOM      3  C   UNL     1      14.535  -3.804 -49.709  1.00  0.00    -0.000 C 
BRANCH   3   4
ATOM      4  C   UNL     1      13.075  -3.810 -49.229  1.00  0.00    -0.000 C 
BRANCH   4   5
ATOM      5  C   UNL     1      12.306  -2.550 -49.656  1.00  0.00    -0.000 C 
BRANCH   5   6
ATOM      6  C   UNL     1      11.908  -1.667 -48.464  1.00  0.00    -0.003 C 
ATOM      7  C   UNL     1      11.880  -0.194 -48.857  1.00  0.00     0.004 C 
ENDBRANCH   5   6
ENDBRANCH   4   5
ENDBRANCH   3   4
ENDBRANCH   2   3
ENDBRANCH   1   2
BRANCH   1   8
ATOM      8  C   UNL     1      15.605  -0.445 -49.397  1.00  0.00     0.000 C 
BRANCH   8   9
ATOM      9  C   UNL     1      15.422  -0.151 -47.900  1.00  0.00     0.000 C 
BRANCH   9  10
ATOM     10  C   UNL     1      15.421   1.353 -47.588  1.00  0.00     0.002 C 
BRANCH  10  11
ATOM     11  C   UNL     1      16.834   1.839 -47.236  1.00  0.00     0.028 C 
BRANCH  11  12
ATOM     12  C   UNL     1      17.081   1.823 -45.723  1.00  0.00     0.156 C 
BRANCH  12  13
ATOM     13  O   UNL     1      17.657   0.609 -45.321  1.00  0.00    -0.396 OA
ATOM     14  H   UNL     1      18.615   0.652 -45.574  1.00  0.00     0.210 HD
ENDBRANCH  12  13
ENDBRANCH  11  12
ENDBRANCH  10  11
ENDBRANCH   9  10
ENDBRANCH   8   9
ENDBRANCH   1   8
TORSDOF 11
ENDMDL
MODEL 9
REMARK VINA RESULT:    -3.552      1.801      4.324
REMARK INTER + INTRA:          -7.221
REMARK INTER:                  -6.328
REMARK INTRA:                  -0.893
REMARK UNBOUND:                -1.488
REMARK SMILES CCCCCCCCCCCCO
REMARK SMILES IDX 7 1 6 2 5 3 4 4 3 5 2 6 1 7 8 8 9 9 10 10 11 11 12 12 13 13
REMARK H PARENT 13 14
REMARK Flexibility Score: inf
ROOT
ATOM      1  C   UNL     1      13.026   1.264 -46.941  1.00  0.00     0.000 C 
ENDROOT
BRANCH   1   2
ATOM      2  C   UNL     1      13.488   2.627 -47.472  1.00  0.00    -0.000 C 
BRANCH   2   3
ATOM      3  C   UNL     1      14.532   2.461 -48.582  1.00  0.00    -0.000 C 
BRANCH   3   4
ATOM      4  C   UNL     1      15.658   1.513 -48.141  1.00  0.00    -0.000 C 
BRANCH   4   5
ATOM      5  C   UNL     1      16.976   2.251 -47.856  1.00  0.00    -0.000 C 
BRANCH   5   6
ATOM      6  C   UNL     1      17.617   1.825 -46.528  1.00  0.00    -0.003 C 
ATOM      7  C   UNL     1      16.585   1.788 -45.406  1.00  0.00     0.004 C 
ENDBRANCH   5   6
ENDBRANCH   4   5
ENDBRANCH   3   4
ENDBRANCH   2   3
ENDBRANCH   1   2
BRANCH   1   8
ATOM      8  C   UNL     1      12.182   0.523 -47.989  1.00  0.00     0.000 C 
BRANCH   8   9
ATOM      9  C   UNL     1      12.655  -0.921 -48.217  1.00  0.00     0.000 C 
BRANCH   9  10
ATOM     10  C   UNL     1      13.458  -1.083 -49.516  1.00  0.00     0.002 C 
BRANCH  10  11
ATOM     11  C   UNL     1      14.535  -2.166 -49.363  1.00  0.00     0.028 C 
BRANCH  11  12
ATOM     12  C   UNL     1      15.940  -1.613 -49.629  1.00  0.00     0.156 C 
BRANCH  12  13
ATOM     13  O   UNL     1      16.922  -2.565 -49.320  1.00  0.00    -0.396 OA
ATOM     14  H   UNL     1      17.448  -2.195 -48.564  1.00  0.00     0.210 HD
ENDBRANCH  12  13
ENDBRANCH  11  12
ENDBRANCH  10  11
ENDBRANCH   9  10
ENDBRANCH   8   9
ENDBRANCH   1   8
TORSDOF 11
ENDMDL
