MODEL 1
REMARK VINA RESULT:    -4.174      0.000      0.000
REMARK INTER + INTRA:          -5.088
REMARK INTER:                  -4.784
REMARK INTRA:                  -0.303
REMARK UNBOUND:                -0.303
REMARK SMILES O=C1C[C@@H](c2ccc(O)cc2)Oc2cc(O)cc(O)c21
REMARK SMILES IDX 3 1 4 2 12 3 13 4 14 5 15 6 17 7 18 8 20 9 2 10 1 11 5 12
REMARK SMILES IDX 6 13 11 14 7 15 10 16 8 17 9 18 19 20 16 22
REMARK H PARENT 9 19 19 21 16 23
REMARK Flexibility Score: inf
ROOT
ATOM      1  C   UNL     1      52.236  83.226  29.546  1.00  0.00     0.131 C 
ATOM      2  C   UNL     1      53.036  83.095  30.852  1.00  0.00     0.211 C 
ATOM      3  O   UNL     1      52.461  83.910  31.877  1.00  0.00    -0.484 OA
ATOM      4  C   UNL     1      51.077  83.986  32.078  1.00  0.00     0.138 A 
ATOM      5  C   UNL     1      50.585  84.527  33.268  1.00  0.00     0.093 A 
ATOM      6  C   UNL     1      49.209  84.590  33.496  1.00  0.00     0.123 A 
ATOM      7  C   UNL     1      48.318  84.113  32.526  1.00  0.00     0.093 A 
ATOM      8  C   UNL     1      48.799  83.585  31.319  1.00  0.00     0.133 A 
ATOM      9  C   UNL     1      50.190  83.524  31.086  1.00  0.00     0.102 A 
ATOM     10  C   UNL     1      50.772  83.026  29.816  1.00  0.00     0.174 C 
ATOM     11  O   UNL     1      50.050  82.486  28.936  1.00  0.00    -0.294 OA
ENDROOT
BRANCH   2  12
ATOM     12  C   UNL     1      54.479  83.477  30.635  1.00  0.00    -0.007 A 
ATOM     13  C   UNL     1      55.329  83.683  31.735  1.00  0.00     0.011 A 
ATOM     14  C   UNL     1      55.005  83.577  29.335  1.00  0.00     0.011 A 
ATOM     15  C   UNL     1      56.675  84.006  31.537  1.00  0.00     0.046 A 
ATOM     16  C   UNL     1      56.351  83.900  29.140  1.00  0.00     0.046 A 
ATOM     17  C   UNL     1      57.189  84.117  30.237  1.00  0.00     0.115 A 
BRANCH  17  18
ATOM     18  O   UNL     1      58.528  84.440  30.029  1.00  0.00    -0.508 OA
ATOM     19  H   UNL     1      59.240  84.212  30.712  1.00  0.00     0.293 HD
ENDBRANCH  17  18
ENDBRANCH   2  12
BRANCH   8  20
ATOM     20  O   UNL     1      47.896  83.131  30.357  1.00  0.00    -0.507 OA
ATOM     21  H   UNL     1      47.439  83.767  29.715  1.00  0.00     0.293 HD
ENDBRANCH   8  20
BRANCH   6  22
ATOM     22  O   UNL     1      48.735  85.125  34.693  1.00  0.00    -0.508 OA
ATOM     23  H   UNL     1      49.133  85.968  35.091  1.00  0.00     0.293 HD
ENDBRANCH   6  22
TORSDOF 4
ENDMDL
MODEL 2
REMARK VINA RESULT:    -3.766      1.435      3.011
REMARK INTER + INTRA:          -4.619
REMARK INTER:                  -4.318
REMARK INTRA:                  -0.301
REMARK UNBOUND:                -0.303
REMARK SMILES O=C1C[C@@H](c2ccc(O)cc2)Oc2cc(O)cc(O)c21
REMARK SMILES IDX 3 1 4 2 12 3 13 4 14 5 15 6 17 7 18 8 20 9 2 10 1 11 5 12
REMARK SMILES IDX 6 13 11 14 7 15 10 16 8 17 9 18 19 20 16 22
REMARK H PARENT 9 19 19 21 16 23
REMARK Flexibility Score: inf
ROOT
ATOM      1  C   UNL     1      53.239  84.517  32.559  1.00  0.00     0.131 C 
ATOM      2  C   UNL     1      53.456  85.108  31.157  1.00  0.00     0.211 C 
ATOM      3  O   UNL     1      52.488  84.591  30.238  1.00  0.00    -0.484 OA
ATOM      4  C   UNL     1      51.138  84.455  30.581  1.00  0.00     0.138 A 
ATOM      5  C   UNL     1      50.190  84.256  29.573  1.00  0.00     0.093 A 
ATOM      6  C   UNL     1      48.836  84.141  29.893  1.00  0.00     0.123 A 
ATOM      7  C   UNL     1      48.426  84.220  31.230  1.00  0.00     0.093 A 
ATOM      8  C   UNL     1      49.369  84.401  32.253  1.00  0.00     0.133 A 
ATOM      9  C   UNL     1      50.739  84.514  31.930  1.00  0.00     0.102 A 
ATOM     10  C   UNL     1      51.798  84.656  32.959  1.00  0.00     0.174 C 
ATOM     11  O   UNL     1      51.508  84.838  34.172  1.00  0.00    -0.294 OA
ENDROOT
BRANCH   2  12
ATOM     12  C   UNL     1      54.850  84.811  30.662  1.00  0.00    -0.007 A 
ATOM     13  C   UNL     1      55.201  85.086  29.329  1.00  0.00     0.011 A 
ATOM     14  C   UNL     1      55.828  84.309  31.538  1.00  0.00     0.011 A 
ATOM     15  C   UNL     1      56.501  84.841  28.875  1.00  0.00     0.046 A 
ATOM     16  C   UNL     1      57.127  84.065  31.082  1.00  0.00     0.046 A 
ATOM     17  C   UNL     1      57.467  84.328  29.751  1.00  0.00     0.115 A 
BRANCH  17  18
ATOM     18  O   UNL     1      58.765  84.079  29.310  1.00  0.00    -0.508 OA
ATOM     19  H   UNL     1      58.953  83.426  28.559  1.00  0.00     0.293 HD
ENDBRANCH  17  18
ENDBRANCH   2  12
BRANCH   8  20
ATOM     20  O   UNL     1      48.943  84.460  33.580  1.00  0.00    -0.507 OA
ATOM     21  H   UNL     1      49.400  85.058  34.258  1.00  0.00     0.293 HD
ENDBRANCH   8  20
BRANCH   6  22
ATOM     22  O   UNL     1      47.904  83.952  28.875  1.00  0.00    -0.508 OA
ATOM     23  H   UNL     1      47.968  84.456  27.997  1.00  0.00     0.293 HD
ENDBRANCH   6  22
TORSDOF 4
ENDMDL
MODEL 3
REMARK VINA RESULT:    -3.661      1.745      6.705
REMARK INTER + INTRA:          -4.499
REMARK INTER:                  -4.190
REMARK INTRA:                  -0.309
REMARK UNBOUND:                -0.303
REMARK SMILES O=C1C[C@@H](c2ccc(O)cc2)Oc2cc(O)cc(O)c21
REMARK SMILES IDX 3 1 4 2 12 3 13 4 14 5 15 6 17 7 18 8 20 9 2 10 1 11 5 12
REMARK SMILES IDX 6 13 11 14 7 15 10 16 8 17 9 18 19 20 16 22
REMARK H PARENT 9 19 19 21 16 23
REMARK Flexibility Score: inf
ROOT
ATOM      1  C   UNL     1      52.165  81.845  30.914  1.00  0.00     0.131 C 
ATOM      2  C   UNL     1      51.887  83.343  30.709  1.00  0.00     0.211 C 
ATOM      3  O   UNL     1      53.088  84.103  30.869  1.00  0.00    -0.484 OA
ATOM      4  C   UNL     1      54.310  83.685  30.329  1.00  0.00     0.138 A 
ATOM      5  C   UNL     1      55.366  84.594  30.233  1.00  0.00     0.093 A 
ATOM      6  C   UNL     1      56.585  84.202  29.676  1.00  0.00     0.123 A 
ATOM      7  C   UNL     1      56.752  82.890  29.216  1.00  0.00     0.093 A 
ATOM      8  C   UNL     1      55.706  81.961  29.323  1.00  0.00     0.133 A 
ATOM      9  C   UNL     1      54.474  82.357  29.889  1.00  0.00     0.102 A 
ATOM     10  C   UNL     1      53.341  81.419  30.082  1.00  0.00     0.174 C 
ATOM     11  O   UNL     1      53.370  80.253  29.605  1.00  0.00    -0.294 OA
ENDROOT
BRANCH   2  12
ATOM     12  C   UNL     1      50.834  83.829  31.673  1.00  0.00    -0.007 A 
ATOM     13  C   UNL     1      49.495  83.430  31.518  1.00  0.00     0.011 A 
ATOM     14  C   UNL     1      51.186  84.637  32.768  1.00  0.00     0.011 A 
ATOM     15  C   UNL     1      48.522  83.853  32.429  1.00  0.00     0.046 A 
ATOM     16  C   UNL     1      50.211  85.059  33.677  1.00  0.00     0.046 A 
ATOM     17  C   UNL     1      48.878  84.671  33.510  1.00  0.00     0.115 A 
BRANCH  17  18
ATOM     18  O   UNL     1      47.916  85.099  34.423  1.00  0.00    -0.508 OA
ATOM     19  H   UNL     1      47.152  85.702  34.143  1.00  0.00     0.293 HD
ENDBRANCH  17  18
ENDBRANCH   2  12
BRANCH   8  20
ATOM     20  O   UNL     1      55.896  80.654  28.875  1.00  0.00    -0.507 OA
ATOM     21  H   UNL     1      55.317  80.252  28.147  1.00  0.00     0.293 HD
ENDBRANCH   8  20
BRANCH   6  22
ATOM     22  O   UNL     1      57.625  85.125  29.580  1.00  0.00    -0.508 OA
ATOM     23  H   UNL     1      58.531  84.865  29.205  1.00  0.00     0.293 HD
ENDBRANCH   6  22
TORSDOF 4
ENDMDL
