MODEL 1
REMARK VINA RESULT:    -5.723      0.000      0.000
REMARK INTER + INTRA:          -6.607
REMARK INTER:                  -6.559
REMARK INTRA:                  -0.048
REMARK UNBOUND:                -0.048
REMARK SMILES O=C([O-])c1cc(O)c(O)c(O)c1
REMARK SMILES IDX 4 1 5 2 12 3 6 4 10 5 8 6 2 7 1 8 3 9 7 10 11 12 9 14
REMARK H PARENT 7 11 11 13 9 15
REMARK Flexibility Score: inf
ROOT
ATOM      1  C   UNL     1     -44.562  27.381 -18.403  1.00  0.00     0.005 A 
ATOM      2  C   UNL     1     -44.367  26.133 -19.013  1.00  0.00     0.060 A 
ATOM      3  C   UNL     1     -45.741  27.606 -17.675  1.00  0.00     0.060 A 
ATOM      4  C   UNL     1     -45.327  25.120 -18.905  1.00  0.00     0.162 A 
ATOM      5  C   UNL     1     -46.709  26.605 -17.557  1.00  0.00     0.162 A 
ATOM      6  C   UNL     1     -46.513  25.353 -18.169  1.00  0.00     0.200 A 
ENDROOT
BRANCH   1   7
ATOM      7  C   UNL     1     -43.538  28.443 -18.527  1.00  0.00     0.072 C 
ATOM      8  O   UNL     1     -43.117  29.049 -17.506  1.00  0.00    -0.545 OA
ATOM      9  O   UNL     1     -43.026  28.784 -19.773  1.00  0.00    -0.545 OA
ENDBRANCH   1   7
BRANCH   4  10
ATOM     10  O   UNL     1     -45.060  23.904 -19.540  1.00  0.00    -0.504 OA
ATOM     11  H   UNL     1     -44.872  23.810 -20.528  1.00  0.00     0.293 HD
ENDBRANCH   4  10
BRANCH   5  12
ATOM     12  O   UNL     1     -47.864  26.874 -16.823  1.00  0.00    -0.504 OA
ATOM     13  H   UNL     1     -48.792  26.667 -17.177  1.00  0.00     0.293 HD
ENDBRANCH   5  12
BRANCH   6  14
ATOM     14  O   UNL     1     -47.505  24.380 -18.026  1.00  0.00    -0.502 OA
ATOM     15  H   UNL     1     -47.321  23.395 -17.904  1.00  0.00     0.293 HD
ENDBRANCH   6  14
TORSDOF 4
ENDMDL
MODEL 2
REMARK VINA RESULT:    -5.654      2.407      4.595
REMARK INTER + INTRA:          -6.528
REMARK INTER:                  -6.483
REMARK INTRA:                  -0.045
REMARK UNBOUND:                -0.048
REMARK SMILES O=C([O-])c1cc(O)c(O)c(O)c1
REMARK SMILES IDX 4 1 5 2 12 3 6 4 10 5 8 6 2 7 1 8 3 9 7 10 11 12 9 14
REMARK H PARENT 7 11 11 13 9 15
REMARK Flexibility Score: inf
ROOT
ATOM      1  C   UNL     1     -48.851  27.406 -16.867  1.00  0.00     0.005 A 
ATOM      2  C   UNL     1     -47.746  27.908 -17.571  1.00  0.00     0.060 A 
ATOM      3  C   UNL     1     -49.001  26.017 -16.738  1.00  0.00     0.060 A 
ATOM      4  C   UNL     1     -46.801  27.046 -18.141  1.00  0.00     0.162 A 
ATOM      5  C   UNL     1     -48.067  25.142 -17.301  1.00  0.00     0.162 A 
ATOM      6  C   UNL     1     -46.959  25.646 -18.007  1.00  0.00     0.200 A 
ENDROOT
BRANCH   1   7
ATOM      7  C   UNL     1     -49.841  28.331 -16.271  1.00  0.00     0.072 C 
ATOM      8  O   UNL     1     -49.852  28.543 -15.029  1.00  0.00    -0.545 OA
ATOM      9  O   UNL     1     -50.772  28.978 -17.074  1.00  0.00    -0.545 OA
ENDBRANCH   1   7
BRANCH   4  10
ATOM     10  O   UNL     1     -45.729  27.622 -18.827  1.00  0.00    -0.504 OA
ATOM     11  H   UNL     1     -44.911  27.115 -19.131  1.00  0.00     0.293 HD
ENDBRANCH   4  10
BRANCH   5  12
ATOM     12  O   UNL     1     -48.258  23.769 -17.146  1.00  0.00    -0.504 OA
ATOM     13  H   UNL     1     -48.138  23.115 -17.912  1.00  0.00     0.293 HD
ENDBRANCH   5  12
BRANCH   6  14
ATOM     14  O   UNL     1     -46.049  24.737 -18.553  1.00  0.00    -0.502 OA
ATOM     15  H   UNL     1     -45.055  24.757 -18.380  1.00  0.00     0.293 HD
ENDBRANCH   6  14
TORSDOF 4
ENDMDL
MODEL 3
REMARK VINA RESULT:    -5.652      0.084      2.617
REMARK INTER + INTRA:          -6.526
REMARK INTER:                  -6.478
REMARK INTRA:                  -0.048
REMARK UNBOUND:                -0.048
REMARK SMILES O=C([O-])c1cc(O)c(O)c(O)c1
REMARK SMILES IDX 4 1 5 2 12 3 6 4 10 5 8 6 2 7 1 8 3 9 7 10 11 12 9 14
REMARK H PARENT 7 11 11 13 9 15
REMARK Flexibility Score: inf
ROOT
ATOM      1  C   UNL     1     -44.595  27.385 -18.395  1.00  0.00     0.005 A 
ATOM      2  C   UNL     1     -45.782  27.627 -17.688  1.00  0.00     0.060 A 
ATOM      3  C   UNL     1     -44.400  26.127 -18.987  1.00  0.00     0.060 A 
ATOM      4  C   UNL     1     -46.765  26.638 -17.567  1.00  0.00     0.162 A 
ATOM      5  C   UNL     1     -45.372  25.128 -18.876  1.00  0.00     0.162 A 
ATOM      6  C   UNL     1     -46.563  25.372 -18.167  1.00  0.00     0.200 A 
ENDROOT
BRANCH   1   7
ATOM      7  C   UNL     1     -43.565  28.441 -18.513  1.00  0.00     0.072 C 
ATOM      8  O   UNL     1     -43.075  28.736 -19.635  1.00  0.00    -0.545 OA
ATOM      9  O   UNL     1     -43.125  29.124 -17.385  1.00  0.00    -0.545 OA
ENDBRANCH   1   7
BRANCH   4  10
ATOM     10  O   UNL     1     -47.919  26.955 -16.848  1.00  0.00    -0.504 OA
ATOM     11  H   UNL     1     -48.357  27.865 -16.848  1.00  0.00     0.293 HD
ENDBRANCH   4  10
BRANCH   5  12
ATOM     12  O   UNL     1     -45.135  23.894 -19.482  1.00  0.00    -0.504 OA
ATOM     13  H   UNL     1     -45.188  23.020 -18.971  1.00  0.00     0.293 HD
ENDBRANCH   5  12
BRANCH   6  14
ATOM     14  O   UNL     1     -47.507  24.346 -18.081  1.00  0.00    -0.502 OA
ATOM     15  H   UNL     1     -47.312  23.423 -17.722  1.00  0.00     0.293 HD
ENDBRANCH   6  14
TORSDOF 4
ENDMDL
MODEL 4
REMARK VINA RESULT:    -5.613      2.432      4.712
REMARK INTER + INTRA:          -6.481
REMARK INTER:                  -6.436
REMARK INTRA:                  -0.045
REMARK UNBOUND:                -0.048
REMARK SMILES O=C([O-])c1cc(O)c(O)c(O)c1
REMARK SMILES IDX 4 1 5 2 12 3 6 4 10 5 8 6 2 7 1 8 3 9 7 10 11 12 9 14
REMARK H PARENT 7 11 11 13 9 15
REMARK Flexibility Score: inf
ROOT
ATOM      1  C   UNL     1     -48.915  27.410 -16.958  1.00  0.00     0.005 A 
ATOM      2  C   UNL     1     -49.042  26.024 -16.786  1.00  0.00     0.060 A 
ATOM      3  C   UNL     1     -47.813  27.909 -17.669  1.00  0.00     0.060 A 
ATOM      4  C   UNL     1     -48.092  25.141 -17.312  1.00  0.00     0.162 A 
ATOM      5  C   UNL     1     -46.855  27.042 -18.202  1.00  0.00     0.162 A 
ATOM      6  C   UNL     1     -46.983  25.651 -18.029  1.00  0.00     0.200 A 
ENDROOT
BRANCH   1   7
ATOM      7  C   UNL     1     -49.928  28.330 -16.395  1.00  0.00     0.072 C 
ATOM      8  O   UNL     1     -50.817  28.833 -17.132  1.00  0.00    -0.545 OA
ATOM      9  O   UNL     1     -49.913  28.652 -15.042  1.00  0.00    -0.545 OA
ENDBRANCH   1   7
BRANCH   4  10
ATOM     10  O   UNL     1     -48.288  23.775 -17.099  1.00  0.00    -0.504 OA
ATOM     11  H   UNL     1     -48.714  23.385 -16.271  1.00  0.00     0.293 HD
ENDBRANCH   4  10
BRANCH   5  12
ATOM     12  O   UNL     1     -45.777  27.583 -18.903  1.00  0.00    -0.504 OA
ATOM     13  H   UNL     1     -44.909  27.842 -18.448  1.00  0.00     0.293 HD
ENDBRANCH   5  12
BRANCH   6  14
ATOM     14  O   UNL     1     -46.003  24.820 -18.578  1.00  0.00    -0.502 OA
ATOM     15  H   UNL     1     -45.017  25.036 -18.590  1.00  0.00     0.293 HD
ENDBRANCH   6  14
TORSDOF 4
ENDMDL
MODEL 5
REMARK VINA RESULT:    -5.363      1.709      2.681
REMARK INTER + INTRA:          -6.195
REMARK INTER:                  -6.143
REMARK INTRA:                  -0.052
REMARK UNBOUND:                -0.048
REMARK SMILES O=C([O-])c1cc(O)c(O)c(O)c1
REMARK SMILES IDX 4 1 5 2 12 3 6 4 10 5 8 6 2 7 1 8 3 9 7 10 11 12 9 14
REMARK H PARENT 7 11 11 13 9 15
REMARK Flexibility Score: inf
ROOT
ATOM      1  C   UNL     1     -46.261  26.689 -18.349  1.00  0.00     0.005 A 
ATOM      2  C   UNL     1     -46.659  25.389 -18.005  1.00  0.00     0.060 A 
ATOM      3  C   UNL     1     -47.155  27.751 -18.142  1.00  0.00     0.060 A 
ATOM      4  C   UNL     1     -47.925  25.141 -17.462  1.00  0.00     0.162 A 
ATOM      5  C   UNL     1     -48.423  27.522 -17.601  1.00  0.00     0.162 A 
ATOM      6  C   UNL     1     -48.822  26.217 -17.256  1.00  0.00     0.200 A 
ENDROOT
BRANCH   1   7
ATOM      7  C   UNL     1     -44.918  26.934 -18.921  1.00  0.00     0.072 C 
ATOM      8  O   UNL     1     -44.292  26.010 -19.505  1.00  0.00    -0.545 OA
ATOM      9  O   UNL     1     -44.329  28.190 -18.823  1.00  0.00    -0.545 OA
ENDBRANCH   1   7
BRANCH   4  10
ATOM     10  O   UNL     1     -48.248  23.819 -17.145  1.00  0.00    -0.504 OA
ATOM     11  H   UNL     1     -48.600  23.146 -17.810  1.00  0.00     0.293 HD
ENDBRANCH   4  10
BRANCH   5  12
ATOM     12  O   UNL     1     -49.278  28.608 -17.413  1.00  0.00    -0.504 OA
ATOM     13  H   UNL     1     -49.619  29.170 -18.185  1.00  0.00     0.293 HD
ENDBRANCH   5  12
BRANCH   6  14
ATOM     14  O   UNL     1     -50.098  26.032 -16.718  1.00  0.00    -0.502 OA
ATOM     15  H   UNL     1     -50.916  26.546 -17.009  1.00  0.00     0.293 HD
ENDBRANCH   6  14
TORSDOF 4
ENDMDL
MODEL 6
REMARK VINA RESULT:    -5.355      5.549      6.698
REMARK INTER + INTRA:          -6.186
REMARK INTER:                  -6.138
REMARK INTRA:                  -0.048
REMARK UNBOUND:                -0.048
REMARK SMILES O=C([O-])c1cc(O)c(O)c(O)c1
REMARK SMILES IDX 4 1 5 2 12 3 6 4 10 5 8 6 2 7 1 8 3 9 7 10 11 12 9 14
REMARK H PARENT 7 11 11 13 9 15
REMARK Flexibility Score: inf
ROOT
ATOM      1  C   UNL     1     -50.723  26.392 -15.094  1.00  0.00     0.005 A 
ATOM      2  C   UNL     1     -49.626  25.628 -15.521  1.00  0.00     0.060 A 
ATOM      3  C   UNL     1     -51.907  25.735 -14.727  1.00  0.00     0.060 A 
ATOM      4  C   UNL     1     -49.700  24.232 -15.584  1.00  0.00     0.162 A 
ATOM      5  C   UNL     1     -51.998  24.341 -14.783  1.00  0.00     0.162 A 
ATOM      6  C   UNL     1     -50.897  23.576 -15.211  1.00  0.00     0.200 A 
ENDROOT
BRANCH   1   7
ATOM      7  C   UNL     1     -50.629  27.868 -15.034  1.00  0.00     0.072 C 
ATOM      8  O   UNL     1     -51.010  28.493 -14.009  1.00  0.00    -0.545 OA
ATOM      9  O   UNL     1     -50.116  28.585 -16.109  1.00  0.00    -0.545 OA
ENDBRANCH   1   7
BRANCH   4  10
ATOM     10  O   UNL     1     -48.566  23.542 -16.019  1.00  0.00    -0.504 OA
ATOM     11  H   UNL     1     -47.640  23.942 -16.066  1.00  0.00     0.293 HD
ENDBRANCH   4  10
BRANCH   5  12
ATOM     12  O   UNL     1     -53.195  23.732 -14.407  1.00  0.00    -0.504 OA
ATOM     13  H   UNL     1     -53.982  24.260 -14.045  1.00  0.00     0.293 HD
ENDBRANCH   5  12
BRANCH   6  14
ATOM     14  O   UNL     1     -51.030  22.186 -15.252  1.00  0.00    -0.502 OA
ATOM     15  H   UNL     1     -50.260  21.539 -15.168  1.00  0.00     0.293 HD
ENDBRANCH   6  14
TORSDOF 4
ENDMDL
MODEL 7
REMARK VINA RESULT:    -5.344      1.165      3.879
REMARK INTER + INTRA:          -6.173
REMARK INTER:                  -6.120
REMARK INTRA:                  -0.052
REMARK UNBOUND:                -0.048
REMARK SMILES O=C([O-])c1cc(O)c(O)c(O)c1
REMARK SMILES IDX 4 1 5 2 12 3 6 4 10 5 8 6 2 7 1 8 3 9 7 10 11 12 9 14
REMARK H PARENT 7 11 11 13 9 15
REMARK Flexibility Score: inf
ROOT
ATOM      1  C   UNL     1     -46.419  27.024 -17.356  1.00  0.00     0.005 A 
ATOM      2  C   UNL     1     -46.140  25.904 -18.153  1.00  0.00     0.060 A 
ATOM      3  C   UNL     1     -45.459  28.042 -17.253  1.00  0.00     0.060 A 
ATOM      4  C   UNL     1     -44.925  25.791 -18.840  1.00  0.00     0.162 A 
ATOM      5  C   UNL     1     -44.241  27.946 -17.933  1.00  0.00     0.162 A 
ATOM      6  C   UNL     1     -43.961  26.822 -18.732  1.00  0.00     0.200 A 
ENDROOT
BRANCH   1   7
ATOM      7  C   UNL     1     -47.708  27.127 -16.636  1.00  0.00     0.072 C 
ATOM      8  O   UNL     1     -47.875  27.999 -15.742  1.00  0.00    -0.545 OA
ATOM      9  O   UNL     1     -48.754  26.263 -16.938  1.00  0.00    -0.545 OA
ENDBRANCH   1   7
BRANCH   4  10
ATOM     10  O   UNL     1     -44.721  24.646 -19.612  1.00  0.00    -0.504 OA
ATOM     11  H   UNL     1     -43.994  23.967 -19.440  1.00  0.00     0.293 HD
ENDBRANCH   4  10
BRANCH   5  12
ATOM     12  O   UNL     1     -43.317  28.983 -17.801  1.00  0.00    -0.504 OA
ATOM     13  H   UNL     1     -42.990  29.522 -18.595  1.00  0.00     0.293 HD
ENDBRANCH   5  12
BRANCH   6  14
ATOM     14  O   UNL     1     -42.732  26.766 -19.394  1.00  0.00    -0.502 OA
ATOM     15  H   UNL     1     -42.031  27.491 -19.351  1.00  0.00     0.293 HD
ENDBRANCH   6  14
TORSDOF 4
ENDMDL
MODEL 8
REMARK VINA RESULT:    -5.304      1.184      4.352
REMARK INTER + INTRA:          -6.127
REMARK INTER:                  -6.074
REMARK INTRA:                  -0.053
REMARK UNBOUND:                -0.048
REMARK SMILES O=C([O-])c1cc(O)c(O)c(O)c1
REMARK SMILES IDX 4 1 5 2 12 3 6 4 10 5 8 6 2 7 1 8 3 9 7 10 11 12 9 14
REMARK H PARENT 7 11 11 13 9 15
REMARK Flexibility Score: inf
ROOT
ATOM      1  C   UNL     1     -46.459  27.024 -17.318  1.00  0.00     0.005 A 
ATOM      2  C   UNL     1     -45.510  28.043 -17.147  1.00  0.00     0.060 A 
ATOM      3  C   UNL     1     -46.149  25.940 -18.155  1.00  0.00     0.060 A 
ATOM      4  C   UNL     1     -44.270  27.991 -17.793  1.00  0.00     0.162 A 
ATOM      5  C   UNL     1     -44.915  25.873 -18.807  1.00  0.00     0.162 A 
ATOM      6  C   UNL     1     -43.963  26.895 -18.635  1.00  0.00     0.200 A 
ENDROOT
BRANCH   1   7
ATOM      7  C   UNL     1     -47.766  27.094 -16.628  1.00  0.00     0.072 C 
ATOM      8  O   UNL     1     -48.075  28.105 -15.944  1.00  0.00    -0.545 OA
ATOM      9  O   UNL     1     -48.671  26.043 -16.725  1.00  0.00    -0.545 OA
ENDBRANCH   1   7
BRANCH   4  10
ATOM     10  O   UNL     1     -43.379  29.044 -17.572  1.00  0.00    -0.504 OA
ATOM     11  H   UNL     1     -43.649  29.953 -17.225  1.00  0.00     0.293 HD
ENDBRANCH   4  10
BRANCH   5  12
ATOM     12  O   UNL     1     -44.650  24.775 -19.628  1.00  0.00    -0.504 OA
ATOM     13  H   UNL     1     -43.744  24.624 -20.055  1.00  0.00     0.293 HD
ENDBRANCH   5  12
BRANCH   6  14
ATOM     14  O   UNL     1     -42.743  26.788 -19.305  1.00  0.00    -0.502 OA
ATOM     15  H   UNL     1     -42.406  25.941 -19.739  1.00  0.00     0.293 HD
ENDBRANCH   6  14
TORSDOF 4
ENDMDL
MODEL 9
REMARK VINA RESULT:    -5.282      5.582      7.112
REMARK INTER + INTRA:          -6.102
REMARK INTER:                  -6.054
REMARK INTRA:                  -0.048
REMARK UNBOUND:                -0.048
REMARK SMILES O=C([O-])c1cc(O)c(O)c(O)c1
REMARK SMILES IDX 4 1 5 2 12 3 6 4 10 5 8 6 2 7 1 8 3 9 7 10 11 12 9 14
REMARK H PARENT 7 11 11 13 9 15
REMARK Flexibility Score: inf
ROOT
ATOM      1  C   UNL     1     -50.725  26.400 -15.087  1.00  0.00     0.005 A 
ATOM      2  C   UNL     1     -51.919  25.765 -14.715  1.00  0.00     0.060 A 
ATOM      3  C   UNL     1     -49.643  25.617 -15.516  1.00  0.00     0.060 A 
ATOM      4  C   UNL     1     -52.042  24.371 -14.767  1.00  0.00     0.162 A 
ATOM      5  C   UNL     1     -49.748  24.224 -15.574  1.00  0.00     0.162 A 
ATOM      6  C   UNL     1     -50.946  23.587 -15.200  1.00  0.00     0.200 A 
ENDROOT
BRANCH   1   7
ATOM      7  C   UNL     1     -50.612  27.874 -15.026  1.00  0.00     0.072 C 
ATOM      8  O   UNL     1     -50.143  28.522 -16.000  1.00  0.00    -0.545 OA
ATOM      9  O   UNL     1     -51.024  28.566 -13.893  1.00  0.00    -0.545 OA
ENDBRANCH   1   7
BRANCH   4  10
ATOM     10  O   UNL     1     -53.263  23.813 -14.380  1.00  0.00    -0.504 OA
ATOM     11  H   UNL     1     -53.756  24.058 -13.534  1.00  0.00     0.293 HD
ENDBRANCH   4  10
BRANCH   5  12
ATOM     12  O   UNL     1     -48.646  23.486 -16.007  1.00  0.00    -0.504 OA
ATOM     13  H   UNL     1     -48.661  22.475 -16.068  1.00  0.00     0.293 HD
ENDBRANCH   5  12
BRANCH   6  14
ATOM     14  O   UNL     1     -51.009  22.193 -15.274  1.00  0.00    -0.502 OA
ATOM     15  H   UNL     1     -51.691  21.683 -15.816  1.00  0.00     0.293 HD
ENDBRANCH   6  14
TORSDOF 4
ENDMDL
