MODEL 1
REMARK VINA RESULT:    -3.351      0.000      0.000
REMARK INTER + INTRA:          -8.224
REMARK INTER:                  -6.093
REMARK INTRA:                  -2.131
REMARK UNBOUND:                -2.131
REMARK SMILES CCCCCCCCCCCCCC[C@@H](C)C(=O)[O-]
REMARK SMILES IDX 9 1 10 2 11 3 12 4 13 5 14 6 15 7 16 8 17 9 18 10 19 11 8 12
REMARK SMILES IDX 7 13 6 14 5 15 4 16 3 17 2 18 1 19
REMARK H PARENT
REMARK Flexibility Score: inf
ROOT
ATOM      1  C   UNL     1      32.209   7.223  -7.315  1.00  0.00     0.000 C 
ENDROOT
BRANCH   1   2
ATOM      2  C   UNL     1      32.804   7.315  -8.730  1.00  0.00     0.000 C 
BRANCH   2   3
ATOM      3  C   UNL     1      32.803   5.961  -9.461  1.00  0.00     0.000 C 
BRANCH   3   4
ATOM      4  C   UNL     1      34.205   5.542  -9.941  1.00  0.00     0.000 C 
BRANCH   4   5
ATOM      5  C   UNL     1      35.356   5.869  -8.967  1.00  0.00     0.001 C 
BRANCH   5   6
ATOM      6  C   UNL     1      35.569   4.846  -7.832  1.00  0.00     0.009 C 
BRANCH   6   7
ATOM      7  C   UNL     1      36.062   5.447  -6.496  1.00  0.00     0.032 C 
ATOM      8  C   UNL     1      36.554   6.892  -6.653  1.00  0.00     0.014 C 
BRANCH   7   9
ATOM      9  C   UNL     1      34.951   5.399  -5.484  1.00  0.00     0.044 C 
ATOM     10  O   UNL     1      33.972   4.625  -5.656  1.00  0.00    -0.550 OA
ATOM     11  O   UNL     1      34.987   6.216  -4.360  1.00  0.00    -0.550 OA
ENDBRANCH   7   9
ENDBRANCH   6   7
ENDBRANCH   5   6
ENDBRANCH   4   5
ENDBRANCH   3   4
ENDBRANCH   2   3
ENDBRANCH   1   2
BRANCH   1  12
ATOM     12  C   UNL     1      31.102   6.158  -7.207  1.00  0.00     0.000 C 
BRANCH  12  13
ATOM     13  C   UNL     1      29.730   6.768  -6.877  1.00  0.00    -0.000 C 
BRANCH  13  14
ATOM     14  C   UNL     1      29.747   8.305  -6.899  1.00  0.00    -0.000 C 
BRANCH  14  15
ATOM     15  C   UNL     1      29.040   8.894  -8.134  1.00  0.00    -0.000 C 
BRANCH  15  16
ATOM     16  C   UNL     1      28.412   7.860  -9.087  1.00  0.00    -0.000 C 
BRANCH  16  17
ATOM     17  C   UNL     1      29.199   7.699 -10.400  1.00  0.00    -0.000 C 
BRANCH  17  18
ATOM     18  C   UNL     1      28.901   6.368 -11.104  1.00  0.00    -0.003 C 
ATOM     19  C   UNL     1      30.067   5.874 -11.960  1.00  0.00     0.004 C 
ENDBRANCH  17  18
ENDBRANCH  16  17
ENDBRANCH  15  16
ENDBRANCH  14  15
ENDBRANCH  13  14
ENDBRANCH  12  13
ENDBRANCH   1  12
TORSDOF 14
ENDMDL
MODEL 2
REMARK VINA RESULT:    -3.337      4.011      6.228
REMARK INTER + INTRA:          -8.199
REMARK INTER:                  -6.336
REMARK INTRA:                  -1.863
REMARK UNBOUND:                -2.131
REMARK SMILES CCCCCCCCCCCCCC[C@@H](C)C(=O)[O-]
REMARK SMILES IDX 9 1 10 2 11 3 12 4 13 5 14 6 15 7 16 8 17 9 18 10 19 11 8 12
REMARK SMILES IDX 7 13 6 14 5 15 4 16 3 17 2 18 1 19
REMARK H PARENT
REMARK Flexibility Score: inf
ROOT
ATOM      1  C   UNL     1      35.864   4.116  -8.924  1.00  0.00     0.000 C 
ENDROOT
BRANCH   1   2
ATOM      2  C   UNL     1      35.836   2.911  -7.969  1.00  0.00     0.000 C 
BRANCH   2   3
ATOM      3  C   UNL     1      36.434   1.641  -8.601  1.00  0.00     0.000 C 
BRANCH   3   4
ATOM      4  C   UNL     1      37.265   0.814  -7.603  1.00  0.00     0.000 C 
BRANCH   4   5
ATOM      5  C   UNL     1      38.780   0.768  -7.892  1.00  0.00     0.001 C 
BRANCH   5   6
ATOM      6  C   UNL     1      39.401   2.097  -8.369  1.00  0.00     0.009 C 
BRANCH   6   7
ATOM      7  C   UNL     1      40.398   2.744  -7.380  1.00  0.00     0.032 C 
ATOM      8  C   UNL     1      39.779   3.920  -6.614  1.00  0.00     0.014 C 
BRANCH   7   9
ATOM      9  C   UNL     1      40.883   1.705  -6.406  1.00  0.00     0.044 C 
ATOM     10  O   UNL     1      40.236   1.479  -5.350  1.00  0.00    -0.550 OA
ATOM     11  O   UNL     1      42.055   1.001  -6.656  1.00  0.00    -0.550 OA
ENDBRANCH   7   9
ENDBRANCH   6   7
ENDBRANCH   5   6
ENDBRANCH   4   5
ENDBRANCH   3   4
ENDBRANCH   2   3
ENDBRANCH   1   2
BRANCH   1  12
ATOM     12  C   UNL     1      36.669   5.300  -8.358  1.00  0.00     0.000 C 
BRANCH  12  13
ATOM     13  C   UNL     1      36.805   5.241  -6.827  1.00  0.00    -0.000 C 
BRANCH  13  14
ATOM     14  C   UNL     1      36.434   6.571  -6.150  1.00  0.00    -0.000 C 
BRANCH  14  15
ATOM     15  C   UNL     1      35.035   6.548  -5.509  1.00  0.00    -0.000 C 
BRANCH  15  16
ATOM     16  C   UNL     1      34.346   5.170  -5.487  1.00  0.00    -0.000 C 
BRANCH  16  17
ATOM     17  C   UNL     1      33.151   5.081  -6.453  1.00  0.00    -0.000 C 
BRANCH  17  18
ATOM     18  C   UNL     1      32.990   6.348  -7.306  1.00  0.00    -0.003 C 
ATOM     19  C   UNL     1      32.652   6.042  -8.765  1.00  0.00     0.004 C 
ENDBRANCH  17  18
ENDBRANCH  16  17
ENDBRANCH  15  16
ENDBRANCH  14  15
ENDBRANCH  13  14
ENDBRANCH  12  13
ENDBRANCH   1  12
TORSDOF 14
ENDMDL
MODEL 3
REMARK VINA RESULT:    -3.303      4.390      8.391
REMARK INTER + INTRA:          -8.136
REMARK INTER:                  -6.742
REMARK INTRA:                  -1.395
REMARK UNBOUND:                -2.131
REMARK SMILES CCCCCCCCCCCCCC[C@@H](C)C(=O)[O-]
REMARK SMILES IDX 9 1 10 2 11 3 12 4 13 5 14 6 15 7 16 8 17 9 18 10 19 11 8 12
REMARK SMILES IDX 7 13 6 14 5 15 4 16 3 17 2 18 1 19
REMARK H PARENT
REMARK Flexibility Score: inf
ROOT
ATOM      1  C   UNL     1      40.126   3.072  -7.803  1.00  0.00     0.000 C 
ENDROOT
BRANCH   1   2
ATOM      2  C   UNL     1      39.377   3.826  -6.691  1.00  0.00     0.000 C 
BRANCH   2   3
ATOM      3  C   UNL     1      38.195   4.651  -7.228  1.00  0.00     0.000 C 
BRANCH   3   4
ATOM      4  C   UNL     1      37.132   3.785  -7.926  1.00  0.00     0.000 C 
BRANCH   4   5
ATOM      5  C   UNL     1      35.682   4.296  -7.798  1.00  0.00     0.001 C 
BRANCH   5   6
ATOM      6  C   UNL     1      35.537   5.806  -7.521  1.00  0.00     0.009 C 
BRANCH   6   7
ATOM      7  C   UNL     1      34.432   6.182  -6.507  1.00  0.00     0.032 C 
ATOM      8  C   UNL     1      33.171   5.324  -6.674  1.00  0.00     0.014 C 
BRANCH   7   9
ATOM      9  C   UNL     1      34.964   6.032  -5.108  1.00  0.00     0.044 C 
ATOM     10  O   UNL     1      35.660   6.947  -4.595  1.00  0.00    -0.550 OA
ATOM     11  O   UNL     1      34.705   4.877  -4.378  1.00  0.00    -0.550 OA
ENDBRANCH   7   9
ENDBRANCH   6   7
ENDBRANCH   5   6
ENDBRANCH   4   5
ENDBRANCH   3   4
ENDBRANCH   2   3
ENDBRANCH   1   2
BRANCH   1  12
ATOM     12  C   UNL     1      40.697   1.725  -7.324  1.00  0.00     0.000 C 
BRANCH  12  13
ATOM     13  C   UNL     1      39.770   1.018  -6.320  1.00  0.00    -0.000 C 
BRANCH  13  14
ATOM     14  C   UNL     1      38.980  -0.137  -6.960  1.00  0.00    -0.000 C 
BRANCH  14  15
ATOM     15  C   UNL     1      37.709   0.339  -7.688  1.00  0.00    -0.000 C 
BRANCH  15  16
ATOM     16  C   UNL     1      36.383  -0.174  -7.097  1.00  0.00    -0.000 C 
BRANCH  16  17
ATOM     17  C   UNL     1      36.269  -1.708  -7.119  1.00  0.00    -0.000 C 
BRANCH  17  18
ATOM     18  C   UNL     1      35.981  -2.296  -5.729  1.00  0.00    -0.003 C 
ATOM     19  C   UNL     1      34.742  -1.689  -5.073  1.00  0.00     0.004 C 
ENDBRANCH  17  18
ENDBRANCH  16  17
ENDBRANCH  15  16
ENDBRANCH  14  15
ENDBRANCH  13  14
ENDBRANCH  12  13
ENDBRANCH   1  12
TORSDOF 14
ENDMDL
MODEL 4
REMARK VINA RESULT:    -3.250      4.849      8.042
REMARK INTER + INTRA:          -8.040
REMARK INTER:                  -5.812
REMARK INTRA:                  -2.228
REMARK UNBOUND:                -2.131
REMARK SMILES CCCCCCCCCCCCCC[C@@H](C)C(=O)[O-]
REMARK SMILES IDX 9 1 10 2 11 3 12 4 13 5 14 6 15 7 16 8 17 9 18 10 19 11 8 12
REMARK SMILES IDX 7 13 6 14 5 15 4 16 3 17 2 18 1 19
REMARK H PARENT
REMARK Flexibility Score: inf
ROOT
ATOM      1  C   UNL     1      39.963   3.979  -8.327  1.00  0.00     0.000 C 
ENDROOT
BRANCH   1   2
ATOM      2  C   UNL     1      38.776   4.605  -9.078  1.00  0.00     0.000 C 
BRANCH   2   3
ATOM      3  C   UNL     1      37.907   3.554  -9.791  1.00  0.00     0.000 C 
BRANCH   3   4
ATOM      4  C   UNL     1      36.444   3.568  -9.313  1.00  0.00     0.000 C 
BRANCH   4   5
ATOM      5  C   UNL     1      36.255   3.645  -7.783  1.00  0.00     0.001 C 
BRANCH   5   6
ATOM      6  C   UNL     1      35.479   4.878  -7.276  1.00  0.00     0.009 C 
BRANCH   6   7
ATOM      7  C   UNL     1      36.282   5.820  -6.350  1.00  0.00     0.032 C 
ATOM      8  C   UNL     1      36.774   7.076  -7.081  1.00  0.00     0.014 C 
BRANCH   7   9
ATOM      9  C   UNL     1      35.427   6.218  -5.178  1.00  0.00     0.044 C 
ATOM     10  O   UNL     1      34.812   5.340  -4.517  1.00  0.00    -0.550 OA
ATOM     11  O   UNL     1      35.297   7.557  -4.827  1.00  0.00    -0.550 OA
ENDBRANCH   7   9
ENDBRANCH   6   7
ENDBRANCH   5   6
ENDBRANCH   4   5
ENDBRANCH   3   4
ENDBRANCH   2   3
ENDBRANCH   1   2
BRANCH   1  12
ATOM     12  C   UNL     1      39.785   4.023  -6.798  1.00  0.00     0.000 C 
BRANCH  12  13
ATOM     13  C   UNL     1      40.274   2.736  -6.112  1.00  0.00    -0.000 C 
BRANCH  13  14
ATOM     14  C   UNL     1      40.273   1.525  -7.061  1.00  0.00    -0.000 C 
BRANCH  14  15
ATOM     15  C   UNL     1      39.016   0.649  -6.913  1.00  0.00    -0.000 C 
BRANCH  15  16
ATOM     16  C   UNL     1      38.281   0.326  -8.227  1.00  0.00    -0.000 C 
BRANCH  16  17
ATOM     17  C   UNL     1      36.775   0.080  -8.028  1.00  0.00    -0.000 C 
BRANCH  17  18
ATOM     18  C   UNL     1      36.462  -1.377  -7.657  1.00  0.00    -0.003 C 
ATOM     19  C   UNL     1      35.836  -1.515  -6.270  1.00  0.00     0.004 C 
ENDBRANCH  17  18
ENDBRANCH  16  17
ENDBRANCH  15  16
ENDBRANCH  14  15
ENDBRANCH  13  14
ENDBRANCH  12  13
ENDBRANCH   1  12
TORSDOF 14
ENDMDL
MODEL 5
REMARK VINA RESULT:    -3.175     12.836     15.354
REMARK INTER + INTRA:          -7.905
REMARK INTER:                  -5.963
REMARK INTRA:                  -1.941
REMARK UNBOUND:                -2.131
REMARK SMILES CCCCCCCCCCCCCC[C@@H](C)C(=O)[O-]
REMARK SMILES IDX 9 1 10 2 11 3 12 4 13 5 14 6 15 7 16 8 17 9 18 10 19 11 8 12
REMARK SMILES IDX 7 13 6 14 5 15 4 16 3 17 2 18 1 19
REMARK H PARENT
REMARK Flexibility Score: inf
ROOT
ATOM      1  C   UNL     1      37.679   0.747   4.300  1.00  0.00     0.000 C 
ENDROOT
BRANCH   1   2
ATOM      2  C   UNL     1      38.101   1.954   5.154  1.00  0.00     0.000 C 
BRANCH   2   3
ATOM      3  C   UNL     1      37.522   3.280   4.630  1.00  0.00     0.000 C 
BRANCH   3   4
ATOM      4  C   UNL     1      38.609   4.328   4.331  1.00  0.00     0.000 C 
BRANCH   4   5
ATOM      5  C   UNL     1      38.856   5.356   5.455  1.00  0.00     0.001 C 
BRANCH   5   6
ATOM      6  C   UNL     1      38.457   6.808   5.120  1.00  0.00     0.009 C 
BRANCH   6   7
ATOM      7  C   UNL     1      37.649   6.978   3.813  1.00  0.00     0.032 C 
ATOM      8  C   UNL     1      36.166   7.266   4.077  1.00  0.00     0.014 C 
BRANCH   7   9
ATOM      9  C   UNL     1      38.244   8.094   2.998  1.00  0.00     0.044 C 
ATOM     10  O   UNL     1      39.089   8.872   3.514  1.00  0.00    -0.550 OA
ATOM     11  O   UNL     1      37.855   8.284   1.678  1.00  0.00    -0.550 OA
ENDBRANCH   7   9
ENDBRANCH   6   7
ENDBRANCH   5   6
ENDBRANCH   4   5
ENDBRANCH   3   4
ENDBRANCH   2   3
ENDBRANCH   1   2
BRANCH   1  12
ATOM     12  C   UNL     1      37.531   1.100   2.809  1.00  0.00     0.000 C 
BRANCH  12  13
ATOM     13  C   UNL     1      38.783   0.737   1.992  1.00  0.00    -0.000 C 
BRANCH  13  14
ATOM     14  C   UNL     1      39.795   1.893   1.920  1.00  0.00    -0.000 C 
BRANCH  14  15
ATOM     15  C   UNL     1      41.216   1.471   2.335  1.00  0.00    -0.000 C 
BRANCH  15  16
ATOM     16  C   UNL     1      41.936   2.440   3.292  1.00  0.00    -0.000 C 
BRANCH  16  17
ATOM     17  C   UNL     1      42.105   1.867   4.710  1.00  0.00    -0.000 C 
BRANCH  17  18
ATOM     18  C   UNL     1      41.611   2.834   5.797  1.00  0.00    -0.003 C 
ATOM     19  C   UNL     1      42.489   2.819   7.048  1.00  0.00     0.004 C 
ENDBRANCH  17  18
ENDBRANCH  16  17
ENDBRANCH  15  16
ENDBRANCH  14  15
ENDBRANCH  13  14
ENDBRANCH  12  13
ENDBRANCH   1  12
TORSDOF 14
ENDMDL
MODEL 6
REMARK VINA RESULT:    -3.133      4.858      8.478
REMARK INTER + INTRA:          -7.828
REMARK INTER:                  -5.286
REMARK INTRA:                  -2.542
REMARK UNBOUND:                -2.131
REMARK SMILES CCCCCCCCCCCCCC[C@@H](C)C(=O)[O-]
REMARK SMILES IDX 9 1 10 2 11 3 12 4 13 5 14 6 15 7 16 8 17 9 18 10 19 11 8 12
REMARK SMILES IDX 7 13 6 14 5 15 4 16 3 17 2 18 1 19
REMARK H PARENT
REMARK Flexibility Score: inf
ROOT
ATOM      1  C   UNL     1      38.910  -0.116  -8.382  1.00  0.00     0.000 C 
ENDROOT
BRANCH   1   2
ATOM      2  C   UNL     1      37.559   0.433  -8.870  1.00  0.00     0.000 C 
BRANCH   2   3
ATOM      3  C   UNL     1      36.789   1.176  -7.764  1.00  0.00     0.000 C 
BRANCH   3   4
ATOM      4  C   UNL     1      35.691   2.101  -8.321  1.00  0.00     0.000 C 
BRANCH   4   5
ATOM      5  C   UNL     1      36.006   3.610  -8.250  1.00  0.00     0.001 C 
BRANCH   5   6
ATOM      6  C   UNL     1      35.369   4.361  -7.064  1.00  0.00     0.009 C 
BRANCH   6   7
ATOM      7  C   UNL     1      36.226   5.507  -6.479  1.00  0.00     0.032 C 
ATOM      8  C   UNL     1      36.969   6.292  -7.568  1.00  0.00     0.014 C 
BRANCH   7   9
ATOM      9  C   UNL     1      35.347   6.440  -5.694  1.00  0.00     0.044 C 
ATOM     10  O   UNL     1      35.744   6.908  -4.594  1.00  0.00    -0.550 OA
ATOM     11  O   UNL     1      34.084   6.781  -6.166  1.00  0.00    -0.550 OA
ENDBRANCH   7   9
ENDBRANCH   6   7
ENDBRANCH   5   6
ENDBRANCH   4   5
ENDBRANCH   3   4
ENDBRANCH   2   3
ENDBRANCH   1   2
BRANCH   1  12
ATOM     12  C   UNL     1      38.951  -0.318  -6.856  1.00  0.00     0.000 C 
BRANCH  12  13
ATOM     13  C   UNL     1      40.308   0.075  -6.248  1.00  0.00    -0.000 C 
BRANCH  13  14
ATOM     14  C   UNL     1      40.821   1.426  -6.775  1.00  0.00    -0.000 C 
BRANCH  14  15
ATOM     15  C   UNL     1      40.250   2.627  -6.000  1.00  0.00    -0.000 C 
BRANCH  15  16
ATOM     16  C   UNL     1      39.515   3.674  -6.858  1.00  0.00    -0.000 C 
BRANCH  16  17
ATOM     17  C   UNL     1      40.224   3.960  -8.193  1.00  0.00    -0.000 C 
BRANCH  17  18
ATOM     18  C   UNL     1      39.312   3.725  -9.406  1.00  0.00    -0.003 C 
ATOM     19  C   UNL     1      39.947   2.817 -10.458  1.00  0.00     0.004 C 
ENDBRANCH  17  18
ENDBRANCH  16  17
ENDBRANCH  15  16
ENDBRANCH  14  15
ENDBRANCH  13  14
ENDBRANCH  12  13
ENDBRANCH   1  12
TORSDOF 14
ENDMDL
MODEL 7
REMARK VINA RESULT:    -3.121     12.870     14.887
REMARK INTER + INTRA:          -7.807
REMARK INTER:                  -5.388
REMARK INTRA:                  -2.419
REMARK UNBOUND:                -2.131
REMARK SMILES CCCCCCCCCCCCCC[C@@H](C)C(=O)[O-]
REMARK SMILES IDX 9 1 10 2 11 3 12 4 13 5 14 6 15 7 16 8 17 9 18 10 19 11 8 12
REMARK SMILES IDX 7 13 6 14 5 15 4 16 3 17 2 18 1 19
REMARK H PARENT
REMARK Flexibility Score: inf
ROOT
ATOM      1  C   UNL     1      26.460  -1.433   5.584  1.00  0.00     0.000 C 
ENDROOT
BRANCH   1   2
ATOM      2  C   UNL     1      27.543  -1.706   6.640  1.00  0.00     0.000 C 
BRANCH   2   3
ATOM      3  C   UNL     1      28.769  -0.791   6.481  1.00  0.00     0.000 C 
BRANCH   3   4
ATOM      4  C   UNL     1      29.574  -1.090   5.203  1.00  0.00     0.000 C 
BRANCH   4   5
ATOM      5  C   UNL     1      29.595   0.047   4.161  1.00  0.00     0.001 C 
BRANCH   5   6
ATOM      6  C   UNL     1      30.309  -0.287   2.835  1.00  0.00     0.009 C 
BRANCH   6   7
ATOM      7  C   UNL     1      31.813   0.070   2.796  1.00  0.00     0.032 C 
ATOM      8  C   UNL     1      32.691  -1.142   2.457  1.00  0.00     0.014 C 
BRANCH   7   9
ATOM      9  C   UNL     1      32.043   1.159   1.784  1.00  0.00     0.044 C 
ATOM     10  O   UNL     1      31.088   1.578   1.078  1.00  0.00    -0.550 OA
ATOM     11  O   UNL     1      33.312   1.700   1.610  1.00  0.00    -0.550 OA
ENDBRANCH   7   9
ENDBRANCH   6   7
ENDBRANCH   5   6
ENDBRANCH   4   5
ENDBRANCH   3   4
ENDBRANCH   2   3
ENDBRANCH   1   2
BRANCH   1  12
ATOM     12  C   UNL     1      25.803  -2.724   5.061  1.00  0.00     0.000 C 
BRANCH  12  13
ATOM     13  C   UNL     1      25.569  -2.691   3.542  1.00  0.00    -0.000 C 
BRANCH  13  14
ATOM     14  C   UNL     1      26.280  -1.509   2.861  1.00  0.00    -0.000 C 
BRANCH  14  15
ATOM     15  C   UNL     1      27.358  -1.955   1.857  1.00  0.00    -0.000 C 
BRANCH  15  16
ATOM     16  C   UNL     1      27.190  -3.384   1.305  1.00  0.00    -0.000 C 
BRANCH  16  17
ATOM     17  C   UNL     1      28.430  -4.265   1.535  1.00  0.00    -0.000 C 
BRANCH  17  18
ATOM     18  C   UNL     1      29.298  -3.766   2.700  1.00  0.00    -0.003 C 
ATOM     19  C   UNL     1      29.037  -4.523   4.001  1.00  0.00     0.004 C 
ENDBRANCH  17  18
ENDBRANCH  16  17
ENDBRANCH  15  16
ENDBRANCH  14  15
ENDBRANCH  13  14
ENDBRANCH  12  13
ENDBRANCH   1  12
TORSDOF 14
ENDMDL
MODEL 8
REMARK VINA RESULT:    -3.120      3.750      7.634
REMARK INTER + INTRA:          -7.804
REMARK INTER:                  -5.499
REMARK INTRA:                  -2.304
REMARK UNBOUND:                -2.131
REMARK SMILES CCCCCCCCCCCCCC[C@@H](C)C(=O)[O-]
REMARK SMILES IDX 9 1 10 2 11 3 12 4 13 5 14 6 15 7 16 8 17 9 18 10 19 11 8 12
REMARK SMILES IDX 7 13 6 14 5 15 4 16 3 17 2 18 1 19
REMARK H PARENT
REMARK Flexibility Score: inf
ROOT
ATOM      1  C   UNL     1      39.611   3.703  -6.502  1.00  0.00     0.000 C 
ENDROOT
BRANCH   1   2
ATOM      2  C   UNL     1      39.601   4.423  -7.861  1.00  0.00     0.000 C 
BRANCH   2   3
ATOM      3  C   UNL     1      38.287   5.181  -8.119  1.00  0.00     0.000 C 
BRANCH   3   4
ATOM      4  C   UNL     1      37.318   5.116  -6.925  1.00  0.00     0.000 C 
BRANCH   4   5
ATOM      5  C   UNL     1      36.729   6.473  -6.484  1.00  0.00     0.001 C 
BRANCH   5   6
ATOM      6  C   UNL     1      35.240   6.686  -6.823  1.00  0.00     0.009 C 
BRANCH   6   7
ATOM      7  C   UNL     1      34.510   5.440  -7.375  1.00  0.00     0.032 C 
ATOM      8  C   UNL     1      33.380   4.969  -6.450  1.00  0.00     0.014 C 
BRANCH   7   9
ATOM      9  C   UNL     1      33.953   5.747  -8.737  1.00  0.00     0.044 C 
ATOM     10  O   UNL     1      32.714   5.913  -8.891  1.00  0.00    -0.550 OA
ATOM     11  O   UNL     1      34.797   5.835  -9.838  1.00  0.00    -0.550 OA
ENDBRANCH   7   9
ENDBRANCH   6   7
ENDBRANCH   5   6
ENDBRANCH   4   5
ENDBRANCH   3   4
ENDBRANCH   2   3
ENDBRANCH   1   2
BRANCH   1  12
ATOM     12  C   UNL     1      40.524   2.463  -6.496  1.00  0.00     0.000 C 
BRANCH  12  13
ATOM     13  C   UNL     1      39.732   1.150  -6.609  1.00  0.00    -0.000 C 
BRANCH  13  14
ATOM     14  C   UNL     1      39.531   0.706  -8.068  1.00  0.00    -0.000 C 
BRANCH  14  15
ATOM     15  C   UNL     1      38.175   1.148  -8.648  1.00  0.00    -0.000 C 
BRANCH  15  16
ATOM     16  C   UNL     1      36.995   1.113  -7.659  1.00  0.00    -0.000 C 
BRANCH  16  17
ATOM     17  C   UNL     1      35.780   1.923  -8.145  1.00  0.00    -0.000 C 
BRANCH  17  18
ATOM     18  C   UNL     1      36.015   2.565  -9.521  1.00  0.00    -0.003 C 
ATOM     19  C   UNL     1      35.178   1.923 -10.626  1.00  0.00     0.004 C 
ENDBRANCH  17  18
ENDBRANCH  16  17
ENDBRANCH  15  16
ENDBRANCH  14  15
ENDBRANCH  13  14
ENDBRANCH  12  13
ENDBRANCH   1  12
TORSDOF 14
ENDMDL
MODEL 9
REMARK VINA RESULT:    -3.087     12.796     15.810
REMARK INTER + INTRA:          -7.743
REMARK INTER:                  -5.220
REMARK INTRA:                  -2.524
REMARK UNBOUND:                -2.131
REMARK SMILES CCCCCCCCCCCCCC[C@@H](C)C(=O)[O-]
REMARK SMILES IDX 9 1 10 2 11 3 12 4 13 5 14 6 15 7 16 8 17 9 18 10 19 11 8 12
REMARK SMILES IDX 7 13 6 14 5 15 4 16 3 17 2 18 1 19
REMARK H PARENT
REMARK Flexibility Score: inf
ROOT
ATOM      1  C   UNL     1      40.786   2.078   7.058  1.00  0.00     0.000 C 
ENDROOT
BRANCH   1   2
ATOM      2  C   UNL     1      41.462   3.451   6.901  1.00  0.00     0.000 C 
BRANCH   2   3
ATOM      3  C   UNL     1      40.456   4.614   6.949  1.00  0.00     0.000 C 
BRANCH   3   4
ATOM      4  C   UNL     1      39.654   4.763   5.643  1.00  0.00     0.000 C 
BRANCH   4   5
ATOM      5  C   UNL     1      38.596   5.886   5.648  1.00  0.00     0.001 C 
BRANCH   5   6
ATOM      6  C   UNL     1      37.641   5.896   4.437  1.00  0.00     0.009 C 
BRANCH   6   7
ATOM      7  C   UNL     1      36.248   5.278   4.699  1.00  0.00     0.032 C 
ATOM      8  C   UNL     1      35.933   5.164   6.196  1.00  0.00     0.014 C 
BRANCH   7   9
ATOM      9  C   UNL     1      35.195   6.112   4.022  1.00  0.00     0.044 C 
ATOM     10  O   UNL     1      34.003   5.707   3.974  1.00  0.00    -0.550 OA
ATOM     11  O   UNL     1      35.530   7.324   3.431  1.00  0.00    -0.550 OA
ENDBRANCH   7   9
ENDBRANCH   6   7
ENDBRANCH   5   6
ENDBRANCH   4   5
ENDBRANCH   3   4
ENDBRANCH   2   3
ENDBRANCH   1   2
BRANCH   1  12
ATOM     12  C   UNL     1      41.397   1.009   6.133  1.00  0.00     0.000 C 
BRANCH  12  13
ATOM     13  C   UNL     1      42.483   1.584   5.208  1.00  0.00    -0.000 C 
BRANCH  13  14
ATOM     14  C   UNL     1      42.086   1.523   3.723  1.00  0.00    -0.000 C 
BRANCH  14  15
ATOM     15  C   UNL     1      41.367   2.796   3.242  1.00  0.00    -0.000 C 
BRANCH  15  16
ATOM     16  C   UNL     1      40.032   2.562   2.511  1.00  0.00    -0.000 C 
BRANCH  16  17
ATOM     17  C   UNL     1      39.157   1.492   3.188  1.00  0.00    -0.000 C 
BRANCH  17  18
ATOM     18  C   UNL     1      37.849   2.070   3.748  1.00  0.00    -0.003 C 
ATOM     19  C   UNL     1      37.644   1.749   5.228  1.00  0.00     0.004 C 
ENDBRANCH  17  18
ENDBRANCH  16  17
ENDBRANCH  15  16
ENDBRANCH  14  15
ENDBRANCH  13  14
ENDBRANCH  12  13
ENDBRANCH   1  12
TORSDOF 14
ENDMDL
