MODEL 1
REMARK VINA RESULT:    -4.887      0.000      0.000
REMARK INTER + INTRA:         -10.258
REMARK INTER:                  -8.886
REMARK INTRA:                  -1.372
REMARK UNBOUND:                -1.372
REMARK SMILES CCCCCCCCCCCCCC[C@@H](C)C(=O)[O-]
REMARK SMILES IDX 9 1 10 2 11 3 12 4 13 5 14 6 15 7 16 8 17 9 18 10 19 11 8 12
REMARK SMILES IDX 7 13 6 14 5 15 4 16 3 17 2 18 1 19
REMARK H PARENT
REMARK Flexibility Score: inf
ROOT
ATOM      1  C   UNL     1      -8.381  -2.067 -12.769  1.00  0.00     0.000 C 
ENDROOT
BRANCH   1   2
ATOM      2  C   UNL     1      -7.597  -2.250 -11.456  1.00  0.00     0.000 C 
BRANCH   2   3
ATOM      3  C   UNL     1      -6.919  -0.957 -10.980  1.00  0.00     0.000 C 
BRANCH   3   4
ATOM      4  C   UNL     1      -5.657  -1.266 -10.167  1.00  0.00     0.000 C 
BRANCH   4   5
ATOM      5  C   UNL     1      -5.681  -0.539  -8.814  1.00  0.00     0.001 C 
BRANCH   5   6
ATOM      6  C   UNL     1      -6.812   0.502  -8.700  1.00  0.00     0.009 C 
BRANCH   6   7
ATOM      7  C   UNL     1      -6.316   1.968  -8.657  1.00  0.00     0.032 C 
ATOM      8  C   UNL     1      -4.819   2.019  -8.328  1.00  0.00     0.014 C 
BRANCH   7   9
ATOM      9  C   UNL     1      -6.555   2.681  -9.959  1.00  0.00     0.044 C 
ATOM     10  O   UNL     1      -5.871   2.387 -10.974  1.00  0.00    -0.550 OA
ATOM     11  O   UNL     1      -7.557   3.639 -10.064  1.00  0.00    -0.550 OA
ENDBRANCH   7   9
ENDBRANCH   6   7
ENDBRANCH   5   6
ENDBRANCH   4   5
ENDBRANCH   3   4
ENDBRANCH   2   3
ENDBRANCH   1   2
BRANCH   1  12
ATOM     12  C   UNL     1      -7.740  -2.727 -14.007  1.00  0.00     0.000 C 
BRANCH  12  13
ATOM     13  C   UNL     1      -7.220  -4.161 -13.786  1.00  0.00    -0.000 C 
BRANCH  13  14
ATOM     14  C   UNL     1      -7.819  -5.225 -14.729  1.00  0.00    -0.000 C 
BRANCH  14  15
ATOM     15  C   UNL     1      -8.416  -4.679 -16.039  1.00  0.00    -0.000 C 
BRANCH  15  16
ATOM     16  C   UNL     1      -9.892  -5.066 -16.229  1.00  0.00    -0.000 C 
BRANCH  16  17
ATOM     17  C   UNL     1     -10.855  -4.160 -15.438  1.00  0.00    -0.000 C 
BRANCH  17  18
ATOM     18  C   UNL     1     -11.798  -4.897 -14.472  1.00  0.00    -0.003 C 
ATOM     19  C   UNL     1     -11.256  -6.254 -14.024  1.00  0.00     0.004 C 
ENDBRANCH  17  18
ENDBRANCH  16  17
ENDBRANCH  15  16
ENDBRANCH  14  15
ENDBRANCH  13  14
ENDBRANCH  12  13
ENDBRANCH   1  12
TORSDOF 14
ENDMDL
MODEL 2
REMARK VINA RESULT:    -4.861      3.625      8.441
REMARK INTER + INTRA:         -10.211
REMARK INTER:                  -8.967
REMARK INTRA:                  -1.244
REMARK UNBOUND:                -1.372
REMARK SMILES CCCCCCCCCCCCCC[C@@H](C)C(=O)[O-]
REMARK SMILES IDX 9 1 10 2 11 3 12 4 13 5 14 6 15 7 16 8 17 9 18 10 19 11 8 12
REMARK SMILES IDX 7 13 6 14 5 15 4 16 3 17 2 18 1 19
REMARK H PARENT
REMARK Flexibility Score: inf
ROOT
ATOM      1  C   UNL     1      -7.697  -1.649 -11.582  1.00  0.00     0.000 C 
ENDROOT
BRANCH   1   2
ATOM      2  C   UNL     1      -8.069  -2.356 -12.899  1.00  0.00     0.000 C 
BRANCH   2   3
ATOM      3  C   UNL     1      -6.869  -2.539 -13.838  1.00  0.00     0.000 C 
BRANCH   3   4
ATOM      4  C   UNL     1      -7.000  -3.832 -14.651  1.00  0.00     0.000 C 
BRANCH   4   5
ATOM      5  C   UNL     1      -8.044  -4.771 -14.029  1.00  0.00     0.001 C 
BRANCH   5   6
ATOM      6  C   UNL     1      -9.171  -5.163 -15.005  1.00  0.00     0.009 C 
BRANCH   6   7
ATOM      7  C   UNL     1     -10.377  -4.191 -14.995  1.00  0.00     0.032 C 
ATOM      8  C   UNL     1     -10.513  -3.490 -16.352  1.00  0.00     0.014 C 
BRANCH   7   9
ATOM      9  C   UNL     1     -11.666  -4.899 -14.680  1.00  0.00     0.044 C 
ATOM     10  O   UNL     1     -12.743  -4.512 -15.204  1.00  0.00    -0.550 OA
ATOM     11  O   UNL     1     -11.673  -6.009 -13.841  1.00  0.00    -0.550 OA
ENDBRANCH   7   9
ENDBRANCH   6   7
ENDBRANCH   5   6
ENDBRANCH   4   5
ENDBRANCH   3   4
ENDBRANCH   2   3
ENDBRANCH   1   2
BRANCH   1  12
ATOM     12  C   UNL     1      -6.571  -2.327 -10.776  1.00  0.00     0.000 C 
BRANCH  12  13
ATOM     13  C   UNL     1      -5.913  -1.439  -9.701  1.00  0.00    -0.000 C 
BRANCH  13  14
ATOM     14  C   UNL     1      -6.733  -0.200  -9.286  1.00  0.00    -0.000 C 
BRANCH  14  15
ATOM     15  C   UNL     1      -5.983   0.820  -8.410  1.00  0.00    -0.000 C 
BRANCH  15  16
ATOM     16  C   UNL     1      -5.748   2.162  -9.123  1.00  0.00    -0.000 C 
BRANCH  16  17
ATOM     17  C   UNL     1      -5.794   2.041 -10.658  1.00  0.00    -0.000 C 
BRANCH  17  18
ATOM     18  C   UNL     1      -6.898   2.863 -11.345  1.00  0.00    -0.003 C 
ATOM     19  C   UNL     1      -7.597   3.837 -10.397  1.00  0.00     0.004 C 
ENDBRANCH  17  18
ENDBRANCH  16  17
ENDBRANCH  15  16
ENDBRANCH  14  15
ENDBRANCH  13  14
ENDBRANCH  12  13
ENDBRANCH   1  12
TORSDOF 14
ENDMDL
MODEL 3
REMARK VINA RESULT:    -4.836      3.627      8.670
REMARK INTER + INTRA:         -10.166
REMARK INTER:                  -9.071
REMARK INTRA:                  -1.095
REMARK UNBOUND:                -1.372
REMARK SMILES CCCCCCCCCCCCCC[C@@H](C)C(=O)[O-]
REMARK SMILES IDX 9 1 10 2 11 3 12 4 13 5 14 6 15 7 16 8 17 9 18 10 19 11 8 12
REMARK SMILES IDX 7 13 6 14 5 15 4 16 3 17 2 18 1 19
REMARK H PARENT
REMARK Flexibility Score: inf
ROOT
ATOM      1  C   UNL     1      -6.673  -2.745 -11.783  1.00  0.00     0.000 C 
ENDROOT
BRANCH   1   2
ATOM      2  C   UNL     1      -6.426  -2.754 -13.303  1.00  0.00     0.000 C 
BRANCH   2   3
ATOM      3  C   UNL     1      -7.698  -2.474 -14.116  1.00  0.00     0.000 C 
BRANCH   3   4
ATOM      4  C   UNL     1      -8.736  -3.584 -13.911  1.00  0.00     0.000 C 
BRANCH   4   5
ATOM      5  C   UNL     1      -9.003  -4.338 -15.222  1.00  0.00     0.001 C 
BRANCH   5   6
ATOM      6  C   UNL     1     -10.279  -3.869 -15.948  1.00  0.00     0.009 C 
BRANCH   6   7
ATOM      7  C   UNL     1     -11.461  -4.864 -15.847  1.00  0.00     0.032 C 
ATOM      8  C   UNL     1     -11.018  -6.156 -15.150  1.00  0.00     0.014 C 
BRANCH   7   9
ATOM      9  C   UNL     1     -12.626  -4.278 -15.097  1.00  0.00     0.044 C 
ATOM     10  O   UNL     1     -12.756  -4.496 -13.864  1.00  0.00    -0.550 OA
ATOM     11  O   UNL     1     -13.543  -3.461 -15.748  1.00  0.00    -0.550 OA
ENDBRANCH   7   9
ENDBRANCH   6   7
ENDBRANCH   5   6
ENDBRANCH   4   5
ENDBRANCH   3   4
ENDBRANCH   2   3
ENDBRANCH   1   2
BRANCH   1  12
ATOM     12  C   UNL     1      -7.050  -1.371 -11.193  1.00  0.00     0.000 C 
BRANCH  12  13
ATOM     13  C   UNL     1      -6.595  -1.139  -9.738  1.00  0.00    -0.000 C 
BRANCH  13  14
ATOM     14  C   UNL     1      -7.216   0.093  -9.048  1.00  0.00    -0.000 C 
BRANCH  14  15
ATOM     15  C   UNL     1      -6.210   1.164  -8.589  1.00  0.00    -0.000 C 
BRANCH  15  16
ATOM     16  C   UNL     1      -6.205   2.407  -9.495  1.00  0.00    -0.000 C 
BRANCH  16  17
ATOM     17  C   UNL     1      -5.751   2.097 -10.934  1.00  0.00    -0.000 C 
BRANCH  17  18
ATOM     18  C   UNL     1      -4.230   1.968 -11.124  1.00  0.00    -0.003 C 
ATOM     19  C   UNL     1      -3.764   0.520 -11.269  1.00  0.00     0.004 C 
ENDBRANCH  17  18
ENDBRANCH  16  17
ENDBRANCH  15  16
ENDBRANCH  14  15
ENDBRANCH  13  14
ENDBRANCH  12  13
ENDBRANCH   1  12
TORSDOF 14
ENDMDL
MODEL 4
REMARK VINA RESULT:    -4.815      3.273      8.074
REMARK INTER + INTRA:         -10.128
REMARK INTER:                  -7.897
REMARK INTRA:                  -2.232
REMARK UNBOUND:                -1.372
REMARK SMILES CCCCCCCCCCCCCC[C@@H](C)C(=O)[O-]
REMARK SMILES IDX 9 1 10 2 11 3 12 4 13 5 14 6 15 7 16 8 17 9 18 10 19 11 8 12
REMARK SMILES IDX 7 13 6 14 5 15 4 16 3 17 2 18 1 19
REMARK H PARENT
REMARK Flexibility Score: inf
ROOT
ATOM      1  C   UNL     1      -3.073   0.187 -11.067  1.00  0.00     0.000 C 
ENDROOT
BRANCH   1   2
ATOM      2  C   UNL     1      -4.440  -0.366 -11.509  1.00  0.00     0.000 C 
BRANCH   2   3
ATOM      3  C   UNL     1      -5.156  -1.147 -10.397  1.00  0.00     0.000 C 
BRANCH   3   4
ATOM      4  C   UNL     1      -6.674  -1.130 -10.604  1.00  0.00     0.000 C 
BRANCH   4   5
ATOM      5  C   UNL     1      -7.131  -2.338 -11.434  1.00  0.00     0.001 C 
BRANCH   5   6
ATOM      6  C   UNL     1      -8.153  -1.975 -12.530  1.00  0.00     0.009 C 
BRANCH   6   7
ATOM      7  C   UNL     1      -7.827  -2.579 -13.918  1.00  0.00     0.032 C 
ATOM      8  C   UNL     1      -6.350  -2.982 -13.996  1.00  0.00     0.014 C 
BRANCH   7   9
ATOM      9  C   UNL     1      -8.679  -3.781 -14.221  1.00  0.00     0.044 C 
ATOM     10  O   UNL     1      -8.381  -4.904 -13.735  1.00  0.00    -0.550 OA
ATOM     11  O   UNL     1      -9.821  -3.656 -15.005  1.00  0.00    -0.550 OA
ENDBRANCH   7   9
ENDBRANCH   6   7
ENDBRANCH   5   6
ENDBRANCH   4   5
ENDBRANCH   3   4
ENDBRANCH   2   3
ENDBRANCH   1   2
BRANCH   1  12
ATOM     12  C   UNL     1      -2.999   1.723 -10.952  1.00  0.00     0.000 C 
BRANCH  12  13
ATOM     13  C   UNL     1      -2.917   2.266  -9.512  1.00  0.00    -0.000 C 
BRANCH  13  14
ATOM     14  C   UNL     1      -2.842   1.188  -8.411  1.00  0.00    -0.000 C 
BRANCH  14  15
ATOM     15  C   UNL     1      -4.090   1.076  -7.516  1.00  0.00    -0.000 C 
BRANCH  15  16
ATOM     16  C   UNL     1      -5.121   2.184  -7.789  1.00  0.00    -0.000 C 
BRANCH  16  17
ATOM     17  C   UNL     1      -6.431   1.646  -8.397  1.00  0.00    -0.000 C 
BRANCH  17  18
ATOM     18  C   UNL     1      -7.148   2.610  -9.357  1.00  0.00    -0.003 C 
ATOM     19  C   UNL     1      -6.547   2.614 -10.763  1.00  0.00     0.004 C 
ENDBRANCH  17  18
ENDBRANCH  16  17
ENDBRANCH  15  16
ENDBRANCH  14  15
ENDBRANCH  13  14
ENDBRANCH  12  13
ENDBRANCH   1  12
TORSDOF 14
ENDMDL
MODEL 5
REMARK VINA RESULT:    -4.782      2.345      4.051
REMARK INTER + INTRA:         -10.068
REMARK INTER:                  -8.613
REMARK INTRA:                  -1.455
REMARK UNBOUND:                -1.372
REMARK SMILES CCCCCCCCCCCCCC[C@@H](C)C(=O)[O-]
REMARK SMILES IDX 9 1 10 2 11 3 12 4 13 5 14 6 15 7 16 8 17 9 18 10 19 11 8 12
REMARK SMILES IDX 7 13 6 14 5 15 4 16 3 17 2 18 1 19
REMARK H PARENT
REMARK Flexibility Score: inf
ROOT
ATOM      1  C   UNL     1      -8.372  -2.770 -13.552  1.00  0.00     0.000 C 
ENDROOT
BRANCH   1   2
ATOM      2  C   UNL     1      -7.959  -1.959 -12.309  1.00  0.00     0.000 C 
BRANCH   2   3
ATOM      3  C   UNL     1      -7.104  -2.770 -11.325  1.00  0.00     0.000 C 
BRANCH   3   4
ATOM      4  C   UNL     1      -6.409  -1.851 -10.314  1.00  0.00     0.000 C 
BRANCH   4   5
ATOM      5  C   UNL     1      -6.708  -0.375 -10.615  1.00  0.00     0.001 C 
BRANCH   5   6
ATOM      6  C   UNL     1      -6.468   0.556  -9.410  1.00  0.00     0.009 C 
BRANCH   6   7
ATOM      7  C   UNL     1      -5.903   1.946  -9.791  1.00  0.00     0.032 C 
ATOM      8  C   UNL     1      -4.844   1.812 -10.891  1.00  0.00     0.014 C 
BRANCH   7   9
ATOM      9  C   UNL     1      -6.982   2.881 -10.262  1.00  0.00     0.044 C 
ATOM     10  O   UNL     1      -7.050   3.205 -11.477  1.00  0.00    -0.550 OA
ATOM     11  O   UNL     1      -7.936   3.362  -9.371  1.00  0.00    -0.550 OA
ENDBRANCH   7   9
ENDBRANCH   6   7
ENDBRANCH   5   6
ENDBRANCH   4   5
ENDBRANCH   3   4
ENDBRANCH   2   3
ENDBRANCH   1   2
BRANCH   1  12
ATOM     12  C   UNL     1      -7.957  -4.255 -13.528  1.00  0.00     0.000 C 
BRANCH  12  13
ATOM     13  C   UNL     1      -7.452  -4.812 -14.873  1.00  0.00    -0.000 C 
BRANCH  13  14
ATOM     14  C   UNL     1      -6.015  -4.399 -15.253  1.00  0.00    -0.000 C 
BRANCH  14  15
ATOM     15  C   UNL     1      -5.069  -4.146 -14.065  1.00  0.00    -0.000 C 
BRANCH  15  16
ATOM     16  C   UNL     1      -4.351  -2.789 -14.151  1.00  0.00    -0.000 C 
BRANCH  16  17
ATOM     17  C   UNL     1      -4.546  -2.094 -15.512  1.00  0.00    -0.000 C 
BRANCH  17  18
ATOM     18  C   UNL     1      -3.468  -2.408 -16.565  1.00  0.00    -0.003 C 
ATOM     19  C   UNL     1      -3.286  -1.287 -17.588  1.00  0.00     0.004 C 
ENDBRANCH  17  18
ENDBRANCH  16  17
ENDBRANCH  15  16
ENDBRANCH  14  15
ENDBRANCH  13  14
ENDBRANCH  12  13
ENDBRANCH   1  12
TORSDOF 14
ENDMDL
MODEL 6
REMARK VINA RESULT:    -4.761      4.356      7.329
REMARK INTER + INTRA:         -10.030
REMARK INTER:                  -8.200
REMARK INTRA:                  -1.830
REMARK UNBOUND:                -1.372
REMARK SMILES CCCCCCCCCCCCCC[C@@H](C)C(=O)[O-]
REMARK SMILES IDX 9 1 10 2 11 3 12 4 13 5 14 6 15 7 16 8 17 9 18 10 19 11 8 12
REMARK SMILES IDX 7 13 6 14 5 15 4 16 3 17 2 18 1 19
REMARK H PARENT
REMARK Flexibility Score: inf
ROOT
ATOM      1  C   UNL     1      -5.494  -1.413 -10.693  1.00  0.00     0.000 C 
ENDROOT
BRANCH   1   2
ATOM      2  C   UNL     1      -7.008  -1.187 -10.859  1.00  0.00     0.000 C 
BRANCH   2   3
ATOM      3  C   UNL     1      -7.616  -2.019 -11.997  1.00  0.00     0.000 C 
BRANCH   3   4
ATOM      4  C   UNL     1      -7.237  -3.498 -11.858  1.00  0.00     0.000 C 
BRANCH   4   5
ATOM      5  C   UNL     1      -7.531  -4.267 -13.154  1.00  0.00     0.001 C 
BRANCH   5   6
ATOM      6  C   UNL     1      -8.250  -3.417 -14.219  1.00  0.00     0.009 C 
BRANCH   6   7
ATOM      7  C   UNL     1      -8.377  -4.111 -15.598  1.00  0.00     0.032 C 
ATOM      8  C   UNL     1      -7.904  -5.566 -15.512  1.00  0.00     0.014 C 
BRANCH   7   9
ATOM      9  C   UNL     1      -9.790  -4.085 -16.112  1.00  0.00     0.044 C 
ATOM     10  O   UNL     1     -10.604  -4.981 -15.766  1.00  0.00    -0.550 OA
ATOM     11  O   UNL     1     -10.220  -3.052 -16.939  1.00  0.00    -0.550 OA
ENDBRANCH   7   9
ENDBRANCH   6   7
ENDBRANCH   5   6
ENDBRANCH   4   5
ENDBRANCH   3   4
ENDBRANCH   2   3
ENDBRANCH   1   2
BRANCH   1  12
ATOM     12  C   UNL     1      -4.618  -0.787 -11.798  1.00  0.00     0.000 C 
BRANCH  12  13
ATOM     13  C   UNL     1      -3.495  -1.697 -12.332  1.00  0.00    -0.000 C 
BRANCH  13  14
ATOM     14  C   UNL     1      -3.933  -2.713 -13.407  1.00  0.00    -0.000 C 
BRANCH  14  15
ATOM     15  C   UNL     1      -4.806  -2.137 -14.537  1.00  0.00    -0.000 C 
BRANCH  15  16
ATOM     16  C   UNL     1      -4.408  -2.663 -15.926  1.00  0.00    -0.000 C 
BRANCH  16  17
ATOM     17  C   UNL     1      -3.200  -1.917 -16.525  1.00  0.00    -0.000 C 
BRANCH  17  18
ATOM     18  C   UNL     1      -3.344  -1.524 -18.005  1.00  0.00    -0.003 C 
ATOM     19  C   UNL     1      -2.102  -1.847 -18.835  1.00  0.00     0.004 C 
ENDBRANCH  17  18
ENDBRANCH  16  17
ENDBRANCH  15  16
ENDBRANCH  14  15
ENDBRANCH  13  14
ENDBRANCH  12  13
ENDBRANCH   1  12
TORSDOF 14
ENDMDL
MODEL 7
REMARK VINA RESULT:    -4.757      1.216      1.836
REMARK INTER + INTRA:         -10.023
REMARK INTER:                  -8.869
REMARK INTRA:                  -1.153
REMARK UNBOUND:                -1.372
REMARK SMILES CCCCCCCCCCCCCC[C@@H](C)C(=O)[O-]
REMARK SMILES IDX 9 1 10 2 11 3 12 4 13 5 14 6 15 7 16 8 17 9 18 10 19 11 8 12
REMARK SMILES IDX 7 13 6 14 5 15 4 16 3 17 2 18 1 19
REMARK H PARENT
REMARK Flexibility Score: inf
ROOT
ATOM      1  C   UNL     1      -6.976  -4.702 -10.619  1.00  0.00     0.000 C 
ENDROOT
BRANCH   1   2
ATOM      2  C   UNL     1      -6.341  -3.345 -10.977  1.00  0.00     0.000 C 
BRANCH   2   3
ATOM      3  C   UNL     1      -7.375  -2.216 -11.096  1.00  0.00     0.000 C 
BRANCH   3   4
ATOM      4  C   UNL     1      -6.708  -0.844 -10.951  1.00  0.00     0.000 C 
BRANCH   4   5
ATOM      5  C   UNL     1      -6.451  -0.508  -9.475  1.00  0.00     0.001 C 
BRANCH   5   6
ATOM      6  C   UNL     1      -7.367   0.608  -8.934  1.00  0.00     0.009 C 
BRANCH   6   7
ATOM      7  C   UNL     1      -6.681   1.992  -8.837  1.00  0.00     0.032 C 
ATOM      8  C   UNL     1      -5.174   1.830  -8.609  1.00  0.00     0.014 C 
BRANCH   7   9
ATOM      9  C   UNL     1      -6.902   2.817 -10.075  1.00  0.00     0.044 C 
ATOM     10  O   UNL     1      -7.752   3.746 -10.071  1.00  0.00    -0.550 OA
ATOM     11  O   UNL     1      -6.145   2.587 -11.219  1.00  0.00    -0.550 OA
ENDBRANCH   7   9
ENDBRANCH   6   7
ENDBRANCH   5   6
ENDBRANCH   4   5
ENDBRANCH   3   4
ENDBRANCH   2   3
ENDBRANCH   1   2
BRANCH   1  12
ATOM     12  C   UNL     1      -6.944  -5.753 -11.747  1.00  0.00     0.000 C 
BRANCH  12  13
ATOM     13  C   UNL     1      -8.031  -5.584 -12.827  1.00  0.00    -0.000 C 
BRANCH  13  14
ATOM     14  C   UNL     1      -7.597  -4.781 -14.070  1.00  0.00    -0.000 C 
BRANCH  14  15
ATOM     15  C   UNL     1      -8.522  -3.609 -14.450  1.00  0.00    -0.000 C 
BRANCH  15  16
ATOM     16  C   UNL     1      -9.239  -3.825 -15.793  1.00  0.00    -0.000 C 
BRANCH  16  17
ATOM     17  C   UNL     1     -10.072  -5.121 -15.825  1.00  0.00    -0.000 C 
BRANCH  17  18
ATOM     18  C   UNL     1     -11.595  -4.919 -15.745  1.00  0.00    -0.003 C 
ATOM     19  C   UNL     1     -12.113  -4.830 -14.310  1.00  0.00     0.004 C 
ENDBRANCH  17  18
ENDBRANCH  16  17
ENDBRANCH  15  16
ENDBRANCH  14  15
ENDBRANCH  13  14
ENDBRANCH  12  13
ENDBRANCH   1  12
TORSDOF 14
ENDMDL
MODEL 8
REMARK VINA RESULT:    -4.733      3.426      8.260
REMARK INTER + INTRA:          -9.979
REMARK INTER:                  -8.367
REMARK INTRA:                  -1.611
REMARK UNBOUND:                -1.372
REMARK SMILES CCCCCCCCCCCCCC[C@@H](C)C(=O)[O-]
REMARK SMILES IDX 9 1 10 2 11 3 12 4 13 5 14 6 15 7 16 8 17 9 18 10 19 11 8 12
REMARK SMILES IDX 7 13 6 14 5 15 4 16 3 17 2 18 1 19
REMARK H PARENT
REMARK Flexibility Score: inf
ROOT
ATOM      1  C   UNL     1      -7.487  -1.624 -12.093  1.00  0.00     0.000 C 
ENDROOT
BRANCH   1   2
ATOM      2  C   UNL     1      -8.412  -2.521 -12.936  1.00  0.00     0.000 C 
BRANCH   2   3
ATOM      3  C   UNL     1      -7.698  -3.148 -14.143  1.00  0.00     0.000 C 
BRANCH   3   4
ATOM      4  C   UNL     1      -7.299  -4.599 -13.851  1.00  0.00     0.000 C 
BRANCH   4   5
ATOM      5  C   UNL     1      -8.523  -5.526 -13.894  1.00  0.00     0.001 C 
BRANCH   5   6
ATOM      6  C   UNL     1      -9.133  -5.669 -15.302  1.00  0.00     0.009 C 
BRANCH   6   7
ATOM      7  C   UNL     1     -10.665  -5.895 -15.303  1.00  0.00     0.032 C 
ATOM      8  C   UNL     1     -11.129  -6.438 -13.946  1.00  0.00     0.014 C 
BRANCH   7   9
ATOM      9  C   UNL     1     -11.420  -4.631 -15.609  1.00  0.00     0.044 C 
ATOM     10  O   UNL     1     -12.663  -4.575 -15.413  1.00  0.00    -0.550 OA
ATOM     11  O   UNL     1     -10.749  -3.504 -16.070  1.00  0.00    -0.550 OA
ENDBRANCH   7   9
ENDBRANCH   6   7
ENDBRANCH   5   6
ENDBRANCH   4   5
ENDBRANCH   3   4
ENDBRANCH   2   3
ENDBRANCH   1   2
BRANCH   1  12
ATOM     12  C   UNL     1      -6.815  -2.325 -10.895  1.00  0.00     0.000 C 
BRANCH  12  13
ATOM     13  C   UNL     1      -5.420  -1.786 -10.523  1.00  0.00    -0.000 C 
BRANCH  13  14
ATOM     14  C   UNL     1      -4.871  -0.691 -11.461  1.00  0.00    -0.000 C 
BRANCH  14  15
ATOM     15  C   UNL     1      -4.141   0.469 -10.759  1.00  0.00    -0.000 C 
BRANCH  15  16
ATOM     16  C   UNL     1      -4.776   1.839 -11.054  1.00  0.00    -0.000 C 
BRANCH  16  17
ATOM     17  C   UNL     1      -6.287   1.874 -10.758  1.00  0.00    -0.000 C 
BRANCH  17  18
ATOM     18  C   UNL     1      -6.658   1.976  -9.268  1.00  0.00    -0.003 C 
ATOM     19  C   UNL     1      -7.396   0.743  -8.748  1.00  0.00     0.004 C 
ENDBRANCH  17  18
ENDBRANCH  16  17
ENDBRANCH  15  16
ENDBRANCH  14  15
ENDBRANCH  13  14
ENDBRANCH  12  13
ENDBRANCH   1  12
TORSDOF 14
ENDMDL
MODEL 9
REMARK VINA RESULT:    -4.700      3.795      8.250
REMARK INTER + INTRA:          -9.920
REMARK INTER:                  -8.335
REMARK INTRA:                  -1.584
REMARK UNBOUND:                -1.372
REMARK SMILES CCCCCCCCCCCCCC[C@@H](C)C(=O)[O-]
REMARK SMILES IDX 9 1 10 2 11 3 12 4 13 5 14 6 15 7 16 8 17 9 18 10 19 11 8 12
REMARK SMILES IDX 7 13 6 14 5 15 4 16 3 17 2 18 1 19
REMARK H PARENT
REMARK Flexibility Score: inf
ROOT
ATOM      1  C   UNL     1      -7.000  -5.790 -11.561  1.00  0.00     0.000 C 
ENDROOT
BRANCH   1   2
ATOM      2  C   UNL     1      -7.692  -5.436 -12.890  1.00  0.00     0.000 C 
BRANCH   2   3
ATOM      3  C   UNL     1      -6.912  -4.399 -13.712  1.00  0.00     0.000 C 
BRANCH   3   4
ATOM      4  C   UNL     1      -7.778  -3.168 -14.006  1.00  0.00     0.000 C 
BRANCH   4   5
ATOM      5  C   UNL     1      -9.209  -3.578 -14.381  1.00  0.00     0.001 C 
BRANCH   5   6
ATOM      6  C   UNL     1      -9.459  -3.603 -15.902  1.00  0.00     0.009 C 
BRANCH   6   7
ATOM      7  C   UNL     1     -10.003  -4.954 -16.428  1.00  0.00     0.032 C 
ATOM      8  C   UNL     1      -8.895  -6.012 -16.439  1.00  0.00     0.014 C 
BRANCH   7   9
ATOM      9  C   UNL     1     -11.153  -5.457 -15.598  1.00  0.00     0.044 C 
ATOM     10  O   UNL     1     -11.034  -6.522 -14.937  1.00  0.00    -0.550 OA
ATOM     11  O   UNL     1     -12.338  -4.733 -15.523  1.00  0.00    -0.550 OA
ENDBRANCH   7   9
ENDBRANCH   6   7
ENDBRANCH   5   6
ENDBRANCH   4   5
ENDBRANCH   3   4
ENDBRANCH   2   3
ENDBRANCH   1   2
BRANCH   1  12
ATOM     12  C   UNL     1      -7.040  -4.679 -10.491  1.00  0.00     0.000 C 
BRANCH  12  13
ATOM     13  C   UNL     1      -5.672  -4.061 -10.143  1.00  0.00    -0.000 C 
BRANCH  13  14
ATOM     14  C   UNL     1      -5.639  -2.519 -10.120  1.00  0.00    -0.000 C 
BRANCH  14  15
ATOM     15  C   UNL     1      -6.814  -1.827 -10.836  1.00  0.00    -0.000 C 
BRANCH  15  16
ATOM     16  C   UNL     1      -6.961  -0.346 -10.447  1.00  0.00    -0.000 C 
BRANCH  16  17
ATOM     17  C   UNL     1      -6.732  -0.096  -8.944  1.00  0.00    -0.000 C 
BRANCH  17  18
ATOM     18  C   UNL     1      -6.411   1.361  -8.568  1.00  0.00    -0.003 C 
ATOM     19  C   UNL     1      -6.546   2.328  -9.743  1.00  0.00     0.004 C 
ENDBRANCH  17  18
ENDBRANCH  16  17
ENDBRANCH  15  16
ENDBRANCH  14  15
ENDBRANCH  13  14
ENDBRANCH  12  13
ENDBRANCH   1  12
TORSDOF 14
ENDMDL
