MODEL 1
REMARK VINA RESULT:    -4.763      0.000      0.000
REMARK INTER + INTRA:          -6.854
REMARK INTER:                  -6.434
REMARK INTRA:                  -0.419
REMARK UNBOUND:                -0.419
REMARK SMILES CCCCCCCC(=O)[O-]
REMARK SMILES IDX 5 1 6 2 7 3 8 4 9 5 10 6 4 7 3 8 2 9 1 10
REMARK H PARENT
REMARK Flexibility Score: inf
ROOT
ATOM      1  C   UNL     1     -15.906  -7.586  -0.870  1.00  0.00     0.000 C 
ENDROOT
BRANCH   1   2
ATOM      2  C   UNL     1     -16.124  -7.904   0.618  1.00  0.00     0.006 C 
BRANCH   2   3
ATOM      3  C   UNL     1     -17.593  -8.211   0.938  1.00  0.00     0.053 C 
BRANCH   3   4
ATOM      4  C   UNL     1     -18.101  -9.381   0.151  1.00  0.00     0.041 C 
ATOM      5  O   UNL     1     -19.060  -9.236  -0.651  1.00  0.00    -0.550 OA
ATOM      6  O   UNL     1     -17.492 -10.624   0.280  1.00  0.00    -0.550 OA
ENDBRANCH   3   4
ENDBRANCH   2   3
ENDBRANCH   1   2
BRANCH   1   7
ATOM      7  C   UNL     1     -14.886  -8.551  -1.493  1.00  0.00     0.000 C 
BRANCH   7   8
ATOM      8  C   UNL     1     -15.119  -8.768  -2.996  1.00  0.00    -0.000 C 
BRANCH   8   9
ATOM      9  C   UNL     1     -16.562  -8.461  -3.422  1.00  0.00    -0.003 C 
ATOM     10  C   UNL     1     -16.620  -8.012  -4.879  1.00  0.00     0.004 C 
ENDBRANCH   8   9
ENDBRANCH   7   8
ENDBRANCH   1   7
TORSDOF 6
ENDMDL
MODEL 2
REMARK VINA RESULT:    -4.670      2.612      4.733
REMARK INTER + INTRA:          -6.728
REMARK INTER:                  -6.280
REMARK INTRA:                  -0.448
REMARK UNBOUND:                -0.419
REMARK SMILES CCCCCCCC(=O)[O-]
REMARK SMILES IDX 5 1 6 2 7 3 8 4 9 5 10 6 4 7 3 8 2 9 1 10
REMARK H PARENT
REMARK Flexibility Score: inf
ROOT
ATOM      1  C   UNL     1     -18.329 -10.239  -1.851  1.00  0.00     0.000 C 
ENDROOT
BRANCH   1   2
ATOM      2  C   UNL     1     -16.856  -9.827  -1.996  1.00  0.00     0.006 C 
BRANCH   2   3
ATOM      3  C   UNL     1     -16.696  -8.476  -2.704  1.00  0.00     0.053 C 
BRANCH   3   4
ATOM      4  C   UNL     1     -16.199  -8.639  -4.109  1.00  0.00     0.041 C 
ATOM      5  O   UNL     1     -15.232  -9.408  -4.352  1.00  0.00    -0.550 OA
ATOM      6  O   UNL     1     -16.825  -7.967  -5.152  1.00  0.00    -0.550 OA
ENDBRANCH   3   4
ENDBRANCH   2   3
ENDBRANCH   1   2
BRANCH   1   7
ATOM      7  C   UNL     1     -18.969  -9.567  -0.628  1.00  0.00     0.000 C 
BRANCH   7   8
ATOM      8  C   UNL     1     -18.013  -9.489   0.573  1.00  0.00    -0.000 C 
BRANCH   8   9
ATOM      9  C   UNL     1     -17.903  -8.071   1.150  1.00  0.00    -0.003 C 
ATOM     10  C   UNL     1     -16.498  -7.506   0.955  1.00  0.00     0.004 C 
ENDBRANCH   8   9
ENDBRANCH   7   8
ENDBRANCH   1   7
TORSDOF 6
ENDMDL
MODEL 3
REMARK VINA RESULT:    -4.593      1.486      2.210
REMARK INTER + INTRA:          -6.623
REMARK INTER:                  -6.006
REMARK INTRA:                  -0.617
REMARK UNBOUND:                -0.419
REMARK SMILES CCCCCCCC(=O)[O-]
REMARK SMILES IDX 5 1 6 2 7 3 8 4 9 5 10 6 4 7 3 8 2 9 1 10
REMARK H PARENT
REMARK Flexibility Score: inf
ROOT
ATOM      1  C   UNL     1     -16.757  -9.284   0.251  1.00  0.00     0.000 C 
ENDROOT
BRANCH   1   2
ATOM      2  C   UNL     1     -18.277  -9.096   0.372  1.00  0.00     0.006 C 
BRANCH   2   3
ATOM      3  C   UNL     1     -19.027  -9.610  -0.864  1.00  0.00     0.053 C 
BRANCH   3   4
ATOM      4  C   UNL     1     -18.755 -11.062  -1.115  1.00  0.00     0.041 C 
ATOM      5  O   UNL     1     -18.183 -11.424  -2.177  1.00  0.00    -0.550 OA
ATOM      6  O   UNL     1     -19.103 -12.011  -0.163  1.00  0.00    -0.550 OA
ENDBRANCH   3   4
ENDBRANCH   2   3
ENDBRANCH   1   2
BRANCH   1   7
ATOM      7  C   UNL     1     -16.046  -7.931   0.108  1.00  0.00     0.000 C 
BRANCH   7   8
ATOM      8  C   UNL     1     -15.941  -7.468  -1.354  1.00  0.00    -0.000 C 
BRANCH   8   9
ATOM      9  C   UNL     1     -15.767  -8.639  -2.333  1.00  0.00    -0.003 C 
ATOM     10  C   UNL     1     -16.657  -8.464  -3.561  1.00  0.00     0.004 C 
ENDBRANCH   8   9
ENDBRANCH   7   8
ENDBRANCH   1   7
TORSDOF 6
ENDMDL
MODEL 4
REMARK VINA RESULT:    -4.584      3.606      4.707
REMARK INTER + INTRA:          -6.611
REMARK INTER:                  -6.375
REMARK INTRA:                  -0.237
REMARK UNBOUND:                -0.419
REMARK SMILES CCCCCCCC(=O)[O-]
REMARK SMILES IDX 5 1 6 2 7 3 8 4 9 5 10 6 4 7 3 8 2 9 1 10
REMARK H PARENT
REMARK Flexibility Score: inf
ROOT
ATOM      1  C   UNL     1     -19.020 -11.910  -0.427  1.00  0.00     0.000 C 
ENDROOT
BRANCH   1   2
ATOM      2  C   UNL     1     -18.679 -10.689  -1.296  1.00  0.00     0.006 C 
BRANCH   2   3
ATOM      3  C   UNL     1     -19.028  -9.365  -0.603  1.00  0.00     0.053 C 
BRANCH   3   4
ATOM      4  C   UNL     1     -18.042  -9.024   0.473  1.00  0.00     0.041 C 
ATOM      5  O   UNL     1     -18.411  -8.373   1.486  1.00  0.00    -0.550 OA
ATOM      6  O   UNL     1     -16.724  -9.452   0.372  1.00  0.00    -0.550 OA
ENDBRANCH   3   4
ENDBRANCH   2   3
ENDBRANCH   1   2
BRANCH   1   7
ATOM      7  C   UNL     1     -18.560 -13.210  -1.102  1.00  0.00     0.000 C 
BRANCH   7   8
ATOM      8  C   UNL     1     -17.158 -13.649  -0.650  1.00  0.00    -0.000 C 
BRANCH   8   9
ATOM      9  C   UNL     1     -16.529 -14.681  -1.596  1.00  0.00    -0.003 C 
ATOM     10  C   UNL     1     -17.327 -14.797  -2.892  1.00  0.00     0.004 C 
ENDBRANCH   8   9
ENDBRANCH   7   8
ENDBRANCH   1   7
TORSDOF 6
ENDMDL
MODEL 5
REMARK VINA RESULT:    -4.571      3.732      4.818
REMARK INTER + INTRA:          -6.593
REMARK INTER:                  -6.214
REMARK INTRA:                  -0.379
REMARK UNBOUND:                -0.419
REMARK SMILES CCCCCCCC(=O)[O-]
REMARK SMILES IDX 5 1 6 2 7 3 8 4 9 5 10 6 4 7 3 8 2 9 1 10
REMARK H PARENT
REMARK Flexibility Score: inf
ROOT
ATOM      1  C   UNL     1     -19.006 -11.863  -0.248  1.00  0.00     0.000 C 
ENDROOT
BRANCH   1   2
ATOM      2  C   UNL     1     -17.910 -10.785  -0.222  1.00  0.00     0.006 C 
BRANCH   2   3
ATOM      3  C   UNL     1     -18.244  -9.594  -1.130  1.00  0.00     0.053 C 
BRANCH   3   4
ATOM      4  C   UNL     1     -17.298  -9.495  -2.288  1.00  0.00     0.041 C 
ATOM      5  O   UNL     1     -16.937  -8.367  -2.716  1.00  0.00    -0.550 OA
ATOM      6  O   UNL     1     -16.790 -10.649  -2.873  1.00  0.00    -0.550 OA
ENDBRANCH   3   4
ENDBRANCH   2   3
ENDBRANCH   1   2
BRANCH   1   7
ATOM      7  C   UNL     1     -18.540 -13.101  -1.026  1.00  0.00     0.000 C 
BRANCH   7   8
ATOM      8  C   UNL     1     -17.135 -13.567  -0.612  1.00  0.00    -0.000 C 
BRANCH   8   9
ATOM      9  C   UNL     1     -16.580 -14.663  -1.533  1.00  0.00    -0.003 C 
ATOM     10  C   UNL     1     -17.338 -14.704  -2.857  1.00  0.00     0.004 C 
ENDBRANCH   8   9
ENDBRANCH   7   8
ENDBRANCH   1   7
TORSDOF 6
ENDMDL
MODEL 6
REMARK VINA RESULT:    -4.549      2.432      3.502
REMARK INTER + INTRA:          -6.564
REMARK INTER:                  -6.247
REMARK INTRA:                  -0.317
REMARK UNBOUND:                -0.419
REMARK SMILES CCCCCCCC(=O)[O-]
REMARK SMILES IDX 5 1 6 2 7 3 8 4 9 5 10 6 4 7 3 8 2 9 1 10
REMARK H PARENT
REMARK Flexibility Score: inf
ROOT
ATOM      1  C   UNL     1     -19.033 -10.172  -1.231  1.00  0.00     0.000 C 
ENDROOT
BRANCH   1   2
ATOM      2  C   UNL     1     -18.609 -11.567  -1.719  1.00  0.00     0.006 C 
BRANCH   2   3
ATOM      3  C   UNL     1     -18.582 -12.597  -0.582  1.00  0.00     0.053 C 
BRANCH   3   4
ATOM      4  C   UNL     1     -17.180 -12.975  -0.208  1.00  0.00     0.041 C 
ATOM      5  O   UNL     1     -16.450 -12.161   0.415  1.00  0.00    -0.550 OA
ATOM      6  O   UNL     1     -16.694 -14.239  -0.518  1.00  0.00    -0.550 OA
ENDBRANCH   3   4
ENDBRANCH   2   3
ENDBRANCH   1   2
BRANCH   1   7
ATOM      7  C   UNL     1     -17.871  -9.175  -1.344  1.00  0.00     0.000 C 
BRANCH   7   8
ATOM      8  C   UNL     1     -16.996  -9.422  -2.583  1.00  0.00    -0.000 C 
BRANCH   8   9
ATOM      9  C   UNL     1     -16.439  -8.123  -3.181  1.00  0.00    -0.003 C 
ATOM     10  C   UNL     1     -16.496  -8.152  -4.707  1.00  0.00     0.004 C 
ENDBRANCH   8   9
ENDBRANCH   7   8
ENDBRANCH   1   7
TORSDOF 6
ENDMDL
MODEL 7
REMARK VINA RESULT:    -4.542      4.678      5.882
REMARK INTER + INTRA:          -6.554
REMARK INTER:                  -6.151
REMARK INTRA:                  -0.403
REMARK UNBOUND:                -0.419
REMARK SMILES CCCCCCCC(=O)[O-]
REMARK SMILES IDX 5 1 6 2 7 3 8 4 9 5 10 6 4 7 3 8 2 9 1 10
REMARK H PARENT
REMARK Flexibility Score: inf
ROOT
ATOM      1  C   UNL     1     -17.145 -14.805  -2.637  1.00  0.00     0.000 C 
ENDROOT
BRANCH   1   2
ATOM      2  C   UNL     1     -18.333 -13.854  -2.851  1.00  0.00     0.006 C 
BRANCH   2   3
ATOM      3  C   UNL     1     -18.573 -12.942  -1.641  1.00  0.00     0.053 C 
BRANCH   3   4
ATOM      4  C   UNL     1     -18.285 -11.506  -1.961  1.00  0.00     0.041 C 
ATOM      5  O   UNL     1     -17.321 -11.207  -2.714  1.00  0.00    -0.550 OA
ATOM      6  O   UNL     1     -19.101 -10.502  -1.455  1.00  0.00    -0.550 OA
ENDBRANCH   3   4
ENDBRANCH   2   3
ENDBRANCH   1   2
BRANCH   1   7
ATOM      7  C   UNL     1     -16.513 -14.591  -1.254  1.00  0.00     0.000 C 
BRANCH   7   8
ATOM      8  C   UNL     1     -15.103 -13.985  -1.334  1.00  0.00    -0.000 C 
BRANCH   8   9
ATOM      9  C   UNL     1     -14.552 -13.587   0.042  1.00  0.00    -0.003 C 
ATOM     10  C   UNL     1     -15.623 -13.719   1.122  1.00  0.00     0.004 C 
ENDBRANCH   8   9
ENDBRANCH   7   8
ENDBRANCH   1   7
TORSDOF 6
ENDMDL
MODEL 8
REMARK VINA RESULT:    -4.489      2.529      4.230
REMARK INTER + INTRA:          -6.483
REMARK INTER:                  -6.076
REMARK INTRA:                  -0.407
REMARK UNBOUND:                -0.419
REMARK SMILES CCCCCCCC(=O)[O-]
REMARK SMILES IDX 5 1 6 2 7 3 8 4 9 5 10 6 4 7 3 8 2 9 1 10
REMARK H PARENT
REMARK Flexibility Score: inf
ROOT
ATOM      1  C   UNL     1     -16.012  -7.604  -0.327  1.00  0.00     0.000 C 
ENDROOT
BRANCH   1   2
ATOM      2  C   UNL     1     -15.511  -8.079  -1.700  1.00  0.00     0.006 C 
BRANCH   2   3
ATOM      3  C   UNL     1     -16.658  -8.296  -2.695  1.00  0.00     0.053 C 
BRANCH   3   4
ATOM      4  C   UNL     1     -16.151  -8.593  -4.074  1.00  0.00     0.041 C 
ATOM      5  O   UNL     1     -16.664  -8.024  -5.073  1.00  0.00    -0.550 OA
ATOM      6  O   UNL     1     -15.089  -9.471  -4.251  1.00  0.00    -0.550 OA
ENDBRANCH   3   4
ENDBRANCH   2   3
ENDBRANCH   1   2
BRANCH   1   7
ATOM      7  C   UNL     1     -16.396  -8.797   0.560  1.00  0.00     0.000 C 
BRANCH   7   8
ATOM      8  C   UNL     1     -17.912  -9.050   0.588  1.00  0.00    -0.000 C 
BRANCH   8   9
ATOM      9  C   UNL     1     -18.283 -10.467   0.128  1.00  0.00    -0.003 C 
ATOM     10  C   UNL     1     -17.043 -11.348   0.008  1.00  0.00     0.004 C 
ENDBRANCH   8   9
ENDBRANCH   7   8
ENDBRANCH   1   7
TORSDOF 6
ENDMDL
MODEL 9
REMARK VINA RESULT:    -4.383      2.683      3.997
REMARK INTER + INTRA:          -6.339
REMARK INTER:                  -5.898
REMARK INTRA:                  -0.441
REMARK UNBOUND:                -0.419
REMARK SMILES CCCCCCCC(=O)[O-]
REMARK SMILES IDX 5 1 6 2 7 3 8 4 9 5 10 6 4 7 3 8 2 9 1 10
REMARK H PARENT
REMARK Flexibility Score: inf
ROOT
ATOM      1  C   UNL     1     -18.977  -9.889  -0.995  1.00  0.00     0.000 C 
ENDROOT
BRANCH   1   2
ATOM      2  C   UNL     1     -18.363 -11.081  -0.244  1.00  0.00     0.006 C 
BRANCH   2   3
ATOM      3  C   UNL     1     -19.002 -12.416  -0.650  1.00  0.00     0.053 C 
BRANCH   3   4
ATOM      4  C   UNL     1     -18.469 -12.912  -1.960  1.00  0.00     0.041 C 
ATOM      5  O   UNL     1     -19.195 -13.610  -2.715  1.00  0.00    -0.550 OA
ATOM      6  O   UNL     1     -17.181 -12.575  -2.361  1.00  0.00    -0.550 OA
ENDBRANCH   3   4
ENDBRANCH   2   3
ENDBRANCH   1   2
BRANCH   1   7
ATOM      7  C   UNL     1     -17.902  -9.123  -1.780  1.00  0.00     0.000 C 
BRANCH   7   8
ATOM      8  C   UNL     1     -16.529  -9.154  -1.090  1.00  0.00    -0.000 C 
BRANCH   8   9
ATOM      9  C   UNL     1     -16.037  -7.755  -0.691  1.00  0.00    -0.003 C 
ATOM     10  C   UNL     1     -16.412  -7.432   0.753  1.00  0.00     0.004 C 
ENDBRANCH   8   9
ENDBRANCH   7   8
ENDBRANCH   1   7
TORSDOF 6
ENDMDL
