MODEL 1
REMARK VINA RESULT:    10.676      0.000      0.000
REMARK INTER + INTRA:          15.424
REMARK INTER:                  15.669
REMARK INTRA:                  -0.245
REMARK UNBOUND:                -0.245
REMARK SMILES O=C([O-])CCCCCCCC(=O)[O-]
REMARK SMILES IDX 7 1 6 2 5 3 4 4 2 5 1 6 3 7 8 8 9 9 10 10 11 11 12 12 13 13
REMARK H PARENT
REMARK Flexibility Score: inf
ROOT
ATOM      1  C   UNL     1       4.859 -16.864  13.812  1.00  0.00     0.000 C 
ENDROOT
BRANCH   1   2
ATOM      2  C   UNL     1       4.866 -17.574  15.177  1.00  0.00     0.000 C 
BRANCH   2   3
ATOM      3  C   UNL     1       5.125 -16.606  16.343  1.00  0.00     0.006 C 
BRANCH   3   4
ATOM      4  C   UNL     1       4.882 -17.251  17.715  1.00  0.00     0.053 C 
BRANCH   4   5
ATOM      5  C   UNL     1       4.215 -16.281  18.637  1.00  0.00     0.041 C 
ATOM      6  O   UNL     1       4.712 -15.138  18.821  1.00  0.00    -0.550 OA
ATOM      7  O   UNL     1       3.071 -16.654  19.331  1.00  0.00    -0.550 OA
ENDBRANCH   4   5
ENDBRANCH   3   4
ENDBRANCH   2   3
ENDBRANCH   1   2
BRANCH   1   8
ATOM      8  C   UNL     1       4.603 -17.833  12.645  1.00  0.00     0.000 C 
BRANCH   8   9
ATOM      9  C   UNL     1       4.078 -19.201  13.113  1.00  0.00     0.006 C 
BRANCH   9  10
ATOM     10  C   UNL     1       3.370 -19.966  11.987  1.00  0.00     0.053 C 
BRANCH  10  11
ATOM     11  C   UNL     1       1.885 -19.777  12.032  1.00  0.00     0.041 C 
ATOM     12  O   UNL     1       1.387 -18.629  11.889  1.00  0.00    -0.550 OA
ATOM     13  O   UNL     1       1.048 -20.873  12.202  1.00  0.00    -0.550 OA
ENDBRANCH  10  11
ENDBRANCH   9  10
ENDBRANCH   8   9
ENDBRANCH   1   8
TORSDOF 8
ENDMDL
MODEL 2
REMARK VINA RESULT:    10.689     14.569     16.046
REMARK INTER + INTRA:          15.443
REMARK INTER:                  15.751
REMARK INTRA:                  -0.308
REMARK UNBOUND:                -0.245
REMARK SMILES O=C([O-])CCCCCCCC(=O)[O-]
REMARK SMILES IDX 7 1 6 2 5 3 4 4 2 5 1 6 3 7 8 8 9 9 10 10 11 11 12 12 13 13
REMARK H PARENT
REMARK Flexibility Score: inf
ROOT
ATOM      1  C   UNL     1      -3.473  -9.135  24.587  1.00  0.00     0.000 C 
ENDROOT
BRANCH   1   2
ATOM      2  C   UNL     1      -4.888  -8.664  24.968  1.00  0.00     0.000 C 
BRANCH   2   3
ATOM      3  C   UNL     1      -5.909  -9.814  24.980  1.00  0.00     0.006 C 
BRANCH   3   4
ATOM      4  C   UNL     1      -5.811 -10.704  23.734  1.00  0.00     0.053 C 
BRANCH   4   5
ATOM      5  C   UNL     1      -6.554 -11.985  23.950  1.00  0.00     0.041 C 
ATOM      6  O   UNL     1      -6.967 -12.652  22.965  1.00  0.00    -0.550 OA
ATOM      7  O   UNL     1      -6.833 -12.418  25.240  1.00  0.00    -0.550 OA
ENDBRANCH   4   5
ENDBRANCH   3   4
ENDBRANCH   2   3
ENDBRANCH   1   2
BRANCH   1   8
ATOM      8  C   UNL     1      -2.681  -8.062  23.821  1.00  0.00     0.000 C 
BRANCH   8   9
ATOM      9  C   UNL     1      -1.234  -7.919  24.327  1.00  0.00     0.006 C 
BRANCH   9  10
ATOM     10  C   UNL     1      -0.923  -8.891  25.473  1.00  0.00     0.053 C 
BRANCH  10  11
ATOM     11  C   UNL     1       0.208  -8.404  26.326  1.00  0.00     0.041 C 
ATOM     12  O   UNL     1       0.783  -9.189  27.125  1.00  0.00    -0.550 OA
ATOM     13  O   UNL     1       0.647  -7.090  26.216  1.00  0.00    -0.550 OA
ENDBRANCH  10  11
ENDBRANCH   9  10
ENDBRANCH   8   9
ENDBRANCH   1   8
TORSDOF 8
ENDMDL
MODEL 3
REMARK VINA RESULT:    11.148     14.621     15.206
REMARK INTER + INTRA:          16.117
REMARK INTER:                  16.424
REMARK INTRA:                  -0.307
REMARK UNBOUND:                -0.245
REMARK SMILES O=C([O-])CCCCCCCC(=O)[O-]
REMARK SMILES IDX 7 1 6 2 5 3 4 4 2 5 1 6 3 7 8 8 9 9 10 10 11 11 12 12 13 13
REMARK H PARENT
REMARK Flexibility Score: inf
ROOT
ATOM      1  C   UNL     1      -3.343  -9.160  24.505  1.00  0.00     0.000 C 
ENDROOT
BRANCH   1   2
ATOM      2  C   UNL     1      -2.500  -8.117  23.750  1.00  0.00     0.000 C 
BRANCH   2   3
ATOM      3  C   UNL     1      -1.165  -7.819  24.451  1.00  0.00     0.006 C 
BRANCH   3   4
ATOM      4  C   UNL     1      -0.850  -8.816  25.575  1.00  0.00     0.053 C 
BRANCH   4   5
ATOM      5  C   UNL     1       0.293  -8.323  26.403  1.00  0.00     0.041 C 
ATOM      6  O   UNL     1       0.945  -9.123  27.125  1.00  0.00    -0.550 OA
ATOM      7  O   UNL     1       0.610  -6.970  26.417  1.00  0.00    -0.550 OA
ENDBRANCH   4   5
ENDBRANCH   3   4
ENDBRANCH   2   3
ENDBRANCH   1   2
BRANCH   1   8
ATOM      8  C   UNL     1      -4.699  -8.599  24.968  1.00  0.00     0.000 C 
BRANCH   8   9
ATOM      9  C   UNL     1      -5.756  -9.698  25.172  1.00  0.00     0.006 C 
BRANCH   9  10
ATOM     10  C   UNL     1      -6.116 -10.405  23.858  1.00  0.00     0.053 C 
BRANCH  10  11
ATOM     11  C   UNL     1      -6.572 -11.813  24.089  1.00  0.00     0.041 C 
ATOM     12  O   UNL     1      -6.725 -12.246  25.262  1.00  0.00    -0.550 OA
ATOM     13  O   UNL     1      -6.858 -12.638  23.009  1.00  0.00    -0.550 OA
ENDBRANCH  10  11
ENDBRANCH   9  10
ENDBRANCH   8   9
ENDBRANCH   1   8
TORSDOF 8
ENDMDL
MODEL 4
REMARK VINA RESULT:    11.198      0.227      6.552
REMARK INTER + INTRA:          16.190
REMARK INTER:                  16.451
REMARK INTRA:                  -0.261
REMARK UNBOUND:                -0.245
REMARK SMILES O=C([O-])CCCCCCCC(=O)[O-]
REMARK SMILES IDX 7 1 6 2 5 3 4 4 2 5 1 6 3 7 8 8 9 9 10 10 11 11 12 12 13 13
REMARK H PARENT
REMARK Flexibility Score: inf
ROOT
ATOM      1  C   UNL     1       4.484 -17.069  13.954  1.00  0.00     0.000 C 
ENDROOT
BRANCH   1   2
ATOM      2  C   UNL     1       4.712 -18.020  12.766  1.00  0.00     0.000 C 
BRANCH   2   3
ATOM      3  C   UNL     1       4.125 -19.420  13.011  1.00  0.00     0.006 C 
BRANCH   3   4
ATOM      4  C   UNL     1       3.353 -19.959  11.799  1.00  0.00     0.053 C 
BRANCH   4   5
ATOM      5  C   UNL     1       1.883 -19.746  11.981  1.00  0.00     0.041 C 
ATOM      6  O   UNL     1       1.126 -20.722  12.222  1.00  0.00    -0.550 OA
ATOM      7  O   UNL     1       1.342 -18.474  11.837  1.00  0.00    -0.550 OA
ENDBRANCH   4   5
ENDBRANCH   3   4
ENDBRANCH   2   3
ENDBRANCH   1   2
BRANCH   1   8
ATOM      8  C   UNL     1       5.120 -17.586  15.255  1.00  0.00     0.000 C 
BRANCH   8   9
ATOM      9  C   UNL     1       5.013 -16.576  16.411  1.00  0.00     0.006 C 
BRANCH   9  10
ATOM     10  C   UNL     1       4.700 -17.258  17.749  1.00  0.00     0.053 C 
BRANCH  10  11
ATOM     11  C   UNL     1       4.100 -16.304  18.735  1.00  0.00     0.041 C 
ATOM     12  O   UNL     1       4.509 -15.114  18.795  1.00  0.00    -0.550 OA
ATOM     13  O   UNL     1       3.068 -16.719  19.568  1.00  0.00    -0.550 OA
ENDBRANCH  10  11
ENDBRANCH   9  10
ENDBRANCH   8   9
ENDBRANCH   1   8
TORSDOF 8
ENDMDL
MODEL 5
REMARK VINA RESULT:    11.770     13.503     15.601
REMARK INTER + INTRA:          17.029
REMARK INTER:                  16.751
REMARK INTRA:                   0.278
REMARK UNBOUND:                -0.245
REMARK SMILES O=C([O-])CCCCCCCC(=O)[O-]
REMARK SMILES IDX 7 1 6 2 5 3 4 4 2 5 1 6 3 7 8 8 9 9 10 10 11 11 12 12 13 13
REMARK H PARENT
REMARK Flexibility Score: inf
ROOT
ATOM      1  C   UNL     1      -1.987  -8.030  23.259  1.00  0.00     0.000 C 
ENDROOT
BRANCH   1   2
ATOM      2  C   UNL     1      -3.319  -7.263  23.343  1.00  0.00     0.000 C 
BRANCH   2   3
ATOM      3  C   UNL     1      -3.996  -7.108  21.972  1.00  0.00     0.006 C 
BRANCH   3   4
ATOM      4  C   UNL     1      -2.990  -6.875  20.837  1.00  0.00     0.053 C 
BRANCH   4   5
ATOM      5  C   UNL     1      -3.445  -7.562  19.589  1.00  0.00     0.041 C 
ATOM      6  O   UNL     1      -4.668  -7.593  19.292  1.00  0.00    -0.550 OA
ATOM      7  O   UNL     1      -2.523  -8.213  18.777  1.00  0.00    -0.550 OA
ENDBRANCH   4   5
ENDBRANCH   3   4
ENDBRANCH   2   3
ENDBRANCH   1   2
BRANCH   1   8
ATOM      8  C   UNL     1      -1.315  -8.198  24.633  1.00  0.00     0.000 C 
BRANCH   8   9
ATOM      9  C   UNL     1      -0.177  -7.188  24.865  1.00  0.00     0.006 C 
BRANCH   9  10
ATOM     10  C   UNL     1       0.446  -7.330  26.259  1.00  0.00     0.053 C 
BRANCH  10  11
ATOM     11  C   UNL     1       0.542  -8.763  26.685  1.00  0.00     0.041 C 
ATOM     12  O   UNL     1       1.666  -9.322  26.782  1.00  0.00    -0.550 OA
ATOM     13  O   UNL     1      -0.609  -9.473  27.002  1.00  0.00    -0.550 OA
ENDBRANCH  10  11
ENDBRANCH   9  10
ENDBRANCH   8   9
ENDBRANCH   1   8
TORSDOF 8
ENDMDL
MODEL 6
REMARK VINA RESULT:    12.556     13.061     13.951
REMARK INTER + INTRA:          18.182
REMARK INTER:                  18.526
REMARK INTRA:                  -0.343
REMARK UNBOUND:                -0.245
REMARK SMILES O=C([O-])CCCCCCCC(=O)[O-]
REMARK SMILES IDX 7 1 6 2 5 3 4 4 2 5 1 6 3 7 8 8 9 9 10 10 11 11 12 12 13 13
REMARK H PARENT
REMARK Flexibility Score: inf
ROOT
ATOM      1  C   UNL     1      -0.855  -9.216  22.334  1.00  0.00     0.000 C 
ENDROOT
BRANCH   1   2
ATOM      2  C   UNL     1      -1.308  -9.833  23.669  1.00  0.00     0.000 C 
BRANCH   2   3
ATOM      3  C   UNL     1      -1.528  -8.776  24.763  1.00  0.00     0.006 C 
BRANCH   3   4
ATOM      4  C   UNL     1      -0.941  -9.193  26.118  1.00  0.00     0.053 C 
BRANCH   4   5
ATOM      5  C   UNL     1       0.306  -8.419  26.405  1.00  0.00     0.041 C 
ATOM      6  O   UNL     1       1.215  -8.922  27.116  1.00  0.00    -0.550 OA
ATOM      7  O   UNL     1       0.444  -7.121  25.929  1.00  0.00    -0.550 OA
ENDBRANCH   4   5
ENDBRANCH   3   4
ENDBRANCH   2   3
ENDBRANCH   1   2
BRANCH   1   8
ATOM      8  C   UNL     1      -1.208  -7.722  22.225  1.00  0.00     0.000 C 
BRANCH   8   9
ATOM      9  C   UNL     1      -1.699  -7.329  20.820  1.00  0.00     0.006 C 
BRANCH   9  10
ATOM     10  C   UNL     1      -3.207  -7.053  20.791  1.00  0.00     0.053 C 
BRANCH  10  11
ATOM     11  C   UNL     1      -3.795  -7.311  19.437  1.00  0.00     0.041 C 
ATOM     12  O   UNL     1      -4.908  -7.890  19.329  1.00  0.00    -0.550 OA
ATOM     13  O   UNL     1      -3.128  -6.884  18.295  1.00  0.00    -0.550 OA
ENDBRANCH  10  11
ENDBRANCH   9  10
ENDBRANCH   8   9
ENDBRANCH   1   8
TORSDOF 8
ENDMDL
MODEL 7
REMARK VINA RESULT:    12.613     12.717     14.776
REMARK INTER + INTRA:          18.267
REMARK INTER:                  17.854
REMARK INTRA:                   0.413
REMARK UNBOUND:                -0.245
REMARK SMILES O=C([O-])CCCCCCCC(=O)[O-]
REMARK SMILES IDX 7 1 6 2 5 3 4 4 2 5 1 6 3 7 8 8 9 9 10 10 11 11 12 12 13 13
REMARK H PARENT
REMARK Flexibility Score: inf
ROOT
ATOM      1  C   UNL     1      -5.097 -15.841  26.851  1.00  0.00     0.000 C 
ENDROOT
BRANCH   1   2
ATOM      2  C   UNL     1      -4.719 -16.821  25.726  1.00  0.00     0.000 C 
BRANCH   2   3
ATOM      3  C   UNL     1      -5.305 -18.225  25.946  1.00  0.00     0.006 C 
BRANCH   3   4
ATOM      4  C   UNL     1      -5.772 -18.883  24.640  1.00  0.00     0.053 C 
BRANCH   4   5
ATOM      5  C   UNL     1      -5.399 -18.034  23.467  1.00  0.00     0.041 C 
ATOM      6  O   UNL     1      -6.269 -17.713  22.614  1.00  0.00    -0.550 OA
ATOM      7  O   UNL     1      -4.080 -17.636  23.287  1.00  0.00    -0.550 OA
ENDBRANCH   4   5
ENDBRANCH   3   4
ENDBRANCH   2   3
ENDBRANCH   1   2
BRANCH   1   8
ATOM      8  C   UNL     1      -4.876 -14.372  26.454  1.00  0.00     0.000 C 
BRANCH   8   9
ATOM      9  C   UNL     1      -5.547 -14.011  25.117  1.00  0.00     0.006 C 
BRANCH   9  10
ATOM     10  C   UNL     1      -6.511 -12.826  25.254  1.00  0.00     0.053 C 
BRANCH  10  11
ATOM     11  C   UNL     1      -6.569 -12.005  24.002  1.00  0.00     0.041 C 
ATOM     12  O   UNL     1      -6.055 -10.856  23.974  1.00  0.00    -0.550 OA
ATOM     13  O   UNL     1      -7.163 -12.522  22.858  1.00  0.00    -0.550 OA
ENDBRANCH  10  11
ENDBRANCH   9  10
ENDBRANCH   8   9
ENDBRANCH   1   8
TORSDOF 8
ENDMDL
MODEL 8
REMARK VINA RESULT:    12.620     12.695     14.295
REMARK INTER + INTRA:          18.277
REMARK INTER:                  17.870
REMARK INTRA:                   0.407
REMARK UNBOUND:                -0.245
REMARK SMILES O=C([O-])CCCCCCCC(=O)[O-]
REMARK SMILES IDX 7 1 6 2 5 3 4 4 2 5 1 6 3 7 8 8 9 9 10 10 11 11 12 12 13 13
REMARK H PARENT
REMARK Flexibility Score: inf
ROOT
ATOM      1  C   UNL     1      -5.049 -15.780  26.863  1.00  0.00     0.000 C 
ENDROOT
BRANCH   1   2
ATOM      2  C   UNL     1      -4.786 -14.334  26.407  1.00  0.00     0.000 C 
BRANCH   2   3
ATOM      3  C   UNL     1      -5.565 -13.967  25.133  1.00  0.00     0.006 C 
BRANCH   3   4
ATOM      4  C   UNL     1      -6.515 -12.779  25.340  1.00  0.00     0.053 C 
BRANCH   4   5
ATOM      5  C   UNL     1      -6.568 -11.934  24.107  1.00  0.00     0.041 C 
ATOM      6  O   UNL     1      -7.032 -12.405  23.035  1.00  0.00    -0.550 OA
ATOM      7  O   UNL     1      -6.060 -10.641  24.127  1.00  0.00    -0.550 OA
ENDBRANCH   4   5
ENDBRANCH   3   4
ENDBRANCH   2   3
ENDBRANCH   1   2
BRANCH   1   8
ATOM      8  C   UNL     1      -4.704 -16.813  25.776  1.00  0.00     0.000 C 
BRANCH   8   9
ATOM      9  C   UNL     1      -5.402 -18.166  26.000  1.00  0.00     0.006 C 
BRANCH   9  10
ATOM     10  C   UNL     1      -5.687 -18.895  24.681  1.00  0.00     0.053 C 
BRANCH  10  11
ATOM     11  C   UNL     1      -5.306 -18.066  23.492  1.00  0.00     0.041 C 
ATOM     12  O   UNL     1      -4.114 -17.695  23.334  1.00  0.00    -0.550 OA
ATOM     13  O   UNL     1      -6.263 -17.730  22.542  1.00  0.00    -0.550 OA
ENDBRANCH  10  11
ENDBRANCH   9  10
ENDBRANCH   8   9
ENDBRANCH   1   8
TORSDOF 8
ENDMDL
