MODEL 1
REMARK VINA RESULT:    -3.290      0.000      0.000
REMARK INTER + INTRA:          -3.804
REMARK INTER:                  -3.675
REMARK INTRA:                  -0.130
REMARK UNBOUND:                -0.130
REMARK SMILES COc1cc2ccc(=O)oc2cc1OC
REMARK SMILES IDX 3 1 13 2 12 3 11 4 5 5 4 6 6 7 7 8 8 9 9 10 10 11 2 12 1 13
REMARK SMILES IDX 14 14 15 15
REMARK H PARENT
REMARK Flexibility Score: inf
ROOT
ATOM      1  C   UNL     1     -29.920 -20.063 -32.697  1.00  0.00     0.161 A 
ATOM      2  C   UNL     1     -31.210 -19.653 -32.321  1.00  0.00     0.164 A 
ATOM      3  C   UNL     1     -32.319 -20.027 -33.106  1.00  0.00     0.098 A 
ATOM      4  C   UNL     1     -32.143 -20.803 -34.255  1.00  0.00     0.142 A 
ATOM      5  C   UNL     1     -30.849 -21.214 -34.632  1.00  0.00     0.022 A 
ATOM      6  C   UNL     1     -29.743 -20.845 -33.856  1.00  0.00     0.062 A 
ATOM      7  C   UNL     1     -30.706 -21.990 -35.788  1.00  0.00     0.019 A 
ATOM      8  C   UNL     1     -31.839 -22.332 -36.527  1.00  0.00     0.094 A 
ATOM      9  C   UNL     1     -33.091 -21.888 -36.091  1.00  0.00     0.336 A 
ATOM     10  O   UNL     1     -34.125 -22.185 -36.745  1.00  0.00    -0.246 OA
ATOM     11  O   UNL     1     -33.198 -21.151 -34.988  1.00  0.00    -0.423 OA
ENDROOT
BRANCH   1  12
ATOM     12  O   UNL     1     -28.838 -19.672 -31.892  1.00  0.00    -0.493 OA
ATOM     13  C   UNL     1     -27.745 -18.876 -32.337  1.00  0.00     0.278 C 
ENDBRANCH   1  12
BRANCH   2  14
ATOM     14  O   UNL     1     -31.350 -18.875 -31.160  1.00  0.00    -0.493 OA
ATOM     15  C   UNL     1     -31.738 -19.385 -29.889  1.00  0.00     0.278 C 
ENDBRANCH   2  14
TORSDOF 2
ENDMDL
MODEL 2
REMARK VINA RESULT:    -3.121      1.166      2.718
REMARK INTER + INTRA:          -3.615
REMARK INTER:                  -3.527
REMARK INTRA:                  -0.088
REMARK UNBOUND:                -0.130
REMARK SMILES COc1cc2ccc(=O)oc2cc1OC
REMARK SMILES IDX 3 1 13 2 12 3 11 4 5 5 4 6 6 7 7 8 8 9 9 10 10 11 2 12 1 13
REMARK SMILES IDX 14 14 15 15
REMARK H PARENT
REMARK Flexibility Score: inf
ROOT
ATOM      1  C   UNL     1     -31.484 -19.747 -32.679  1.00  0.00     0.161 A 
ATOM      2  C   UNL     1     -30.190 -20.215 -32.958  1.00  0.00     0.164 A 
ATOM      3  C   UNL     1     -29.981 -21.092 -34.042  1.00  0.00     0.098 A 
ATOM      4  C   UNL     1     -31.054 -21.498 -34.840  1.00  0.00     0.142 A 
ATOM      5  C   UNL     1     -32.353 -21.028 -34.560  1.00  0.00     0.022 A 
ATOM      6  C   UNL     1     -32.566 -20.157 -33.485  1.00  0.00     0.062 A 
ATOM      7  C   UNL     1     -33.405 -21.453 -35.378  1.00  0.00     0.019 A 
ATOM      8  C   UNL     1     -33.142 -22.321 -36.438  1.00  0.00     0.094 A 
ATOM      9  C   UNL     1     -31.828 -22.745 -36.654  1.00  0.00     0.336 A 
ATOM     10  O   UNL     1     -31.569 -23.529 -37.605  1.00  0.00    -0.246 OA
ATOM     11  O   UNL     1     -30.845 -22.325 -35.861  1.00  0.00    -0.423 OA
ENDROOT
BRANCH   1  12
ATOM     12  O   UNL     1     -31.656 -18.875 -31.592  1.00  0.00    -0.493 OA
ATOM     13  C   UNL     1     -31.871 -19.291 -30.247  1.00  0.00     0.278 C 
ENDBRANCH   1  12
BRANCH   2  14
ATOM     14  O   UNL     1     -29.135 -19.787 -32.136  1.00  0.00    -0.493 OA
ATOM     15  C   UNL     1     -28.117 -18.875 -32.537  1.00  0.00     0.278 C 
ENDBRANCH   2  14
TORSDOF 2
ENDMDL
MODEL 3
REMARK VINA RESULT:    -2.816      1.632      5.432
REMARK INTER + INTRA:          -3.275
REMARK INTER:                  -3.158
REMARK INTRA:                  -0.117
REMARK UNBOUND:                -0.130
REMARK SMILES COc1cc2ccc(=O)oc2cc1OC
REMARK SMILES IDX 3 1 13 2 12 3 11 4 5 5 4 6 6 7 7 8 8 9 9 10 10 11 2 12 1 13
REMARK SMILES IDX 14 14 15 15
REMARK H PARENT
REMARK Flexibility Score: inf
ROOT
ATOM      1  C   UNL     1     -32.054 -22.310 -36.721  1.00  0.00     0.161 A 
ATOM      2  C   UNL     1     -33.212 -21.516 -36.676  1.00  0.00     0.164 A 
ATOM      3  C   UNL     1     -33.429 -20.655 -35.582  1.00  0.00     0.098 A 
ATOM      4  C   UNL     1     -32.498 -20.588 -34.541  1.00  0.00     0.142 A 
ATOM      5  C   UNL     1     -31.336 -21.385 -34.586  1.00  0.00     0.022 A 
ATOM      6  C   UNL     1     -31.117 -22.241 -35.671  1.00  0.00     0.062 A 
ATOM      7  C   UNL     1     -30.425 -21.293 -33.528  1.00  0.00     0.019 A 
ATOM      8  C   UNL     1     -30.688 -20.424 -32.470  1.00  0.00     0.094 A 
ATOM      9  C   UNL     1     -31.862 -19.665 -32.494  1.00  0.00     0.336 A 
ATOM     10  O   UNL     1     -32.119 -18.875 -31.548  1.00  0.00    -0.246 OA
ATOM     11  O   UNL     1     -32.712 -19.770 -33.512  1.00  0.00    -0.423 OA
ENDROOT
BRANCH   1  12
ATOM     12  O   UNL     1     -31.871 -23.156 -37.827  1.00  0.00    -0.493 OA
ATOM     13  C   UNL     1     -31.844 -24.578 -37.762  1.00  0.00     0.278 C 
ENDBRANCH   1  12
BRANCH   2  14
ATOM     14  O   UNL     1     -34.125 -21.609 -37.740  1.00  0.00    -0.493 OA
ATOM     15  C   UNL     1     -34.124 -20.758 -38.882  1.00  0.00     0.278 C 
ENDBRANCH   2  14
TORSDOF 2
ENDMDL
MODEL 4
REMARK VINA RESULT:    -2.599      1.347      5.598
REMARK INTER + INTRA:          -3.033
REMARK INTER:                  -3.197
REMARK INTRA:                   0.164
REMARK UNBOUND:                -0.130
REMARK SMILES COc1cc2ccc(=O)oc2cc1OC
REMARK SMILES IDX 3 1 13 2 12 3 11 4 5 5 4 6 6 7 7 8 8 9 9 10 10 11 2 12 1 13
REMARK SMILES IDX 14 14 15 15
REMARK H PARENT
REMARK Flexibility Score: inf
ROOT
ATOM      1  C   UNL     1     -32.487 -21.107 -34.900  1.00  0.00     0.161 A 
ATOM      2  C   UNL     1     -31.216 -21.514 -35.339  1.00  0.00     0.164 A 
ATOM      3  C   UNL     1     -30.073 -21.159 -34.596  1.00  0.00     0.098 A 
ATOM      4  C   UNL     1     -30.196 -20.404 -33.427  1.00  0.00     0.142 A 
ATOM      5  C   UNL     1     -31.471 -19.996 -32.986  1.00  0.00     0.022 A 
ATOM      6  C   UNL     1     -32.610 -20.346 -33.720  1.00  0.00     0.062 A 
ATOM      7  C   UNL     1     -31.560 -19.241 -31.811  1.00  0.00     0.019 A 
ATOM      8  C   UNL     1     -30.395 -18.918 -31.115  1.00  0.00     0.094 A 
ATOM      9  C   UNL     1     -29.165 -19.359 -31.612  1.00  0.00     0.336 A 
ATOM     10  O   UNL     1     -28.102 -19.077 -30.999  1.00  0.00    -0.246 OA
ATOM     11  O   UNL     1     -29.108 -20.075 -32.732  1.00  0.00    -0.423 OA
ENDROOT
BRANCH   1  12
ATOM     12  O   UNL     1     -33.605 -21.479 -35.664  1.00  0.00    -0.493 OA
ATOM     13  C   UNL     1     -34.125 -20.727 -36.756  1.00  0.00     0.278 C 
ENDBRANCH   1  12
BRANCH   2  14
ATOM     14  O   UNL     1     -31.130 -22.272 -36.518  1.00  0.00    -0.493 OA
ATOM     15  C   UNL     1     -31.657 -23.586 -36.674  1.00  0.00     0.278 C 
ENDBRANCH   2  14
TORSDOF 2
ENDMDL
MODEL 5
REMARK VINA RESULT:    -2.355      1.684      2.705
REMARK INTER + INTRA:          -2.760
REMARK INTER:                  -2.627
REMARK INTRA:                  -0.133
REMARK UNBOUND:                -0.130
REMARK SMILES COc1cc2ccc(=O)oc2cc1OC
REMARK SMILES IDX 3 1 13 2 12 3 11 4 5 5 4 6 6 7 7 8 8 9 9 10 10 11 2 12 1 13
REMARK SMILES IDX 14 14 15 15
REMARK H PARENT
REMARK Flexibility Score: inf
ROOT
ATOM      1  C   UNL     1     -31.801 -19.595 -32.066  1.00  0.00     0.161 A 
ATOM      2  C   UNL     1     -31.188 -20.843 -32.263  1.00  0.00     0.164 A 
ATOM      3  C   UNL     1     -31.477 -21.590 -33.422  1.00  0.00     0.098 A 
ATOM      4  C   UNL     1     -32.369 -21.096 -34.377  1.00  0.00     0.142 A 
ATOM      5  C   UNL     1     -32.985 -19.843 -34.180  1.00  0.00     0.022 A 
ATOM      6  C   UNL     1     -32.701 -19.097 -33.030  1.00  0.00     0.062 A 
ATOM      7  C   UNL     1     -33.873 -19.376 -35.155  1.00  0.00     0.019 A 
ATOM      8  C   UNL     1     -34.123 -20.156 -36.284  1.00  0.00     0.094 A 
ATOM      9  C   UNL     1     -33.475 -21.389 -36.411  1.00  0.00     0.336 A 
ATOM     10  O   UNL     1     -33.688 -22.108 -37.422  1.00  0.00    -0.246 OA
ATOM     11  O   UNL     1     -32.635 -21.809 -35.469  1.00  0.00    -0.423 OA
ENDROOT
BRANCH   1  12
ATOM     12  O   UNL     1     -31.489 -18.878 -30.899  1.00  0.00    -0.493 OA
ATOM     13  C   UNL     1     -32.263 -18.902 -29.704  1.00  0.00     0.278 C 
ENDBRANCH   1  12
BRANCH   2  14
ATOM     14  O   UNL     1     -30.296 -21.309 -31.283  1.00  0.00    -0.493 OA
ATOM     15  C   UNL     1     -30.650 -22.190 -30.222  1.00  0.00     0.278 C 
ENDBRANCH   2  14
TORSDOF 2
ENDMDL
MODEL 6
REMARK VINA RESULT:    -1.441      1.742      1.989
REMARK INTER + INTRA:          -1.739
REMARK INTER:                  -2.755
REMARK INTRA:                   1.016
REMARK UNBOUND:                -0.130
REMARK SMILES COc1cc2ccc(=O)oc2cc1OC
REMARK SMILES IDX 3 1 13 2 12 3 11 4 5 5 4 6 6 7 7 8 8 9 9 10 10 11 2 12 1 13
REMARK SMILES IDX 14 14 15 15
REMARK H PARENT
REMARK Flexibility Score: inf
ROOT
ATOM      1  C   UNL     1     -31.419 -21.137 -32.623  1.00  0.00     0.161 A 
ATOM      2  C   UNL     1     -32.041 -19.915 -32.926  1.00  0.00     0.164 A 
ATOM      3  C   UNL     1     -32.718 -19.759 -34.153  1.00  0.00     0.098 A 
ATOM      4  C   UNL     1     -32.774 -20.814 -35.067  1.00  0.00     0.142 A 
ATOM      5  C   UNL     1     -32.151 -22.041 -34.763  1.00  0.00     0.022 A 
ATOM      6  C   UNL     1     -31.477 -22.201 -33.546  1.00  0.00     0.062 A 
ATOM      7  C   UNL     1     -32.226 -23.077 -35.700  1.00  0.00     0.019 A 
ATOM      8  C   UNL     1     -32.910 -22.869 -36.898  1.00  0.00     0.094 A 
ATOM      9  C   UNL     1     -33.504 -21.625 -37.131  1.00  0.00     0.336 A 
ATOM     10  O   UNL     1     -34.125 -21.416 -38.206  1.00  0.00    -0.246 OA
ATOM     11  O   UNL     1     -33.418 -20.656 -36.223  1.00  0.00    -0.423 OA
ENDROOT
BRANCH   1  12
ATOM     12  O   UNL     1     -30.754 -21.257 -31.392  1.00  0.00    -0.493 OA
ATOM     13  C   UNL     1     -30.825 -22.397 -30.542  1.00  0.00     0.278 C 
ENDBRANCH   1  12
BRANCH   2  14
ATOM     14  O   UNL     1     -31.964 -18.877 -31.983  1.00  0.00    -0.493 OA
ATOM     15  C   UNL     1     -31.107 -18.881 -30.846  1.00  0.00     0.278 C 
ENDBRANCH   2  14
TORSDOF 2
ENDMDL
MODEL 7
REMARK VINA RESULT:    -1.057      1.794      5.515
REMARK INTER + INTRA:          -1.310
REMARK INTER:                  -2.349
REMARK INTRA:                   1.039
REMARK UNBOUND:                -0.130
REMARK SMILES COc1cc2ccc(=O)oc2cc1OC
REMARK SMILES IDX 3 1 13 2 12 3 11 4 5 5 4 6 6 7 7 8 8 9 9 10 10 11 2 12 1 13
REMARK SMILES IDX 14 14 15 15
REMARK H PARENT
REMARK Flexibility Score: inf
ROOT
ATOM      1  C   UNL     1     -33.060 -20.087 -34.895  1.00  0.00     0.161 A 
ATOM      2  C   UNL     1     -32.306 -21.271 -34.945  1.00  0.00     0.164 A 
ATOM      3  C   UNL     1     -31.517 -21.645 -33.839  1.00  0.00     0.098 A 
ATOM      4  C   UNL     1     -31.481 -20.845 -32.693  1.00  0.00     0.142 A 
ATOM      5  C   UNL     1     -32.238 -19.657 -32.643  1.00  0.00     0.022 A 
ATOM      6  C   UNL     1     -33.024 -19.281 -33.739  1.00  0.00     0.062 A 
ATOM      7  C   UNL     1     -32.181 -18.879 -31.482  1.00  0.00     0.019 A 
ATOM      8  C   UNL     1     -31.384 -19.297 -30.416  1.00  0.00     0.094 A 
ATOM      9  C   UNL     1     -30.661 -20.487 -30.538  1.00  0.00     0.336 A 
ATOM     10  O   UNL     1     -29.935 -20.881 -29.588  1.00  0.00    -0.246 OA
ATOM     11  O   UNL     1     -30.733 -21.209 -31.654  1.00  0.00    -0.423 OA
ENDROOT
BRANCH   1  12
ATOM     12  O   UNL     1     -33.835 -19.745 -36.015  1.00  0.00    -0.493 OA
ATOM     13  C   UNL     1     -33.916 -20.516 -37.209  1.00  0.00     0.278 C 
ENDBRANCH   1  12
BRANCH   2  14
ATOM     14  O   UNL     1     -32.366 -22.050 -36.112  1.00  0.00    -0.493 OA
ATOM     15  C   UNL     1     -31.345 -22.948 -36.536  1.00  0.00     0.278 C 
ENDBRANCH   2  14
TORSDOF 2
ENDMDL
