MODEL 1
REMARK VINA RESULT:    -5.178      0.000      0.000
REMARK INTER + INTRA:         -11.572
REMARK INTER:                  -9.415
REMARK INTRA:                  -2.157
REMARK UNBOUND:                -2.157
REMARK SMILES CCCCCCCCCCCCCC[C@H](C)C(=O)[O-]
REMARK SMILES IDX 9 1 10 2 11 3 12 4 13 5 14 6 15 7 16 8 17 9 18 10 19 11 8 12
REMARK SMILES IDX 7 13 6 14 5 15 4 16 3 17 2 18 1 19
REMARK H PARENT
REMARK Flexibility Score: inf
ROOT
ATOM      1  C   UNL     1      45.847 -12.846 -39.454  1.00  0.00     0.000 C 
ENDROOT
BRANCH   1   2
ATOM      2  C   UNL     1      45.180 -11.458 -39.533  1.00  0.00     0.000 C 
BRANCH   2   3
ATOM      3  C   UNL     1      43.722 -11.401 -39.036  1.00  0.00     0.000 C 
BRANCH   3   4
ATOM      4  C   UNL     1      43.516 -10.645 -37.712  1.00  0.00     0.000 C 
BRANCH   4   5
ATOM      5  C   UNL     1      43.184 -11.579 -36.537  1.00  0.00     0.001 C 
BRANCH   5   6
ATOM      6  C   UNL     1      44.358 -11.661 -35.551  1.00  0.00     0.009 C 
BRANCH   6   7
ATOM      7  C   UNL     1      44.311 -12.945 -34.696  1.00  0.00     0.032 C 
ATOM      8  C   UNL     1      43.453 -14.017 -35.378  1.00  0.00     0.014 C 
BRANCH   7   9
ATOM      9  C   UNL     1      43.784 -12.668 -33.313  1.00  0.00     0.044 C 
ATOM     10  O   UNL     1      43.249 -11.560 -33.041  1.00  0.00    -0.550 OA
ATOM     11  O   UNL     1      43.887 -13.640 -32.326  1.00  0.00    -0.550 OA
ENDBRANCH   7   9
ENDBRANCH   6   7
ENDBRANCH   5   6
ENDBRANCH   4   5
ENDBRANCH   3   4
ENDBRANCH   2   3
ENDBRANCH   1   2
BRANCH   1  12
ATOM     12  C   UNL     1      46.774 -13.058 -38.243  1.00  0.00     0.000 C 
BRANCH  12  13
ATOM     13  C   UNL     1      46.477 -14.363 -37.486  1.00  0.00    -0.000 C 
BRANCH  13  14
ATOM     14  C   UNL     1      47.344 -14.525 -36.227  1.00  0.00    -0.000 C 
BRANCH  14  15
ATOM     15  C   UNL     1      48.092 -13.232 -35.851  1.00  0.00    -0.000 C 
BRANCH  15  16
ATOM     16  C   UNL     1      48.240 -13.053 -34.332  1.00  0.00    -0.000 C 
BRANCH  16  17
ATOM     17  C   UNL     1      47.524 -14.158 -33.536  1.00  0.00    -0.000 C 
BRANCH  17  18
ATOM     18  C   UNL     1      48.297 -14.570 -32.273  1.00  0.00    -0.003 C 
ATOM     19  C   UNL     1      48.181 -13.544 -31.146  1.00  0.00     0.004 C 
ENDBRANCH  17  18
ENDBRANCH  16  17
ENDBRANCH  15  16
ENDBRANCH  14  15
ENDBRANCH  13  14
ENDBRANCH  12  13
ENDBRANCH   1  12
TORSDOF 14
ENDMDL
MODEL 2
REMARK VINA RESULT:    -5.168      1.914      5.577
REMARK INTER + INTRA:         -11.555
REMARK INTER:                  -9.389
REMARK INTRA:                  -2.166
REMARK UNBOUND:                -2.157
REMARK SMILES CCCCCCCCCCCCCC[C@H](C)C(=O)[O-]
REMARK SMILES IDX 9 1 10 2 11 3 12 4 13 5 14 6 15 7 16 8 17 9 18 10 19 11 8 12
REMARK SMILES IDX 7 13 6 14 5 15 4 16 3 17 2 18 1 19
REMARK H PARENT
REMARK Flexibility Score: inf
ROOT
ATOM      1  C   UNL     1      43.685 -11.886 -35.443  1.00  0.00     0.000 C 
ENDROOT
BRANCH   1   2
ATOM      2  C   UNL     1      43.098 -12.728 -34.292  1.00  0.00     0.000 C 
BRANCH   2   3
ATOM      3  C   UNL     1      43.457 -12.242 -32.874  1.00  0.00     0.000 C 
BRANCH   3   4
ATOM      4  C   UNL     1      44.525 -13.081 -32.150  1.00  0.00     0.000 C 
BRANCH   4   5
ATOM      5  C   UNL     1      44.660 -14.500 -32.727  1.00  0.00     0.001 C 
BRANCH   5   6
ATOM      6  C   UNL     1      46.137 -14.902 -32.856  1.00  0.00     0.009 C 
BRANCH   6   7
ATOM      7  C   UNL     1      47.053 -13.684 -33.093  1.00  0.00     0.032 C 
ATOM      8  C   UNL     1      47.880 -13.870 -34.371  1.00  0.00     0.014 C 
BRANCH   7   9
ATOM      9  C   UNL     1      47.967 -13.444 -31.921  1.00  0.00     0.044 C 
ATOM     10  O   UNL     1      48.082 -12.293 -31.423  1.00  0.00    -0.550 OA
ATOM     11  O   UNL     1      48.691 -14.499 -31.381  1.00  0.00    -0.550 OA
ENDBRANCH   7   9
ENDBRANCH   6   7
ENDBRANCH   5   6
ENDBRANCH   4   5
ENDBRANCH   3   4
ENDBRANCH   2   3
ENDBRANCH   1   2
BRANCH   1  12
ATOM     12  C   UNL     1      44.929 -12.485 -36.124  1.00  0.00     0.000 C 
BRANCH  12  13
ATOM     13  C   UNL     1      44.827 -14.008 -36.315  1.00  0.00    -0.000 C 
BRANCH  13  14
ATOM     14  C   UNL     1      45.659 -14.508 -37.509  1.00  0.00    -0.000 C 
BRANCH  14  15
ATOM     15  C   UNL     1      46.185 -13.359 -38.388  1.00  0.00    -0.000 C 
BRANCH  15  16
ATOM     16  C   UNL     1      45.418 -13.227 -39.713  1.00  0.00    -0.000 C 
BRANCH  16  17
ATOM     17  C   UNL     1      45.154 -11.761 -40.099  1.00  0.00    -0.000 C 
BRANCH  17  18
ATOM     18  C   UNL     1      43.665 -11.477 -40.353  1.00  0.00    -0.003 C 
ATOM     19  C   UNL     1      42.853 -11.373 -39.062  1.00  0.00     0.004 C 
ENDBRANCH  17  18
ENDBRANCH  16  17
ENDBRANCH  15  16
ENDBRANCH  14  15
ENDBRANCH  13  14
ENDBRANCH  12  13
ENDBRANCH   1  12
TORSDOF 14
ENDMDL
MODEL 3
REMARK VINA RESULT:    -5.094      2.172      5.310
REMARK INTER + INTRA:         -11.420
REMARK INTER:                  -9.449
REMARK INTRA:                  -1.972
REMARK UNBOUND:                -2.157
REMARK SMILES CCCCCCCCCCCCCC[C@H](C)C(=O)[O-]
REMARK SMILES IDX 9 1 10 2 11 3 12 4 13 5 14 6 15 7 16 8 17 9 18 10 19 11 8 12
REMARK SMILES IDX 7 13 6 14 5 15 4 16 3 17 2 18 1 19
REMARK H PARENT
REMARK Flexibility Score: inf
ROOT
ATOM      1  C   UNL     1      43.888 -10.487 -37.232  1.00  0.00     0.000 C 
ENDROOT
BRANCH   1   2
ATOM      2  C   UNL     1      44.109 -11.614 -36.205  1.00  0.00     0.000 C 
BRANCH   2   3
ATOM      3  C   UNL     1      43.046 -12.731 -36.217  1.00  0.00     0.000 C 
BRANCH   3   4
ATOM      4  C   UNL     1      42.660 -13.277 -34.831  1.00  0.00     0.000 C 
BRANCH   4   5
ATOM      5  C   UNL     1      43.215 -12.424 -33.679  1.00  0.00     0.001 C 
BRANCH   5   6
ATOM      6  C   UNL     1      44.090 -13.270 -32.741  1.00  0.00     0.009 C 
BRANCH   6   7
ATOM      7  C   UNL     1      44.550 -14.585 -33.404  1.00  0.00     0.032 C 
ATOM      8  C   UNL     1      44.333 -15.771 -32.457  1.00  0.00     0.014 C 
BRANCH   7   9
ATOM      9  C   UNL     1      45.996 -14.517 -33.820  1.00  0.00     0.044 C 
ATOM     10  O   UNL     1      46.311 -14.178 -34.991  1.00  0.00    -0.550 OA
ATOM     11  O   UNL     1      46.994 -14.831 -32.906  1.00  0.00    -0.550 OA
ENDBRANCH   7   9
ENDBRANCH   6   7
ENDBRANCH   5   6
ENDBRANCH   4   5
ENDBRANCH   3   4
ENDBRANCH   2   3
ENDBRANCH   1   2
BRANCH   1  12
ATOM     12  C   UNL     1      42.416 -10.120 -37.495  1.00  0.00     0.000 C 
BRANCH  12  13
ATOM     13  C   UNL     1      42.097  -9.969 -38.992  1.00  0.00    -0.000 C 
BRANCH  13  14
ATOM     14  C   UNL     1      42.260 -11.289 -39.764  1.00  0.00    -0.000 C 
BRANCH  14  15
ATOM     15  C   UNL     1      43.035 -11.114 -41.083  1.00  0.00    -0.000 C 
BRANCH  15  16
ATOM     16  C   UNL     1      44.229 -12.075 -41.200  1.00  0.00    -0.000 C 
BRANCH  16  17
ATOM     17  C   UNL     1      45.228 -11.919 -40.041  1.00  0.00    -0.000 C 
BRANCH  17  18
ATOM     18  C   UNL     1      45.567 -13.260 -39.371  1.00  0.00    -0.003 C 
ATOM     19  C   UNL     1      46.770 -13.166 -38.432  1.00  0.00     0.004 C 
ENDBRANCH  17  18
ENDBRANCH  16  17
ENDBRANCH  15  16
ENDBRANCH  14  15
ENDBRANCH  13  14
ENDBRANCH  12  13
ENDBRANCH   1  12
TORSDOF 14
ENDMDL
MODEL 4
REMARK VINA RESULT:    -5.084      2.952      4.647
REMARK INTER + INTRA:         -11.402
REMARK INTER:                  -9.119
REMARK INTRA:                  -2.283
REMARK UNBOUND:                -2.157
REMARK SMILES CCCCCCCCCCCCCC[C@H](C)C(=O)[O-]
REMARK SMILES IDX 9 1 10 2 11 3 12 4 13 5 14 6 15 7 16 8 17 9 18 10 19 11 8 12
REMARK SMILES IDX 7 13 6 14 5 15 4 16 3 17 2 18 1 19
REMARK H PARENT
REMARK Flexibility Score: inf
ROOT
ATOM      1  C   UNL     1      47.064 -14.230 -36.398  1.00  0.00     0.000 C 
ENDROOT
BRANCH   1   2
ATOM      2  C   UNL     1      45.636 -13.757 -36.062  1.00  0.00     0.000 C 
BRANCH   2   3
ATOM      3  C   UNL     1      45.543 -12.373 -35.391  1.00  0.00     0.000 C 
BRANCH   3   4
ATOM      4  C   UNL     1      44.198 -11.648 -35.578  1.00  0.00     0.000 C 
BRANCH   4   5
ATOM      5  C   UNL     1      43.555 -11.928 -36.945  1.00  0.00     0.001 C 
BRANCH   5   6
ATOM      6  C   UNL     1      44.235 -11.105 -38.051  1.00  0.00     0.009 C 
BRANCH   6   7
ATOM      7  C   UNL     1      44.590 -11.966 -39.281  1.00  0.00     0.032 C 
ATOM      8  C   UNL     1      46.110 -12.085 -39.436  1.00  0.00     0.014 C 
BRANCH   7   9
ATOM      9  C   UNL     1      43.987 -11.402 -40.541  1.00  0.00     0.044 C 
ATOM     10  O   UNL     1      43.352 -10.315 -40.517  1.00  0.00    -0.550 OA
ATOM     11  O   UNL     1      44.132 -12.085 -41.742  1.00  0.00    -0.550 OA
ENDBRANCH   7   9
ENDBRANCH   6   7
ENDBRANCH   5   6
ENDBRANCH   4   5
ENDBRANCH   3   4
ENDBRANCH   2   3
ENDBRANCH   1   2
BRANCH   1  12
ATOM     12  C   UNL     1      48.188 -13.264 -35.982  1.00  0.00     0.000 C 
BRANCH  12  13
ATOM     13  C   UNL     1      49.052 -13.813 -34.834  1.00  0.00    -0.000 C 
BRANCH  13  14
ATOM     14  C   UNL     1      48.625 -13.263 -33.462  1.00  0.00    -0.000 C 
BRANCH  14  15
ATOM     15  C   UNL     1      48.275 -14.377 -32.459  1.00  0.00    -0.000 C 
BRANCH  15  16
ATOM     16  C   UNL     1      46.841 -14.904 -32.636  1.00  0.00    -0.000 C 
BRANCH  16  17
ATOM     17  C   UNL     1      45.778 -13.864 -32.243  1.00  0.00    -0.000 C 
BRANCH  17  18
ATOM     18  C   UNL     1      44.345 -14.373 -32.463  1.00  0.00    -0.003 C 
ATOM     19  C   UNL     1      44.297 -15.689 -33.240  1.00  0.00     0.004 C 
ENDBRANCH  17  18
ENDBRANCH  16  17
ENDBRANCH  15  16
ENDBRANCH  14  15
ENDBRANCH  13  14
ENDBRANCH  12  13
ENDBRANCH   1  12
TORSDOF 14
ENDMDL
MODEL 5
REMARK VINA RESULT:    -5.050      1.622      3.009
REMARK INTER + INTRA:         -11.341
REMARK INTER:                  -9.350
REMARK INTRA:                  -1.991
REMARK UNBOUND:                -2.157
REMARK SMILES CCCCCCCCCCCCCC[C@H](C)C(=O)[O-]
REMARK SMILES IDX 9 1 10 2 11 3 12 4 13 5 14 6 15 7 16 8 17 9 18 10 19 11 8 12
REMARK SMILES IDX 7 13 6 14 5 15 4 16 3 17 2 18 1 19
REMARK H PARENT
REMARK Flexibility Score: inf
ROOT
ATOM      1  C   UNL     1      43.007 -11.146 -38.973  1.00  0.00     0.000 C 
ENDROOT
BRANCH   1   2
ATOM      2  C   UNL     1      43.484 -10.421 -37.698  1.00  0.00     0.000 C 
BRANCH   2   3
ATOM      3  C   UNL     1      43.300 -11.209 -36.387  1.00  0.00     0.000 C 
BRANCH   3   4
ATOM      4  C   UNL     1      42.148 -12.230 -36.398  1.00  0.00     0.000 C 
BRANCH   4   5
ATOM      5  C   UNL     1      42.099 -13.087 -35.123  1.00  0.00     0.001 C 
BRANCH   5   6
ATOM      6  C   UNL     1      43.352 -12.863 -34.262  1.00  0.00     0.009 C 
BRANCH   6   7
ATOM      7  C   UNL     1      44.191 -14.149 -34.110  1.00  0.00     0.032 C 
ATOM      8  C   UNL     1      43.569 -15.297 -34.913  1.00  0.00     0.014 C 
BRANCH   7   9
ATOM      9  C   UNL     1      44.330 -14.549 -32.665  1.00  0.00     0.044 C 
ATOM     10  O   UNL     1      44.006 -13.752 -31.745  1.00  0.00    -0.550 OA
ATOM     11  O   UNL     1      44.819 -15.808 -32.340  1.00  0.00    -0.550 OA
ENDBRANCH   7   9
ENDBRANCH   6   7
ENDBRANCH   5   6
ENDBRANCH   4   5
ENDBRANCH   3   4
ENDBRANCH   2   3
ENDBRANCH   1   2
BRANCH   1  12
ATOM     12  C   UNL     1      43.963 -11.053 -40.175  1.00  0.00     0.000 C 
BRANCH  12  13
ATOM     13  C   UNL     1      44.666 -12.386 -40.482  1.00  0.00    -0.000 C 
BRANCH  13  14
ATOM     14  C   UNL     1      45.926 -12.598 -39.627  1.00  0.00    -0.000 C 
BRANCH  14  15
ATOM     15  C   UNL     1      45.731 -13.669 -38.537  1.00  0.00    -0.000 C 
BRANCH  15  16
ATOM     16  C   UNL     1      46.217 -13.203 -37.156  1.00  0.00    -0.000 C 
BRANCH  16  17
ATOM     17  C   UNL     1      47.146 -14.227 -36.481  1.00  0.00    -0.000 C 
BRANCH  17  18
ATOM     18  C   UNL     1      47.682 -13.735 -35.128  1.00  0.00    -0.003 C 
ATOM     19  C   UNL     1      49.049 -13.060 -35.242  1.00  0.00     0.004 C 
ENDBRANCH  17  18
ENDBRANCH  16  17
ENDBRANCH  15  16
ENDBRANCH  14  15
ENDBRANCH  13  14
ENDBRANCH  12  13
ENDBRANCH   1  12
TORSDOF 14
ENDMDL
MODEL 6
REMARK VINA RESULT:    -5.050      1.702      4.381
REMARK INTER + INTRA:         -11.340
REMARK INTER:                  -9.142
REMARK INTRA:                  -2.198
REMARK UNBOUND:                -2.157
REMARK SMILES CCCCCCCCCCCCCC[C@H](C)C(=O)[O-]
REMARK SMILES IDX 9 1 10 2 11 3 12 4 13 5 14 6 15 7 16 8 17 9 18 10 19 11 8 12
REMARK SMILES IDX 7 13 6 14 5 15 4 16 3 17 2 18 1 19
REMARK H PARENT
REMARK Flexibility Score: inf
ROOT
ATOM      1  C   UNL     1      44.576 -11.398 -40.016  1.00  0.00     0.000 C 
ENDROOT
BRANCH   1   2
ATOM      2  C   UNL     1      45.155 -12.826 -40.002  1.00  0.00     0.000 C 
BRANCH   2   3
ATOM      3  C   UNL     1      46.289 -13.064 -38.986  1.00  0.00     0.000 C 
BRANCH   3   4
ATOM      4  C   UNL     1      45.856 -13.744 -37.675  1.00  0.00     0.000 C 
BRANCH   4   5
ATOM      5  C   UNL     1      46.613 -13.210 -36.448  1.00  0.00     0.001 C 
BRANCH   5   6
ATOM      6  C   UNL     1      46.508 -14.188 -35.269  1.00  0.00     0.009 C 
BRANCH   6   7
ATOM      7  C   UNL     1      47.199 -13.646 -34.000  1.00  0.00     0.032 C 
ATOM      8  C   UNL     1      48.684 -13.376 -34.267  1.00  0.00     0.014 C 
BRANCH   7   9
ATOM      9  C   UNL     1      47.049 -14.595 -32.841  1.00  0.00     0.044 C 
ATOM     10  O   UNL     1      47.850 -14.551 -31.869  1.00  0.00    -0.550 OA
ATOM     11  O   UNL     1      46.021 -15.529 -32.840  1.00  0.00    -0.550 OA
ENDBRANCH   7   9
ENDBRANCH   6   7
ENDBRANCH   5   6
ENDBRANCH   4   5
ENDBRANCH   3   4
ENDBRANCH   2   3
ENDBRANCH   1   2
BRANCH   1  12
ATOM     12  C   UNL     1      43.039 -11.313 -39.962  1.00  0.00     0.000 C 
BRANCH  12  13
ATOM     13  C   UNL     1      42.493 -11.320 -38.525  1.00  0.00    -0.000 C 
BRANCH  13  14
ATOM     14  C   UNL     1      43.346 -10.472 -37.566  1.00  0.00    -0.000 C 
BRANCH  14  15
ATOM     15  C   UNL     1      43.575 -11.161 -36.208  1.00  0.00    -0.000 C 
BRANCH  15  16
ATOM     16  C   UNL     1      42.824 -12.497 -36.088  1.00  0.00    -0.000 C 
BRANCH  16  17
ATOM     17  C   UNL     1      42.742 -12.999 -34.635  1.00  0.00    -0.000 C 
BRANCH  17  18
ATOM     18  C   UNL     1      43.495 -12.088 -33.654  1.00  0.00    -0.003 C 
ATOM     19  C   UNL     1      43.787 -12.769 -32.317  1.00  0.00     0.004 C 
ENDBRANCH  17  18
ENDBRANCH  16  17
ENDBRANCH  15  16
ENDBRANCH  14  15
ENDBRANCH  13  14
ENDBRANCH  12  13
ENDBRANCH   1  12
TORSDOF 14
ENDMDL
MODEL 7
REMARK VINA RESULT:    -5.032      1.514      4.949
REMARK INTER + INTRA:         -11.307
REMARK INTER:                  -9.241
REMARK INTRA:                  -2.066
REMARK UNBOUND:                -2.157
REMARK SMILES CCCCCCCCCCCCCC[C@H](C)C(=O)[O-]
REMARK SMILES IDX 9 1 10 2 11 3 12 4 13 5 14 6 15 7 16 8 17 9 18 10 19 11 8 12
REMARK SMILES IDX 7 13 6 14 5 15 4 16 3 17 2 18 1 19
REMARK H PARENT
REMARK Flexibility Score: inf
ROOT
ATOM      1  C   UNL     1      46.703 -12.749 -38.992  1.00  0.00     0.000 C 
ENDROOT
BRANCH   1   2
ATOM      2  C   UNL     1      45.907 -13.807 -38.202  1.00  0.00     0.000 C 
BRANCH   2   3
ATOM      3  C   UNL     1      46.700 -14.539 -37.102  1.00  0.00     0.000 C 
BRANCH   3   4
ATOM      4  C   UNL     1      47.618 -13.640 -36.254  1.00  0.00     0.000 C 
BRANCH   4   5
ATOM      5  C   UNL     1      47.221 -13.615 -34.770  1.00  0.00     0.001 C 
BRANCH   5   6
ATOM      6  C   UNL     1      45.785 -13.098 -34.593  1.00  0.00     0.009 C 
BRANCH   6   7
ATOM      7  C   UNL     1      44.966 -13.976 -33.624  1.00  0.00     0.032 C 
ATOM      8  C   UNL     1      44.093 -14.968 -34.401  1.00  0.00     0.014 C 
BRANCH   7   9
ATOM      9  C   UNL     1      44.107 -13.139 -32.713  1.00  0.00     0.044 C 
ATOM     10  O   UNL     1      43.437 -12.176 -33.171  1.00  0.00    -0.550 OA
ATOM     11  O   UNL     1      44.051 -13.430 -31.356  1.00  0.00    -0.550 OA
ENDBRANCH   7   9
ENDBRANCH   6   7
ENDBRANCH   5   6
ENDBRANCH   4   5
ENDBRANCH   3   4
ENDBRANCH   2   3
ENDBRANCH   1   2
BRANCH   1  12
ATOM     12  C   UNL     1      45.847 -11.722 -39.755  1.00  0.00     0.000 C 
BRANCH  12  13
ATOM     13  C   UNL     1      44.614 -12.353 -40.424  1.00  0.00    -0.000 C 
BRANCH  13  14
ATOM     14  C   UNL     1      43.657 -11.300 -41.008  1.00  0.00    -0.000 C 
BRANCH  14  15
ATOM     15  C   UNL     1      42.459 -11.010 -40.086  1.00  0.00    -0.000 C 
BRANCH  15  16
ATOM     16  C   UNL     1      42.648  -9.732 -39.253  1.00  0.00    -0.000 C 
BRANCH  16  17
ATOM     17  C   UNL     1      42.408  -9.966 -37.751  1.00  0.00    -0.000 C 
BRANCH  17  18
ATOM     18  C   UNL     1      43.469 -10.882 -37.121  1.00  0.00    -0.003 C 
ATOM     19  C   UNL     1      42.884 -12.195 -36.599  1.00  0.00     0.004 C 
ENDBRANCH  17  18
ENDBRANCH  16  17
ENDBRANCH  15  16
ENDBRANCH  14  15
ENDBRANCH  13  14
ENDBRANCH  12  13
ENDBRANCH   1  12
TORSDOF 14
ENDMDL
MODEL 8
REMARK VINA RESULT:    -5.009      4.051      7.704
REMARK INTER + INTRA:         -11.265
REMARK INTER:                  -9.151
REMARK INTRA:                  -2.115
REMARK UNBOUND:                -2.157
REMARK SMILES CCCCCCCCCCCCCC[C@H](C)C(=O)[O-]
REMARK SMILES IDX 9 1 10 2 11 3 12 4 13 5 14 6 15 7 16 8 17 9 18 10 19 11 8 12
REMARK SMILES IDX 7 13 6 14 5 15 4 16 3 17 2 18 1 19
REMARK H PARENT
REMARK Flexibility Score: inf
ROOT
ATOM      1  C   UNL     1      43.203 -12.348 -43.591  1.00  0.00     0.000 C 
ENDROOT
BRANCH   1   2
ATOM      2  C   UNL     1      43.576 -11.441 -42.401  1.00  0.00     0.000 C 
BRANCH   2   3
ATOM      3  C   UNL     1      43.509 -12.114 -41.016  1.00  0.00     0.000 C 
BRANCH   3   4
ATOM      4  C   UNL     1      44.664 -11.757 -40.063  1.00  0.00     0.000 C 
BRANCH   4   5
ATOM      5  C   UNL     1      44.513 -10.360 -39.441  1.00  0.00     0.001 C 
BRANCH   5   6
ATOM      6  C   UNL     1      44.237 -10.457 -37.933  1.00  0.00     0.009 C 
BRANCH   6   7
ATOM      7  C   UNL     1      43.921 -11.900 -37.491  1.00  0.00     0.032 C 
ATOM      8  C   UNL     1      42.523 -11.980 -36.867  1.00  0.00     0.014 C 
BRANCH   7   9
ATOM      9  C   UNL     1      44.947 -12.418 -36.519  1.00  0.00     0.044 C 
ATOM     10  O   UNL     1      44.833 -12.190 -35.285  1.00  0.00    -0.550 OA
ATOM     11  O   UNL     1      46.030 -13.153 -36.982  1.00  0.00    -0.550 OA
ENDBRANCH   7   9
ENDBRANCH   6   7
ENDBRANCH   5   6
ENDBRANCH   4   5
ENDBRANCH   3   4
ENDBRANCH   2   3
ENDBRANCH   1   2
BRANCH   1  12
ATOM     12  C   UNL     1      42.422 -11.655 -44.722  1.00  0.00     0.000 C 
BRANCH  12  13
ATOM     13  C   UNL     1      40.906 -11.898 -44.636  1.00  0.00    -0.000 C 
BRANCH  13  14
ATOM     14  C   UNL     1      40.119 -10.611 -44.339  1.00  0.00    -0.000 C 
BRANCH  14  15
ATOM     15  C   UNL     1      40.994  -9.346 -44.426  1.00  0.00    -0.000 C 
BRANCH  15  16
ATOM     16  C   UNL     1      41.107  -8.611 -43.082  1.00  0.00    -0.000 C 
BRANCH  16  17
ATOM     17  C   UNL     1      40.498  -9.412 -41.917  1.00  0.00    -0.000 C 
BRANCH  17  18
ATOM     18  C   UNL     1      41.128  -9.054 -40.563  1.00  0.00    -0.003 C 
ATOM     19  C   UNL     1      40.833 -10.091 -39.479  1.00  0.00     0.004 C 
ENDBRANCH  17  18
ENDBRANCH  16  17
ENDBRANCH  15  16
ENDBRANCH  14  15
ENDBRANCH  13  14
ENDBRANCH  12  13
ENDBRANCH   1  12
TORSDOF 14
ENDMDL
MODEL 9
REMARK VINA RESULT:    -4.971      3.795      7.649
REMARK INTER + INTRA:         -11.196
REMARK INTER:                  -9.490
REMARK INTRA:                  -1.706
REMARK UNBOUND:                -2.157
REMARK SMILES CCCCCCCCCCCCCC[C@H](C)C(=O)[O-]
REMARK SMILES IDX 9 1 10 2 11 3 12 4 13 5 14 6 15 7 16 8 17 9 18 10 19 11 8 12
REMARK SMILES IDX 7 13 6 14 5 15 4 16 3 17 2 18 1 19
REMARK H PARENT
REMARK Flexibility Score: inf
ROOT
ATOM      1  C   UNL     1      43.878 -12.403 -41.354  1.00  0.00     0.000 C 
ENDROOT
BRANCH   1   2
ATOM      2  C   UNL     1      44.602 -11.664 -40.211  1.00  0.00     0.000 C 
BRANCH   2   3
ATOM      3  C   UNL     1      43.808 -10.509 -39.569  1.00  0.00     0.000 C 
BRANCH   3   4
ATOM      4  C   UNL     1      42.418 -10.895 -39.031  1.00  0.00     0.000 C 
BRANCH   4   5
ATOM      5  C   UNL     1      42.486 -11.641 -37.689  1.00  0.00     0.001 C 
BRANCH   5   6
ATOM      6  C   UNL     1      43.504 -10.983 -36.745  1.00  0.00     0.009 C 
BRANCH   6   7
ATOM      7  C   UNL     1      44.279 -12.023 -35.909  1.00  0.00     0.032 C 
ATOM      8  C   UNL     1      45.151 -12.902 -36.814  1.00  0.00     0.014 C 
BRANCH   7   9
ATOM      9  C   UNL     1      43.347 -12.885 -35.100  1.00  0.00     0.044 C 
ATOM     10  O   UNL     1      42.651 -12.385 -34.176  1.00  0.00    -0.550 OA
ATOM     11  O   UNL     1      43.250 -14.244 -35.371  1.00  0.00    -0.550 OA
ENDBRANCH   7   9
ENDBRANCH   6   7
ENDBRANCH   5   6
ENDBRANCH   4   5
ENDBRANCH   3   4
ENDBRANCH   2   3
ENDBRANCH   1   2
BRANCH   1  12
ATOM     12  C   UNL     1      43.498 -11.528 -42.562  1.00  0.00     0.000 C 
BRANCH  12  13
ATOM     13  C   UNL     1      43.408 -12.328 -43.872  1.00  0.00    -0.000 C 
BRANCH  13  14
ATOM     14  C   UNL     1      42.455 -11.683 -44.892  1.00  0.00    -0.000 C 
BRANCH  14  15
ATOM     15  C   UNL     1      40.977 -12.024 -44.621  1.00  0.00    -0.000 C 
BRANCH  15  16
ATOM     16  C   UNL     1      40.127 -10.779 -44.325  1.00  0.00    -0.000 C 
BRANCH  16  17
ATOM     17  C   UNL     1      40.954  -9.482 -44.341  1.00  0.00    -0.000 C 
BRANCH  17  18
ATOM     18  C   UNL     1      40.813  -8.677 -43.040  1.00  0.00    -0.003 C 
ATOM     19  C   UNL     1      40.505  -9.558 -41.829  1.00  0.00     0.004 C 
ENDBRANCH  17  18
ENDBRANCH  16  17
ENDBRANCH  15  16
ENDBRANCH  14  15
ENDBRANCH  13  14
ENDBRANCH  12  13
ENDBRANCH   1  12
TORSDOF 14
ENDMDL
