MODEL 1
REMARK VINA RESULT:    14.581      0.000      0.000
REMARK INTER + INTRA:          22.585
REMARK INTER:                  21.400
REMARK INTRA:                   1.185
REMARK UNBOUND:                 1.185
REMARK SMILES C=C1CC=CC(C)(C)CC=C(C)CCC1
REMARK SMILES IDX 2 1 1 2 15 3 14 4 13 5 11 6 12 7 10 8 3 10 4 11 5 12 6 13
REMARK SMILES IDX 7 14 8 15 9 16
REMARK H PARENT
REMARK Flexibility Score: 60.00
ROOT
ATOM      1  C   UNL     1     145.221 147.835 164.497  1.00  0.00    -0.074 C 
ATOM      2  C   UNL     1     145.189 147.402 165.770  1.00  0.00     0.008 C 
ENDROOT
BRANCH   1   3
ATOM      3  C   UNL     1     144.888 149.291 164.203  1.00  0.00     0.031 C 
BRANCH   3   4
ATOM      4  C   UNL     1     144.278 149.499 162.799  1.00  0.00     0.009 C 
BRANCH   4   5
ATOM      5  C   UNL     1     145.358 149.838 161.749  1.00  0.00     0.030 C 
BRANCH   5   6
ATOM      6  C   UNL     1     144.976 149.484 160.319  1.00  0.00    -0.077 C 
ATOM      7  C   UNL     1     144.209 150.491 159.501  1.00  0.00     0.039 C 
ATOM      8  C   UNL     1     145.380 148.343 159.709  1.00  0.00    -0.027 CG0
ATOM      9  G   UNL     1     146.077 147.196 160.403  1.00  0.00     0.000 G0
ENDBRANCH   5   6
ENDBRANCH   4   5
ENDBRANCH   3   4
ENDBRANCH   1   3
BRANCH   1  10
ATOM     10  C   UNL     1     145.703 146.927 163.375  1.00  0.00     0.057 C 
BRANCH  10  11
ATOM     11  C   UNL     1     144.641 146.022 162.762  1.00  0.00    -0.026 C 
ATOM     12  C   UNL     1     144.541 145.526 161.499  1.00  0.00    -0.024 C 
BRANCH  12  13
ATOM     13  C   UNL     1     145.434 145.770 160.273  1.00  0.00    -0.014 C 
ATOM     14  C   UNL     1     144.534 145.764 159.013  1.00  0.00     0.016 C 
ATOM     15  C   UNL     1     146.440 144.608 160.098  1.00  0.00     0.016 C 
BRANCH  13  16
ATOM     16  C   UNL     1     146.086 147.181 160.378  1.00  0.00     0.038 CG0
ATOM     17  G   UNL     1     145.360 148.310 159.687  1.00  0.00     0.000 G0
ENDBRANCH  13  16
ENDBRANCH  12  13
ENDBRANCH  10  11
ENDBRANCH   1  10
TORSDOF 0
ENDMDL
MODEL 2
REMARK VINA RESULT:    14.800      2.173      3.548
REMARK INTER + INTRA:          22.907
REMARK INTER:                  21.718
REMARK INTRA:                   1.189
REMARK UNBOUND:                 1.185
REMARK SMILES C=C1CC=CC(C)(C)CC=C(C)CCC1
REMARK SMILES IDX 2 1 1 2 15 3 14 4 13 5 11 6 12 7 10 8 3 10 4 11 5 12 6 13
REMARK SMILES IDX 7 14 8 15 9 16
REMARK H PARENT
REMARK Flexibility Score: 60.00
ROOT
ATOM      1  C   UNL     1     145.403 143.853 165.489  1.00  0.00    -0.074 C 
ATOM      2  C   UNL     1     146.022 142.771 165.992  1.00  0.00     0.008 C 
ENDROOT
BRANCH   1   3
ATOM      3  C   UNL     1     145.358 145.130 166.315  1.00  0.00     0.031 C 
BRANCH   3   4
ATOM      4  C   UNL     1     145.924 146.357 165.563  1.00  0.00     0.009 C 
BRANCH   4   5
ATOM      5  C   UNL     1     144.937 147.544 165.579  1.00  0.00     0.030 C 
BRANCH   5   6
ATOM      6  C   UNL     1     144.994 148.424 164.339  1.00  0.00    -0.077 C 
ATOM      7  C   UNL     1     145.194 149.908 164.509  1.00  0.00     0.039 C 
ATOM      8  C   UNL     1     144.973 147.924 163.079  1.00  0.00    -0.027 CG0
ATOM      9  G   UNL     1     144.694 146.481 162.729  1.00  0.00     0.000 G0
ENDBRANCH   5   6
ENDBRANCH   4   5
ENDBRANCH   3   4
ENDBRANCH   1   3
BRANCH   1  10
ATOM     10  C   UNL     1     144.860 143.852 164.067  1.00  0.00     0.057 C 
BRANCH  10  11
ATOM     11  C   UNL     1     145.909 143.775 162.964  1.00  0.00    -0.026 C 
ATOM     12  C   UNL     1     146.134 144.610 161.914  1.00  0.00    -0.024 C 
BRANCH  12  13
ATOM     13  C   UNL     1     145.363 145.863 161.472  1.00  0.00    -0.014 C 
ATOM     14  C   UNL     1     144.274 145.426 160.461  1.00  0.00     0.016 C 
ATOM     15  C   UNL     1     146.299 146.834 160.715  1.00  0.00     0.016 C 
BRANCH  13  16
ATOM     16  C   UNL     1     144.639 146.488 162.701  1.00  0.00     0.038 CG0
ATOM     17  G   UNL     1     144.995 147.918 163.035  1.00  0.00     0.000 G0
ENDBRANCH  13  16
ENDBRANCH  12  13
ENDBRANCH  10  11
ENDBRANCH   1  10
TORSDOF 0
ENDMDL
MODEL 3
REMARK VINA RESULT:    15.091      2.884      5.002
REMARK INTER + INTRA:          23.335
REMARK INTER:                  22.148
REMARK INTRA:                   1.187
REMARK UNBOUND:                 1.185
REMARK SMILES C=C1CC=CC(C)(C)CC=C(C)CCC1
REMARK SMILES IDX 2 1 1 2 15 3 14 4 13 5 11 6 12 7 10 8 3 10 4 11 5 12 6 13
REMARK SMILES IDX 7 14 8 15 9 16
REMARK H PARENT
REMARK Flexibility Score: 60.00
ROOT
ATOM      1  C   UNL     1     145.392 146.754 165.558  1.00  0.00    -0.074 C 
ATOM      2  C   UNL     1     144.894 147.923 166.000  1.00  0.00     0.008 C 
ENDROOT
BRANCH   1   3
ATOM      3  C   UNL     1     145.245 145.513 166.425  1.00  0.00     0.031 C 
BRANCH   3   4
ATOM      4  C   UNL     1     144.802 144.266 165.626  1.00  0.00     0.009 C 
BRANCH   4   5
ATOM      5  C   UNL     1     145.957 143.257 165.452  1.00  0.00     0.030 C 
BRANCH   5   6
ATOM      6  C   UNL     1     145.820 142.350 164.238  1.00  0.00    -0.077 C 
ATOM      7  C   UNL     1     145.535 140.886 164.452  1.00  0.00     0.039 C 
ATOM      8  C   UNL     1     145.844 142.815 162.965  1.00  0.00    -0.027 CG0
ATOM      9  G   UNL     1     146.201 144.229 162.571  1.00  0.00     0.000 G0
ENDBRANCH   5   6
ENDBRANCH   4   5
ENDBRANCH   3   4
ENDBRANCH   1   3
BRANCH   1  10
ATOM     10  C   UNL     1     145.985 146.636 164.161  1.00  0.00     0.057 C 
BRANCH  10  11
ATOM     11  C   UNL     1     145.021 146.913 163.014  1.00  0.00    -0.026 C 
ATOM     12  C   UNL     1     144.761 146.181 161.897  1.00  0.00    -0.024 C 
BRANCH  12  13
ATOM     13  C   UNL     1     145.400 144.872 161.409  1.00  0.00    -0.014 C 
ATOM     14  C   UNL     1     146.390 145.217 160.269  1.00  0.00     0.016 C 
ATOM     15  C   UNL     1     144.327 143.945 160.791  1.00  0.00     0.016 C 
BRANCH  13  16
ATOM     16  C   UNL     1     146.220 144.231 162.567  1.00  0.00     0.038 CG0
ATOM     17  G   UNL     1     145.839 142.823 162.961  1.00  0.00     0.000 G0
ENDBRANCH  13  16
ENDBRANCH  12  13
ENDBRANCH  10  11
ENDBRANCH   1  10
TORSDOF 0
ENDMDL
MODEL 4
REMARK VINA RESULT:    15.458      2.707      4.576
REMARK INTER + INTRA:          23.874
REMARK INTER:                  21.247
REMARK INTRA:                   2.627
REMARK UNBOUND:                 1.185
REMARK SMILES C=C1CC=CC(C)(C)CC=C(C)CCC1
REMARK SMILES IDX 2 1 1 2 15 3 14 4 13 5 11 6 12 7 10 8 3 10 4 11 5 12 6 13
REMARK SMILES IDX 7 14 8 15 9 16
REMARK H PARENT
REMARK Flexibility Score: 60.00
ROOT
ATOM      1  C   UNL     1     145.951 142.177 164.265  1.00  0.00    -0.074 C 
ATOM      2  C   UNL     1     146.119 140.884 163.938  1.00  0.00     0.008 C 
ENDROOT
BRANCH   1   3
ATOM      3  C   UNL     1     145.712 142.546 165.722  1.00  0.00     0.031 C 
BRANCH   3   4
ATOM      4  C   UNL     1     145.391 144.045 165.921  1.00  0.00     0.009 C 
BRANCH   4   5
ATOM      5  C   UNL     1     144.712 144.656 164.676  1.00  0.00     0.030 C 
BRANCH   5   6
ATOM      6  C   UNL     1     145.275 146.004 164.253  1.00  0.00    -0.077 C 
ATOM      7  C   UNL     1     145.948 146.869 165.288  1.00  0.00     0.039 C 
ATOM      8  C   UNL     1     145.290 146.426 162.964  1.00  0.00    -0.027 CG0
ATOM      9  G   UNL     1     144.588 145.728 161.823  1.00  0.00     0.000 G0
ENDBRANCH   5   6
ENDBRANCH   4   5
ENDBRANCH   3   4
ENDBRANCH   1   3
BRANCH   1  10
ATOM     10  C   UNL     1     146.120 143.275 163.224  1.00  0.00     0.057 C 
BRANCH  10  11
ATOM     11  C   UNL     1     145.784 142.878 161.792  1.00  0.00    -0.026 C 
ATOM     12  C   UNL     1     145.515 143.658 160.711  1.00  0.00    -0.024 C 
BRANCH  12  13
ATOM     13  C   UNL     1     145.408 145.188 160.604  1.00  0.00    -0.014 C 
ATOM     14  C   UNL     1     144.661 145.527 159.291  1.00  0.00     0.016 C 
ATOM     15  C   UNL     1     146.814 145.821 160.485  1.00  0.00     0.016 C 
BRANCH  13  16
ATOM     16  C   UNL     1     144.551 145.732 161.786  1.00  0.00     0.038 CG0
ATOM     17  G   UNL     1     145.306 146.398 162.912  1.00  0.00     0.000 G0
ENDBRANCH  13  16
ENDBRANCH  12  13
ENDBRANCH  10  11
ENDBRANCH   1  10
TORSDOF 0
ENDMDL
MODEL 5
REMARK VINA RESULT:    15.479      3.185      5.611
REMARK INTER + INTRA:          23.903
REMARK INTER:                  22.449
REMARK INTRA:                   1.454
REMARK UNBOUND:                 1.185
REMARK SMILES C=C1CC=CC(C)(C)CC=C(C)CCC1
REMARK SMILES IDX 2 1 1 2 15 3 14 4 13 5 11 6 12 7 10 8 3 10 4 11 5 12 6 13
REMARK SMILES IDX 7 14 8 15 9 16
REMARK H PARENT
REMARK Flexibility Score: 60.00
ROOT
ATOM      1  C   UNL     1     145.441 143.259 164.636  1.00  0.00    -0.074 C 
ATOM      2  C   UNL     1     145.403 143.517 165.955  1.00  0.00     0.008 C 
ENDROOT
BRANCH   1   3
ATOM      3  C   UNL     1     145.752 141.845 164.168  1.00  0.00     0.031 C 
BRANCH   3   4
ATOM      4  C   UNL     1     146.417 141.802 162.773  1.00  0.00     0.009 C 
BRANCH   4   5
ATOM      5  C   UNL     1     145.621 140.921 161.786  1.00  0.00     0.030 C 
BRANCH   5   6
ATOM      6  C   UNL     1     145.804 141.296 160.323  1.00  0.00    -0.077 C 
ATOM      7  C   UNL     1     146.415 140.287 159.385  1.00  0.00     0.039 C 
ATOM      8  C   UNL     1     145.351 142.461 159.798  1.00  0.00    -0.027 CG0
ATOM      9  G   UNL     1     144.796 143.610 160.605  1.00  0.00     0.000 G0
ENDBRANCH   5   6
ENDBRANCH   4   5
ENDBRANCH   3   4
ENDBRANCH   1   3
BRANCH   1  10
ATOM     10  C   UNL     1     145.059 144.326 163.620  1.00  0.00     0.057 C 
BRANCH  10  11
ATOM     11  C   UNL     1     146.225 145.011 162.917  1.00  0.00    -0.026 C 
ATOM     12  C   UNL     1     146.393 145.314 161.602  1.00  0.00    -0.024 C 
BRANCH  12  13
ATOM     13  C   UNL     1     145.488 145.009 160.398  1.00  0.00    -0.014 C 
ATOM     14  C   UNL     1     146.381 144.919 159.137  1.00  0.00     0.016 C 
ATOM     15  C   UNL     1     144.503 146.176 160.154  1.00  0.00     0.016 C 
BRANCH  13  16
ATOM     16  C   UNL     1     144.811 143.621 160.596  1.00  0.00     0.038 CG0
ATOM     17  G   UNL     1     145.372 142.478 159.783  1.00  0.00     0.000 G0
ENDBRANCH  13  16
ENDBRANCH  12  13
ENDBRANCH  10  11
ENDBRANCH   1  10
TORSDOF 0
ENDMDL
MODEL 6
REMARK VINA RESULT:    15.560      2.499      4.666
REMARK INTER + INTRA:          24.022
REMARK INTER:                  22.650
REMARK INTRA:                   1.372
REMARK UNBOUND:                 1.185
REMARK SMILES C=C1CC=CC(C)(C)CC=C(C)CCC1
REMARK SMILES IDX 2 1 1 2 15 3 14 4 13 5 11 6 12 7 10 8 3 10 4 11 5 12 6 13
REMARK SMILES IDX 7 14 8 15 9 16
REMARK H PARENT
REMARK Flexibility Score: 60.00
ROOT
ATOM      1  C   UNL     1     145.057 148.078 164.685  1.00  0.00    -0.074 C 
ATOM      2  C   UNL     1     144.637 149.347 164.533  1.00  0.00     0.008 C 
ENDROOT
BRANCH   1   3
ATOM      3  C   UNL     1     145.753 147.386 163.523  1.00  0.00     0.031 C 
BRANCH   3   4
ATOM      4  C   UNL     1     145.000 147.549 162.183  1.00  0.00     0.009 C 
BRANCH   4   5
ATOM      5  C   UNL     1     144.423 146.208 161.682  1.00  0.00     0.030 C 
BRANCH   5   6
ATOM      6  C   UNL     1     145.357 145.020 161.854  1.00  0.00    -0.077 C 
ATOM      7  C   UNL     1     146.236 144.613 160.698  1.00  0.00     0.039 C 
ATOM      8  C   UNL     1     145.512 144.367 163.032  1.00  0.00    -0.027 CG0
ATOM      9  G   UNL     1     144.656 144.588 164.257  1.00  0.00     0.000 G0
ENDBRANCH   5   6
ENDBRANCH   4   5
ENDBRANCH   3   4
ENDBRANCH   1   3
BRANCH   1  10
ATOM     10  C   UNL     1     144.955 147.378 166.033  1.00  0.00     0.057 C 
BRANCH  10  11
ATOM     11  C   UNL     1     146.104 146.436 166.371  1.00  0.00    -0.026 C 
ATOM     12  C   UNL     1     146.209 145.091 166.195  1.00  0.00    -0.024 C 
BRANCH  12  13
ATOM     13  C   UNL     1     145.180 144.086 165.656  1.00  0.00    -0.014 C 
ATOM     14  C   UNL     1     143.983 144.050 166.638  1.00  0.00     0.016 C 
ATOM     15  C   UNL     1     145.776 142.659 165.639  1.00  0.00     0.016 C 
BRANCH  13  16
ATOM     16  C   UNL     1     144.644 144.580 164.280  1.00  0.00     0.038 CG0
ATOM     17  G   UNL     1     145.539 144.345 163.086  1.00  0.00     0.000 G0
ENDBRANCH  13  16
ENDBRANCH  12  13
ENDBRANCH  10  11
ENDBRANCH   1  10
TORSDOF 0
ENDMDL
MODEL 7
REMARK VINA RESULT:    15.739      2.699      5.218
REMARK INTER + INTRA:          24.285
REMARK INTER:                  22.205
REMARK INTRA:                   2.080
REMARK UNBOUND:                 1.185
REMARK SMILES C=C1CC=CC(C)(C)CC=C(C)CCC1
REMARK SMILES IDX 2 1 1 2 15 3 14 4 13 5 11 6 12 7 10 8 3 10 4 11 5 12 6 13
REMARK SMILES IDX 7 14 8 15 9 16
REMARK H PARENT
REMARK Flexibility Score: 60.00
ROOT
ATOM      1  C   UNL     1     145.743 142.635 164.571  1.00  0.00    -0.074 C 
ATOM      2  C   UNL     1     146.087 141.354 164.350  1.00  0.00     0.008 C 
ENDROOT
BRANCH   1   3
ATOM      3  C   UNL     1     145.120 143.439 163.438  1.00  0.00     0.031 C 
BRANCH   3   4
ATOM      4  C   UNL     1     145.859 143.259 162.093  1.00  0.00     0.009 C 
BRANCH   4   5
ATOM      5  C   UNL     1     146.284 144.614 161.487  1.00  0.00     0.030 C 
BRANCH   5   6
ATOM      6  C   UNL     1     145.328 145.760 161.781  1.00  0.00    -0.077 C 
ATOM      7  C   UNL     1     144.391 146.222 160.694  1.00  0.00     0.039 C 
ATOM      8  C   UNL     1     145.207 146.324 163.008  1.00  0.00    -0.027 CG0
ATOM      9  G   UNL     1     146.119 146.042 164.178  1.00  0.00     0.000 G0
ENDBRANCH   5   6
ENDBRANCH   4   5
ENDBRANCH   3   4
ENDBRANCH   1   3
BRANCH   1  10
ATOM     10  C   UNL     1     145.852 143.245 165.961  1.00  0.00     0.057 C 
BRANCH  10  11
ATOM     11  C   UNL     1     144.730 144.200 166.349  1.00  0.00    -0.026 C 
ATOM     12  C   UNL     1     144.634 145.546 166.180  1.00  0.00    -0.024 C 
BRANCH  12  13
ATOM     13  C   UNL     1     145.651 146.540 165.599  1.00  0.00    -0.014 C 
ATOM     14  C   UNL     1     146.891 146.556 166.527  1.00  0.00     0.016 C 
ATOM     15  C   UNL     1     145.074 147.975 165.616  1.00  0.00     0.016 C 
BRANCH  13  16
ATOM     16  C   UNL     1     146.118 146.046 164.198  1.00  0.00     0.038 CG0
ATOM     17  G   UNL     1     145.199 146.349 163.038  1.00  0.00     0.000 G0
ENDBRANCH  13  16
ENDBRANCH  12  13
ENDBRANCH  10  11
ENDBRANCH   1  10
TORSDOF 0
ENDMDL
MODEL 8
REMARK VINA RESULT:    16.489      3.098      5.524
REMARK INTER + INTRA:          25.387
REMARK INTER:                  24.011
REMARK INTRA:                   1.375
REMARK UNBOUND:                 1.185
REMARK SMILES C=C1CC=CC(C)(C)CC=C(C)CCC1
REMARK SMILES IDX 2 1 1 2 15 3 14 4 13 5 11 6 12 7 10 8 3 10 4 11 5 12 6 13
REMARK SMILES IDX 7 14 8 15 9 16
REMARK H PARENT
REMARK Flexibility Score: 60.00
ROOT
ATOM      1  C   UNL     1     145.738 143.272 164.543  1.00  0.00    -0.074 C 
ATOM      2  C   UNL     1     145.174 143.803 165.642  1.00  0.00     0.008 C 
ENDROOT
BRANCH   1   3
ATOM      3  C   UNL     1     145.928 141.765 164.464  1.00  0.00     0.031 C 
BRANCH   3   4
ATOM      4  C   UNL     1     145.433 141.162 163.129  1.00  0.00     0.009 C 
BRANCH   4   5
ATOM      5  C   UNL     1     146.481 141.319 162.006  1.00  0.00     0.030 C 
BRANCH   5   6
ATOM      6  C   UNL     1     145.892 141.400 160.606  1.00  0.00    -0.077 C 
ATOM      7  C   UNL     1     145.411 140.134 159.944  1.00  0.00     0.039 C 
ATOM      8  C   UNL     1     145.685 142.574 159.960  1.00  0.00    -0.027 CG0
ATOM      9  G   UNL     1     146.182 143.918 160.437  1.00  0.00     0.000 G0
ENDBRANCH   5   6
ENDBRANCH   4   5
ENDBRANCH   3   4
ENDBRANCH   1   3
BRANCH   1  10
ATOM     10  C   UNL     1     146.070 144.142 163.338  1.00  0.00     0.057 C 
BRANCH  10  11
ATOM     11  C   UNL     1     144.969 145.097 162.894  1.00  0.00    -0.026 C 
ATOM     12  C   UNL     1     144.602 145.483 161.643  1.00  0.00    -0.024 C 
BRANCH  12  13
ATOM     13  C   UNL     1     145.219 145.124 160.282  1.00  0.00    -0.014 C 
ATOM     14  C   UNL     1     146.064 146.331 159.805  1.00  0.00     0.016 C 
ATOM     15  C   UNL     1     144.110 144.921 159.223  1.00  0.00     0.016 C 
BRANCH  13  16
ATOM     16  C   UNL     1     146.182 143.913 160.452  1.00  0.00     0.038 CG0
ATOM     17  G   UNL     1     145.664 142.572 159.987  1.00  0.00     0.000 G0
ENDBRANCH  13  16
ENDBRANCH  12  13
ENDBRANCH  10  11
ENDBRANCH   1  10
TORSDOF 0
ENDMDL
