MODEL 1
REMARK VINA RESULT:    -5.120      0.000      0.000
REMARK INTER + INTRA:          -5.939
REMARK INTER:                  -5.718
REMARK INTRA:                  -0.220
REMARK UNBOUND:                -0.220
REMARK SMILES CC(C)c1ccc(C(=O)[O-])cc1
REMARK SMILES IDX 7 1 6 2 11 3 5 4 12 5 4 6 8 7 9 8 10 9 2 10 1 11 3 12
REMARK H PARENT
REMARK Flexibility Score: inf
ROOT
ATOM      1  C   UNL     1      30.463   4.146 -26.735  1.00  0.00    -0.003 A 
ATOM      2  C   UNL     1      31.668   4.131 -26.012  1.00  0.00     0.010 A 
ATOM      3  C   UNL     1      29.249   4.229 -26.035  1.00  0.00     0.010 A 
ATOM      4  C   UNL     1      31.656   4.197 -24.615  1.00  0.00     0.004 A 
ATOM      5  C   UNL     1      29.238   4.295 -24.638  1.00  0.00     0.004 A 
ATOM      6  C   UNL     1      30.441   4.280 -23.913  1.00  0.00    -0.045 A 
ENDROOT
BRANCH   1   7
ATOM      7  C   UNL     1      30.470   4.076 -28.214  1.00  0.00     0.071 C 
ATOM      8  O   UNL     1      29.395   3.924 -28.853  1.00  0.00    -0.545 OA
ATOM      9  O   UNL     1      31.663   4.180 -28.918  1.00  0.00    -0.545 OA
ENDBRANCH   1   7
BRANCH   6  10
ATOM     10  C   UNL     1      30.414   4.353 -22.397  1.00  0.00     0.013 C 
ATOM     11  C   UNL     1      31.822   4.571 -21.830  1.00  0.00     0.012 C 
ATOM     12  C   UNL     1      29.450   5.443 -21.914  1.00  0.00     0.012 C 
ENDBRANCH   6  10
TORSDOF 2
ENDMDL
MODEL 2
REMARK VINA RESULT:    -4.934      0.557      1.749
REMARK INTER + INTRA:          -5.731
REMARK INTER:                  -5.511
REMARK INTRA:                  -0.220
REMARK UNBOUND:                -0.220
REMARK SMILES CC(C)c1ccc(C(=O)[O-])cc1
REMARK SMILES IDX 7 1 6 2 11 3 5 4 12 5 4 6 8 7 9 8 10 9 2 10 1 11 3 12
REMARK H PARENT
REMARK Flexibility Score: inf
ROOT
ATOM      1  C   UNL     1      30.295   4.323 -26.338  1.00  0.00    -0.003 A 
ATOM      2  C   UNL     1      29.121   4.124 -25.591  1.00  0.00     0.010 A 
ATOM      3  C   UNL     1      31.482   4.655 -25.666  1.00  0.00     0.010 A 
ATOM      4  C   UNL     1      29.136   4.254 -24.199  1.00  0.00     0.004 A 
ATOM      5  C   UNL     1      31.497   4.785 -24.274  1.00  0.00     0.004 A 
ATOM      6  C   UNL     1      30.324   4.586 -23.525  1.00  0.00    -0.045 A 
ENDROOT
BRANCH   1   7
ATOM      7  C   UNL     1      30.284   4.187 -27.812  1.00  0.00     0.071 C 
ATOM      8  O   UNL     1      31.341   4.350 -28.478  1.00  0.00    -0.545 OA
ATOM      9  O   UNL     1      29.107   3.875 -28.482  1.00  0.00    -0.545 OA
ENDBRANCH   1   7
BRANCH   6  10
ATOM     10  C   UNL     1      30.356   4.730 -22.014  1.00  0.00     0.013 C 
ATOM     11  C   UNL     1      31.706   5.282 -21.541  1.00  0.00     0.012 C 
ATOM     12  C   UNL     1      29.198   5.604 -21.518  1.00  0.00     0.012 C 
ENDBRANCH   6  10
TORSDOF 2
ENDMDL
MODEL 3
REMARK VINA RESULT:    -4.911      1.759      2.168
REMARK INTER + INTRA:          -5.706
REMARK INTER:                  -5.498
REMARK INTRA:                  -0.208
REMARK UNBOUND:                -0.220
REMARK SMILES CC(C)c1ccc(C(=O)[O-])cc1
REMARK SMILES IDX 7 1 6 2 11 3 5 4 12 5 4 6 8 7 9 8 10 9 2 10 1 11 3 12
REMARK H PARENT
REMARK Flexibility Score: inf
ROOT
ATOM      1  C   UNL     1      30.793   5.558 -25.367  1.00  0.00    -0.003 A 
ATOM      2  C   UNL     1      31.334   6.386 -24.369  1.00  0.00     0.010 A 
ATOM      3  C   UNL     1      29.858   4.575 -25.004  1.00  0.00     0.010 A 
ATOM      4  C   UNL     1      30.946   6.233 -23.034  1.00  0.00     0.004 A 
ATOM      5  C   UNL     1      29.470   4.422 -23.670  1.00  0.00     0.004 A 
ATOM      6  C   UNL     1      30.010   5.249 -22.670  1.00  0.00    -0.045 A 
ENDROOT
BRANCH   1   7
ATOM      7  C   UNL     1      31.201   5.715 -26.781  1.00  0.00     0.071 C 
ATOM      8  O   UNL     1      31.400   6.861 -27.266  1.00  0.00    -0.545 OA
ATOM      9  O   UNL     1      31.371   4.600 -27.593  1.00  0.00    -0.545 OA
ENDBRANCH   1   7
BRANCH   6  10
ATOM     10  C   UNL     1      29.579   5.072 -21.225  1.00  0.00     0.013 C 
ATOM     11  C   UNL     1      30.689   5.510 -20.261  1.00  0.00     0.012 C 
ATOM     12  C   UNL     1      28.273   5.825 -20.941  1.00  0.00     0.012 C 
ENDBRANCH   6  10
TORSDOF 2
ENDMDL
MODEL 4
REMARK VINA RESULT:    -4.851      3.880      5.500
REMARK INTER + INTRA:          -5.638
REMARK INTER:                  -5.435
REMARK INTRA:                  -0.204
REMARK UNBOUND:                -0.220
REMARK SMILES CC(C)c1ccc(C(=O)[O-])cc1
REMARK SMILES IDX 7 1 6 2 11 3 5 4 12 5 4 6 8 7 9 8 10 9 2 10 1 11 3 12
REMARK H PARENT
REMARK Flexibility Score: inf
ROOT
ATOM      1  C   UNL     1      29.599   5.334 -22.041  1.00  0.00    -0.003 A 
ATOM      2  C   UNL     1      29.161   4.577 -23.140  1.00  0.00     0.010 A 
ATOM      3  C   UNL     1      30.756   6.119 -22.172  1.00  0.00     0.010 A 
ATOM      4  C   UNL     1      29.867   4.606 -24.347  1.00  0.00     0.004 A 
ATOM      5  C   UNL     1      31.462   6.148 -23.379  1.00  0.00     0.004 A 
ATOM      6  C   UNL     1      31.025   5.392 -24.480  1.00  0.00    -0.045 A 
ENDROOT
BRANCH   1   7
ATOM      7  C   UNL     1      28.856   5.307 -20.761  1.00  0.00     0.071 C 
ATOM      8  O   UNL     1      27.636   5.621 -20.722  1.00  0.00    -0.545 OA
ATOM      9  O   UNL     1      29.494   4.934 -19.584  1.00  0.00    -0.545 OA
ENDBRANCH   1   7
BRANCH   6  10
ATOM     10  C   UNL     1      31.800   5.433 -25.784  1.00  0.00     0.013 C 
ATOM     11  C   UNL     1      31.789   4.064 -26.475  1.00  0.00     0.012 C 
ATOM     12  C   UNL     1      31.260   6.525 -26.714  1.00  0.00     0.012 C 
ENDBRANCH   6  10
TORSDOF 2
ENDMDL
MODEL 5
REMARK VINA RESULT:    -4.832     24.934     26.074
REMARK INTER + INTRA:          -5.618
REMARK INTER:                  -5.409
REMARK INTRA:                  -0.209
REMARK UNBOUND:                -0.220
REMARK SMILES CC(C)c1ccc(C(=O)[O-])cc1
REMARK SMILES IDX 7 1 6 2 11 3 5 4 12 5 4 6 8 7 9 8 10 9 2 10 1 11 3 12
REMARK H PARENT
REMARK Flexibility Score: inf
ROOT
ATOM      1  C   UNL     1      12.655  21.915 -19.863  1.00  0.00    -0.003 A 
ATOM      2  C   UNL     1      12.031  20.949 -20.669  1.00  0.00     0.010 A 
ATOM      3  C   UNL     1      13.124  23.098 -20.456  1.00  0.00     0.010 A 
ATOM      4  C   UNL     1      11.877  21.163 -22.043  1.00  0.00     0.004 A 
ATOM      5  C   UNL     1      12.971  23.312 -21.830  1.00  0.00     0.004 A 
ATOM      6  C   UNL     1      12.346  22.347 -22.638  1.00  0.00    -0.045 A 
ENDROOT
BRANCH   1   7
ATOM      7  C   UNL     1      12.820  21.693 -18.409  1.00  0.00     0.071 C 
ATOM      8  O   UNL     1      11.879  21.949 -17.611  1.00  0.00    -0.545 OA
ATOM      9  O   UNL     1      14.015  21.196 -17.903  1.00  0.00    -0.545 OA
ENDBRANCH   1   7
BRANCH   6  10
ATOM     10  C   UNL     1      12.186  22.594 -24.127  1.00  0.00     0.013 C 
ATOM     11  C   UNL     1      12.682  23.994 -24.510  1.00  0.00     0.012 C 
ATOM     12  C   UNL     1      12.901  21.512 -24.946  1.00  0.00     0.012 C 
ENDBRANCH   6  10
TORSDOF 2
ENDMDL
MODEL 6
REMARK VINA RESULT:    -4.764     24.150     25.107
REMARK INTER + INTRA:          -5.541
REMARK INTER:                  -5.333
REMARK INTRA:                  -0.208
REMARK UNBOUND:                -0.220
REMARK SMILES CC(C)c1ccc(C(=O)[O-])cc1
REMARK SMILES IDX 7 1 6 2 11 3 5 4 12 5 4 6 8 7 9 8 10 9 2 10 1 11 3 12
REMARK H PARENT
REMARK Flexibility Score: inf
ROOT
ATOM      1  C   UNL     1      12.903  21.917 -25.143  1.00  0.00    -0.003 A 
ATOM      2  C   UNL     1      13.064  20.869 -24.221  1.00  0.00     0.010 A 
ATOM      3  C   UNL     1      12.660  23.214 -24.664  1.00  0.00     0.010 A 
ATOM      4  C   UNL     1      12.984  21.115 -22.847  1.00  0.00     0.004 A 
ATOM      5  C   UNL     1      12.579  23.460 -23.290  1.00  0.00     0.004 A 
ATOM      6  C   UNL     1      12.740  22.414 -22.366  1.00  0.00    -0.045 A 
ENDROOT
BRANCH   1   7
ATOM      7  C   UNL     1      12.987  21.662 -26.598  1.00  0.00     0.071 C 
ATOM      8  O   UNL     1      13.405  22.555 -27.382  1.00  0.00    -0.545 OA
ATOM      9  O   UNL     1      12.608  20.431 -27.120  1.00  0.00    -0.545 OA
ENDBRANCH   1   7
BRANCH   6  10
ATOM     10  C   UNL     1      12.651  22.696 -20.877  1.00  0.00     0.013 C 
ATOM     11  C   UNL     1      11.892  21.579 -20.149  1.00  0.00     0.012 C 
ATOM     12  C   UNL     1      14.043  22.904 -20.269  1.00  0.00     0.012 C 
ENDBRANCH   6  10
TORSDOF 2
ENDMDL
MODEL 7
REMARK VINA RESULT:    -4.734      3.100      5.106
REMARK INTER + INTRA:          -5.508
REMARK INTER:                  -5.291
REMARK INTRA:                  -0.217
REMARK UNBOUND:                -0.220
REMARK SMILES CC(C)c1ccc(C(=O)[O-])cc1
REMARK SMILES IDX 7 1 6 2 11 3 5 4 12 5 4 6 8 7 9 8 10 9 2 10 1 11 3 12
REMARK H PARENT
REMARK Flexibility Score: inf
ROOT
ATOM      1  C   UNL     1      30.692   4.978 -23.891  1.00  0.00    -0.003 A 
ATOM      2  C   UNL     1      31.632   5.235 -24.904  1.00  0.00     0.010 A 
ATOM      3  C   UNL     1      29.476   4.363 -24.230  1.00  0.00     0.010 A 
ATOM      4  C   UNL     1      31.359   4.883 -26.230  1.00  0.00     0.004 A 
ATOM      5  C   UNL     1      29.204   4.011 -25.556  1.00  0.00     0.004 A 
ATOM      6  C   UNL     1      30.143   4.267 -26.570  1.00  0.00    -0.045 A 
ENDROOT
BRANCH   1   7
ATOM      7  C   UNL     1      30.976   5.349 -22.487  1.00  0.00     0.071 C 
ATOM      8  O   UNL     1      32.105   5.118 -21.979  1.00  0.00    -0.545 OA
ATOM      9  O   UNL     1      29.999   5.959 -21.709  1.00  0.00    -0.545 OA
ENDBRANCH   1   7
BRANCH   6  10
ATOM     10  C   UNL     1      29.833   3.879 -28.005  1.00  0.00     0.013 C 
ATOM     11  C   UNL     1      28.330   3.977 -28.290  1.00  0.00     0.012 C 
ATOM     12  C   UNL     1      30.640   4.729 -28.993  1.00  0.00     0.012 C 
ENDBRANCH   6  10
TORSDOF 2
ENDMDL
MODEL 8
REMARK VINA RESULT:    -4.614      4.149      5.660
REMARK INTER + INTRA:          -5.374
REMARK INTER:                  -5.164
REMARK INTRA:                  -0.210
REMARK UNBOUND:                -0.220
REMARK SMILES CC(C)c1ccc(C(=O)[O-])cc1
REMARK SMILES IDX 7 1 6 2 11 3 5 4 12 5 4 6 8 7 9 8 10 9 2 10 1 11 3 12
REMARK H PARENT
REMARK Flexibility Score: inf
ROOT
ATOM      1  C   UNL     1      30.363   5.411 -21.582  1.00  0.00    -0.003 A 
ATOM      2  C   UNL     1      31.406   6.102 -22.222  1.00  0.00     0.010 A 
ATOM      3  C   UNL     1      29.495   4.623 -22.353  1.00  0.00     0.010 A 
ATOM      4  C   UNL     1      31.576   6.005 -23.606  1.00  0.00     0.004 A 
ATOM      5  C   UNL     1      29.665   4.526 -23.738  1.00  0.00     0.004 A 
ATOM      6  C   UNL     1      30.707   5.216 -24.380  1.00  0.00    -0.045 A 
ENDROOT
BRANCH   1   7
ATOM      7  C   UNL     1      30.179   5.511 -20.117  1.00  0.00     0.071 C 
ATOM      8  O   UNL     1      29.437   4.695 -19.507  1.00  0.00    -0.545 OA
ATOM      9  O   UNL     1      30.824   6.505 -19.392  1.00  0.00    -0.545 OA
ENDBRANCH   1   7
BRANCH   6  10
ATOM     10  C   UNL     1      30.880   5.101 -25.883  1.00  0.00     0.013 C 
ATOM     11  C   UNL     1      31.317   6.439 -26.492  1.00  0.00     0.012 C 
ATOM     12  C   UNL     1      31.867   3.984 -26.243  1.00  0.00     0.012 C 
ENDBRANCH   6  10
TORSDOF 2
ENDMDL
MODEL 9
REMARK VINA RESULT:    -4.604     24.839     26.055
REMARK INTER + INTRA:          -5.363
REMARK INTER:                  -5.151
REMARK INTRA:                  -0.212
REMARK UNBOUND:                -0.220
REMARK SMILES CC(C)c1ccc(C(=O)[O-])cc1
REMARK SMILES IDX 7 1 6 2 11 3 5 4 12 5 4 6 8 7 9 8 10 9 2 10 1 11 3 12
REMARK H PARENT
REMARK Flexibility Score: inf
ROOT
ATOM      1  C   UNL     1      12.502  21.972 -20.149  1.00  0.00    -0.003 A 
ATOM      2  C   UNL     1      12.793  23.157 -20.845  1.00  0.00     0.010 A 
ATOM      3  C   UNL     1      12.042  20.856 -20.867  1.00  0.00     0.010 A 
ATOM      4  C   UNL     1      12.628  23.224 -22.232  1.00  0.00     0.004 A 
ATOM      5  C   UNL     1      11.877  20.923 -22.254  1.00  0.00     0.004 A 
ATOM      6  C   UNL     1      12.168  22.108 -22.952  1.00  0.00    -0.045 A 
ENDROOT
BRANCH   1   7
ATOM      7  C   UNL     1      12.675  21.896 -18.681  1.00  0.00     0.071 C 
ATOM      8  O   UNL     1      11.875  22.489 -17.910  1.00  0.00    -0.545 OA
ATOM      9  O   UNL     1      13.724  21.166 -18.133  1.00  0.00    -0.545 OA
ENDBRANCH   1   7
BRANCH   6  10
ATOM     10  C   UNL     1      11.984  22.166 -24.457  1.00  0.00     0.013 C 
ATOM     11  C   UNL     1      12.669  23.404 -25.049  1.00  0.00     0.012 C 
ATOM     12  C   UNL     1      12.490  20.882 -25.126  1.00  0.00     0.012 C 
ENDBRANCH   6  10
TORSDOF 2
ENDMDL
