MODEL 1
REMARK VINA RESULT:    -8.048      0.000      0.000
REMARK INTER + INTRA:         -12.602
REMARK INTER:                 -10.871
REMARK INTRA:                  -1.731
REMARK UNBOUND:                -1.731
REMARK SMILES CC[C@@H](CC[C@@H](C)[C@H]1CC[C@H]2[C@H]3CC(=O)C4=CC(=O)CC[C@]4(C)[C@@H]3CC[C@]12C)C(C)C
REMARK SMILES IDX 4 1 3 2 2 3 1 4 29 5 30 6 31 7 5 8 6 9 7 10 8 11 9 12 27 13
REMARK SMILES IDX 10 14 11 15 26 16 28 17 12 18 25 19 24 20 13 21 22 22 14 23
REMARK SMILES IDX 16 24 21 25 23 26 15 27 17 28 20 29 18 30 19 31
REMARK H PARENT
REMARK Flexibility Score: inf
ROOT
ATOM      1  C   UNL     1      18.887  21.831   9.882  1.00  0.00     0.004 C 
ENDROOT
BRANCH   1   2
ATOM      2  C   UNL     1      20.042  21.763   8.840  1.00  0.00    -0.009 C 
BRANCH   2   3
ATOM      3  C   UNL     1      20.921  20.484   8.991  1.00  0.00     0.000 C 
ATOM      4  C   UNL     1      20.970  19.563   7.774  1.00  0.00     0.004 C 
ENDBRANCH   2   3
BRANCH   2   5
ATOM      5  C   UNL     1      20.885  23.084   8.740  1.00  0.00    -0.014 C 
ATOM      6  C   UNL     1      21.122  23.476   7.271  1.00  0.00     0.007 C 
ATOM      7  C   UNL     1      20.282  24.288   9.499  1.00  0.00     0.007 C 
ENDBRANCH   2   5
ENDBRANCH   1   2
BRANCH   1   8
ATOM      8  C   UNL     1      17.525  21.419   9.282  1.00  0.00     0.004 C 
BRANCH   8   9
ATOM      9  C   UNL     1      16.695  20.379  10.105  1.00  0.00    -0.011 C 
ATOM     10  C   UNL     1      15.192  20.726  10.151  1.00  0.00     0.008 C 
BRANCH   9  11
ATOM     11  C   UNL     1      16.850  18.878   9.666  1.00  0.00    -0.002 C 
ATOM     12  C   UNL     1      17.539  18.635   8.295  1.00  0.00     0.005 C 
ATOM     13  C   UNL     1      17.468  17.817  10.634  1.00  0.00    -0.026 C 
ATOM     14  C   UNL     1      18.178  17.236   8.368  1.00  0.00     0.005 C 
ATOM     15  C   UNL     1      17.602  16.642   9.647  1.00  0.00    -0.001 C 
ATOM     16  C   UNL     1      16.530  17.392  11.816  1.00  0.00     0.007 C 
ATOM     17  C   UNL     1      18.847  18.290  11.181  1.00  0.00     0.012 C 
ATOM     18  C   UNL     1      18.164  15.312  10.218  1.00  0.00     0.004 C 
ATOM     19  C   UNL     1      16.484  15.857  12.076  1.00  0.00     0.005 C 
ATOM     20  C   UNL     1      17.821  15.145  11.728  1.00  0.00     0.003 C 
ATOM     21  C   UNL     1      19.666  15.052  10.005  1.00  0.00     0.085 C 
ATOM     22  C   UNL     1      17.938  13.634  12.173  1.00  0.00    -0.000 C 
ATOM     23  C   UNL     1      20.054  13.734  10.625  1.00  0.00     0.159 C 
ATOM     24  C   UNL     1      19.051  12.929  11.374  1.00  0.00     0.005 C 
ATOM     25  C   UNL     1      16.601  12.866  11.956  1.00  0.00     0.020 C 
ATOM     26  C   UNL     1      18.332  13.589  13.674  1.00  0.00     0.017 C 
ATOM     27  O   UNL     1      21.224  13.294  10.461  1.00  0.00    -0.295 OA
ATOM     28  C   UNL     1      19.075  11.589  11.264  1.00  0.00     0.055 C 
ATOM     29  C   UNL     1      16.712  11.372  12.300  1.00  0.00     0.081 C 
ATOM     30  C   UNL     1      17.954  10.755  11.729  1.00  0.00     0.156 C 
ATOM     31  O   UNL     1      18.039   9.503  11.634  1.00  0.00    -0.295 OA
ENDBRANCH   9  11
ENDBRANCH   8   9
ENDBRANCH   1   8
TORSDOF 6
ENDMDL
MODEL 2
REMARK VINA RESULT:    -7.577      2.586      8.402
REMARK INTER + INTRA:         -11.966
REMARK INTER:                 -10.033
REMARK INTRA:                  -1.933
REMARK UNBOUND:                -1.731
REMARK SMILES CC[C@@H](CC[C@@H](C)[C@H]1CC[C@H]2[C@H]3CC(=O)C4=CC(=O)CC[C@]4(C)[C@@H]3CC[C@]12C)C(C)C
REMARK SMILES IDX 4 1 3 2 2 3 1 4 29 5 30 6 31 7 5 8 6 9 7 10 8 11 9 12 27 13
REMARK SMILES IDX 10 14 11 15 26 16 28 17 12 18 25 19 24 20 13 21 22 22 14 23
REMARK SMILES IDX 16 24 21 25 23 26 15 27 17 28 20 29 18 30 19 31
REMARK H PARENT
REMARK Flexibility Score: inf
ROOT
ATOM      1  C   UNL     1      16.880  11.819  13.543  1.00  0.00     0.004 C 
ENDROOT
BRANCH   1   2
ATOM      2  C   UNL     1      17.199  11.902  12.021  1.00  0.00    -0.009 C 
BRANCH   2   3
ATOM      3  C   UNL     1      16.089  11.261  11.134  1.00  0.00     0.000 C 
ATOM      4  C   UNL     1      14.995  12.209  10.648  1.00  0.00     0.004 C 
ENDBRANCH   2   3
BRANCH   2   5
ATOM      5  C   UNL     1      18.645  11.417  11.649  1.00  0.00    -0.014 C 
ATOM      6  C   UNL     1      18.592  10.211  10.694  1.00  0.00     0.007 C 
ATOM      7  C   UNL     1      19.550  12.511  11.040  1.00  0.00     0.007 C 
ENDBRANCH   2   5
ENDBRANCH   1   2
BRANCH   1   8
ATOM      8  C   UNL     1      17.330  13.082  14.310  1.00  0.00     0.004 C 
BRANCH   8   9
ATOM      9  C   UNL     1      16.678  14.432  13.862  1.00  0.00    -0.011 C 
ATOM     10  C   UNL     1      15.666  14.971  14.894  1.00  0.00     0.008 C 
BRANCH   9  11
ATOM     11  C   UNL     1      17.679  15.585  13.490  1.00  0.00    -0.002 C 
ATOM     12  C   UNL     1      19.189  15.235  13.586  1.00  0.00     0.005 C 
ATOM     13  C   UNL     1      17.523  16.386  12.156  1.00  0.00    -0.026 C 
ATOM     14  C   UNL     1      19.918  16.164  12.596  1.00  0.00     0.005 C 
ATOM     15  C   UNL     1      18.848  17.171  12.192  1.00  0.00    -0.001 C 
ATOM     16  C   UNL     1      16.325  17.397  12.143  1.00  0.00     0.007 C 
ATOM     17  C   UNL     1      17.436  15.428  10.932  1.00  0.00     0.012 C 
ATOM     18  C   UNL     1      19.104  18.162  11.024  1.00  0.00     0.004 C 
ATOM     19  C   UNL     1      16.676  18.796  11.553  1.00  0.00     0.005 C 
ATOM     20  C   UNL     1      17.771  18.729  10.451  1.00  0.00     0.003 C 
ATOM     21  C   UNL     1      19.979  17.650   9.866  1.00  0.00     0.085 C 
ATOM     22  C   UNL     1      18.023  20.063   9.644  1.00  0.00    -0.000 C 
ATOM     23  C   UNL     1      20.119  18.721   8.815  1.00  0.00     0.159 C 
ATOM     24  C   UNL     1      19.402  20.017   8.958  1.00  0.00     0.005 C 
ATOM     25  C   UNL     1      17.964  21.315  10.568  1.00  0.00     0.020 C 
ATOM     26  C   UNL     1      16.946  20.181   8.533  1.00  0.00     0.017 C 
ATOM     27  O   UNL     1      20.890  18.529   7.836  1.00  0.00    -0.295 OA
ATOM     28  C   UNL     1      20.014  21.149   8.568  1.00  0.00     0.055 C 
ATOM     29  C   UNL     1      18.292  22.619   9.824  1.00  0.00     0.081 C 
ATOM     30  C   UNL     1      19.498  22.476   8.944  1.00  0.00     0.156 C 
ATOM     31  O   UNL     1      20.089  23.506   8.528  1.00  0.00    -0.295 OA
ENDBRANCH   9  11
ENDBRANCH   8   9
ENDBRANCH   1   8
TORSDOF 6
ENDMDL
MODEL 3
REMARK VINA RESULT:    -7.452      1.305      2.116
REMARK INTER + INTRA:         -11.797
REMARK INTER:                 -10.381
REMARK INTRA:                  -1.416
REMARK UNBOUND:                -1.731
REMARK SMILES CC[C@@H](CC[C@@H](C)[C@H]1CC[C@H]2[C@H]3CC(=O)C4=CC(=O)CC[C@]4(C)[C@@H]3CC[C@]12C)C(C)C
REMARK SMILES IDX 4 1 3 2 2 3 1 4 29 5 30 6 31 7 5 8 6 9 7 10 8 11 9 12 27 13
REMARK SMILES IDX 10 14 11 15 26 16 28 17 12 18 25 19 24 20 13 21 22 22 14 23
REMARK SMILES IDX 16 24 21 25 23 26 15 27 17 28 20 29 18 30 19 31
REMARK H PARENT
REMARK Flexibility Score: inf
ROOT
ATOM      1  C   UNL     1      21.224  21.988   9.147  1.00  0.00     0.004 C 
ENDROOT
BRANCH   1   2
ATOM      2  C   UNL     1      21.487  23.463   8.724  1.00  0.00    -0.009 C 
BRANCH   2   3
ATOM      3  C   UNL     1      21.444  24.455   9.927  1.00  0.00     0.000 C 
ATOM      4  C   UNL     1      20.966  23.870  11.255  1.00  0.00     0.004 C 
ENDBRANCH   2   3
BRANCH   2   5
ATOM      5  C   UNL     1      20.625  23.938   7.502  1.00  0.00    -0.014 C 
ATOM      6  C   UNL     1      19.706  25.107   7.897  1.00  0.00     0.007 C 
ATOM      7  C   UNL     1      21.445  24.333   6.253  1.00  0.00     0.007 C 
ENDBRANCH   2   5
ENDBRANCH   1   2
BRANCH   1   8
ATOM      8  C   UNL     1      19.907  21.432   8.561  1.00  0.00     0.004 C 
BRANCH   8   9
ATOM      9  C   UNL     1      18.822  20.990   9.598  1.00  0.00    -0.011 C 
ATOM     10  C   UNL     1      17.587  21.913   9.592  1.00  0.00     0.008 C 
BRANCH   9  11
ATOM     11  C   UNL     1      18.336  19.499   9.485  1.00  0.00    -0.002 C 
ATOM     12  C   UNL     1      18.477  18.839   8.086  1.00  0.00     0.005 C 
ATOM     13  C   UNL     1      18.818  18.417  10.505  1.00  0.00    -0.026 C 
ATOM     14  C   UNL     1      18.607  17.323   8.329  1.00  0.00     0.005 C 
ATOM     15  C   UNL     1      18.262  17.163   9.804  1.00  0.00    -0.001 C 
ATOM     16  C   UNL     1      18.176  18.537  11.931  1.00  0.00     0.007 C 
ATOM     17  C   UNL     1      20.371  18.396  10.611  1.00  0.00     0.012 C 
ATOM     18  C   UNL     1      18.490  15.804  10.521  1.00  0.00     0.004 C 
ATOM     19  C   UNL     1      17.700  17.182  12.534  1.00  0.00     0.005 C 
ATOM     20  C   UNL     1      18.563  15.977  12.067  1.00  0.00     0.003 C 
ATOM     21  C   UNL     1      19.690  14.967  10.044  1.00  0.00     0.085 C 
ATOM     22  C   UNL     1      18.294  14.606  12.804  1.00  0.00    -0.000 C 
ATOM     23  C   UNL     1      19.779  13.693  10.843  1.00  0.00     0.159 C 
ATOM     24  C   UNL     1      18.828  13.434  11.958  1.00  0.00     0.005 C 
ATOM     25  C   UNL     1      16.776  14.383  13.068  1.00  0.00     0.020 C 
ATOM     26  C   UNL     1      19.066  14.607  14.150  1.00  0.00     0.017 C 
ATOM     27  O   UNL     1      20.635  12.824  10.527  1.00  0.00    -0.295 OA
ATOM     28  C   UNL     1      18.372  12.183  12.151  1.00  0.00     0.055 C 
ATOM     29  C   UNL     1      16.477  13.017  13.706  1.00  0.00     0.081 C 
ATOM     30  C   UNL     1      17.223  11.906  13.029  1.00  0.00     0.156 C 
ATOM     31  O   UNL     1      16.855  10.715  13.202  1.00  0.00    -0.295 OA
ENDBRANCH   9  11
ENDBRANCH   8   9
ENDBRANCH   1   8
TORSDOF 6
ENDMDL
MODEL 4
REMARK VINA RESULT:    -7.371      3.494      8.909
REMARK INTER + INTRA:         -11.688
REMARK INTER:                  -9.876
REMARK INTRA:                  -1.812
REMARK UNBOUND:                -1.731
REMARK SMILES CC[C@@H](CC[C@@H](C)[C@H]1CC[C@H]2[C@H]3CC(=O)C4=CC(=O)CC[C@]4(C)[C@@H]3CC[C@]12C)C(C)C
REMARK SMILES IDX 4 1 3 2 2 3 1 4 29 5 30 6 31 7 5 8 6 9 7 10 8 11 9 12 27 13
REMARK SMILES IDX 10 14 11 15 26 16 28 17 12 18 25 19 24 20 13 21 22 22 14 23
REMARK SMILES IDX 16 24 21 25 23 26 15 27 17 28 20 29 18 30 19 31
REMARK H PARENT
REMARK Flexibility Score: inf
ROOT
ATOM      1  C   UNL     1      17.103  13.738  11.834  1.00  0.00     0.004 C 
ENDROOT
BRANCH   1   2
ATOM      2  C   UNL     1      17.180  14.720  13.039  1.00  0.00    -0.009 C 
BRANCH   2   3
ATOM      3  C   UNL     1      17.456  13.997  14.393  1.00  0.00     0.000 C 
ATOM      4  C   UNL     1      18.620  14.546  15.215  1.00  0.00     0.004 C 
ENDBRANCH   2   3
BRANCH   2   5
ATOM      5  C   UNL     1      15.983  15.732  13.112  1.00  0.00    -0.014 C 
ATOM      6  C   UNL     1      15.073  15.599  11.878  1.00  0.00     0.007 C 
ATOM      7  C   UNL     1      15.126  15.620  14.393  1.00  0.00     0.007 C 
ENDBRANCH   2   5
ENDBRANCH   1   2
BRANCH   1   8
ATOM      8  C   UNL     1      18.245  13.958  10.818  1.00  0.00     0.004 C 
BRANCH   8   9
ATOM      9  C   UNL     1      19.132  15.227  11.041  1.00  0.00    -0.011 C 
ATOM     10  C   UNL     1      20.634  14.888  11.147  1.00  0.00     0.008 C 
BRANCH   9  11
ATOM     11  C   UNL     1      18.952  16.382   9.990  1.00  0.00    -0.002 C 
ATOM     12  C   UNL     1      17.623  16.372   9.187  1.00  0.00     0.005 C 
ATOM     13  C   UNL     1      19.185  17.876  10.389  1.00  0.00    -0.026 C 
ATOM     14  C   UNL     1      17.351  17.831   8.772  1.00  0.00     0.005 C 
ATOM     15  C   UNL     1      18.650  18.550   9.111  1.00  0.00    -0.001 C 
ATOM     16  C   UNL     1      20.690  18.267  10.587  1.00  0.00     0.007 C 
ATOM     17  C   UNL     1      18.356  18.257  11.650  1.00  0.00     0.012 C 
ATOM     18  C   UNL     1      18.728  20.100   9.056  1.00  0.00     0.004 C 
ATOM     19  C   UNL     1      21.091  19.621   9.928  1.00  0.00     0.005 C 
ATOM     20  C   UNL     1      19.922  20.645   9.894  1.00  0.00     0.003 C 
ATOM     21  C   UNL     1      17.448  20.867   9.435  1.00  0.00     0.085 C 
ATOM     22  C   UNL     1      20.301  22.114   9.453  1.00  0.00    -0.000 C 
ATOM     23  C   UNL     1      17.691  22.352   9.344  1.00  0.00     0.159 C 
ATOM     24  C   UNL     1      19.040  22.875   9.000  1.00  0.00     0.005 C 
ATOM     25  C   UNL     1      21.334  22.116   8.287  1.00  0.00     0.020 C 
ATOM     26  C   UNL     1      20.891  22.863  10.678  1.00  0.00     0.017 C 
ATOM     27  O   UNL     1      16.727  23.146   9.513  1.00  0.00    -0.295 OA
ATOM     28  C   UNL     1      19.138  23.960   8.212  1.00  0.00     0.055 C 
ATOM     29  C   UNL     1      21.655  23.530   7.780  1.00  0.00     0.081 C 
ATOM     30  C   UNL     1      20.416  24.356   7.596  1.00  0.00     0.156 C 
ATOM     31  O   UNL     1      20.464  25.398   6.893  1.00  0.00    -0.295 OA
ENDBRANCH   9  11
ENDBRANCH   8   9
ENDBRANCH   1   8
TORSDOF 6
ENDMDL
MODEL 5
REMARK VINA RESULT:    -7.296      2.826      9.200
REMARK INTER + INTRA:         -11.587
REMARK INTER:                 -10.397
REMARK INTRA:                  -1.190
REMARK UNBOUND:                -1.731
REMARK SMILES CC[C@@H](CC[C@@H](C)[C@H]1CC[C@H]2[C@H]3CC(=O)C4=CC(=O)CC[C@]4(C)[C@@H]3CC[C@]12C)C(C)C
REMARK SMILES IDX 4 1 3 2 2 3 1 4 29 5 30 6 31 7 5 8 6 9 7 10 8 11 9 12 27 13
REMARK SMILES IDX 10 14 11 15 26 16 28 17 12 18 25 19 24 20 13 21 22 22 14 23
REMARK SMILES IDX 16 24 21 25 23 26 15 27 17 28 20 29 18 30 19 31
REMARK H PARENT
REMARK Flexibility Score: inf
ROOT
ATOM      1  C   UNL     1      18.072  10.412  11.485  1.00  0.00     0.004 C 
ENDROOT
BRANCH   1   2
ATOM      2  C   UNL     1      17.028  10.034  10.394  1.00  0.00    -0.009 C 
BRANCH   2   3
ATOM      3  C   UNL     1      15.563  10.037  10.930  1.00  0.00     0.000 C 
ATOM      4  C   UNL     1      15.382   9.577  12.375  1.00  0.00     0.004 C 
ENDBRANCH   2   3
BRANCH   2   5
ATOM      5  C   UNL     1      17.389   8.733   9.593  1.00  0.00    -0.014 C 
ATOM      6  C   UNL     1      18.434   7.893  10.350  1.00  0.00     0.007 C 
ATOM      7  C   UNL     1      16.178   7.842   9.237  1.00  0.00     0.007 C 
ENDBRANCH   2   5
ENDBRANCH   1   2
BRANCH   1   8
ATOM      8  C   UNL     1      18.673  11.817  11.265  1.00  0.00     0.004 C 
BRANCH   8   9
ATOM      9  C   UNL     1      17.812  13.024  11.765  1.00  0.00    -0.011 C 
ATOM     10  C   UNL     1      17.175  12.763  13.146  1.00  0.00     0.008 C 
BRANCH   9  11
ATOM     11  C   UNL     1      18.541  14.416  11.803  1.00  0.00    -0.002 C 
ATOM     12  C   UNL     1      20.091  14.373  11.879  1.00  0.00     0.005 C 
ATOM     13  C   UNL     1      18.207  15.526  10.754  1.00  0.00    -0.026 C 
ATOM     14  C   UNL     1      20.597  15.683  11.247  1.00  0.00     0.005 C 
ATOM     15  C   UNL     1      19.335  16.521  11.093  1.00  0.00    -0.001 C 
ATOM     16  C   UNL     1      16.821  16.226  10.968  1.00  0.00     0.007 C 
ATOM     17  C   UNL     1      18.319  14.979   9.301  1.00  0.00     0.012 C 
ATOM     18  C   UNL     1      19.364  17.845  10.281  1.00  0.00     0.004 C 
ATOM     19  C   UNL     1      16.861  17.778  10.832  1.00  0.00     0.005 C 
ATOM     20  C   UNL     1      17.937  18.269   9.824  1.00  0.00     0.003 C 
ATOM     21  C   UNL     1      20.321  17.892   9.077  1.00  0.00     0.085 C 
ATOM     22  C   UNL     1      17.892  19.804   9.456  1.00  0.00    -0.000 C 
ATOM     23  C   UNL     1      20.221  19.231   8.393  1.00  0.00     0.159 C 
ATOM     24  C   UNL     1      19.244  20.249   8.866  1.00  0.00     0.005 C 
ATOM     25  C   UNL     1      17.574  20.685  10.700  1.00  0.00     0.020 C 
ATOM     26  C   UNL     1      16.807  20.022   8.368  1.00  0.00     0.017 C 
ATOM     27  O   UNL     1      21.009  19.501   7.446  1.00  0.00    -0.295 OA
ATOM     28  C   UNL     1      19.598  21.546   8.859  1.00  0.00     0.055 C 
ATOM     29  C   UNL     1      17.610  22.189  10.389  1.00  0.00     0.081 C 
ATOM     30  C   UNL     1      18.813  22.565   9.575  1.00  0.00     0.156 C 
ATOM     31  O   UNL     1      19.167  23.771   9.512  1.00  0.00    -0.295 OA
ENDBRANCH   9  11
ENDBRANCH   8   9
ENDBRANCH   1   8
TORSDOF 6
ENDMDL
MODEL 6
REMARK VINA RESULT:    -7.163      1.907      3.171
REMARK INTER + INTRA:         -11.406
REMARK INTER:                 -10.301
REMARK INTRA:                  -1.105
REMARK UNBOUND:                -1.731
REMARK SMILES CC[C@@H](CC[C@@H](C)[C@H]1CC[C@H]2[C@H]3CC(=O)C4=CC(=O)CC[C@]4(C)[C@@H]3CC[C@]12C)C(C)C
REMARK SMILES IDX 4 1 3 2 2 3 1 4 29 5 30 6 31 7 5 8 6 9 7 10 8 11 9 12 27 13
REMARK SMILES IDX 10 14 11 15 26 16 28 17 12 18 25 19 24 20 13 21 22 22 14 23
REMARK SMILES IDX 16 24 21 25 23 26 15 27 17 28 20 29 18 30 19 31
REMARK H PARENT
REMARK Flexibility Score: inf
ROOT
ATOM      1  C   UNL     1      20.598  21.578   9.627  1.00  0.00     0.004 C 
ENDROOT
BRANCH   1   2
ATOM      2  C   UNL     1      20.149  23.054   9.838  1.00  0.00    -0.009 C 
BRANCH   2   3
ATOM      3  C   UNL     1      18.642  23.179  10.218  1.00  0.00     0.000 C 
ATOM      4  C   UNL     1      17.776  23.983   9.250  1.00  0.00     0.004 C 
ENDBRANCH   2   3
BRANCH   2   5
ATOM      5  C   UNL     1      20.575  24.020   8.676  1.00  0.00    -0.014 C 
ATOM      6  C   UNL     1      21.650  25.012   9.152  1.00  0.00     0.007 C 
ATOM      7  C   UNL     1      21.069  23.306   7.398  1.00  0.00     0.007 C 
ENDBRANCH   2   5
ENDBRANCH   1   2
BRANCH   1   8
ATOM      8  C   UNL     1      19.410  20.592   9.634  1.00  0.00     0.004 C 
BRANCH   8   9
ATOM      9  C   UNL     1      19.598  19.278   8.805  1.00  0.00    -0.011 C 
ATOM     10  C   UNL     1      20.717  19.400   7.750  1.00  0.00     0.008 C 
BRANCH   9  11
ATOM     11  C   UNL     1      19.837  17.969   9.642  1.00  0.00    -0.002 C 
ATOM     12  C   UNL     1      20.688  18.130  10.931  1.00  0.00     0.005 C 
ATOM     13  C   UNL     1      18.643  17.044  10.045  1.00  0.00    -0.026 C 
ATOM     14  C   UNL     1      20.250  17.004  11.887  1.00  0.00     0.005 C 
ATOM     15  C   UNL     1      19.386  16.104  11.014  1.00  0.00    -0.001 C 
ATOM     16  C   UNL     1      18.047  16.202   8.865  1.00  0.00     0.007 C 
ATOM     17  C   UNL     1      17.518  17.854  10.754  1.00  0.00     0.012 C 
ATOM     18  C   UNL     1      18.553  14.958  11.650  1.00  0.00     0.004 C 
ATOM     19  C   UNL     1      17.771  14.710   9.220  1.00  0.00     0.005 C 
ATOM     20  C   UNL     1      17.393  14.504  10.714  1.00  0.00     0.003 C 
ATOM     21  C   UNL     1      17.998  15.212  13.062  1.00  0.00     0.085 C 
ATOM     22  C   UNL     1      16.879  13.063  11.106  1.00  0.00    -0.000 C 
ATOM     23  C   UNL     1      17.208  14.016  13.528  1.00  0.00     0.159 C 
ATOM     24  C   UNL     1      17.003  12.850  12.627  1.00  0.00     0.005 C 
ATOM     25  C   UNL     1      17.682  11.947  10.375  1.00  0.00     0.020 C 
ATOM     26  C   UNL     1      15.375  12.956  10.735  1.00  0.00     0.017 C 
ATOM     27  O   UNL     1      16.763  13.991  14.707  1.00  0.00    -0.295 OA
ATOM     28  C   UNL     1      17.026  11.610  13.147  1.00  0.00     0.055 C 
ATOM     29  C   UNL     1      17.259  10.533  10.804  1.00  0.00     0.081 C 
ATOM     30  C   UNL     1      17.126  10.415  12.293  1.00  0.00     0.156 C 
ATOM     31  O   UNL     1      17.110   9.275  12.827  1.00  0.00    -0.295 OA
ENDBRANCH   9  11
ENDBRANCH   8   9
ENDBRANCH   1   8
TORSDOF 6
ENDMDL
MODEL 7
REMARK VINA RESULT:    -7.069      2.467      4.692
REMARK INTER + INTRA:         -11.279
REMARK INTER:                 -10.242
REMARK INTRA:                  -1.037
REMARK UNBOUND:                -1.731
REMARK SMILES CC[C@@H](CC[C@@H](C)[C@H]1CC[C@H]2[C@H]3CC(=O)C4=CC(=O)CC[C@]4(C)[C@@H]3CC[C@]12C)C(C)C
REMARK SMILES IDX 4 1 3 2 2 3 1 4 29 5 30 6 31 7 5 8 6 9 7 10 8 11 9 12 27 13
REMARK SMILES IDX 10 14 11 15 26 16 28 17 12 18 25 19 24 20 13 21 22 22 14 23
REMARK SMILES IDX 16 24 21 25 23 26 15 27 17 28 20 29 18 30 19 31
REMARK H PARENT
REMARK Flexibility Score: inf
ROOT
ATOM      1  C   UNL     1      15.009  19.766  14.073  1.00  0.00     0.004 C 
ENDROOT
BRANCH   1   2
ATOM      2  C   UNL     1      15.587  19.479  15.489  1.00  0.00    -0.009 C 
BRANCH   2   3
ATOM      3  C   UNL     1      17.057  19.973  15.656  1.00  0.00     0.000 C 
ATOM      4  C   UNL     1      17.458  20.407  17.064  1.00  0.00     0.004 C 
ENDBRANCH   2   3
BRANCH   2   5
ATOM      5  C   UNL     1      15.375  18.001  15.974  1.00  0.00    -0.014 C 
ATOM      6  C   UNL     1      16.698  17.216  15.946  1.00  0.00     0.007 C 
ATOM      7  C   UNL     1      14.735  17.872  17.375  1.00  0.00     0.007 C 
ENDBRANCH   2   5
ENDBRANCH   1   2
BRANCH   1   8
ATOM      8  C   UNL     1      16.109  20.107  13.044  1.00  0.00     0.004 C 
BRANCH   8   9
ATOM      9  C   UNL     1      15.693  20.027  11.537  1.00  0.00    -0.011 C 
ATOM     10  C   UNL     1      16.232  21.214  10.712  1.00  0.00     0.008 C 
BRANCH   9  11
ATOM     11  C   UNL     1      16.061  18.691  10.796  1.00  0.00    -0.002 C 
ATOM     12  C   UNL     1      16.890  18.841   9.491  1.00  0.00     0.005 C 
ATOM     13  C   UNL     1      16.714  17.498  11.567  1.00  0.00    -0.026 C 
ATOM     14  C   UNL     1      17.680  17.530   9.321  1.00  0.00     0.005 C 
ATOM     15  C   UNL     1      17.070  16.603  10.364  1.00  0.00    -0.001 C 
ATOM     16  C   UNL     1      15.734  16.723  12.513  1.00  0.00     0.007 C 
ATOM     17  C   UNL     1      17.975  17.959  12.354  1.00  0.00     0.012 C 
ATOM     18  C   UNL     1      17.734  15.236  10.685  1.00  0.00     0.004 C 
ATOM     19  C   UNL     1      15.847  15.171  12.419  1.00  0.00     0.005 C 
ATOM     20  C   UNL     1      17.284  14.691  12.073  1.00  0.00     0.003 C 
ATOM     21  C   UNL     1      19.269  15.176  10.587  1.00  0.00     0.085 C 
ATOM     22  C   UNL     1      17.538  13.136  12.181  1.00  0.00    -0.000 C 
ATOM     23  C   UNL     1      19.753  13.793  10.938  1.00  0.00     0.159 C 
ATOM     24  C   UNL     1      18.792  12.745  11.374  1.00  0.00     0.005 C 
ATOM     25  C   UNL     1      16.325  12.316  11.652  1.00  0.00     0.020 C 
ATOM     26  C   UNL     1      17.803  12.780  13.668  1.00  0.00     0.017 C 
ATOM     27  O   UNL     1      20.977  13.517  10.812  1.00  0.00    -0.295 OA
ATOM     28  C   UNL     1      18.983  11.476  10.973  1.00  0.00     0.055 C 
ATOM     29  C   UNL     1      16.580  10.800  11.665  1.00  0.00     0.081 C 
ATOM     30  C   UNL     1      17.932  10.454  11.114  1.00  0.00     0.156 C 
ATOM     31  O   UNL     1      18.171   9.272  10.753  1.00  0.00    -0.295 OA
ENDBRANCH   9  11
ENDBRANCH   8   9
ENDBRANCH   1   8
TORSDOF 6
ENDMDL
MODEL 8
REMARK VINA RESULT:    -6.947      1.920      3.744
REMARK INTER + INTRA:         -11.115
REMARK INTER:                 -10.073
REMARK INTRA:                  -1.042
REMARK UNBOUND:                -1.731
REMARK SMILES CC[C@@H](CC[C@@H](C)[C@H]1CC[C@H]2[C@H]3CC(=O)C4=CC(=O)CC[C@]4(C)[C@@H]3CC[C@]12C)C(C)C
REMARK SMILES IDX 4 1 3 2 2 3 1 4 29 5 30 6 31 7 5 8 6 9 7 10 8 11 9 12 27 13
REMARK SMILES IDX 10 14 11 15 26 16 28 17 12 18 25 19 24 20 13 21 22 22 14 23
REMARK SMILES IDX 16 24 21 25 23 26 15 27 17 28 20 29 18 30 19 31
REMARK H PARENT
REMARK Flexibility Score: inf
ROOT
ATOM      1  C   UNL     1      17.577  20.556   8.758  1.00  0.00     0.004 C 
ENDROOT
BRANCH   1   2
ATOM      2  C   UNL     1      16.982  21.707   9.621  1.00  0.00    -0.009 C 
BRANCH   2   3
ATOM      3  C   UNL     1      18.075  22.647  10.215  1.00  0.00     0.000 C 
ATOM      4  C   UNL     1      18.302  23.959   9.468  1.00  0.00     0.004 C 
ENDBRANCH   2   3
BRANCH   2   5
ATOM      5  C   UNL     1      15.936  21.225  10.688  1.00  0.00    -0.014 C 
ATOM      6  C   UNL     1      15.020  20.134  10.107  1.00  0.00     0.007 C 
ATOM      7  C   UNL     1      16.556  20.720  12.010  1.00  0.00     0.007 C 
ENDBRANCH   2   5
ENDBRANCH   1   2
BRANCH   1   8
ATOM      8  C   UNL     1      18.957  20.088   9.268  1.00  0.00     0.004 C 
BRANCH   8   9
ATOM      9  C   UNL     1      19.593  18.870   8.519  1.00  0.00    -0.011 C 
ATOM     10  C   UNL     1      20.900  19.243   7.788  1.00  0.00     0.008 C 
BRANCH   9  11
ATOM     11  C   UNL     1      19.854  17.590   9.393  1.00  0.00    -0.002 C 
ATOM     12  C   UNL     1      20.707  17.800  10.674  1.00  0.00     0.005 C 
ATOM     13  C   UNL     1      18.675  16.659   9.827  1.00  0.00    -0.026 C 
ATOM     14  C   UNL     1      20.288  16.696  11.664  1.00  0.00     0.005 C 
ATOM     15  C   UNL     1      19.435  15.759  10.820  1.00  0.00    -0.001 C 
ATOM     16  C   UNL     1      18.089  15.774   8.674  1.00  0.00     0.007 C 
ATOM     17  C   UNL     1      17.541  17.472  10.515  1.00  0.00     0.012 C 
ATOM     18  C   UNL     1      18.621  14.619  11.491  1.00  0.00     0.004 C 
ATOM     19  C   UNL     1      17.836  14.289   9.072  1.00  0.00     0.005 C 
ATOM     20  C   UNL     1      17.466  14.121  10.572  1.00  0.00     0.003 C 
ATOM     21  C   UNL     1      18.067  14.905  12.898  1.00  0.00     0.085 C 
ATOM     22  C   UNL     1      16.974  12.685  11.007  1.00  0.00    -0.000 C 
ATOM     23  C   UNL     1      17.296  13.712  13.400  1.00  0.00     0.159 C 
ATOM     24  C   UNL     1      17.106  12.517  12.533  1.00  0.00     0.005 C 
ATOM     25  C   UNL     1      17.792  11.560  10.307  1.00  0.00     0.020 C 
ATOM     26  C   UNL     1      15.471  12.545  10.645  1.00  0.00     0.017 C 
ATOM     27  O   UNL     1      16.855  13.714  14.581  1.00  0.00    -0.295 OA
ATOM     28  C   UNL     1      17.149  11.294  13.090  1.00  0.00     0.055 C 
ATOM     29  C   UNL     1      17.392  10.153  10.777  1.00  0.00     0.081 C 
ATOM     30  C   UNL     1      17.264  10.076  12.270  1.00  0.00     0.156 C 
ATOM     31  O   UNL     1      17.267   8.952  12.836  1.00  0.00    -0.295 OA
ENDBRANCH   9  11
ENDBRANCH   8   9
ENDBRANCH   1   8
TORSDOF 6
ENDMDL
MODEL 9
REMARK VINA RESULT:    -6.931     14.837     19.015
REMARK INTER + INTRA:         -11.093
REMARK INTER:                  -9.086
REMARK INTRA:                  -2.007
REMARK UNBOUND:                -1.731
REMARK SMILES CC[C@@H](CC[C@@H](C)[C@H]1CC[C@H]2[C@H]3CC(=O)C4=CC(=O)CC[C@]4(C)[C@@H]3CC[C@]12C)C(C)C
REMARK SMILES IDX 4 1 3 2 2 3 1 4 29 5 30 6 31 7 5 8 6 9 7 10 8 11 9 12 27 13
REMARK SMILES IDX 10 14 11 15 26 16 28 17 12 18 25 19 24 20 13 21 22 22 14 23
REMARK SMILES IDX 16 24 21 25 23 26 15 27 17 28 20 29 18 30 19 31
REMARK H PARENT
REMARK Flexibility Score: inf
ROOT
ATOM      1  C   UNL     1       3.374   9.181  21.518  1.00  0.00     0.004 C 
ENDROOT
BRANCH   1   2
ATOM      2  C   UNL     1       2.817   9.695  22.878  1.00  0.00    -0.009 C 
BRANCH   2   3
ATOM      3  C   UNL     1       2.050  11.046  22.747  1.00  0.00     0.000 C 
ATOM      4  C   UNL     1       2.465  12.144  23.725  1.00  0.00     0.004 C 
ENDBRANCH   2   3
BRANCH   2   5
ATOM      5  C   UNL     1       3.874   9.694  24.038  1.00  0.00    -0.014 C 
ATOM      6  C   UNL     1       3.402   8.820  25.213  1.00  0.00     0.007 C 
ATOM      7  C   UNL     1       5.293   9.255  23.612  1.00  0.00     0.007 C 
ENDBRANCH   2   5
ENDBRANCH   1   2
BRANCH   1   8
ATOM      8  C   UNL     1       2.979  10.093  20.336  1.00  0.00     0.004 C 
BRANCH   8   9
ATOM      9  C   UNL     1       4.160  10.729  19.531  1.00  0.00    -0.011 C 
ATOM     10  C   UNL     1       4.152  10.318  18.044  1.00  0.00     0.008 C 
BRANCH   9  11
ATOM     11  C   UNL     1       4.283  12.294  19.618  1.00  0.00    -0.002 C 
ATOM     12  C   UNL     1       3.029  13.049  20.137  1.00  0.00     0.005 C 
ATOM     13  C   UNL     1       5.498  12.966  20.336  1.00  0.00    -0.026 C 
ATOM     14  C   UNL     1       3.537  14.360  20.766  1.00  0.00     0.005 C 
ATOM     15  C   UNL     1       4.998  14.423  20.340  1.00  0.00    -0.001 C 
ATOM     16  C   UNL     1       6.847  12.887  19.540  1.00  0.00     0.007 C 
ATOM     17  C   UNL     1       5.685  12.401  21.774  1.00  0.00     0.012 C 
ATOM     18  C   UNL     1       5.950  15.486  20.953  1.00  0.00     0.004 C 
ATOM     19  C   UNL     1       7.651  14.221  19.510  1.00  0.00     0.005 C 
ATOM     20  C   UNL     1       7.444  15.079  20.790  1.00  0.00     0.003 C 
ATOM     21  C   UNL     1       5.687  15.883  22.416  1.00  0.00     0.085 C 
ATOM     22  C   UNL     1       8.393  16.333  20.943  1.00  0.00    -0.000 C 
ATOM     23  C   UNL     1       6.698  16.908  22.861  1.00  0.00     0.159 C 
ATOM     24  C   UNL     1       7.791  17.335  21.947  1.00  0.00     0.005 C 
ATOM     25  C   UNL     1       8.614  17.057  19.582  1.00  0.00     0.020 C 
ATOM     26  C   UNL     1       9.756  15.856  21.511  1.00  0.00     0.017 C 
ATOM     27  O   UNL     1       6.581  17.438  23.999  1.00  0.00    -0.295 OA
ATOM     28  C   UNL     1       8.174  18.624  21.944  1.00  0.00     0.055 C 
ATOM     29  C   UNL     1       9.464  18.330  19.718  1.00  0.00     0.081 C 
ATOM     30  C   UNL     1       9.027  19.175  20.878  1.00  0.00     0.156 C 
ATOM     31  O   UNL     1       9.386  20.380  20.938  1.00  0.00    -0.295 OA
ENDBRANCH   9  11
ENDBRANCH   8   9
ENDBRANCH   1   8
TORSDOF 6
ENDMDL
