MODEL 1
REMARK VINA RESULT:    -4.239      0.000      0.000
REMARK INTER + INTRA:          -5.710
REMARK INTER:                  -5.231
REMARK INTRA:                  -0.480
REMARK UNBOUND:                -0.480
REMARK SMILES CC(C)=CCC[C@@H](C)c1ccc(C)cc1
REMARK SMILES IDX 6 1 7 2 8 3 9 4 13 5 12 6 11 7 14 8 10 9 15 10 5 11 4 12
REMARK SMILES IDX 2 13 1 14 3 15
REMARK H PARENT
REMARK Flexibility Score: inf
ROOT
ATOM      1  C   UNL     1      22.750  49.489  -0.848  1.00  0.00     0.012 C 
ENDROOT
BRANCH   1   2
ATOM      2  C   UNL     1      22.443  48.891   0.550  1.00  0.00     0.016 C 
ATOM      3  C   UNL     1      21.091  49.349   1.123  1.00  0.00     0.013 C 
BRANCH   2   4
ATOM      4  C   UNL     1      22.656  47.385   0.604  1.00  0.00    -0.045 A 
ATOM      5  C   UNL     1      23.112  43.096   0.891  1.00  0.00     0.044 C 
ATOM      6  C   UNL     1      22.960  44.583   0.764  1.00  0.00    -0.051 A 
ATOM      7  C   UNL     1      21.703  45.144   0.503  1.00  0.00     0.004 A 
ATOM      8  C   UNL     1      24.058  45.426   0.981  1.00  0.00     0.004 A 
ATOM      9  C   UNL     1      21.553  46.532   0.423  1.00  0.00     0.004 A 
ATOM     10  C   UNL     1      23.910  46.814   0.901  1.00  0.00     0.004 A 
ENDBRANCH   2   4
ENDBRANCH   1   2
BRANCH   1  11
ATOM     11  C   UNL     1      22.248  48.688  -2.068  1.00  0.00     0.028 C 
BRANCH  11  12
ATOM     12  C   UNL     1      21.261  49.446  -2.919  1.00  0.00    -0.028 C 
ATOM     13  C   UNL     1      21.582  50.438  -3.778  1.00  0.00    -0.080 C 
ATOM     14  C   UNL     1      23.012  50.868  -4.015  1.00  0.00     0.039 C 
ATOM     15  C   UNL     1      20.472  51.107  -4.546  1.00  0.00     0.039 C 
ENDBRANCH  11  12
ENDBRANCH   1  11
TORSDOF 4
ENDMDL
MODEL 2
REMARK VINA RESULT:    -4.187      1.168      6.112
REMARK INTER + INTRA:          -5.646
REMARK INTER:                  -4.953
REMARK INTRA:                  -0.693
REMARK UNBOUND:                -0.480
REMARK SMILES CC(C)=CCC[C@@H](C)c1ccc(C)cc1
REMARK SMILES IDX 6 1 7 2 8 3 9 4 13 5 12 6 11 7 14 8 10 9 15 10 5 11 4 12
REMARK SMILES IDX 2 13 1 14 3 15
REMARK H PARENT
REMARK Flexibility Score: inf
ROOT
ATOM      1  C   UNL     1      24.052  48.174  -0.000  1.00  0.00     0.012 C 
ENDROOT
BRANCH   1   2
ATOM      2  C   UNL     1      23.704  49.678  -0.151  1.00  0.00     0.016 C 
ATOM      3  C   UNL     1      24.923  50.602   0.013  1.00  0.00     0.013 C 
BRANCH   2   4
ATOM      4  C   UNL     1      22.875  49.968  -1.394  1.00  0.00    -0.045 A 
ATOM      5  C   UNL     1      20.505  50.981  -4.864  1.00  0.00     0.044 C 
ATOM      6  C   UNL     1      21.343  50.612  -3.676  1.00  0.00    -0.051 A 
ATOM      7  C   UNL     1      22.481  51.363  -3.353  1.00  0.00     0.004 A 
ATOM      8  C   UNL     1      20.951  49.561  -2.835  1.00  0.00     0.004 A 
ATOM      9  C   UNL     1      23.240  51.043  -2.224  1.00  0.00     0.004 A 
ATOM     10  C   UNL     1      21.709  49.240  -1.705  1.00  0.00     0.004 A 
ENDBRANCH   2   4
ENDBRANCH   1   2
BRANCH   1  11
ATOM     11  C   UNL     1      23.325  47.407   1.125  1.00  0.00     0.028 C 
BRANCH  11  12
ATOM     12  C   UNL     1      23.352  45.910   0.945  1.00  0.00    -0.028 C 
ATOM     13  C   UNL     1      22.321  45.168   0.487  1.00  0.00    -0.080 C 
ATOM     14  C   UNL     1      21.012  45.787   0.050  1.00  0.00     0.039 C 
ATOM     15  C   UNL     1      22.504  43.676   0.379  1.00  0.00     0.039 C 
ENDBRANCH  11  12
ENDBRANCH   1  11
TORSDOF 4
ENDMDL
MODEL 3
REMARK VINA RESULT:    -4.172      1.112      6.285
REMARK INTER + INTRA:          -5.627
REMARK INTER:                  -5.185
REMARK INTRA:                  -0.442
REMARK UNBOUND:                -0.480
REMARK SMILES CC(C)=CCC[C@@H](C)c1ccc(C)cc1
REMARK SMILES IDX 6 1 7 2 8 3 9 4 13 5 12 6 11 7 14 8 10 9 15 10 5 11 4 12
REMARK SMILES IDX 2 13 1 14 3 15
REMARK H PARENT
REMARK Flexibility Score: inf
ROOT
ATOM      1  C   UNL     1      21.468  46.679  -0.257  1.00  0.00     0.012 C 
ENDROOT
BRANCH   1   2
ATOM      2  C   UNL     1      20.735  48.041  -0.379  1.00  0.00     0.016 C 
ATOM      3  C   UNL     1      20.258  48.596   0.975  1.00  0.00     0.013 C 
BRANCH   2   4
ATOM      4  C   UNL     1      21.502  49.049  -1.222  1.00  0.00    -0.045 A 
ATOM      5  C   UNL     1      23.682  52.033  -3.463  1.00  0.00     0.044 C 
ATOM      6  C   UNL     1      22.940  50.977  -2.699  1.00  0.00    -0.051 A 
ATOM      7  C   UNL     1      23.402  50.558  -1.444  1.00  0.00     0.004 A 
ATOM      8  C   UNL     1      21.738  50.457  -3.198  1.00  0.00     0.004 A 
ATOM      9  C   UNL     1      22.690  49.602  -0.714  1.00  0.00     0.004 A 
ATOM     10  C   UNL     1      21.025  49.501  -2.469  1.00  0.00     0.004 A 
ENDBRANCH   2   4
ENDBRANCH   1   2
BRANCH   1  11
ATOM     11  C   UNL     1      21.427  45.994   1.125  1.00  0.00     0.028 C 
BRANCH  11  12
ATOM     12  C   UNL     1      21.931  44.572   1.105  1.00  0.00    -0.028 C 
ATOM     13  C   UNL     1      23.234  44.215   1.083  1.00  0.00    -0.080 C 
ATOM     14  C   UNL     1      24.351  45.232   1.125  1.00  0.00     0.039 C 
ATOM     15  C   UNL     1      23.572  42.747   1.050  1.00  0.00     0.039 C 
ENDBRANCH  11  12
ENDBRANCH   1  11
TORSDOF 4
ENDMDL
MODEL 4
REMARK VINA RESULT:    -3.812      1.537      3.533
REMARK INTER + INTRA:          -5.182
REMARK INTER:                  -4.018
REMARK INTRA:                  -1.164
REMARK UNBOUND:                -0.480
REMARK SMILES CC(C)=CCC[C@@H](C)c1ccc(C)cc1
REMARK SMILES IDX 6 1 7 2 8 3 9 4 13 5 12 6 11 7 14 8 10 9 15 10 5 11 4 12
REMARK SMILES IDX 2 13 1 14 3 15
REMARK H PARENT
REMARK Flexibility Score: inf
ROOT
ATOM      1  C   UNL     1      20.963  46.771  -1.382  1.00  0.00     0.012 C 
ENDROOT
BRANCH   1   2
ATOM      2  C   UNL     1      21.299  46.888   0.128  1.00  0.00     0.016 C 
ATOM      3  C   UNL     1      21.627  45.535   0.783  1.00  0.00     0.013 C 
BRANCH   2   4
ATOM      4  C   UNL     1      22.320  47.977   0.421  1.00  0.00    -0.045 A 
ATOM      5  C   UNL     1      25.125  51.190   1.125  1.00  0.00     0.044 C 
ATOM      6  C   UNL     1      24.153  50.068   0.908  1.00  0.00    -0.051 A 
ATOM      7  C   UNL     1      22.774  50.298   1.009  1.00  0.00     0.004 A 
ATOM      8  C   UNL     1      24.613  48.799   0.528  1.00  0.00     0.004 A 
ATOM      9  C   UNL     1      21.867  49.263   0.769  1.00  0.00     0.004 A 
ATOM     10  C   UNL     1      23.706  47.763   0.287  1.00  0.00     0.004 A 
ENDBRANCH   2   4
ENDBRANCH   1   2
BRANCH   1  11
ATOM     11  C   UNL     1      21.777  47.664  -2.341  1.00  0.00     0.028 C 
BRANCH  11  12
ATOM     12  C   UNL     1      20.999  48.844  -2.867  1.00  0.00    -0.028 C 
ATOM     13  C   UNL     1      21.494  50.092  -3.016  1.00  0.00    -0.080 C 
ATOM     14  C   UNL     1      22.935  50.431  -2.706  1.00  0.00     0.039 C 
ATOM     15  C   UNL     1      20.580  51.168  -3.543  1.00  0.00     0.039 C 
ENDBRANCH  11  12
ENDBRANCH   1  11
TORSDOF 4
ENDMDL
MODEL 5
REMARK VINA RESULT:    -3.259      1.254      2.181
REMARK INTER + INTRA:          -4.501
REMARK INTER:                  -3.809
REMARK INTRA:                  -0.692
REMARK UNBOUND:                -0.480
REMARK SMILES CC(C)=CCC[C@@H](C)c1ccc(C)cc1
REMARK SMILES IDX 6 1 7 2 8 3 9 4 13 5 12 6 11 7 14 8 10 9 15 10 5 11 4 12
REMARK SMILES IDX 2 13 1 14 3 15
REMARK H PARENT
REMARK Flexibility Score: inf
ROOT
ATOM      1  C   UNL     1      23.909  50.297  -1.380  1.00  0.00     0.012 C 
ENDROOT
BRANCH   1   2
ATOM      2  C   UNL     1      24.148  49.842   0.083  1.00  0.00     0.016 C 
ATOM      3  C   UNL     1      23.636  50.852   1.124  1.00  0.00     0.013 C 
BRANCH   2   4
ATOM      4  C   UNL     1      23.694  48.412   0.337  1.00  0.00    -0.045 A 
ATOM      5  C   UNL     1      22.540  44.289   0.928  1.00  0.00     0.044 C 
ATOM      6  C   UNL     1      22.935  45.725   0.751  1.00  0.00    -0.051 A 
ATOM      7  C   UNL     1      24.279  46.107   0.867  1.00  0.00     0.004 A 
ATOM      8  C   UNL     1      21.977  46.682   0.391  1.00  0.00     0.004 A 
ATOM      9  C   UNL     1      24.654  47.438   0.664  1.00  0.00     0.004 A 
ATOM     10  C   UNL     1      22.350  48.014   0.186  1.00  0.00     0.004 A 
ENDBRANCH   2   4
ENDBRANCH   1   2
BRANCH   1  11
ATOM     11  C   UNL     1      22.812  51.360  -1.602  1.00  0.00     0.028 C 
BRANCH  11  12
ATOM     12  C   UNL     1      22.267  51.375  -3.009  1.00  0.00    -0.028 C 
ATOM     13  C   UNL     1      21.361  50.500  -3.496  1.00  0.00    -0.080 C 
ATOM     14  C   UNL     1      20.747  49.414  -2.642  1.00  0.00     0.039 C 
ATOM     15  C   UNL     1      20.928  50.643  -4.932  1.00  0.00     0.039 C 
ENDBRANCH  11  12
ENDBRANCH   1  11
TORSDOF 4
ENDMDL
MODEL 6
REMARK VINA RESULT:    -3.193     22.379     23.881
REMARK INTER + INTRA:          -4.420
REMARK INTER:                  -3.735
REMARK INTRA:                  -0.684
REMARK UNBOUND:                -0.480
REMARK SMILES CC(C)=CCC[C@@H](C)c1ccc(C)cc1
REMARK SMILES IDX 6 1 7 2 8 3 9 4 13 5 12 6 11 7 14 8 10 9 15 10 5 11 4 12
REMARK SMILES IDX 2 13 1 14 3 15
REMARK H PARENT
REMARK Flexibility Score: inf
ROOT
ATOM      1  C   UNL     1      15.008  32.883 -16.365  1.00  0.00     0.012 C 
ENDROOT
BRANCH   1   2
ATOM      2  C   UNL     1      13.878  31.960 -15.838  1.00  0.00     0.016 C 
ATOM      3  C   UNL     1      13.579  32.159 -14.342  1.00  0.00     0.013 C 
BRANCH   2   4
ATOM      4  C   UNL     1      12.639  31.985 -16.722  1.00  0.00    -0.045 A 
ATOM      5  C   UNL     1       9.047  31.903 -19.125  1.00  0.00     0.044 C 
ATOM      6  C   UNL     1      10.294  31.960 -18.293  1.00  0.00    -0.051 A 
ATOM      7  C   UNL     1      10.209  32.020 -16.895  1.00  0.00     0.004 A 
ATOM      8  C   UNL     1      11.554  31.876 -18.902  1.00  0.00     0.004 A 
ATOM      9  C   UNL     1      11.370  32.034 -16.118  1.00  0.00     0.004 A 
ATOM     10  C   UNL     1      12.716  31.888 -18.126  1.00  0.00     0.004 A 
ENDBRANCH   2   4
ENDBRANCH   1   2
BRANCH   1  11
ATOM     11  C   UNL     1      15.386  34.088 -15.478  1.00  0.00     0.028 C 
BRANCH  11  12
ATOM     12  C   UNL     1      16.873  34.259 -15.300  1.00  0.00    -0.028 C 
ATOM     13  C   UNL     1      17.588  33.781 -14.258  1.00  0.00    -0.080 C 
ATOM     14  C   UNL     1      16.957  32.960 -13.156  1.00  0.00     0.039 C 
ATOM     15  C   UNL     1      19.070  34.051 -14.222  1.00  0.00     0.039 C 
ENDBRANCH  11  12
ENDBRANCH   1  11
TORSDOF 4
ENDMDL
MODEL 7
REMARK VINA RESULT:    -3.143     23.397     24.948
REMARK INTER + INTRA:          -4.358
REMARK INTER:                  -3.825
REMARK INTRA:                  -0.533
REMARK UNBOUND:                -0.480
REMARK SMILES CC(C)=CCC[C@@H](C)c1ccc(C)cc1
REMARK SMILES IDX 6 1 7 2 8 3 9 4 13 5 12 6 11 7 14 8 10 9 15 10 5 11 4 12
REMARK SMILES IDX 2 13 1 14 3 15
REMARK H PARENT
REMARK Flexibility Score: inf
ROOT
ATOM      1  C   UNL     1      12.561  32.376 -17.147  1.00  0.00     0.012 C 
ENDROOT
BRANCH   1   2
ATOM      2  C   UNL     1      11.206  31.906 -16.556  1.00  0.00     0.016 C 
ATOM      3  C   UNL     1      11.193  31.875 -15.017  1.00  0.00     0.013 C 
BRANCH   2   4
ATOM      4  C   UNL     1      10.014  32.630 -17.167  1.00  0.00    -0.045 A 
ATOM      5  C   UNL     1       6.516  34.604 -18.761  1.00  0.00     0.044 C 
ATOM      6  C   UNL     1       7.746  33.942 -18.214  1.00  0.00    -0.051 A 
ATOM      7  C   UNL     1       8.064  34.056 -16.854  1.00  0.00     0.004 A 
ATOM      8  C   UNL     1       8.544  33.141 -19.042  1.00  0.00     0.004 A 
ATOM      9  C   UNL     1       9.188  33.407 -16.336  1.00  0.00     0.004 A 
ATOM     10  C   UNL     1       9.668  32.491 -18.526  1.00  0.00     0.004 A 
ENDBRANCH   2   4
ENDBRANCH   1   2
BRANCH   1  11
ATOM     11  C   UNL     1      13.828  32.010 -16.346  1.00  0.00     0.028 C 
BRANCH  11  12
ATOM     12  C   UNL     1      14.864  33.106 -16.328  1.00  0.00    -0.028 C 
ATOM     13  C   UNL     1      15.509  33.541 -15.224  1.00  0.00    -0.080 C 
ATOM     14  C   UNL     1      15.287  32.923 -13.863  1.00  0.00     0.039 C 
ATOM     15  C   UNL     1      16.509  34.659 -15.373  1.00  0.00     0.039 C 
ENDBRANCH  11  12
ENDBRANCH   1  11
TORSDOF 4
ENDMDL
MODEL 8
REMARK VINA RESULT:    -2.700     24.751     25.976
REMARK INTER + INTRA:          -3.811
REMARK INTER:                  -3.115
REMARK INTRA:                  -0.695
REMARK UNBOUND:                -0.480
REMARK SMILES CC(C)=CCC[C@@H](C)c1ccc(C)cc1
REMARK SMILES IDX 6 1 7 2 8 3 9 4 13 5 12 6 11 7 14 8 10 9 15 10 5 11 4 12
REMARK SMILES IDX 2 13 1 14 3 15
REMARK H PARENT
REMARK Flexibility Score: inf
ROOT
ATOM      1  C   UNL     1       9.080  33.793 -16.757  1.00  0.00     0.012 C 
ENDROOT
BRANCH   1   2
ATOM      2  C   UNL     1       9.510  32.368 -17.196  1.00  0.00     0.016 C 
ATOM      3  C   UNL     1       8.784  31.877 -18.460  1.00  0.00     0.013 C 
BRANCH   2   4
ATOM      4  C   UNL     1      11.022  32.200 -17.250  1.00  0.00    -0.045 A 
ATOM      5  C   UNL     1      15.332  31.876 -17.277  1.00  0.00     0.044 C 
ATOM      6  C   UNL     1      13.834  31.960 -17.269  1.00  0.00    -0.051 A 
ATOM      7  C   UNL     1      13.134  31.984 -16.055  1.00  0.00     0.004 A 
ATOM      8  C   UNL     1      13.128  32.094 -18.472  1.00  0.00     0.004 A 
ATOM      9  C   UNL     1      11.742  32.101 -16.046  1.00  0.00     0.004 A 
ATOM     10  C   UNL     1      11.736  32.212 -18.465  1.00  0.00     0.004 A 
ENDBRANCH   2   4
ENDBRANCH   1   2
BRANCH   1  11
ATOM     11  C   UNL     1       7.570  34.105 -16.812  1.00  0.00     0.028 C 
BRANCH  11  12
ATOM     12  C   UNL     1       6.762  33.344 -15.791  1.00  0.00    -0.028 C 
ATOM     13  C   UNL     1       5.688  32.575 -16.073  1.00  0.00    -0.080 C 
ATOM     14  C   UNL     1       5.202  32.354 -17.488  1.00  0.00     0.039 C 
ATOM     15  C   UNL     1       4.979  31.889 -14.934  1.00  0.00     0.039 C 
ENDBRANCH  11  12
ENDBRANCH   1  11
TORSDOF 4
ENDMDL
MODEL 9
REMARK VINA RESULT:    -2.224      1.732      4.018
REMARK INTER + INTRA:          -3.224
REMARK INTER:                  -1.963
REMARK INTRA:                  -1.261
REMARK UNBOUND:                -0.480
REMARK SMILES CC(C)=CCC[C@@H](C)c1ccc(C)cc1
REMARK SMILES IDX 6 1 7 2 8 3 9 4 13 5 12 6 11 7 14 8 10 9 15 10 5 11 4 12
REMARK SMILES IDX 2 13 1 14 3 15
REMARK H PARENT
REMARK Flexibility Score: inf
ROOT
ATOM      1  C   UNL     1      22.743  50.521  -3.041  1.00  0.00     0.012 C 
ENDROOT
BRANCH   1   2
ATOM      2  C   UNL     1      21.305  50.028  -2.736  1.00  0.00     0.016 C 
ATOM      3  C   UNL     1      20.433  49.884  -3.995  1.00  0.00     0.013 C 
BRANCH   2   4
ATOM      4  C   UNL     1      21.281  48.806  -1.829  1.00  0.00    -0.045 A 
ATOM      5  C   UNL     1      21.317  45.441   0.883  1.00  0.00     0.044 C 
ATOM      6  C   UNL     1      21.278  46.602  -0.066  1.00  0.00    -0.051 A 
ATOM      7  C   UNL     1      20.846  47.860   0.375  1.00  0.00     0.004 A 
ATOM      8  C   UNL     1      21.746  46.456  -1.379  1.00  0.00     0.004 A 
ATOM      9  C   UNL     1      20.847  48.951  -0.499  1.00  0.00     0.004 A 
ATOM     10  C   UNL     1      21.747  47.546  -2.254  1.00  0.00     0.004 A 
ENDBRANCH   2   4
ENDBRANCH   1   2
BRANCH   1  11
ATOM     11  C   UNL     1      23.502  51.196  -1.879  1.00  0.00     0.028 C 
BRANCH  11  12
ATOM     12  C   UNL     1      24.278  50.224  -1.025  1.00  0.00    -0.028 C 
ATOM     13  C   UNL     1      24.191  50.137   0.321  1.00  0.00    -0.080 C 
ATOM     14  C   UNL     1      23.243  50.998   1.125  1.00  0.00     0.039 C 
ATOM     15  C   UNL     1      25.046  49.119   1.029  1.00  0.00     0.039 C 
ENDBRANCH  11  12
ENDBRANCH   1  11
TORSDOF 4
ENDMDL
