MODEL 1
REMARK VINA RESULT:    -7.372      0.000      0.000
REMARK INTER + INTRA:          -9.249
REMARK INTER:                  -8.881
REMARK INTRA:                  -0.368
REMARK UNBOUND:                -0.368
REMARK SMILES Oc1cc(O)c2c(c1)O[C@H](c1ccc(O)c(O)c1)[C@@H](O)C2
REMARK SMILES IDX 21 1 19 2 10 3 9 4 7 5 8 6 2 7 3 8 4 9 6 10 20 11 11 13
REMARK SMILES IDX 18 14 12 15 16 16 13 17 14 18 17 19 15 21 5 23 1 25
REMARK H PARENT 20 12 17 20 15 22 5 24 1 26
REMARK Flexibility Score: inf
ROOT
ATOM      1  C   UNL     1      -2.927  12.382   6.890  1.00  0.00     0.079 C 
ATOM      2  C   UNL     1      -1.522  12.254   6.269  1.00  0.00     0.164 C 
ATOM      3  C   UNL     1      -0.764  13.592   6.384  1.00  0.00     0.232 C 
ATOM      4  O   UNL     1      -1.525  14.629   5.768  1.00  0.00    -0.482 OA
ATOM      5  C   UNL     1      -2.919  14.695   5.868  1.00  0.00     0.131 A 
ATOM      6  C   UNL     1      -3.578  15.837   5.404  1.00  0.00     0.093 A 
ATOM      7  C   UNL     1      -4.969  15.940   5.503  1.00  0.00     0.122 A 
ATOM      8  C   UNL     1      -5.702  14.899   6.079  1.00  0.00     0.092 A 
ATOM      9  C   UNL     1      -5.060  13.749   6.551  1.00  0.00     0.126 A 
ATOM     10  C   UNL     1      -3.657  13.621   6.413  1.00  0.00     0.039 A 
ENDROOT
BRANCH   2  11
ATOM     11  O   UNL     1      -0.808  11.204   6.873  1.00  0.00    -0.389 OA
ATOM     12  H   UNL     1      -1.433  10.441   6.985  1.00  0.00     0.211 HD
ENDBRANCH   2  11
BRANCH   3  13
ATOM     13  C   UNL     1       0.598  13.505   5.735  1.00  0.00    -0.001 A 
ATOM     14  C   UNL     1       0.716  13.328   4.346  1.00  0.00     0.057 A 
ATOM     15  C   UNL     1       1.760  13.551   6.521  1.00  0.00     0.012 A 
ATOM     16  C   UNL     1       1.980  13.219   3.747  1.00  0.00     0.157 A 
ATOM     17  C   UNL     1       3.019  13.443   5.926  1.00  0.00     0.050 A 
ATOM     18  C   UNL     1       3.137  13.279   4.543  1.00  0.00     0.157 A 
BRANCH  16  19
ATOM     19  O   UNL     1       2.090  13.050   2.368  1.00  0.00    -0.504 OA
ATOM     20  H   UNL     1       1.531  13.594   1.721  1.00  0.00     0.293 HD
ENDBRANCH  16  19
BRANCH  18  21
ATOM     21  O   UNL     1       4.407  13.175   3.979  1.00  0.00    -0.504 OA
ATOM     22  H   UNL     1       4.557  12.772   3.061  1.00  0.00     0.293 HD
ENDBRANCH  18  21
ENDBRANCH   3  13
BRANCH   9  23
ATOM     23  O   UNL     1      -5.842  12.763   7.157  1.00  0.00    -0.507 OA
ATOM     24  H   UNL     1      -6.649  12.970   7.732  1.00  0.00     0.293 HD
ENDBRANCH   9  23
BRANCH   7  25
ATOM     25  O   UNL     1      -5.632  17.074   5.040  1.00  0.00    -0.508 OA
ATOM     26  H   UNL     1      -6.558  17.018   4.634  1.00  0.00     0.293 HD
ENDBRANCH   7  25
TORSDOF 6
ENDMDL
MODEL 2
REMARK VINA RESULT:    -6.389      1.775      6.682
REMARK INTER + INTRA:          -8.064
REMARK INTER:                  -7.857
REMARK INTRA:                  -0.208
REMARK UNBOUND:                -0.368
REMARK SMILES Oc1cc(O)c2c(c1)O[C@H](c1ccc(O)c(O)c1)[C@@H](O)C2
REMARK SMILES IDX 21 1 19 2 10 3 9 4 7 5 8 6 2 7 3 8 4 9 6 10 20 11 11 13
REMARK SMILES IDX 18 14 12 15 16 16 13 17 14 18 17 19 15 21 5 23 1 25
REMARK H PARENT 20 12 17 20 15 22 5 24 1 26
REMARK Flexibility Score: inf
ROOT
ATOM      1  C   UNL     1       2.473  13.371   5.492  1.00  0.00     0.079 C 
ATOM      2  C   UNL     1       1.120  13.310   6.229  1.00  0.00     0.164 C 
ATOM      3  C   UNL     1       0.050  12.662   5.327  1.00  0.00     0.232 C 
ATOM      4  O   UNL     1      -0.044  13.383   4.100  1.00  0.00    -0.482 OA
ATOM      5  C   UNL     1       1.079  13.908   3.451  1.00  0.00     0.131 A 
ATOM      6  C   UNL     1       0.934  14.434   2.165  1.00  0.00     0.093 A 
ATOM      7  C   UNL     1       2.040  14.952   1.484  1.00  0.00     0.122 A 
ATOM      8  C   UNL     1       3.299  14.934   2.091  1.00  0.00     0.092 A 
ATOM      9  C   UNL     1       3.464  14.410   3.378  1.00  0.00     0.126 A 
ATOM     10  C   UNL     1       2.340  13.924   4.089  1.00  0.00     0.039 A 
ENDROOT
BRANCH   2  11
ATOM     11  O   UNL     1       1.252  12.621   7.448  1.00  0.00    -0.389 OA
ATOM     12  H   UNL     1       1.491  11.681   7.238  1.00  0.00     0.211 HD
ENDBRANCH   2  11
BRANCH   3  13
ATOM     13  C   UNL     1      -1.297  12.639   6.010  1.00  0.00    -0.001 A 
ATOM     14  C   UNL     1      -2.180  13.725   5.885  1.00  0.00     0.057 A 
ATOM     15  C   UNL     1      -1.662  11.549   6.817  1.00  0.00     0.012 A 
ATOM     16  C   UNL     1      -3.419  13.716   6.542  1.00  0.00     0.157 A 
ATOM     17  C   UNL     1      -2.896  11.539   7.472  1.00  0.00     0.050 A 
ATOM     18  C   UNL     1      -3.778  12.615   7.338  1.00  0.00     0.157 A 
BRANCH  16  19
ATOM     19  O   UNL     1      -4.291  14.794   6.408  1.00  0.00    -0.504 OA
ATOM     20  H   UNL     1      -4.512  15.399   7.192  1.00  0.00     0.293 HD
ENDBRANCH  16  19
BRANCH  18  21
ATOM     21  O   UNL     1      -5.003  12.574   8.002  1.00  0.00    -0.504 OA
ATOM     22  H   UNL     1      -5.378  11.716   8.389  1.00  0.00     0.293 HD
ENDBRANCH  18  21
ENDBRANCH   3  13
BRANCH   9  23
ATOM     23  O   UNL     1       4.754  14.379   3.912  1.00  0.00    -0.507 OA
ATOM     24  H   UNL     1       5.492  15.006   3.620  1.00  0.00     0.293 HD
ENDBRANCH   9  23
BRANCH   7  25
ATOM     25  O   UNL     1       1.902  15.480   0.203  1.00  0.00    -0.508 OA
ATOM     26  H   UNL     1       1.764  16.471   0.050  1.00  0.00     0.293 HD
ENDBRANCH   7  25
TORSDOF 6
ENDMDL
MODEL 3
REMARK VINA RESULT:    -6.364      2.735      4.359
REMARK INTER + INTRA:          -8.035
REMARK INTER:                  -7.680
REMARK INTRA:                  -0.354
REMARK UNBOUND:                -0.368
REMARK SMILES Oc1cc(O)c2c(c1)O[C@H](c1ccc(O)c(O)c1)[C@@H](O)C2
REMARK SMILES IDX 21 1 19 2 10 3 9 4 7 5 8 6 2 7 3 8 4 9 6 10 20 11 11 13
REMARK SMILES IDX 18 14 12 15 16 16 13 17 14 18 17 19 15 21 5 23 1 25
REMARK H PARENT 20 12 17 20 15 22 5 24 1 26
REMARK Flexibility Score: inf
ROOT
ATOM      1  C   UNL     1       0.981  12.199   5.073  1.00  0.00     0.079 C 
ATOM      2  C   UNL     1       1.495  12.651   3.692  1.00  0.00     0.164 C 
ATOM      3  C   UNL     1       1.324  14.174   3.531  1.00  0.00     0.232 C 
ATOM      4  O   UNL     1      -0.044  14.527   3.730  1.00  0.00    -0.482 OA
ATOM      5  C   UNL     1      -0.843  13.912   4.701  1.00  0.00     0.131 A 
ATOM      6  C   UNL     1      -2.110  14.437   4.967  1.00  0.00     0.093 A 
ATOM      7  C   UNL     1      -2.925  13.854   5.942  1.00  0.00     0.122 A 
ATOM      8  C   UNL     1      -2.465  12.747   6.660  1.00  0.00     0.092 A 
ATOM      9  C   UNL     1      -1.198  12.208   6.409  1.00  0.00     0.126 A 
ATOM     10  C   UNL     1      -0.387  12.767   5.392  1.00  0.00     0.039 A 
ENDROOT
BRANCH   2  11
ATOM     11  O   UNL     1       2.835  12.261   3.512  1.00  0.00    -0.389 OA
ATOM     12  H   UNL     1       2.902  11.814   2.629  1.00  0.00     0.211 HD
ENDBRANCH   2  11
BRANCH   3  13
ATOM     13  C   UNL     1       1.774  14.632   2.163  1.00  0.00    -0.001 A 
ATOM     14  C   UNL     1       2.707  15.674   2.031  1.00  0.00     0.057 A 
ATOM     15  C   UNL     1       1.226  14.051   1.008  1.00  0.00     0.012 A 
ATOM     16  C   UNL     1       3.103  16.118   0.760  1.00  0.00     0.157 A 
ATOM     17  C   UNL     1       1.621  14.492  -0.258  1.00  0.00     0.050 A 
ATOM     18  C   UNL     1       2.557  15.521  -0.389  1.00  0.00     0.157 A 
BRANCH  16  19
ATOM     19  O   UNL     1       4.034  17.148   0.636  1.00  0.00    -0.504 OA
ATOM     20  H   UNL     1       4.507  17.536   1.445  1.00  0.00     0.293 HD
ENDBRANCH  16  19
BRANCH  18  21
ATOM     21  O   UNL     1       2.932  15.939  -1.665  1.00  0.00    -0.504 OA
ATOM     22  H   UNL     1       3.150  15.281  -2.405  1.00  0.00     0.293 HD
ENDBRANCH  18  21
ENDBRANCH   3  13
BRANCH   9  23
ATOM     23  O   UNL     1      -0.778  11.130   7.190  1.00  0.00    -0.507 OA
ATOM     24  H   UNL     1      -1.239  10.229   7.190  1.00  0.00     0.293 HD
ENDBRANCH   9  23
BRANCH   7  25
ATOM     25  O   UNL     1      -4.191  14.371   6.211  1.00  0.00    -0.508 OA
ATOM     26  H   UNL     1      -4.840  14.597   5.468  1.00  0.00     0.293 HD
ENDBRANCH   7  25
TORSDOF 6
ENDMDL
MODEL 4
REMARK VINA RESULT:    -6.305      3.739      6.205
REMARK INTER + INTRA:          -7.964
REMARK INTER:                  -7.942
REMARK INTRA:                  -0.022
REMARK UNBOUND:                -0.368
REMARK SMILES Oc1cc(O)c2c(c1)O[C@H](c1ccc(O)c(O)c1)[C@@H](O)C2
REMARK SMILES IDX 21 1 19 2 10 3 9 4 7 5 8 6 2 7 3 8 4 9 6 10 20 11 11 13
REMARK SMILES IDX 18 14 12 15 16 16 13 17 14 18 17 19 15 21 5 23 1 25
REMARK H PARENT 20 12 17 20 15 22 5 24 1 26
REMARK Flexibility Score: inf
ROOT
ATOM      1  C   UNL     1      -0.574  13.888   3.113  1.00  0.00     0.079 C 
ATOM      2  C   UNL     1       0.073  14.802   2.054  1.00  0.00     0.164 C 
ATOM      3  C   UNL     1       1.529  14.367   1.791  1.00  0.00     0.232 C 
ATOM      4  O   UNL     1       2.260  14.373   3.016  1.00  0.00    -0.482 OA
ATOM      5  C   UNL     1       1.696  13.955   4.227  1.00  0.00     0.131 A 
ATOM      6  C   UNL     1       2.522  13.807   5.344  1.00  0.00     0.093 A 
ATOM      7  C   UNL     1       1.992  13.377   6.564  1.00  0.00     0.122 A 
ATOM      8  C   UNL     1       0.629  13.083   6.662  1.00  0.00     0.092 A 
ATOM      9  C   UNL     1      -0.214  13.223   5.554  1.00  0.00     0.126 A 
ATOM     10  C   UNL     1       0.310  13.701   4.329  1.00  0.00     0.039 A 
ENDROOT
BRANCH   2  11
ATOM     11  O   UNL     1      -0.686  14.801   0.870  1.00  0.00    -0.389 OA
ATOM     12  H   UNL     1      -1.394  14.112   0.967  1.00  0.00     0.211 HD
ENDBRANCH   2  11
BRANCH   3  13
ATOM     13  C   UNL     1       2.200  15.282   0.793  1.00  0.00    -0.001 A 
ATOM     14  C   UNL     1       3.117  16.256   1.222  1.00  0.00     0.057 A 
ATOM     15  C   UNL     1       1.876  15.199  -0.570  1.00  0.00     0.012 A 
ATOM     16  C   UNL     1       3.719  17.124   0.299  1.00  0.00     0.157 A 
ATOM     17  C   UNL     1       2.475  16.063  -1.491  1.00  0.00     0.050 A 
ATOM     18  C   UNL     1       3.396  17.024  -1.065  1.00  0.00     0.157 A 
BRANCH  16  19
ATOM     19  O   UNL     1       4.632  18.083   0.731  1.00  0.00    -0.504 OA
ATOM     20  H   UNL     1       4.476  19.073   0.575  1.00  0.00     0.293 HD
ENDBRANCH  16  19
BRANCH  18  21
ATOM     21  O   UNL     1       3.977  17.870  -2.008  1.00  0.00    -0.504 OA
ATOM     22  H   UNL     1       4.971  17.854  -2.206  1.00  0.00     0.293 HD
ENDBRANCH  18  21
ENDBRANCH   3  13
BRANCH   9  23
ATOM     23  O   UNL     1      -1.557  12.871   5.704  1.00  0.00    -0.507 OA
ATOM     24  H   UNL     1      -2.248  13.479   6.126  1.00  0.00     0.293 HD
ENDBRANCH   9  23
BRANCH   7  25
ATOM     25  O   UNL     1       2.809  13.229   7.681  1.00  0.00    -0.508 OA
ATOM     26  H   UNL     1       3.501  12.492   7.739  1.00  0.00     0.293 HD
ENDBRANCH   7  25
TORSDOF 6
ENDMDL
MODEL 5
REMARK VINA RESULT:    -6.118      4.002      5.081
REMARK INTER + INTRA:          -7.737
REMARK INTER:                  -7.396
REMARK INTRA:                  -0.341
REMARK UNBOUND:                -0.368
REMARK SMILES Oc1cc(O)c2c(c1)O[C@H](c1ccc(O)c(O)c1)[C@@H](O)C2
REMARK SMILES IDX 21 1 19 2 10 3 9 4 7 5 8 6 2 7 3 8 4 9 6 10 20 11 11 13
REMARK SMILES IDX 18 14 12 15 16 16 13 17 14 18 17 19 15 21 5 23 1 25
REMARK H PARENT 20 12 17 20 15 22 5 24 1 26
REMARK Flexibility Score: inf
ROOT
ATOM      1  C   UNL     1      -0.639  13.371  -0.166  1.00  0.00     0.079 C 
ATOM      2  C   UNL     1       0.742  13.804   0.363  1.00  0.00     0.164 C 
ATOM      3  C   UNL     1       0.723  13.885   1.903  1.00  0.00     0.232 C 
ATOM      4  O   UNL     1      -0.311  14.773   2.324  1.00  0.00    -0.482 OA
ATOM      5  C   UNL     1      -1.553  14.834   1.684  1.00  0.00     0.131 A 
ATOM      6  C   UNL     1      -2.578  15.585   2.264  1.00  0.00     0.093 A 
ATOM      7  C   UNL     1      -3.836  15.654   1.657  1.00  0.00     0.122 A 
ATOM      8  C   UNL     1      -4.070  14.957   0.468  1.00  0.00     0.092 A 
ATOM      9  C   UNL     1      -3.057  14.198  -0.128  1.00  0.00     0.126 A 
ATOM     10  C   UNL     1      -1.769  14.162   0.460  1.00  0.00     0.039 A 
ENDROOT
BRANCH   2  11
ATOM     11  O   UNL     1       1.744  12.929  -0.094  1.00  0.00    -0.389 OA
ATOM     12  H   UNL     1       1.888  13.114  -1.059  1.00  0.00     0.211 HD
ENDBRANCH   2  11
BRANCH   3  13
ATOM     13  C   UNL     1       2.053  14.358   2.441  1.00  0.00    -0.001 A 
ATOM     14  C   UNL     1       2.644  15.535   1.950  1.00  0.00     0.057 A 
ATOM     15  C   UNL     1       2.736  13.600   3.405  1.00  0.00     0.012 A 
ATOM     16  C   UNL     1       3.892  15.959   2.429  1.00  0.00     0.157 A 
ATOM     17  C   UNL     1       3.979  14.021   3.883  1.00  0.00     0.050 A 
ATOM     18  C   UNL     1       4.561  15.198   3.403  1.00  0.00     0.157 A 
BRANCH  16  19
ATOM     19  O   UNL     1       4.469  17.130   1.942  1.00  0.00    -0.504 OA
ATOM     20  H   UNL     1       3.998  17.707   1.253  1.00  0.00     0.293 HD
ENDBRANCH  16  19
BRANCH  18  21
ATOM     21  O   UNL     1       5.801  15.593   3.900  1.00  0.00    -0.504 OA
ATOM     22  H   UNL     1       6.487  14.924   4.232  1.00  0.00     0.293 HD
ENDBRANCH  18  21
ENDBRANCH   3  13
BRANCH   9  23
ATOM     23  O   UNL     1      -3.366  13.490  -1.290  1.00  0.00    -0.507 OA
ATOM     24  H   UNL     1      -3.275  13.879  -2.220  1.00  0.00     0.293 HD
ENDBRANCH   9  23
BRANCH   7  25
ATOM     25  O   UNL     1      -4.861  16.403   2.229  1.00  0.00    -0.508 OA
ATOM     26  H   UNL     1      -4.675  17.103   2.937  1.00  0.00     0.293 HD
ENDBRANCH   7  25
TORSDOF 6
ENDMDL
MODEL 6
REMARK VINA RESULT:    -6.109      4.904      8.385
REMARK INTER + INTRA:          -7.727
REMARK INTER:                  -7.387
REMARK INTRA:                  -0.339
REMARK UNBOUND:                -0.368
REMARK SMILES Oc1cc(O)c2c(c1)O[C@H](c1ccc(O)c(O)c1)[C@@H](O)C2
REMARK SMILES IDX 21 1 19 2 10 3 9 4 7 5 8 6 2 7 3 8 4 9 6 10 20 11 11 13
REMARK SMILES IDX 18 14 12 15 16 16 13 17 14 18 17 19 15 21 5 23 1 25
REMARK H PARENT 20 12 17 20 15 22 5 24 1 26
REMARK Flexibility Score: inf
ROOT
ATOM      1  C   UNL     1       0.930  16.084   0.258  1.00  0.00     0.079 C 
ATOM      2  C   UNL     1      -0.160  15.238  -0.430  1.00  0.00     0.164 C 
ATOM      3  C   UNL     1      -1.006  14.497   0.624  1.00  0.00     0.232 C 
ATOM      4  O   UNL     1      -0.155  13.700   1.448  1.00  0.00    -0.482 OA
ATOM      5  C   UNL     1       1.109  14.135   1.860  1.00  0.00     0.131 A 
ATOM      6  C   UNL     1       1.803  13.388   2.816  1.00  0.00     0.093 A 
ATOM      7  C   UNL     1       3.062  13.804   3.259  1.00  0.00     0.122 A 
ATOM      8  C   UNL     1       3.624  14.978   2.751  1.00  0.00     0.092 A 
ATOM      9  C   UNL     1       2.943  15.740   1.795  1.00  0.00     0.126 A 
ATOM     10  C   UNL     1       1.688  15.300   1.310  1.00  0.00     0.039 A 
ENDROOT
BRANCH   2  11
ATOM     11  O   UNL     1      -0.961  16.045  -1.259  1.00  0.00    -0.389 OA
ATOM     12  H   UNL     1      -0.459  16.204  -2.100  1.00  0.00     0.211 HD
ENDBRANCH   2  11
BRANCH   3  13
ATOM     13  C   UNL     1      -2.048  13.621  -0.030  1.00  0.00    -0.001 A 
ATOM     14  C   UNL     1      -3.392  13.685   0.376  1.00  0.00     0.057 A 
ATOM     15  C   UNL     1      -1.675  12.697  -1.019  1.00  0.00     0.012 A 
ATOM     16  C   UNL     1      -4.355  12.851  -0.212  1.00  0.00     0.157 A 
ATOM     17  C   UNL     1      -2.633  11.866  -1.606  1.00  0.00     0.050 A 
ATOM     18  C   UNL     1      -3.971  11.939  -1.210  1.00  0.00     0.157 A 
BRANCH  16  19
ATOM     19  O   UNL     1      -5.686  12.925   0.191  1.00  0.00    -0.504 OA
ATOM     20  H   UNL     1      -6.443  12.966  -0.482  1.00  0.00     0.293 HD
ENDBRANCH  16  19
BRANCH  18  21
ATOM     21  O   UNL     1      -4.903  11.098  -1.815  1.00  0.00    -0.504 OA
ATOM     22  H   UNL     1      -5.671  10.685  -1.298  1.00  0.00     0.293 HD
ENDBRANCH  18  21
ENDBRANCH   3  13
BRANCH   9  23
ATOM     23  O   UNL     1       3.536  16.927   1.359  1.00  0.00    -0.507 OA
ATOM     24  H   UNL     1       3.907  17.627   1.989  1.00  0.00     0.293 HD
ENDBRANCH   9  23
BRANCH   7  25
ATOM     25  O   UNL     1       3.761  13.063   4.210  1.00  0.00    -0.508 OA
ATOM     26  H   UNL     1       3.282  12.563   4.949  1.00  0.00     0.293 HD
ENDBRANCH   7  25
TORSDOF 6
ENDMDL
MODEL 7
REMARK VINA RESULT:    -6.035      3.905      7.515
REMARK INTER + INTRA:          -7.638
REMARK INTER:                  -7.311
REMARK INTRA:                  -0.328
REMARK UNBOUND:                -0.368
REMARK SMILES Oc1cc(O)c2c(c1)O[C@H](c1ccc(O)c(O)c1)[C@@H](O)C2
REMARK SMILES IDX 21 1 19 2 10 3 9 4 7 5 8 6 2 7 3 8 4 9 6 10 20 11 11 13
REMARK SMILES IDX 18 14 12 15 16 16 13 17 14 18 17 19 15 21 5 23 1 25
REMARK H PARENT 20 12 17 20 15 22 5 24 1 26
REMARK Flexibility Score: inf
ROOT
ATOM      1  C   UNL     1       2.467  14.303   1.675  1.00  0.00     0.079 C 
ATOM      2  C   UNL     1       1.167  14.153   0.862  1.00  0.00     0.164 C 
ATOM      3  C   UNL     1       0.000  14.854   1.586  1.00  0.00     0.232 C 
ATOM      4  O   UNL     1      -0.133  14.325   2.905  1.00  0.00    -0.482 OA
ATOM      5  C   UNL     1       0.974  13.988   3.692  1.00  0.00     0.131 A 
ATOM      6  C   UNL     1       0.774  13.658   5.035  1.00  0.00     0.093 A 
ATOM      7  C   UNL     1       1.862  13.331   5.851  1.00  0.00     0.122 A 
ATOM      8  C   UNL     1       3.155  13.346   5.322  1.00  0.00     0.092 A 
ATOM      9  C   UNL     1       3.375  13.676   3.980  1.00  0.00     0.126 A 
ATOM     10  C   UNL     1       2.274  13.964   3.139  1.00  0.00     0.039 A 
ENDROOT
BRANCH   2  11
ATOM     11  O   UNL     1       1.338  14.653  -0.442  1.00  0.00    -0.389 OA
ATOM     12  H   UNL     1       2.158  15.212  -0.444  1.00  0.00     0.211 HD
ENDBRANCH   2  11
BRANCH   3  13
ATOM     13  C   UNL     1      -1.296  14.675   0.832  1.00  0.00    -0.001 A 
ATOM     14  C   UNL     1      -2.131  15.776   0.577  1.00  0.00     0.057 A 
ATOM     15  C   UNL     1      -1.704  13.396   0.421  1.00  0.00     0.012 A 
ATOM     16  C   UNL     1      -3.349  15.605  -0.098  1.00  0.00     0.157 A 
ATOM     17  C   UNL     1      -2.917  13.225  -0.252  1.00  0.00     0.050 A 
ATOM     18  C   UNL     1      -3.741  14.322  -0.516  1.00  0.00     0.157 A 
BRANCH  16  19
ATOM     19  O   UNL     1      -4.169  16.703  -0.354  1.00  0.00    -0.504 OA
ATOM     20  H   UNL     1      -3.913  17.409  -1.034  1.00  0.00     0.293 HD
ENDBRANCH  16  19
BRANCH  18  21
ATOM     21  O   UNL     1      -4.944  14.119  -1.190  1.00  0.00    -0.504 OA
ATOM     22  H   UNL     1      -5.806  13.906  -0.702  1.00  0.00     0.293 HD
ENDBRANCH  18  21
ENDBRANCH   3  13
BRANCH   9  23
ATOM     23  O   UNL     1       4.694  13.716   3.523  1.00  0.00    -0.507 OA
ATOM     24  H   UNL     1       5.489  13.463   4.096  1.00  0.00     0.293 HD
ENDBRANCH   9  23
BRANCH   7  25
ATOM     25  O   UNL     1       1.670  12.999   7.190  1.00  0.00    -0.508 OA
ATOM     26  H   UNL     1       1.064  13.546   7.791  1.00  0.00     0.293 HD
ENDBRANCH   7  25
TORSDOF 6
ENDMDL
MODEL 8
REMARK VINA RESULT:    -5.701      3.501      6.992
REMARK INTER + INTRA:          -7.236
REMARK INTER:                  -6.954
REMARK INTRA:                  -0.282
REMARK UNBOUND:                -0.368
REMARK SMILES Oc1cc(O)c2c(c1)O[C@H](c1ccc(O)c(O)c1)[C@@H](O)C2
REMARK SMILES IDX 21 1 19 2 10 3 9 4 7 5 8 6 2 7 3 8 4 9 6 10 20 11 11 13
REMARK SMILES IDX 18 14 12 15 16 16 13 17 14 18 17 19 15 21 5 23 1 25
REMARK H PARENT 20 12 17 20 15 22 5 24 1 26
REMARK Flexibility Score: inf
ROOT
ATOM      1  C   UNL     1      -0.558  13.850   5.164  1.00  0.00     0.079 C 
ATOM      2  C   UNL     1      -1.414  14.651   4.163  1.00  0.00     0.164 C 
ATOM      3  C   UNL     1      -1.138  14.174   2.724  1.00  0.00     0.232 C 
ATOM      4  O   UNL     1       0.256  14.285   2.440  1.00  0.00    -0.482 OA
ATOM      5  C   UNL     1       1.240  13.991   3.391  1.00  0.00     0.131 A 
ATOM      6  C   UNL     1       2.576  13.939   2.987  1.00  0.00     0.093 A 
ATOM      7  C   UNL     1       3.581  13.633   3.910  1.00  0.00     0.122 A 
ATOM      8  C   UNL     1       3.244  13.367   5.240  1.00  0.00     0.092 A 
ATOM      9  C   UNL     1       1.911  13.414   5.662  1.00  0.00     0.126 A 
ATOM     10  C   UNL     1       0.894  13.766   4.742  1.00  0.00     0.039 A 
ENDROOT
BRANCH   2  11
ATOM     11  O   UNL     1      -2.779  14.548   4.487  1.00  0.00    -0.389 OA
ATOM     12  H   UNL     1      -3.299  14.881   3.710  1.00  0.00     0.211 HD
ENDBRANCH   2  11
BRANCH   3  13
ATOM     13  C   UNL     1      -1.928  14.981   1.721  1.00  0.00    -0.001 A 
ATOM     14  C   UNL     1      -3.148  14.497   1.217  1.00  0.00     0.057 A 
ATOM     15  C   UNL     1      -1.427  16.203   1.245  1.00  0.00     0.012 A 
ATOM     16  C   UNL     1      -3.868  15.233   0.264  1.00  0.00     0.157 A 
ATOM     17  C   UNL     1      -2.143  16.937   0.296  1.00  0.00     0.050 A 
ATOM     18  C   UNL     1      -3.362  16.461  -0.196  1.00  0.00     0.157 A 
BRANCH  16  19
ATOM     19  O   UNL     1      -5.079  14.750  -0.226  1.00  0.00    -0.504 OA
ATOM     20  H   UNL     1      -5.122  13.925  -0.815  1.00  0.00     0.293 HD
ENDBRANCH  16  19
BRANCH  18  21
ATOM     21  O   UNL     1      -4.053  17.217  -1.141  1.00  0.00    -0.504 OA
ATOM     22  H   UNL     1      -5.018  17.496  -1.006  1.00  0.00     0.293 HD
ENDBRANCH  18  21
ENDBRANCH   3  13
BRANCH   9  23
ATOM     23  O   UNL     1       1.633  13.095   6.993  1.00  0.00    -0.507 OA
ATOM     24  H   UNL     1       2.286  13.253   7.751  1.00  0.00     0.293 HD
ENDBRANCH   9  23
BRANCH   7  25
ATOM     25  O   UNL     1       4.916  13.581   3.516  1.00  0.00    -0.508 OA
ATOM     26  H   UNL     1       5.244  14.067   2.689  1.00  0.00     0.293 HD
ENDBRANCH   7  25
TORSDOF 6
ENDMDL
MODEL 9
REMARK VINA RESULT:    -5.643      2.365      3.458
REMARK INTER + INTRA:          -7.166
REMARK INTER:                  -7.546
REMARK INTRA:                   0.380
REMARK UNBOUND:                -0.368
REMARK SMILES Oc1cc(O)c2c(c1)O[C@H](c1ccc(O)c(O)c1)[C@@H](O)C2
REMARK SMILES IDX 21 1 19 2 10 3 9 4 7 5 8 6 2 7 3 8 4 9 6 10 20 11 11 13
REMARK SMILES IDX 18 14 12 15 16 16 13 17 14 18 17 19 15 21 5 23 1 25
REMARK H PARENT 20 12 17 20 15 22 5 24 1 26
REMARK Flexibility Score: inf
ROOT
ATOM      1  C   UNL     1      -3.088  14.916   1.941  1.00  0.00     0.079 C 
ATOM      2  C   UNL     1      -1.603  14.648   2.255  1.00  0.00     0.164 C 
ATOM      3  C   UNL     1      -1.447  14.135   3.700  1.00  0.00     0.232 C 
ATOM      4  O   UNL     1      -2.021  15.075   4.607  1.00  0.00    -0.482 OA
ATOM      5  C   UNL     1      -3.201  15.770   4.319  1.00  0.00     0.131 A 
ATOM      6  C   UNL     1      -3.804  16.527   5.327  1.00  0.00     0.093 A 
ATOM      7  C   UNL     1      -4.992  17.220   5.075  1.00  0.00     0.122 A 
ATOM      8  C   UNL     1      -5.583  17.146   3.811  1.00  0.00     0.092 A 
ATOM      9  C   UNL     1      -4.995  16.392   2.789  1.00  0.00     0.126 A 
ATOM     10  C   UNL     1      -3.769  15.724   3.027  1.00  0.00     0.039 A 
ENDROOT
BRANCH   2  11
ATOM     11  O   UNL     1      -1.057  13.744   1.326  1.00  0.00    -0.389 OA
ATOM     12  H   UNL     1      -1.543  12.884   1.422  1.00  0.00     0.211 HD
ENDBRANCH   2  11
BRANCH   3  13
ATOM     13  C   UNL     1       0.007  13.915   4.047  1.00  0.00    -0.001 A 
ATOM     14  C   UNL     1       0.408  13.770   5.386  1.00  0.00     0.057 A 
ATOM     15  C   UNL     1       0.981  13.902   3.035  1.00  0.00     0.012 A 
ATOM     16  C   UNL     1       1.761  13.594   5.709  1.00  0.00     0.157 A 
ATOM     17  C   UNL     1       2.329  13.727   3.356  1.00  0.00     0.050 A 
ATOM     18  C   UNL     1       2.726  13.570   4.687  1.00  0.00     0.157 A 
BRANCH  16  19
ATOM     19  O   UNL     1       2.150  13.444   7.039  1.00  0.00    -0.504 OA
ATOM     20  H   UNL     1       2.021  14.187   7.717  1.00  0.00     0.293 HD
ENDBRANCH  16  19
BRANCH  18  21
ATOM     21  O   UNL     1       4.078  13.396   4.976  1.00  0.00    -0.504 OA
ATOM     22  H   UNL     1       4.474  12.484   5.173  1.00  0.00     0.293 HD
ENDBRANCH  18  21
ENDBRANCH   3  13
BRANCH   9  23
ATOM     23  O   UNL     1      -5.657  16.320   1.562  1.00  0.00    -0.507 OA
ATOM     24  H   UNL     1      -6.336  15.604   1.338  1.00  0.00     0.293 HD
ENDBRANCH   9  23
BRANCH   7  25
ATOM     25  O   UNL     1      -5.597  17.978   6.074  1.00  0.00    -0.508 OA
ATOM     26  H   UNL     1      -5.066  18.626   6.644  1.00  0.00     0.293 HD
ENDBRANCH   7  25
TORSDOF 6
ENDMDL
