MODEL 1
REMARK VINA RESULT:    -7.457      0.000      0.000
REMARK INTER + INTRA:          -7.457
REMARK INTER:                  -7.457
REMARK INTRA:                   0.000
REMARK UNBOUND:                 0.000
REMARK SMILES C=C1CCC[C@@]2(C)CC(=O)C(=C(C)C)C[C@@H]12
REMARK SMILES IDX 13 1 12 2 11 3 15 4 16 5 2 6 1 7 3 8 4 9 5 10 6 11 8 12 9 13
REMARK SMILES IDX 10 14 7 15 14 16
REMARK H PARENT
REMARK Flexibility Score: inf
ROOT
ATOM      1  C   UNL     1      -7.856  35.653  22.278  1.00  0.00     0.039 C 
ATOM      2  C   UNL     1      -8.202  34.813  23.486  1.00  0.00    -0.070 C 
ATOM      3  C   UNL     1      -8.188  33.447  23.446  1.00  0.00    -0.006 C 
ATOM      4  C   UNL     1      -8.613  32.600  24.634  1.00  0.00     0.047 C 
ATOM      5  C   UNL     1      -7.751  31.319  24.743  1.00  0.00     0.025 C 
ATOM      6  C   UNL     1      -8.191  30.533  25.973  1.00  0.00    -0.073 C 
ATOM      7  C   UNL     1      -7.637  30.789  27.168  1.00  0.00     0.008 C 
ATOM      8  C   UNL     1      -9.301  29.510  25.890  1.00  0.00     0.031 C 
ATOM      9  C   UNL     1      -9.727  29.238  24.448  1.00  0.00     0.005 C 
ATOM     10  C   UNL     1      -8.493  29.099  23.555  1.00  0.00     0.008 C 
ATOM     11  C   UNL     1      -7.713  30.443  23.414  1.00  0.00    -0.018 C 
ATOM     12  C   UNL     1      -8.296  31.219  22.193  1.00  0.00     0.088 C 
ATOM     13  C   UNL     1      -7.895  32.661  22.216  1.00  0.00     0.159 C 
ATOM     14  O   UNL     1      -7.324  33.160  21.210  1.00  0.00    -0.295 OA
ATOM     15  C   UNL     1      -6.239  30.091  23.094  1.00  0.00     0.012 C 
ATOM     16  C   UNL     1      -8.606  35.550  24.742  1.00  0.00     0.039 C 
ENDROOT
TORSDOF 0
ENDMDL
MODEL 2
REMARK VINA RESULT:    -7.356      2.122      4.532
REMARK INTER + INTRA:          -7.356
REMARK INTER:                  -7.356
REMARK INTRA:                   0.000
REMARK UNBOUND:                 0.000
REMARK SMILES C=C1CCC[C@@]2(C)CC(=O)C(=C(C)C)C[C@@H]12
REMARK SMILES IDX 13 1 12 2 11 3 15 4 16 5 2 6 1 7 3 8 4 9 5 10 6 11 8 12 9 13
REMARK SMILES IDX 10 14 7 15 14 16
REMARK H PARENT
REMARK Flexibility Score: inf
ROOT
ATOM      1  C   UNL     1      -8.364  33.013  28.676  1.00  0.00     0.039 C 
ATOM      2  C   UNL     1      -8.296  32.161  27.429  1.00  0.00    -0.070 C 
ATOM      3  C   UNL     1      -8.371  32.703  26.177  1.00  0.00    -0.006 C 
ATOM      4  C   UNL     1      -8.385  31.842  24.924  1.00  0.00     0.047 C 
ATOM      5  C   UNL     1      -7.613  32.526  23.770  1.00  0.00     0.025 C 
ATOM      6  C   UNL     1      -7.622  31.601  22.557  1.00  0.00    -0.073 C 
ATOM      7  C   UNL     1      -6.662  30.676  22.410  1.00  0.00     0.008 C 
ATOM      8  C   UNL     1      -8.742  31.656  21.543  1.00  0.00     0.031 C 
ATOM      9  C   UNL     1      -9.673  32.845  21.776  1.00  0.00     0.005 C 
ATOM     10  C   UNL     1      -8.854  34.101  22.076  1.00  0.00     0.008 C 
ATOM     11  C   UNL     1      -8.104  34.004  23.441  1.00  0.00    -0.018 C 
ATOM     12  C   UNL     1      -9.045  34.562  24.554  1.00  0.00     0.088 C 
ATOM     13  C   UNL     1      -8.585  34.153  25.918  1.00  0.00     0.159 C 
ATOM     14  O   UNL     1      -8.389  35.038  26.794  1.00  0.00    -0.295 OA
ATOM     15  C   UNL     1      -6.867  34.931  23.357  1.00  0.00     0.012 C 
ATOM     16  C   UNL     1      -8.179  30.666  27.625  1.00  0.00     0.039 C 
ENDROOT
TORSDOF 0
ENDMDL
MODEL 3
REMARK VINA RESULT:    -6.697      2.066      3.475
REMARK INTER + INTRA:          -6.697
REMARK INTER:                  -6.697
REMARK INTRA:                   0.000
REMARK UNBOUND:                 0.000
REMARK SMILES C=C1CCC[C@@]2(C)CC(=O)C(=C(C)C)C[C@@H]12
REMARK SMILES IDX 13 1 12 2 11 3 15 4 16 5 2 6 1 7 3 8 4 9 5 10 6 11 8 12 9 13
REMARK SMILES IDX 10 14 7 15 14 16
REMARK H PARENT
REMARK Flexibility Score: inf
ROOT
ATOM      1  C   UNL     1      -8.509  35.749  26.531  1.00  0.00     0.039 C 
ATOM      2  C   UNL     1      -8.340  34.316  26.080  1.00  0.00    -0.070 C 
ATOM      3  C   UNL     1      -8.411  33.958  24.764  1.00  0.00    -0.006 C 
ATOM      4  C   UNL     1      -8.323  32.509  24.314  1.00  0.00     0.047 C 
ATOM      5  C   UNL     1      -7.563  32.386  22.972  1.00  0.00     0.025 C 
ATOM      6  C   UNL     1      -7.466  30.912  22.594  1.00  0.00    -0.073 C 
ATOM      7  C   UNL     1      -6.438  30.171  23.035  1.00  0.00     0.008 C 
ATOM      8  C   UNL     1      -8.552  30.241  21.784  1.00  0.00     0.031 C 
ATOM      9  C   UNL     1      -9.572  31.244  21.246  1.00  0.00     0.005 C 
ATOM     10  C   UNL     1      -8.854  32.473  20.688  1.00  0.00     0.008 C 
ATOM     11  C   UNL     1      -8.145  33.301  21.806  1.00  0.00    -0.018 C 
ATOM     12  C   UNL     1      -9.160  34.354  22.349  1.00  0.00     0.088 C 
ATOM     13  C   UNL     1      -8.718  34.915  23.665  1.00  0.00     0.159 C 
ATOM     14  O   UNL     1      -8.613  36.163  23.800  1.00  0.00    -0.295 OA
ATOM     15  C   UNL     1      -6.974  34.067  21.143  1.00  0.00     0.012 C 
ATOM     16  C   UNL     1      -8.124  33.278  27.158  1.00  0.00     0.039 C 
ENDROOT
TORSDOF 0
ENDMDL
MODEL 4
REMARK VINA RESULT:    -6.595      2.364      4.132
REMARK INTER + INTRA:          -6.595
REMARK INTER:                  -6.595
REMARK INTRA:                   0.000
REMARK UNBOUND:                 0.000
REMARK SMILES C=C1CCC[C@@]2(C)CC(=O)C(=C(C)C)C[C@@H]12
REMARK SMILES IDX 13 1 12 2 11 3 15 4 16 5 2 6 1 7 3 8 4 9 5 10 6 11 8 12 9 13
REMARK SMILES IDX 10 14 7 15 14 16
REMARK H PARENT
REMARK Flexibility Score: inf
ROOT
ATOM      1  C   UNL     1      -8.251  33.462  28.773  1.00  0.00     0.039 C 
ATOM      2  C   UNL     1      -8.310  33.730  27.287  1.00  0.00    -0.070 C 
ATOM      3  C   UNL     1      -8.230  32.724  26.366  1.00  0.00    -0.006 C 
ATOM      4  C   UNL     1      -8.206  32.996  24.871  1.00  0.00     0.047 C 
ATOM      5  C   UNL     1      -8.975  31.902  24.092  1.00  0.00     0.025 C 
ATOM      6  C   UNL     1      -8.956  32.250  22.608  1.00  0.00    -0.073 C 
ATOM      7  C   UNL     1      -9.913  33.034  22.089  1.00  0.00     0.008 C 
ATOM      8  C   UNL     1      -7.832  31.784  21.712  1.00  0.00     0.031 C 
ATOM      9  C   UNL     1      -6.906  30.793  22.416  1.00  0.00     0.005 C 
ATOM     10  C   UNL     1      -7.731  29.770  23.198  1.00  0.00     0.008 C 
ATOM     11  C   UNL     1      -8.487  30.418  24.401  1.00  0.00    -0.018 C 
ATOM     12  C   UNL     1      -7.554  30.363  25.649  1.00  0.00     0.088 C 
ATOM     13  C   UNL     1      -8.019  31.294  26.724  1.00  0.00     0.159 C 
ATOM     14  O   UNL     1      -8.223  30.845  27.884  1.00  0.00    -0.295 OA
ATOM     15  C   UNL     1      -9.727  29.538  24.695  1.00  0.00     0.012 C 
ATOM     16  C   UNL     1      -8.423  35.174  26.854  1.00  0.00     0.039 C 
ENDROOT
TORSDOF 0
ENDMDL
MODEL 5
REMARK VINA RESULT:    -6.252      2.282      3.938
REMARK INTER + INTRA:          -6.252
REMARK INTER:                  -6.252
REMARK INTRA:                   0.000
REMARK UNBOUND:                 0.000
REMARK SMILES C=C1CCC[C@@]2(C)CC(=O)C(=C(C)C)C[C@@H]12
REMARK SMILES IDX 13 1 12 2 11 3 15 4 16 5 2 6 1 7 3 8 4 9 5 10 6 11 8 12 9 13
REMARK SMILES IDX 10 14 7 15 14 16
REMARK H PARENT
REMARK Flexibility Score: inf
ROOT
ATOM      1  C   UNL     1      -8.251  34.991  28.089  1.00  0.00     0.039 C 
ATOM      2  C   UNL     1      -8.258  34.773  26.593  1.00  0.00    -0.070 C 
ATOM      3  C   UNL     1      -8.285  33.523  26.044  1.00  0.00    -0.006 C 
ATOM      4  C   UNL     1      -8.210  33.298  24.542  1.00  0.00     0.047 C 
ATOM      5  C   UNL     1      -9.092  32.101  24.113  1.00  0.00     0.025 C 
ATOM      6  C   UNL     1      -9.013  31.951  22.597  1.00  0.00    -0.073 C 
ATOM      7  C   UNL     1      -9.864  32.627  21.810  1.00  0.00     0.008 C 
ATOM      8  C   UNL     1      -7.940  31.105  21.952  1.00  0.00     0.031 C 
ATOM      9  C   UNL     1      -7.146  30.298  22.979  1.00  0.00     0.005 C 
ATOM     10  C   UNL     1      -8.096  29.675  24.002  1.00  0.00     0.008 C 
ATOM     11  C   UNL     1      -8.786  30.750  24.898  1.00  0.00    -0.018 C 
ATOM     12  C   UNL     1      -7.883  30.998  26.145  1.00  0.00     0.088 C 
ATOM     13  C   UNL     1      -8.249  32.269  26.846  1.00  0.00     0.159 C 
ATOM     14  O   UNL     1      -8.520  32.239  28.076  1.00  0.00    -0.295 OA
ATOM     15  C   UNL     1     -10.125  30.150  25.393  1.00  0.00     0.012 C 
ATOM     16  C   UNL     1      -8.195  36.006  25.720  1.00  0.00     0.039 C 
ENDROOT
TORSDOF 0
ENDMDL
MODEL 6
REMARK VINA RESULT:    -6.137      1.394      1.722
REMARK INTER + INTRA:          -6.137
REMARK INTER:                  -6.137
REMARK INTRA:                   0.000
REMARK UNBOUND:                 0.000
REMARK SMILES C=C1CCC[C@@]2(C)CC(=O)C(=C(C)C)C[C@@H]12
REMARK SMILES IDX 13 1 12 2 11 3 15 4 16 5 2 6 1 7 3 8 4 9 5 10 6 11 8 12 9 13
REMARK SMILES IDX 10 14 7 15 14 16
REMARK H PARENT
REMARK Flexibility Score: inf
ROOT
ATOM      1  C   UNL     1      -7.219  34.555  20.470  1.00  0.00     0.039 C 
ATOM      2  C   UNL     1      -7.766  34.599  21.879  1.00  0.00    -0.070 C 
ATOM      3  C   UNL     1      -7.940  33.466  22.622  1.00  0.00    -0.006 C 
ATOM      4  C   UNL     1      -8.565  33.497  24.008  1.00  0.00     0.047 C 
ATOM      5  C   UNL     1      -7.901  32.458  24.943  1.00  0.00     0.025 C 
ATOM      6  C   UNL     1      -8.534  32.565  26.325  1.00  0.00    -0.073 C 
ATOM      7  C   UNL     1      -8.038  33.425  27.228  1.00  0.00     0.008 C 
ATOM      8  C   UNL     1      -9.767  31.767  26.682  1.00  0.00     0.031 C 
ATOM      9  C   UNL     1     -10.122  30.742  25.606  1.00  0.00     0.005 C 
ATOM     10  C   UNL     1      -8.859  30.021  25.133  1.00  0.00     0.008 C 
ATOM     11  C   UNL     1      -7.889  30.974  24.365  1.00  0.00    -0.018 C 
ATOM     12  C   UNL     1      -8.268  30.939  22.853  1.00  0.00     0.088 C 
ATOM     13  C   UNL     1      -7.672  32.094  22.110  1.00  0.00     0.159 C 
ATOM     14  O   UNL     1      -6.965  31.873  21.091  1.00  0.00    -0.295 OA
ATOM     15  C   UNL     1      -6.460  30.396  24.511  1.00  0.00     0.012 C 
ATOM     16  C   UNL     1      -8.151  35.955  22.424  1.00  0.00     0.039 C 
ENDROOT
TORSDOF 0
ENDMDL
MODEL 7
REMARK VINA RESULT:    -5.952      1.893      4.881
REMARK INTER + INTRA:          -5.952
REMARK INTER:                  -5.952
REMARK INTRA:                   0.000
REMARK UNBOUND:                 0.000
REMARK SMILES C=C1CCC[C@@]2(C)CC(=O)C(=C(C)C)C[C@@H]12
REMARK SMILES IDX 13 1 12 2 11 3 15 4 16 5 2 6 1 7 3 8 4 9 5 10 6 11 8 12 9 13
REMARK SMILES IDX 10 14 7 15 14 16
REMARK H PARENT
REMARK Flexibility Score: inf
ROOT
ATOM      1  C   UNL     1      -9.025  29.598  27.089  1.00  0.00     0.039 C 
ATOM      2  C   UNL     1      -8.764  31.086  27.033  1.00  0.00    -0.070 C 
ATOM      3  C   UNL     1      -8.624  31.752  25.848  1.00  0.00    -0.006 C 
ATOM      4  C   UNL     1      -8.281  33.231  25.789  1.00  0.00     0.047 C 
ATOM      5  C   UNL     1      -9.005  33.925  24.610  1.00  0.00     0.025 C 
ATOM      6  C   UNL     1      -8.660  35.410  24.627  1.00  0.00    -0.073 C 
ATOM      7  C   UNL     1      -9.402  36.265  25.347  1.00  0.00     0.008 C 
ATOM      8  C   UNL     1      -7.445  35.937  23.899  1.00  0.00     0.031 C 
ATOM      9  C   UNL     1      -6.791  34.871  23.020  1.00  0.00     0.005 C 
ATOM     10  C   UNL     1      -7.864  34.097  22.252  1.00  0.00     0.008 C 
ATOM     11  C   UNL     1      -8.759  33.234  23.196  1.00  0.00    -0.018 C 
ATOM     12  C   UNL     1      -8.097  31.830  23.346  1.00  0.00     0.088 C 
ATOM     13  C   UNL     1      -8.652  31.083  24.518  1.00  0.00     0.159 C 
ATOM     14  O   UNL     1      -9.126  29.928  24.346  1.00  0.00    -0.295 OA
ATOM     15  C   UNL     1     -10.125  33.044  22.493  1.00  0.00     0.012 C 
ATOM     16  C   UNL     1      -8.625  31.808  28.353  1.00  0.00     0.039 C 
ENDROOT
TORSDOF 0
ENDMDL
MODEL 8
REMARK VINA RESULT:    -5.582     17.841     19.957
REMARK INTER + INTRA:          -5.582
REMARK INTER:                  -5.582
REMARK INTRA:                   0.000
REMARK UNBOUND:                 0.000
REMARK SMILES C=C1CCC[C@@]2(C)CC(=O)C(=C(C)C)C[C@@H]12
REMARK SMILES IDX 13 1 12 2 11 3 15 4 16 5 2 6 1 7 3 8 4 9 5 10 6 11 8 12 9 13
REMARK SMILES IDX 10 14 7 15 14 16
REMARK H PARENT
REMARK Flexibility Score: inf
ROOT
ATOM      1  C   UNL     1       3.776  48.140  15.499  1.00  0.00     0.039 C 
ATOM      2  C   UNL     1       4.174  47.450  16.784  1.00  0.00    -0.070 C 
ATOM      3  C   UNL     1       3.524  47.685  17.962  1.00  0.00    -0.006 C 
ATOM      4  C   UNL     1       3.972  47.055  19.271  1.00  0.00     0.047 C 
ATOM      5  C   UNL     1       2.758  46.700  20.164  1.00  0.00     0.025 C 
ATOM      6  C   UNL     1       3.264  46.034  21.438  1.00  0.00    -0.073 C 
ATOM      7  C   UNL     1       3.449  44.705  21.475  1.00  0.00     0.008 C 
ATOM      8  C   UNL     1       3.633  46.854  22.653  1.00  0.00     0.031 C 
ATOM      9  C   UNL     1       3.236  48.321  22.501  1.00  0.00     0.005 C 
ATOM     10  C   UNL     1       1.829  48.424  21.911  1.00  0.00     0.008 C 
ATOM     11  C   UNL     1       1.769  47.918  20.435  1.00  0.00    -0.018 C 
ATOM     12  C   UNL     1       2.066  49.125  19.493  1.00  0.00     0.088 C 
ATOM     13  C   UNL     1       2.418  48.670  18.112  1.00  0.00     0.159 C 
ATOM     14  O   UNL     1       1.773  49.124  17.129  1.00  0.00    -0.295 OA
ATOM     15  C   UNL     1       0.318  47.449  20.165  1.00  0.00     0.012 C 
ATOM     16  C   UNL     1       5.356  46.510  16.720  1.00  0.00     0.039 C 
ENDROOT
TORSDOF 0
ENDMDL
