MODEL 1
REMARK VINA RESULT:     0.000      0.000      0.000
REMARK INTER + INTRA:          -3.114
REMARK INTER:                   0.000
REMARK INTRA:                  -3.114
REMARK UNBOUND:                -3.114
REMARK SMILES O=C([O-])CCCCCCCCCCCCCCC(=O)[O-]
REMARK SMILES IDX 10 1 9 2 8 3 7 4 6 5 5 6 4 7 2 8 1 9 3 10 11 11 12 12 13 13
REMARK SMILES IDX 14 14 15 15 16 16 17 17 18 18 19 19 20 20
REMARK H PARENT
REMARK Flexibility Score: inf
ROOT
ATOM      1  C   UNL     1     170.224 188.023 194.965  1.00  0.00     0.000 C 
ENDROOT
BRANCH   1   2
ATOM      2  C   UNL     1     169.075 188.843 194.365  1.00  0.00     0.000 C 
BRANCH   2   3
ATOM      3  C   UNL     1     169.436 189.350 192.961  1.00  0.00     0.000 C 
BRANCH   3   4
ATOM      4  C   UNL     1     168.566 188.719 191.862  1.00  0.00     0.000 C 
BRANCH   4   5
ATOM      5  C   UNL     1     169.400 188.053 190.757  1.00  0.00     0.000 C 
BRANCH   5   6
ATOM      6  C   UNL     1     170.763 188.744 190.608  1.00  0.00     0.006 C 
BRANCH   6   7
ATOM      7  C   UNL     1     171.871 187.763 190.201  1.00  0.00     0.053 C 
BRANCH   7   8
ATOM      8  C   UNL     1     171.492 186.964 188.993  1.00  0.00     0.041 C 
ATOM      9  O   UNL     1     171.427 185.708 189.058  1.00  0.00    -0.550 OA
ATOM     10  O   UNL     1     171.245 187.603 187.784  1.00  0.00    -0.550 OA
ENDBRANCH   7   8
ENDBRANCH   6   7
ENDBRANCH   5   6
ENDBRANCH   4   5
ENDBRANCH   3   4
ENDBRANCH   2   3
ENDBRANCH   1   2
BRANCH   1  11
ATOM     11  C   UNL     1     171.545 188.316 194.244  1.00  0.00     0.000 C 
BRANCH  11  12
ATOM     12  C   UNL     1     172.238 187.014 193.817  1.00  0.00     0.000 C 
BRANCH  12  13
ATOM     13  C   UNL     1     171.319 185.784 193.925  1.00  0.00     0.000 C 
BRANCH  13  14
ATOM     14  C   UNL     1     170.946 185.130 192.580  1.00  0.00     0.000 C 
BRANCH  14  15
ATOM     15  C   UNL     1     169.440 184.873 192.372  1.00  0.00     0.000 C 
BRANCH  15  16
ATOM     16  C   UNL     1     168.596 184.876 193.660  1.00  0.00     0.006 C 
BRANCH  16  17
ATOM     17  C   UNL     1     167.305 185.692 193.523  1.00  0.00     0.053 C 
BRANCH  17  18
ATOM     18  C   UNL     1     166.514 185.224 192.342  1.00  0.00     0.041 C 
ATOM     19  O   UNL     1     166.254 186.016 191.400  1.00  0.00    -0.550 OA
ATOM     20  O   UNL     1     166.024 183.924 192.305  1.00  0.00    -0.550 OA
ENDBRANCH  17  18
ENDBRANCH  16  17
ENDBRANCH  15  16
ENDBRANCH  14  15
ENDBRANCH  13  14
ENDBRANCH  12  13
ENDBRANCH  11  12
ENDBRANCH   1  11
TORSDOF 15
ENDMDL
MODEL 2
REMARK VINA RESULT:     0.001     11.366     13.698
REMARK INTER + INTRA:          -3.112
REMARK INTER:                   0.000
REMARK INTRA:                  -3.112
REMARK UNBOUND:                -3.114
REMARK SMILES O=C([O-])CCCCCCCCCCCCCCC(=O)[O-]
REMARK SMILES IDX 10 1 9 2 8 3 7 4 6 5 5 6 4 7 2 8 1 9 3 10 11 11 12 12 13 13
REMARK SMILES IDX 14 14 15 15 16 16 17 17 18 18 19 19 20 20
REMARK H PARENT
REMARK Flexibility Score: inf
ROOT
ATOM      1  C   UNL     1     176.361 187.375 200.340  1.00  0.00     0.000 C 
ENDROOT
BRANCH   1   2
ATOM      2  C   UNL     1     177.846 187.421 199.959  1.00  0.00     0.000 C 
BRANCH   2   3
ATOM      3  C   UNL     1     178.443 186.008 199.904  1.00  0.00     0.000 C 
BRANCH   3   4
ATOM      4  C   UNL     1     179.197 185.632 201.190  1.00  0.00     0.000 C 
BRANCH   4   5
ATOM      5  C   UNL     1     178.937 184.182 201.626  1.00  0.00     0.000 C 
BRANCH   5   6
ATOM      6  C   UNL     1     178.194 183.405 200.529  1.00  0.00     0.006 C 
BRANCH   6   7
ATOM      7  C   UNL     1     177.101 182.492 201.102  1.00  0.00     0.053 C 
BRANCH   7   8
ATOM      8  C   UNL     1     177.623 181.622 202.203  1.00  0.00     0.041 C 
ATOM      9  O   UNL     1     178.447 180.704 201.948  1.00  0.00    -0.550 OA
ATOM     10  O   UNL     1     177.174 181.800 203.506  1.00  0.00    -0.550 OA
ENDBRANCH   7   8
ENDBRANCH   6   7
ENDBRANCH   5   6
ENDBRANCH   4   5
ENDBRANCH   3   4
ENDBRANCH   2   3
ENDBRANCH   1   2
BRANCH   1  11
ATOM     11  C   UNL     1     175.694 186.104 199.802  1.00  0.00     0.000 C 
BRANCH  11  12
ATOM     12  C   UNL     1     174.864 185.415 200.894  1.00  0.00     0.000 C 
BRANCH  12  13
ATOM     13  C   UNL     1     175.079 186.033 202.287  1.00  0.00     0.000 C 
BRANCH  13  14
ATOM     14  C   UNL     1     175.722 185.092 203.326  1.00  0.00     0.000 C 
BRANCH  14  15
ATOM     15  C   UNL     1     176.846 185.721 204.173  1.00  0.00     0.000 C 
BRANCH  15  16
ATOM     16  C   UNL     1     177.031 187.238 203.982  1.00  0.00     0.006 C 
BRANCH  16  17
ATOM     17  C   UNL     1     178.486 187.687 204.168  1.00  0.00     0.053 C 
BRANCH  17  18
ATOM     18  C   UNL     1     178.817 188.792 203.214  1.00  0.00     0.041 C 
ATOM     19  O   UNL     1     177.947 189.652 202.916  1.00  0.00    -0.550 OA
ATOM     20  O   UNL     1     180.070 188.844 202.617  1.00  0.00    -0.550 OA
ENDBRANCH  17  18
ENDBRANCH  16  17
ENDBRANCH  15  16
ENDBRANCH  14  15
ENDBRANCH  13  14
ENDBRANCH  12  13
ENDBRANCH  11  12
ENDBRANCH   1  11
TORSDOF 15
ENDMDL
MODEL 3
REMARK VINA RESULT:     0.006      6.881      9.468
REMARK INTER + INTRA:          -3.103
REMARK INTER:                   0.000
REMARK INTRA:                  -3.103
REMARK UNBOUND:                -3.114
REMARK SMILES O=C([O-])CCCCCCCCCCCCCCC(=O)[O-]
REMARK SMILES IDX 10 1 9 2 8 3 7 4 6 5 5 6 4 7 2 8 1 9 3 10 11 11 12 12 13 13
REMARK SMILES IDX 14 14 15 15 16 16 17 17 18 18 19 19 20 20
REMARK H PARENT
REMARK Flexibility Score: inf
ROOT
ATOM      1  C   UNL     1     177.989 188.441 192.240  1.00  0.00     0.000 C 
ENDROOT
BRANCH   1   2
ATOM      2  C   UNL     1     177.370 187.635 193.388  1.00  0.00     0.000 C 
BRANCH   2   3
ATOM      3  C   UNL     1     176.247 186.721 192.875  1.00  0.00     0.000 C 
BRANCH   3   4
ATOM      4  C   UNL     1     176.594 185.229 192.998  1.00  0.00     0.000 C 
BRANCH   4   5
ATOM      5  C   UNL     1     176.397 184.465 191.680  1.00  0.00     0.000 C 
BRANCH   5   6
ATOM      6  C   UNL     1     175.325 185.139 190.811  1.00  0.00     0.006 C 
BRANCH   6   7
ATOM      7  C   UNL     1     175.668 185.082 189.316  1.00  0.00     0.053 C 
BRANCH   7   8
ATOM      8  C   UNL     1     175.862 183.675 188.842  1.00  0.00     0.041 C 
ATOM      9  O   UNL     1     174.892 182.871 188.830  1.00  0.00    -0.550 OA
ATOM     10  O   UNL     1     177.121 183.239 188.448  1.00  0.00    -0.550 OA
ENDBRANCH   7   8
ENDBRANCH   6   7
ENDBRANCH   5   6
ENDBRANCH   4   5
ENDBRANCH   3   4
ENDBRANCH   2   3
ENDBRANCH   1   2
BRANCH   1  11
ATOM     11  C   UNL     1     177.063 188.460 191.018  1.00  0.00     0.000 C 
BRANCH  11  12
ATOM     12  C   UNL     1     177.832 188.094 189.740  1.00  0.00     0.000 C 
BRANCH  12  13
ATOM     13  C   UNL     1     179.179 187.408 190.030  1.00  0.00     0.000 C 
BRANCH  13  14
ATOM     14  C   UNL     1     179.237 185.910 189.672  1.00  0.00     0.000 C 
BRANCH  14  15
ATOM     15  C   UNL     1     179.859 185.001 190.751  1.00  0.00     0.000 C 
BRANCH  15  16
ATOM     16  C   UNL     1     180.605 185.745 191.875  1.00  0.00     0.006 C 
BRANCH  16  17
ATOM     17  C   UNL     1     180.214 185.253 193.274  1.00  0.00     0.053 C 
BRANCH  17  18
ATOM     18  C   UNL     1     180.370 183.767 193.367  1.00  0.00     0.041 C 
ATOM     19  O   UNL     1     179.381 183.044 193.654  1.00  0.00    -0.550 OA
ATOM     20  O   UNL     1     181.619 183.186 193.183  1.00  0.00    -0.550 OA
ENDBRANCH  17  18
ENDBRANCH  16  17
ENDBRANCH  15  16
ENDBRANCH  14  15
ENDBRANCH  13  14
ENDBRANCH  12  13
ENDBRANCH  11  12
ENDBRANCH   1  11
TORSDOF 15
ENDMDL
MODEL 4
REMARK VINA RESULT:     0.018      8.467     11.127
REMARK INTER + INTRA:          -3.081
REMARK INTER:                   0.000
REMARK INTRA:                  -3.081
REMARK UNBOUND:                -3.114
REMARK SMILES O=C([O-])CCCCCCCCCCCCCCC(=O)[O-]
REMARK SMILES IDX 10 1 9 2 8 3 7 4 6 5 5 6 4 7 2 8 1 9 3 10 11 11 12 12 13 13
REMARK SMILES IDX 14 14 15 15 16 16 17 17 18 18 19 19 20 20
REMARK H PARENT
REMARK Flexibility Score: inf
ROOT
ATOM      1  C   UNL     1     173.604 192.444 195.131  1.00  0.00     0.000 C 
ENDROOT
BRANCH   1   2
ATOM      2  C   UNL     1     173.869 193.310 193.893  1.00  0.00     0.000 C 
BRANCH   2   3
ATOM      3  C   UNL     1     172.571 193.954 193.385  1.00  0.00     0.000 C 
BRANCH   3   4
ATOM      4  C   UNL     1     171.502 194.079 194.483  1.00  0.00     0.000 C 
BRANCH   4   5
ATOM      5  C   UNL     1     171.309 195.526 194.960  1.00  0.00     0.000 C 
BRANCH   5   6
ATOM      6  C   UNL     1     171.199 195.588 196.490  1.00  0.00     0.006 C 
BRANCH   6   7
ATOM      7  C   UNL     1     171.020 194.198 197.117  1.00  0.00     0.053 C 
BRANCH   7   8
ATOM      8  C   UNL     1     171.705 194.094 198.445  1.00  0.00     0.041 C 
ATOM      9  O   UNL     1     171.949 195.132 199.115  1.00  0.00    -0.550 OA
ATOM     10  O   UNL     1     172.105 192.854 198.928  1.00  0.00    -0.550 OA
ENDBRANCH   7   8
ENDBRANCH   6   7
ENDBRANCH   5   6
ENDBRANCH   4   5
ENDBRANCH   3   4
ENDBRANCH   2   3
ENDBRANCH   1   2
BRANCH   1  11
ATOM     11  C   UNL     1     174.515 192.853 196.294  1.00  0.00     0.000 C 
BRANCH  11  12
ATOM     12  C   UNL     1     175.247 194.167 195.983  1.00  0.00     0.000 C 
BRANCH  12  13
ATOM     13  C   UNL     1     174.882 195.299 196.961  1.00  0.00     0.000 C 
BRANCH  13  14
ATOM     14  C   UNL     1     174.717 196.689 196.315  1.00  0.00     0.000 C 
BRANCH  14  15
ATOM     15  C   UNL     1     174.884 196.724 194.783  1.00  0.00     0.000 C 
BRANCH  15  16
ATOM     16  C   UNL     1     174.102 197.843 194.070  1.00  0.00     0.006 C 
BRANCH  16  17
ATOM     17  C   UNL     1     173.602 197.427 192.680  1.00  0.00     0.053 C 
BRANCH  17  18
ATOM     18  C   UNL     1     174.752 197.026 191.811  1.00  0.00     0.041 C 
ATOM     19  O   UNL     1     174.808 195.864 191.332  1.00  0.00    -0.550 OA
ATOM     20  O   UNL     1     175.786 197.922 191.569  1.00  0.00    -0.550 OA
ENDBRANCH  17  18
ENDBRANCH  16  17
ENDBRANCH  15  16
ENDBRANCH  14  15
ENDBRANCH  13  14
ENDBRANCH  12  13
ENDBRANCH  11  12
ENDBRANCH   1  11
TORSDOF 15
ENDMDL
MODEL 5
REMARK VINA RESULT:     0.018      7.549     10.016
REMARK INTER + INTRA:          -3.080
REMARK INTER:                   0.000
REMARK INTRA:                  -3.080
REMARK UNBOUND:                -3.114
REMARK SMILES O=C([O-])CCCCCCCCCCCCCCC(=O)[O-]
REMARK SMILES IDX 10 1 9 2 8 3 7 4 6 5 5 6 4 7 2 8 1 9 3 10 11 11 12 12 13 13
REMARK SMILES IDX 14 14 15 15 16 16 17 17 18 18 19 19 20 20
REMARK H PARENT
REMARK Flexibility Score: inf
ROOT
ATOM      1  C   UNL     1     178.909 189.597 197.323  1.00  0.00     0.000 C 
ENDROOT
BRANCH   1   2
ATOM      2  C   UNL     1     178.433 188.583 196.275  1.00  0.00     0.000 C 
BRANCH   2   3
ATOM      3  C   UNL     1     178.720 187.145 196.732  1.00  0.00     0.000 C 
BRANCH   3   4
ATOM      4  C   UNL     1     177.600 186.166 196.345  1.00  0.00     0.000 C 
BRANCH   4   5
ATOM      5  C   UNL     1     176.499 186.828 195.504  1.00  0.00     0.000 C 
BRANCH   5   6
ATOM      6  C   UNL     1     175.138 186.164 195.761  1.00  0.00     0.006 C 
BRANCH   6   7
ATOM      7  C   UNL     1     173.987 187.179 195.765  1.00  0.00     0.053 C 
BRANCH   7   8
ATOM      8  C   UNL     1     173.899 187.926 194.470  1.00  0.00     0.041 C 
ATOM      9  O   UNL     1     173.662 187.310 193.398  1.00  0.00    -0.550 OA
ATOM     10  O   UNL     1     174.115 189.299 194.441  1.00  0.00    -0.550 OA
ENDBRANCH   7   8
ENDBRANCH   6   7
ENDBRANCH   5   6
ENDBRANCH   4   5
ENDBRANCH   3   4
ENDBRANCH   2   3
ENDBRANCH   1   2
BRANCH   1  11
ATOM     11  C   UNL     1     177.761 190.511 197.765  1.00  0.00     0.000 C 
BRANCH  11  12
ATOM     12  C   UNL     1     176.487 190.224 196.959  1.00  0.00     0.000 C 
BRANCH  12  13
ATOM     13  C   UNL     1     175.264 189.951 197.852  1.00  0.00     0.000 C 
BRANCH  13  14
ATOM     14  C   UNL     1     175.575 189.237 199.183  1.00  0.00     0.000 C 
BRANCH  14  15
ATOM     15  C   UNL     1     175.561 187.697 199.120  1.00  0.00     0.000 C 
BRANCH  15  16
ATOM     16  C   UNL     1     176.712 187.005 199.873  1.00  0.00     0.006 C 
BRANCH  16  17
ATOM     17  C   UNL     1     177.686 188.002 200.515  1.00  0.00     0.053 C 
BRANCH  17  18
ATOM     18  C   UNL     1     179.092 187.499 200.407  1.00  0.00     0.041 C 
ATOM     19  O   UNL     1     180.058 188.305 200.463  1.00  0.00    -0.550 OA
ATOM     20  O   UNL     1     179.333 186.147 200.199  1.00  0.00    -0.550 OA
ENDBRANCH  17  18
ENDBRANCH  16  17
ENDBRANCH  15  16
ENDBRANCH  14  15
ENDBRANCH  13  14
ENDBRANCH  12  13
ENDBRANCH  11  12
ENDBRANCH   1  11
TORSDOF 15
ENDMDL
MODEL 6
REMARK VINA RESULT:     0.028      9.549     12.023
REMARK INTER + INTRA:          -3.061
REMARK INTER:                   0.000
REMARK INTRA:                  -3.061
REMARK UNBOUND:                -3.114
REMARK SMILES O=C([O-])CCCCCCCCCCCCCCC(=O)[O-]
REMARK SMILES IDX 10 1 9 2 8 3 7 4 6 5 5 6 4 7 2 8 1 9 3 10 11 11 12 12 13 13
REMARK SMILES IDX 14 14 15 15 16 16 17 17 18 18 19 19 20 20
REMARK H PARENT
REMARK Flexibility Score: inf
ROOT
ATOM      1  C   UNL     1     181.635 190.611 195.645  1.00  0.00     0.000 C 
ENDROOT
BRANCH   1   2
ATOM      2  C   UNL     1     180.354 190.830 194.830  1.00  0.00     0.000 C 
BRANCH   2   3
ATOM      3  C   UNL     1     179.563 192.034 195.362  1.00  0.00     0.000 C 
BRANCH   3   4
ATOM      4  C   UNL     1     178.044 191.804 195.331  1.00  0.00     0.000 C 
BRANCH   4   5
ATOM      5  C   UNL     1     177.665 190.417 194.791  1.00  0.00     0.000 C 
BRANCH   5   6
ATOM      6  C   UNL     1     176.396 189.890 195.477  1.00  0.00     0.006 C 
BRANCH   6   7
ATOM      7  C   UNL     1     175.756 190.937 196.399  1.00  0.00     0.053 C 
BRANCH   7   8
ATOM      8  C   UNL     1     174.961 190.300 197.497  1.00  0.00     0.041 C 
ATOM      9  O   UNL     1     175.059 190.725 198.678  1.00  0.00    -0.550 OA
ATOM     10  O   UNL     1     174.137 189.216 197.222  1.00  0.00    -0.550 OA
ENDBRANCH   7   8
ENDBRANCH   6   7
ENDBRANCH   5   6
ENDBRANCH   4   5
ENDBRANCH   3   4
ENDBRANCH   2   3
ENDBRANCH   1   2
BRANCH   1  11
ATOM     11  C   UNL     1     181.674 189.199 196.241  1.00  0.00     0.000 C 
BRANCH  11  12
ATOM     12  C   UNL     1     180.547 188.329 195.666  1.00  0.00     0.000 C 
BRANCH  12  13
ATOM     13  C   UNL     1     179.581 187.813 196.747  1.00  0.00     0.000 C 
BRANCH  13  14
ATOM     14  C   UNL     1     179.681 188.531 198.107  1.00  0.00     0.000 C 
BRANCH  14  15
ATOM     15  C   UNL     1     178.436 189.345 198.513  1.00  0.00     0.000 C 
BRANCH  15  16
ATOM     16  C   UNL     1     178.703 190.831 198.817  1.00  0.00     0.006 C 
BRANCH  16  17
ATOM     17  C   UNL     1     180.187 191.131 199.063  1.00  0.00     0.053 C 
BRANCH  17  18
ATOM     18  C   UNL     1     180.450 192.598 198.936  1.00  0.00     0.041 C 
ATOM     19  O   UNL     1     181.442 193.009 198.279  1.00  0.00    -0.550 OA
ATOM     20  O   UNL     1     179.627 193.511 199.584  1.00  0.00    -0.550 OA
ENDBRANCH  17  18
ENDBRANCH  16  17
ENDBRANCH  15  16
ENDBRANCH  14  15
ENDBRANCH  13  14
ENDBRANCH  12  13
ENDBRANCH  11  12
ENDBRANCH   1  11
TORSDOF 15
ENDMDL
MODEL 7
REMARK VINA RESULT:     0.030      4.483      5.615
REMARK INTER + INTRA:          -3.057
REMARK INTER:                   0.000
REMARK INTRA:                  -3.057
REMARK UNBOUND:                -3.114
REMARK SMILES O=C([O-])CCCCCCCCCCCCCCC(=O)[O-]
REMARK SMILES IDX 10 1 9 2 8 3 7 4 6 5 5 6 4 7 2 8 1 9 3 10 11 11 12 12 13 13
REMARK SMILES IDX 14 14 15 15 16 16 17 17 18 18 19 19 20 20
REMARK H PARENT
REMARK Flexibility Score: inf
ROOT
ATOM      1  C   UNL     1     173.648 188.616 196.980  1.00  0.00     0.000 C 
ENDROOT
BRANCH   1   2
ATOM      2  C   UNL     1     173.561 189.742 195.941  1.00  0.00     0.000 C 
BRANCH   2   3
ATOM      3  C   UNL     1     172.381 189.518 194.985  1.00  0.00     0.000 C 
BRANCH   3   4
ATOM      4  C   UNL     1     172.730 189.848 193.525  1.00  0.00     0.000 C 
BRANCH   4   5
ATOM      5  C   UNL     1     174.031 190.653 193.395  1.00  0.00     0.000 C 
BRANCH   5   6
ATOM      6  C   UNL     1     174.922 190.079 192.283  1.00  0.00     0.006 C 
BRANCH   6   7
ATOM      7  C   UNL     1     176.405 190.413 192.496  1.00  0.00     0.053 C 
BRANCH   7   8
ATOM      8  C   UNL     1     177.301 189.448 191.783  1.00  0.00     0.041 C 
ATOM      9  O   UNL     1     176.818 188.424 191.232  1.00  0.00    -0.550 OA
ATOM     10  O   UNL     1     178.674 189.661 191.756  1.00  0.00    -0.550 OA
ENDBRANCH   7   8
ENDBRANCH   6   7
ENDBRANCH   5   6
ENDBRANCH   4   5
ENDBRANCH   3   4
ENDBRANCH   2   3
ENDBRANCH   1   2
BRANCH   1  11
ATOM     11  C   UNL     1     175.027 187.947 196.953  1.00  0.00     0.000 C 
BRANCH  11  12
ATOM     12  C   UNL     1     175.928 188.588 195.888  1.00  0.00     0.000 C 
BRANCH  12  13
ATOM     13  C   UNL     1     176.477 187.564 194.878  1.00  0.00     0.000 C 
BRANCH  13  14
ATOM     14  C   UNL     1     175.532 186.388 194.562  1.00  0.00     0.000 C 
BRANCH  14  15
ATOM     15  C   UNL     1     174.606 186.599 193.348  1.00  0.00     0.000 C 
BRANCH  15  16
ATOM     16  C   UNL     1     173.147 186.152 193.558  1.00  0.00     0.006 C 
BRANCH  16  17
ATOM     17  C   UNL     1     172.897 185.578 194.958  1.00  0.00     0.053 C 
BRANCH  17  18
ATOM     18  C   UNL     1     171.527 185.944 195.435  1.00  0.00     0.041 C 
ATOM     19  O   UNL     1     171.210 185.773 196.641  1.00  0.00    -0.550 OA
ATOM     20  O   UNL     1     170.585 186.431 194.538  1.00  0.00    -0.550 OA
ENDBRANCH  17  18
ENDBRANCH  16  17
ENDBRANCH  15  16
ENDBRANCH  14  15
ENDBRANCH  13  14
ENDBRANCH  12  13
ENDBRANCH  11  12
ENDBRANCH   1  11
TORSDOF 15
ENDMDL
MODEL 8
REMARK VINA RESULT:     0.032      9.498     12.038
REMARK INTER + INTRA:          -3.054
REMARK INTER:                   0.000
REMARK INTRA:                  -3.054
REMARK UNBOUND:                -3.114
REMARK SMILES O=C([O-])CCCCCCCCCCCCCCC(=O)[O-]
REMARK SMILES IDX 10 1 9 2 8 3 7 4 6 5 5 6 4 7 2 8 1 9 3 10 11 11 12 12 13 13
REMARK SMILES IDX 14 14 15 15 16 16 17 17 18 18 19 19 20 20
REMARK H PARENT
REMARK Flexibility Score: inf
ROOT
ATOM      1  C   UNL     1     175.889 193.074 196.547  1.00  0.00     0.000 C 
ENDROOT
BRANCH   1   2
ATOM      2  C   UNL     1     175.250 191.784 197.074  1.00  0.00     0.000 C 
BRANCH   2   3
ATOM      3  C   UNL     1     175.111 191.823 198.603  1.00  0.00     0.000 C 
BRANCH   3   4
ATOM      4  C   UNL     1     175.712 190.584 199.285  1.00  0.00     0.000 C 
BRANCH   4   5
ATOM      5  C   UNL     1     176.493 190.931 200.561  1.00  0.00     0.000 C 
BRANCH   5   6
ATOM      6  C   UNL     1     176.190 192.367 201.015  1.00  0.00     0.006 C 
BRANCH   6   7
ATOM      7  C   UNL     1     177.427 193.068 201.592  1.00  0.00     0.053 C 
BRANCH   7   8
ATOM      8  C   UNL     1     177.495 194.506 201.181  1.00  0.00     0.041 C 
ATOM      9  O   UNL     1     176.445 195.198 201.122  1.00  0.00    -0.550 OA
ATOM     10  O   UNL     1     178.714 195.073 200.829  1.00  0.00    -0.550 OA
ENDBRANCH   7   8
ENDBRANCH   6   7
ENDBRANCH   5   6
ENDBRANCH   4   5
ENDBRANCH   3   4
ENDBRANCH   2   3
ENDBRANCH   1   2
BRANCH   1  11
ATOM     11  C   UNL     1     176.362 193.966 197.702  1.00  0.00     0.000 C 
BRANCH  11  12
ATOM     12  C   UNL     1     177.765 194.524 197.425  1.00  0.00     0.000 C 
BRANCH  12  13
ATOM     13  C   UNL     1     178.804 193.422 197.154  1.00  0.00     0.000 C 
BRANCH  13  14
ATOM     14  C   UNL     1     179.104 192.499 198.352  1.00  0.00     0.000 C 
BRANCH  14  15
ATOM     15  C   UNL     1     179.194 190.997 198.017  1.00  0.00     0.000 C 
BRANCH  15  16
ATOM     16  C   UNL     1     178.770 190.625 196.584  1.00  0.00     0.006 C 
BRANCH  16  17
ATOM     17  C   UNL     1     177.978 189.313 196.520  1.00  0.00     0.053 C 
BRANCH  17  18
ATOM     18  C   UNL     1     177.230 189.218 195.227  1.00  0.00     0.041 C 
ATOM     19  O   UNL     1     176.700 188.129 194.881  1.00  0.00    -0.550 OA
ATOM     20  O   UNL     1     177.159 190.318 194.383  1.00  0.00    -0.550 OA
ENDBRANCH  17  18
ENDBRANCH  16  17
ENDBRANCH  15  16
ENDBRANCH  14  15
ENDBRANCH  13  14
ENDBRANCH  12  13
ENDBRANCH  11  12
ENDBRANCH   1  11
TORSDOF 15
ENDMDL
MODEL 9
REMARK VINA RESULT:     0.041      6.854     10.114
REMARK INTER + INTRA:          -3.037
REMARK INTER:                   0.000
REMARK INTRA:                  -3.037
REMARK UNBOUND:                -3.114
REMARK SMILES O=C([O-])CCCCCCCCCCCCCCC(=O)[O-]
REMARK SMILES IDX 10 1 9 2 8 3 7 4 6 5 5 6 4 7 2 8 1 9 3 10 11 11 12 12 13 13
REMARK SMILES IDX 14 14 15 15 16 16 17 17 18 18 19 19 20 20
REMARK H PARENT
REMARK Flexibility Score: inf
ROOT
ATOM      1  C   UNL     1     174.449 191.552 188.359  1.00  0.00     0.000 C 
ENDROOT
BRANCH   1   2
ATOM      2  C   UNL     1     175.609 192.542 188.193  1.00  0.00     0.000 C 
BRANCH   2   3
ATOM      3  C   UNL     1     176.733 191.933 187.342  1.00  0.00     0.000 C 
BRANCH   3   4
ATOM      4  C   UNL     1     176.650 190.400 187.259  1.00  0.00     0.000 C 
BRANCH   4   5
ATOM      5  C   UNL     1     177.813 189.704 187.981  1.00  0.00     0.000 C 
BRANCH   5   6
ATOM      6  C   UNL     1     177.307 188.526 188.827  1.00  0.00     0.006 C 
BRANCH   6   7
ATOM      7  C   UNL     1     175.861 188.142 188.483  1.00  0.00     0.053 C 
BRANCH   7   8
ATOM      8  C   UNL     1     175.098 187.705 189.694  1.00  0.00     0.041 C 
ATOM      9  O   UNL     1     173.840 187.765 189.706  1.00  0.00    -0.550 OA
ATOM     10  O   UNL     1     175.776 187.263 190.824  1.00  0.00    -0.550 OA
ENDBRANCH   7   8
ENDBRANCH   6   7
ENDBRANCH   5   6
ENDBRANCH   4   5
ENDBRANCH   3   4
ENDBRANCH   2   3
ENDBRANCH   1   2
BRANCH   1  11
ATOM     11  C   UNL     1     174.122 191.332 189.841  1.00  0.00     0.000 C 
BRANCH  11  12
ATOM     12  C   UNL     1     175.226 191.907 190.739  1.00  0.00     0.000 C 
BRANCH  12  13
ATOM     13  C   UNL     1     176.005 190.817 191.498  1.00  0.00     0.000 C 
BRANCH  13  14
ATOM     14  C   UNL     1     177.535 191.011 191.527  1.00  0.00     0.000 C 
BRANCH  14  15
ATOM     15  C   UNL     1     178.032 192.380 191.021  1.00  0.00     0.000 C 
BRANCH  15  16
ATOM     16  C   UNL     1     179.256 192.322 190.089  1.00  0.00     0.006 C 
BRANCH  16  17
ATOM     17  C   UNL     1     180.468 191.645 190.740  1.00  0.00     0.053 C 
BRANCH  17  18
ATOM     18  C   UNL     1     180.874 190.436 189.956  1.00  0.00     0.041 C 
ATOM     19  O   UNL     1     180.530 189.288 190.340  1.00  0.00    -0.550 OA
ATOM     20  O   UNL     1     181.672 190.576 188.827  1.00  0.00    -0.550 OA
ENDBRANCH  17  18
ENDBRANCH  16  17
ENDBRANCH  15  16
ENDBRANCH  14  15
ENDBRANCH  13  14
ENDBRANCH  12  13
ENDBRANCH  11  12
ENDBRANCH   1  11
TORSDOF 15
ENDMDL
