MODEL 1
REMARK VINA RESULT:    -4.191      0.000      0.000
REMARK INTER + INTRA:         -15.867
REMARK INTER:                 -11.050
REMARK INTRA:                  -4.817
REMARK UNBOUND:                -4.817
REMARK SMILES CCCCCCCCCCCCCCCCCCCCCCCCCCCCCC(=O)[O-]
REMARK SMILES IDX 16 1 17 2 18 3 19 4 20 5 21 6 22 7 23 8 24 9 25 10 26 11
REMARK SMILES IDX 27 12 28 13 29 14 30 15 31 16 32 17 15 18 14 19 13 20 12 21
REMARK SMILES IDX 11 22 10 23 9 24 8 25 7 26 6 27 5 28 4 29 3 30 2 31 1 32
REMARK H PARENT
REMARK Flexibility Score: inf
ROOT
ATOM      1  C   UNL     1      -9.728   5.062   6.090  1.00  0.00     0.000 C 
ENDROOT
BRANCH   1   2
ATOM      2  C   UNL     1     -10.223   5.578   7.456  1.00  0.00     0.000 C 
BRANCH   2   3
ATOM      3  C   UNL     1     -11.395   4.786   8.068  1.00  0.00     0.000 C 
BRANCH   3   4
ATOM      4  C   UNL     1     -11.422   3.285   7.716  1.00  0.00     0.000 C 
BRANCH   4   5
ATOM      5  C   UNL     1     -12.516   2.866   6.717  1.00  0.00     0.000 C 
BRANCH   5   6
ATOM      6  C   UNL     1     -13.392   4.047   6.266  1.00  0.00     0.000 C 
BRANCH   6   7
ATOM      7  C   UNL     1     -13.267   4.351   4.762  1.00  0.00     0.000 C 
BRANCH   7   8
ATOM      8  C   UNL     1     -14.088   5.554   4.259  1.00  0.00     0.000 C 
BRANCH   8   9
ATOM      9  C   UNL     1     -14.585   6.461   5.396  1.00  0.00     0.000 C 
BRANCH   9  10
ATOM     10  C   UNL     1     -15.918   7.159   5.067  1.00  0.00     0.000 C 
BRANCH  10  11
ATOM     11  C   UNL     1     -15.938   8.687   5.287  1.00  0.00     0.000 C 
BRANCH  11  12
ATOM     12  C   UNL     1     -15.802   9.534   4.010  1.00  0.00     0.000 C 
BRANCH  12  13
ATOM     13  C   UNL     1     -14.585   9.136   3.156  1.00  0.00     0.006 C 
BRANCH  13  14
ATOM     14  C   UNL     1     -14.564   9.862   1.804  1.00  0.00     0.053 C 
BRANCH  14  15
ATOM     15  C   UNL     1     -13.450  10.862   1.721  1.00  0.00     0.041 C 
ATOM     16  O   UNL     1     -13.535  11.959   2.337  1.00  0.00    -0.550 OA
ATOM     17  O   UNL     1     -12.310  10.574   0.979  1.00  0.00    -0.550 OA
ENDBRANCH  14  15
ENDBRANCH  13  14
ENDBRANCH  12  13
ENDBRANCH  11  12
ENDBRANCH  10  11
ENDBRANCH   9  10
ENDBRANCH   8   9
ENDBRANCH   7   8
ENDBRANCH   6   7
ENDBRANCH   5   6
ENDBRANCH   4   5
ENDBRANCH   3   4
ENDBRANCH   2   3
ENDBRANCH   1   2
BRANCH   1  18
ATOM     18  C   UNL     1      -9.964   6.018   4.905  1.00  0.00     0.000 C 
BRANCH  18  19
ATOM     19  C   UNL     1     -10.017   7.493   5.327  1.00  0.00     0.000 C 
BRANCH  19  20
ATOM     20  C   UNL     1     -11.460   8.023   5.288  1.00  0.00     0.000 C 
BRANCH  20  21
ATOM     21  C   UNL     1     -11.538   9.556   5.354  1.00  0.00     0.000 C 
BRANCH  21  22
ATOM     22  C   UNL     1     -12.656  10.054   6.287  1.00  0.00     0.000 C 
BRANCH  22  23
ATOM     23  C   UNL     1     -13.166  11.458   5.916  1.00  0.00     0.000 C 
BRANCH  23  24
ATOM     24  C   UNL     1     -12.875  12.556   6.956  1.00  0.00    -0.000 C 
BRANCH  24  25
ATOM     25  C   UNL     1     -12.231  12.012   8.239  1.00  0.00    -0.000 C 
BRANCH  25  26
ATOM     26  C   UNL     1     -11.284  13.043   8.864  1.00  0.00    -0.000 C 
BRANCH  26  27
ATOM     27  C   UNL     1      -9.816  12.677   8.595  1.00  0.00    -0.000 C 
BRANCH  27  28
ATOM     28  C   UNL     1      -9.387  12.974   7.149  1.00  0.00    -0.000 C 
BRANCH  28  29
ATOM     29  C   UNL     1      -8.997  11.701   6.374  1.00  0.00    -0.000 C 
BRANCH  29  30
ATOM     30  C   UNL     1      -8.397  10.617   7.282  1.00  0.00    -0.000 C 
BRANCH  30  31
ATOM     31  C   UNL     1      -7.564   9.589   6.503  1.00  0.00    -0.003 C 
ATOM     32  C   UNL     1      -7.308  10.057   5.074  1.00  0.00     0.004 C 
ENDBRANCH  30  31
ENDBRANCH  29  30
ENDBRANCH  28  29
ENDBRANCH  27  28
ENDBRANCH  26  27
ENDBRANCH  25  26
ENDBRANCH  24  25
ENDBRANCH  23  24
ENDBRANCH  22  23
ENDBRANCH  21  22
ENDBRANCH  20  21
ENDBRANCH  19  20
ENDBRANCH  18  19
ENDBRANCH   1  18
TORSDOF 28
ENDMDL
MODEL 2
REMARK VINA RESULT:    -4.125      2.371      7.253
REMARK INTER + INTRA:         -15.695
REMARK INTER:                 -10.362
REMARK INTRA:                  -5.333
REMARK UNBOUND:                -4.817
REMARK SMILES CCCCCCCCCCCCCCCCCCCCCCCCCCCCCC(=O)[O-]
REMARK SMILES IDX 16 1 17 2 18 3 19 4 20 5 21 6 22 7 23 8 24 9 25 10 26 11
REMARK SMILES IDX 27 12 28 13 29 14 30 15 31 16 32 17 15 18 14 19 13 20 12 21
REMARK SMILES IDX 11 22 10 23 9 24 8 25 7 26 6 27 5 28 4 29 3 30 2 31 1 32
REMARK H PARENT
REMARK Flexibility Score: inf
ROOT
ATOM      1  C   UNL     1     -13.372  12.635   3.576  1.00  0.00     0.000 C 
ENDROOT
BRANCH   1   2
ATOM      2  C   UNL     1     -12.476  13.125   4.732  1.00  0.00     0.000 C 
BRANCH   2   3
ATOM      3  C   UNL     1     -10.986  12.752   4.607  1.00  0.00     0.000 C 
BRANCH   3   4
ATOM      4  C   UNL     1     -10.206  12.726   5.937  1.00  0.00     0.000 C 
BRANCH   4   5
ATOM      5  C   UNL     1     -11.046  13.026   7.193  1.00  0.00     0.000 C 
BRANCH   5   6
ATOM      6  C   UNL     1     -11.422  11.754   7.971  1.00  0.00     0.000 C 
BRANCH   6   7
ATOM      7  C   UNL     1     -12.935  11.632   8.231  1.00  0.00     0.000 C 
BRANCH   7   8
ATOM      8  C   UNL     1     -13.714  10.772   7.218  1.00  0.00     0.000 C 
BRANCH   8   9
ATOM      9  C   UNL     1     -12.998   9.458   6.868  1.00  0.00     0.000 C 
BRANCH   9  10
ATOM     10  C   UNL     1     -12.277   9.513   5.508  1.00  0.00     0.000 C 
BRANCH  10  11
ATOM     11  C   UNL     1     -11.100   8.527   5.341  1.00  0.00     0.000 C 
BRANCH  11  12
ATOM     12  C   UNL     1      -9.808   9.139   4.775  1.00  0.00     0.000 C 
BRANCH  12  13
ATOM     13  C   UNL     1      -8.548   8.674   5.526  1.00  0.00     0.006 C 
BRANCH  13  14
ATOM     14  C   UNL     1      -8.254   9.541   6.758  1.00  0.00     0.053 C 
BRANCH  14  15
ATOM     15  C   UNL     1      -7.192  10.564   6.484  1.00  0.00     0.041 C 
ATOM     16  O   UNL     1      -6.901  11.426   7.356  1.00  0.00    -0.550 OA
ATOM     17  O   UNL     1      -6.510  10.551   5.272  1.00  0.00    -0.550 OA
ENDBRANCH  14  15
ENDBRANCH  13  14
ENDBRANCH  12  13
ENDBRANCH  11  12
ENDBRANCH  10  11
ENDBRANCH   9  10
ENDBRANCH   8   9
ENDBRANCH   7   8
ENDBRANCH   6   7
ENDBRANCH   5   6
ENDBRANCH   4   5
ENDBRANCH   3   4
ENDBRANCH   2   3
ENDBRANCH   1   2
BRANCH   1  18
ATOM     18  C   UNL     1     -12.682  11.697   2.567  1.00  0.00     0.000 C 
BRANCH  18  19
ATOM     19  C   UNL     1     -13.625  10.623   2.007  1.00  0.00     0.000 C 
BRANCH  19  20
ATOM     20  C   UNL     1     -15.090  11.077   2.101  1.00  0.00     0.000 C 
BRANCH  20  21
ATOM     21  C   UNL     1     -15.997  10.041   2.784  1.00  0.00     0.000 C 
BRANCH  21  22
ATOM     22  C   UNL     1     -15.202   8.906   3.453  1.00  0.00     0.000 C 
BRANCH  22  23
ATOM     23  C   UNL     1     -15.755   8.523   4.838  1.00  0.00     0.000 C 
BRANCH  23  24
ATOM     24  C   UNL     1     -15.507   7.064   5.262  1.00  0.00    -0.000 C 
BRANCH  24  25
ATOM     25  C   UNL     1     -14.219   6.477   4.666  1.00  0.00    -0.000 C 
BRANCH  25  26
ATOM     26  C   UNL     1     -13.426   5.697   5.722  1.00  0.00    -0.000 C 
BRANCH  26  27
ATOM     27  C   UNL     1     -12.646   4.540   5.081  1.00  0.00    -0.000 C 
BRANCH  27  28
ATOM     28  C   UNL     1     -11.126   4.669   5.275  1.00  0.00    -0.000 C 
BRANCH  28  29
ATOM     29  C   UNL     1     -10.752   5.229   6.660  1.00  0.00    -0.000 C 
BRANCH  29  30
ATOM     30  C   UNL     1     -10.880   4.182   7.776  1.00  0.00    -0.000 C 
BRANCH  30  31
ATOM     31  C   UNL     1     -11.337   4.792   9.109  1.00  0.00    -0.003 C 
ATOM     32  C   UNL     1     -11.963   3.733  10.012  1.00  0.00     0.004 C 
ENDBRANCH  30  31
ENDBRANCH  29  30
ENDBRANCH  28  29
ENDBRANCH  27  28
ENDBRANCH  26  27
ENDBRANCH  25  26
ENDBRANCH  24  25
ENDBRANCH  23  24
ENDBRANCH  22  23
ENDBRANCH  21  22
ENDBRANCH  20  21
ENDBRANCH  19  20
ENDBRANCH  18  19
ENDBRANCH   1  18
TORSDOF 28
ENDMDL
MODEL 3
REMARK VINA RESULT:    -4.105      1.069      2.945
REMARK INTER + INTRA:         -15.640
REMARK INTER:                 -11.062
REMARK INTRA:                  -4.578
REMARK UNBOUND:                -4.817
REMARK SMILES CCCCCCCCCCCCCCCCCCCCCCCCCCCCCC(=O)[O-]
REMARK SMILES IDX 16 1 17 2 18 3 19 4 20 5 21 6 22 7 23 8 24 9 25 10 26 11
REMARK SMILES IDX 27 12 28 13 29 14 30 15 31 16 32 17 15 18 14 19 13 20 12 21
REMARK SMILES IDX 11 22 10 23 9 24 8 25 7 26 6 27 5 28 4 29 3 30 2 31 1 32
REMARK H PARENT
REMARK Flexibility Score: inf
ROOT
ATOM      1  C   UNL     1      -9.967   6.305   5.241  1.00  0.00     0.000 C 
ENDROOT
BRANCH   1   2
ATOM      2  C   UNL     1      -9.815   5.248   6.353  1.00  0.00     0.000 C 
BRANCH   2   3
ATOM      3  C   UNL     1     -10.676   5.492   7.609  1.00  0.00     0.000 C 
BRANCH   3   4
ATOM      4  C   UNL     1     -11.626   4.337   7.983  1.00  0.00     0.000 C 
BRANCH   4   5
ATOM      5  C   UNL     1     -11.251   2.965   7.393  1.00  0.00     0.000 C 
BRANCH   5   6
ATOM      6  C   UNL     1     -12.080   2.607   6.148  1.00  0.00     0.000 C 
BRANCH   6   7
ATOM      7  C   UNL     1     -13.134   3.673   5.799  1.00  0.00     0.000 C 
BRANCH   7   8
ATOM      8  C   UNL     1     -13.120   4.166   4.339  1.00  0.00     0.000 C 
BRANCH   8   9
ATOM      9  C   UNL     1     -14.140   5.285   4.072  1.00  0.00     0.000 C 
BRANCH   9  10
ATOM     10  C   UNL     1     -14.269   6.270   5.249  1.00  0.00     0.000 C 
BRANCH  10  11
ATOM     11  C   UNL     1     -15.549   7.135   5.252  1.00  0.00     0.000 C 
BRANCH  11  12
ATOM     12  C   UNL     1     -15.312   8.655   5.258  1.00  0.00     0.000 C 
BRANCH  12  13
ATOM     13  C   UNL     1     -14.375   9.118   4.129  1.00  0.00     0.006 C 
BRANCH  13  14
ATOM     14  C   UNL     1     -15.119   9.302   2.798  1.00  0.00     0.053 C 
BRANCH  14  15
ATOM     15  C   UNL     1     -14.533  10.410   1.976  1.00  0.00     0.041 C 
ATOM     16  O   UNL     1     -13.560  10.184   1.208  1.00  0.00    -0.550 OA
ATOM     17  O   UNL     1     -15.076  11.688   2.044  1.00  0.00    -0.550 OA
ENDBRANCH  14  15
ENDBRANCH  13  14
ENDBRANCH  12  13
ENDBRANCH  11  12
ENDBRANCH  10  11
ENDBRANCH   9  10
ENDBRANCH   8   9
ENDBRANCH   7   8
ENDBRANCH   6   7
ENDBRANCH   5   6
ENDBRANCH   4   5
ENDBRANCH   3   4
ENDBRANCH   2   3
ENDBRANCH   1   2
BRANCH   1  18
ATOM     18  C   UNL     1     -10.820   7.531   5.616  1.00  0.00     0.000 C 
BRANCH  18  19
ATOM     19  C   UNL     1     -10.224   8.853   5.113  1.00  0.00     0.000 C 
BRANCH  19  20
ATOM     20  C   UNL     1      -8.691   8.763   5.025  1.00  0.00     0.000 C 
BRANCH  20  21
ATOM     21  C   UNL     1      -7.995   9.061   6.362  1.00  0.00     0.000 C 
BRANCH  21  22
ATOM     22  C   UNL     1      -7.038  10.264   6.278  1.00  0.00     0.000 C 
BRANCH  22  23
ATOM     23  C   UNL     1      -7.470  11.437   7.176  1.00  0.00     0.000 C 
BRANCH  23  24
ATOM     24  C   UNL     1      -8.964  11.463   7.547  1.00  0.00    -0.000 C 
BRANCH  24  25
ATOM     25  C   UNL     1      -9.483  12.879   7.840  1.00  0.00    -0.000 C 
BRANCH  25  26
ATOM     26  C   UNL     1     -10.635  12.846   8.852  1.00  0.00    -0.000 C 
BRANCH  26  27
ATOM     27  C   UNL     1     -11.762  11.918   8.373  1.00  0.00    -0.000 C 
BRANCH  27  28
ATOM     28  C   UNL     1     -12.709  12.601   7.373  1.00  0.00    -0.000 C 
BRANCH  28  29
ATOM     29  C   UNL     1     -12.958  11.747   6.116  1.00  0.00    -0.000 C 
BRANCH  29  30
ATOM     30  C   UNL     1     -12.995  12.585   4.829  1.00  0.00    -0.000 C 
BRANCH  30  31
ATOM     31  C   UNL     1     -11.927  12.157   3.814  1.00  0.00    -0.003 C 
ATOM     32  C   UNL     1     -10.522  12.380   4.367  1.00  0.00     0.004 C 
ENDBRANCH  30  31
ENDBRANCH  29  30
ENDBRANCH  28  29
ENDBRANCH  27  28
ENDBRANCH  26  27
ENDBRANCH  25  26
ENDBRANCH  24  25
ENDBRANCH  23  24
ENDBRANCH  22  23
ENDBRANCH  21  22
ENDBRANCH  20  21
ENDBRANCH  19  20
ENDBRANCH  18  19
ENDBRANCH   1  18
TORSDOF 28
ENDMDL
MODEL 4
REMARK VINA RESULT:    -4.063      2.357      7.036
REMARK INTER + INTRA:         -15.529
REMARK INTER:                  -9.624
REMARK INTRA:                  -5.906
REMARK UNBOUND:                -4.817
REMARK SMILES CCCCCCCCCCCCCCCCCCCCCCCCCCCCCC(=O)[O-]
REMARK SMILES IDX 16 1 17 2 18 3 19 4 20 5 21 6 22 7 23 8 24 9 25 10 26 11
REMARK SMILES IDX 27 12 28 13 29 14 30 15 31 16 32 17 15 18 14 19 13 20 12 21
REMARK SMILES IDX 11 22 10 23 9 24 8 25 7 26 6 27 5 28 4 29 3 30 2 31 1 32
REMARK H PARENT
REMARK Flexibility Score: inf
ROOT
ATOM      1  C   UNL     1     -12.657  10.879   1.824  1.00  0.00     0.000 C 
ENDROOT
BRANCH   1   2
ATOM      2  C   UNL     1     -12.267  11.454   3.201  1.00  0.00     0.000 C 
BRANCH   2   3
ATOM      3  C   UNL     1     -12.756  12.891   3.471  1.00  0.00     0.000 C 
BRANCH   3   4
ATOM      4  C   UNL     1     -13.904  13.008   4.494  1.00  0.00     0.000 C 
BRANCH   4   5
ATOM      5  C   UNL     1     -14.013  11.839   5.491  1.00  0.00     0.000 C 
BRANCH   5   6
ATOM      6  C   UNL     1     -15.345  11.839   6.260  1.00  0.00     0.000 C 
BRANCH   6   7
ATOM      7  C   UNL     1     -15.337  10.900   7.480  1.00  0.00     0.000 C 
BRANCH   7   8
ATOM      8  C   UNL     1     -13.943  10.523   8.018  1.00  0.00     0.000 C 
BRANCH   8   9
ATOM      9  C   UNL     1     -13.511  11.379   9.220  1.00  0.00     0.000 C 
BRANCH   9  10
ATOM     10  C   UNL     1     -12.494  12.472   8.842  1.00  0.00     0.000 C 
BRANCH  10  11
ATOM     11  C   UNL     1     -11.153  11.962   8.271  1.00  0.00     0.000 C 
BRANCH  11  12
ATOM     12  C   UNL     1     -10.941  12.218   6.769  1.00  0.00     0.000 C 
BRANCH  12  13
ATOM     13  C   UNL     1      -9.455  12.341   6.389  1.00  0.00     0.006 C 
BRANCH  13  14
ATOM     14  C   UNL     1      -8.934  11.088   5.672  1.00  0.00     0.053 C 
BRANCH  14  15
ATOM     15  C   UNL     1      -7.992  10.300   6.532  1.00  0.00     0.041 C 
ATOM     16  O   UNL     1      -7.936  10.513   7.773  1.00  0.00    -0.550 OA
ATOM     17  O   UNL     1      -7.190   9.317   5.964  1.00  0.00    -0.550 OA
ENDBRANCH  14  15
ENDBRANCH  13  14
ENDBRANCH  12  13
ENDBRANCH  11  12
ENDBRANCH  10  11
ENDBRANCH   9  10
ENDBRANCH   8   9
ENDBRANCH   7   8
ENDBRANCH   6   7
ENDBRANCH   5   6
ENDBRANCH   4   5
ENDBRANCH   3   4
ENDBRANCH   2   3
ENDBRANCH   1   2
BRANCH   1  18
ATOM     18  C   UNL     1     -14.159  10.944   1.490  1.00  0.00     0.000 C 
BRANCH  18  19
ATOM     19  C   UNL     1     -14.910   9.654   1.849  1.00  0.00     0.000 C 
BRANCH  19  20
ATOM     20  C   UNL     1     -15.949   9.914   2.951  1.00  0.00     0.000 C 
BRANCH  20  21
ATOM     21  C   UNL     1     -15.806   8.959   4.147  1.00  0.00     0.000 C 
BRANCH  21  22
ATOM     22  C   UNL     1     -14.389   8.372   4.272  1.00  0.00     0.000 C 
BRANCH  22  23
ATOM     23  C   UNL     1     -14.215   7.489   5.521  1.00  0.00     0.000 C 
BRANCH  23  24
ATOM     24  C   UNL     1     -12.820   7.542   6.172  1.00  0.00    -0.000 C 
BRANCH  24  25
ATOM     25  C   UNL     1     -11.951   8.687   5.632  1.00  0.00    -0.000 C 
BRANCH  25  26
ATOM     26  C   UNL     1     -10.667   8.150   4.987  1.00  0.00    -0.000 C 
BRANCH  26  27
ATOM     27  C   UNL     1     -10.120   6.946   5.769  1.00  0.00    -0.000 C 
BRANCH  27  28
ATOM     28  C   UNL     1      -9.932   5.701   4.888  1.00  0.00    -0.000 C 
BRANCH  28  29
ATOM     29  C   UNL     1     -10.889   4.556   5.269  1.00  0.00    -0.000 C 
BRANCH  29  30
ATOM     30  C   UNL     1     -10.843   4.222   6.767  1.00  0.00    -0.000 C 
BRANCH  30  31
ATOM     31  C   UNL     1     -12.241   4.139   7.397  1.00  0.00    -0.003 C 
ATOM     32  C   UNL     1     -13.287   3.731   6.364  1.00  0.00     0.004 C 
ENDBRANCH  30  31
ENDBRANCH  29  30
ENDBRANCH  28  29
ENDBRANCH  27  28
ENDBRANCH  26  27
ENDBRANCH  25  26
ENDBRANCH  24  25
ENDBRANCH  23  24
ENDBRANCH  22  23
ENDBRANCH  21  22
ENDBRANCH  20  21
ENDBRANCH  19  20
ENDBRANCH  18  19
ENDBRANCH   1  18
TORSDOF 28
ENDMDL
MODEL 5
REMARK VINA RESULT:    -4.029      3.174      7.471
REMARK INTER + INTRA:         -15.440
REMARK INTER:                 -10.190
REMARK INTRA:                  -5.250
REMARK UNBOUND:                -4.817
REMARK SMILES CCCCCCCCCCCCCCCCCCCCCCCCCCCCCC(=O)[O-]
REMARK SMILES IDX 16 1 17 2 18 3 19 4 20 5 21 6 22 7 23 8 24 9 25 10 26 11
REMARK SMILES IDX 27 12 28 13 29 14 30 15 31 16 32 17 15 18 14 19 13 20 12 21
REMARK SMILES IDX 11 22 10 23 9 24 8 25 7 26 6 27 5 28 4 29 3 30 2 31 1 32
REMARK H PARENT
REMARK Flexibility Score: inf
ROOT
ATOM      1  C   UNL     1     -12.004  10.902   3.345  1.00  0.00     0.000 C 
ENDROOT
BRANCH   1   2
ATOM      2  C   UNL     1     -11.945  12.385   3.760  1.00  0.00     0.000 C 
BRANCH   2   3
ATOM      3  C   UNL     1     -10.758  12.764   4.668  1.00  0.00     0.000 C 
BRANCH   3   4
ATOM      4  C   UNL     1     -11.119  13.005   6.147  1.00  0.00     0.000 C 
BRANCH   4   5
ATOM      5  C   UNL     1     -10.408  12.082   7.154  1.00  0.00     0.000 C 
BRANCH   5   6
ATOM      6  C   UNL     1      -8.894  11.990   6.907  1.00  0.00     0.000 C 
BRANCH   6   7
ATOM      7  C   UNL     1      -8.396  10.544   6.735  1.00  0.00     0.000 C 
BRANCH   7   8
ATOM      8  C   UNL     1      -8.310  10.041   5.282  1.00  0.00     0.000 C 
BRANCH   8   9
ATOM      9  C   UNL     1      -9.350   8.956   4.958  1.00  0.00     0.000 C 
BRANCH   9  10
ATOM     10  C   UNL     1      -9.054   7.615   5.656  1.00  0.00     0.000 C 
BRANCH  10  11
ATOM     11  C   UNL     1     -10.171   6.554   5.554  1.00  0.00     0.000 C 
BRANCH  11  12
ATOM     12  C   UNL     1     -10.099   5.425   6.597  1.00  0.00     0.000 C 
BRANCH  12  13
ATOM     13  C   UNL     1     -11.350   5.356   7.490  1.00  0.00     0.006 C 
BRANCH  13  14
ATOM     14  C   UNL     1     -11.111   4.525   8.758  1.00  0.00     0.053 C 
BRANCH  14  15
ATOM     15  C   UNL     1     -11.758   3.175   8.675  1.00  0.00     0.041 C 
ATOM     16  O   UNL     1     -12.464   2.749   9.629  1.00  0.00    -0.550 OA
ATOM     17  O   UNL     1     -11.596   2.396   7.535  1.00  0.00    -0.550 OA
ENDBRANCH  14  15
ENDBRANCH  13  14
ENDBRANCH  12  13
ENDBRANCH  11  12
ENDBRANCH  10  11
ENDBRANCH   9  10
ENDBRANCH   8   9
ENDBRANCH   7   8
ENDBRANCH   6   7
ENDBRANCH   5   6
ENDBRANCH   4   5
ENDBRANCH   3   4
ENDBRANCH   2   3
ENDBRANCH   1   2
BRANCH   1  18
ATOM     18  C   UNL     1     -12.972  10.584   2.189  1.00  0.00     0.000 C 
BRANCH  18  19
ATOM     19  C   UNL     1     -14.045  11.664   1.993  1.00  0.00     0.000 C 
BRANCH  19  20
ATOM     20  C   UNL     1     -15.331  11.302   2.753  1.00  0.00     0.000 C 
BRANCH  20  21
ATOM     21  C   UNL     1     -15.975  12.510   3.453  1.00  0.00     0.000 C 
BRANCH  21  22
ATOM     22  C   UNL     1     -15.408  12.750   4.863  1.00  0.00     0.000 C 
BRANCH  22  23
ATOM     23  C   UNL     1     -15.123  11.444   5.625  1.00  0.00     0.000 C 
BRANCH  23  24
ATOM     24  C   UNL     1     -14.483  11.622   7.014  1.00  0.00    -0.000 C 
BRANCH  24  25
ATOM     25  C   UNL     1     -13.798  10.346   7.527  1.00  0.00    -0.000 C 
BRANCH  25  26
ATOM     26  C   UNL     1     -12.884   9.740   6.455  1.00  0.00    -0.000 C 
BRANCH  26  27
ATOM     27  C   UNL     1     -13.222   8.261   6.217  1.00  0.00    -0.000 C 
BRANCH  27  28
ATOM     28  C   UNL     1     -14.027   8.036   4.928  1.00  0.00    -0.000 C 
BRANCH  28  29
ATOM     29  C   UNL     1     -14.883   6.755   4.980  1.00  0.00    -0.000 C 
BRANCH  29  30
ATOM     30  C   UNL     1     -14.054   5.504   5.305  1.00  0.00    -0.000 C 
BRANCH  30  31
ATOM     31  C   UNL     1     -13.852   4.595   4.084  1.00  0.00    -0.003 C 
ATOM     32  C   UNL     1     -12.497   3.896   4.138  1.00  0.00     0.004 C 
ENDBRANCH  30  31
ENDBRANCH  29  30
ENDBRANCH  28  29
ENDBRANCH  27  28
ENDBRANCH  26  27
ENDBRANCH  25  26
ENDBRANCH  24  25
ENDBRANCH  23  24
ENDBRANCH  22  23
ENDBRANCH  21  22
ENDBRANCH  20  21
ENDBRANCH  19  20
ENDBRANCH  18  19
ENDBRANCH   1  18
TORSDOF 28
ENDMDL
MODEL 6
REMARK VINA RESULT:    -4.025      2.282      6.405
REMARK INTER + INTRA:         -15.429
REMARK INTER:                 -11.275
REMARK INTRA:                  -4.154
REMARK UNBOUND:                -4.817
REMARK SMILES CCCCCCCCCCCCCCCCCCCCCCCCCCCCCC(=O)[O-]
REMARK SMILES IDX 16 1 17 2 18 3 19 4 20 5 21 6 22 7 23 8 24 9 25 10 26 11
REMARK SMILES IDX 27 12 28 13 29 14 30 15 31 16 32 17 15 18 14 19 13 20 12 21
REMARK SMILES IDX 11 22 10 23 9 24 8 25 7 26 6 27 5 28 4 29 3 30 2 31 1 32
REMARK H PARENT
REMARK Flexibility Score: inf
ROOT
ATOM      1  C   UNL     1     -11.621   4.362   7.872  1.00  0.00     0.000 C 
ENDROOT
BRANCH   1   2
ATOM      2  C   UNL     1     -10.498   5.396   7.658  1.00  0.00     0.000 C 
BRANCH   2   3
ATOM      3  C   UNL     1      -9.690   5.224   6.356  1.00  0.00     0.000 C 
BRANCH   3   4
ATOM      4  C   UNL     1     -10.224   6.018   5.147  1.00  0.00     0.000 C 
BRANCH   4   5
ATOM      5  C   UNL     1      -9.419   7.280   4.787  1.00  0.00     0.000 C 
BRANCH   5   6
ATOM      6  C   UNL     1      -9.993   8.553   5.430  1.00  0.00     0.000 C 
BRANCH   6   7
ATOM      7  C   UNL     1     -11.527   8.637   5.338  1.00  0.00     0.000 C 
BRANCH   7   8
ATOM      8  C   UNL     1     -12.119  10.057   5.411  1.00  0.00     0.000 C 
BRANCH   8   9
ATOM      9  C   UNL     1     -11.351  10.980   6.371  1.00  0.00     0.000 C 
BRANCH   9  10
ATOM     10  C   UNL     1     -10.431  11.975   5.638  1.00  0.00     0.000 C 
BRANCH  10  11
ATOM     11  C   UNL     1      -9.522  12.830   6.547  1.00  0.00     0.000 C 
BRANCH  11  12
ATOM     12  C   UNL     1      -9.141  12.181   7.889  1.00  0.00     0.000 C 
BRANCH  12  13
ATOM     13  C   UNL     1      -8.220  10.960   7.721  1.00  0.00     0.006 C 
BRANCH  13  14
ATOM     14  C   UNL     1      -6.766  11.366   7.437  1.00  0.00     0.053 C 
BRANCH  14  15
ATOM     15  C   UNL     1      -6.202  10.640   6.253  1.00  0.00     0.041 C 
ATOM     16  O   UNL     1      -5.237  11.132   5.607  1.00  0.00    -0.550 OA
ATOM     17  O   UNL     1      -6.729   9.410   5.875  1.00  0.00    -0.550 OA
ENDBRANCH  14  15
ENDBRANCH  13  14
ENDBRANCH  12  13
ENDBRANCH  11  12
ENDBRANCH  10  11
ENDBRANCH   9  10
ENDBRANCH   8   9
ENDBRANCH   7   8
ENDBRANCH   6   7
ENDBRANCH   5   6
ENDBRANCH   4   5
ENDBRANCH   3   4
ENDBRANCH   2   3
ENDBRANCH   1   2
BRANCH   1  18
ATOM     18  C   UNL     1     -11.305   2.940   7.372  1.00  0.00     0.000 C 
BRANCH  18  19
ATOM     19  C   UNL     1     -12.064   2.573   6.089  1.00  0.00     0.000 C 
BRANCH  19  20
ATOM     20  C   UNL     1     -13.175   3.595   5.800  1.00  0.00     0.000 C 
BRANCH  20  21
ATOM     21  C   UNL     1     -13.151   4.115   4.354  1.00  0.00     0.000 C 
BRANCH  21  22
ATOM     22  C   UNL     1     -14.220   5.191   4.092  1.00  0.00     0.000 C 
BRANCH  22  23
ATOM     23  C   UNL     1     -14.289   6.251   5.206  1.00  0.00     0.000 C 
BRANCH  23  24
ATOM     24  C   UNL     1     -15.597   7.061   5.260  1.00  0.00    -0.000 C 
BRANCH  24  25
ATOM     25  C   UNL     1     -15.382   8.563   5.020  1.00  0.00    -0.000 C 
BRANCH  25  26
ATOM     26  C   UNL     1     -15.408   8.894   3.523  1.00  0.00    -0.000 C 
BRANCH  26  27
ATOM     27  C   UNL     1     -15.720  10.380   3.294  1.00  0.00    -0.000 C 
BRANCH  27  28
ATOM     28  C   UNL     1     -15.299  11.265   4.478  1.00  0.00    -0.000 C 
BRANCH  28  29
ATOM     29  C   UNL     1     -14.552  12.536   4.031  1.00  0.00    -0.000 C 
BRANCH  29  30
ATOM     30  C   UNL     1     -14.010  12.431   2.598  1.00  0.00    -0.000 C 
BRANCH  30  31
ATOM     31  C   UNL     1     -12.585  11.863   2.545  1.00  0.00    -0.003 C 
ATOM     32  C   UNL     1     -12.500  10.676   1.590  1.00  0.00     0.004 C 
ENDBRANCH  30  31
ENDBRANCH  29  30
ENDBRANCH  28  29
ENDBRANCH  27  28
ENDBRANCH  26  27
ENDBRANCH  25  26
ENDBRANCH  24  25
ENDBRANCH  23  24
ENDBRANCH  22  23
ENDBRANCH  21  22
ENDBRANCH  20  21
ENDBRANCH  19  20
ENDBRANCH  18  19
ENDBRANCH   1  18
TORSDOF 28
ENDMDL
MODEL 7
REMARK VINA RESULT:    -3.948      2.054      6.822
REMARK INTER + INTRA:         -15.228
REMARK INTER:                 -10.220
REMARK INTRA:                  -5.008
REMARK UNBOUND:                -4.817
REMARK SMILES CCCCCCCCCCCCCCCCCCCCCCCCCCCCCC(=O)[O-]
REMARK SMILES IDX 16 1 17 2 18 3 19 4 20 5 21 6 22 7 23 8 24 9 25 10 26 11
REMARK SMILES IDX 27 12 28 13 29 14 30 15 31 16 32 17 15 18 14 19 13 20 12 21
REMARK SMILES IDX 11 22 10 23 9 24 8 25 7 26 6 27 5 28 4 29 3 30 2 31 1 32
REMARK H PARENT
REMARK Flexibility Score: inf
ROOT
ATOM      1  C   UNL     1      -9.772   5.213   5.977  1.00  0.00     0.000 C 
ENDROOT
BRANCH   1   2
ATOM      2  C   UNL     1      -9.768   6.343   4.928  1.00  0.00     0.000 C 
BRANCH   2   3
ATOM      3  C   UNL     1      -9.870   7.769   5.503  1.00  0.00     0.000 C 
BRANCH   3   4
ATOM      4  C   UNL     1     -11.103   8.572   5.042  1.00  0.00     0.000 C 
BRANCH   4   5
ATOM      5  C   UNL     1     -11.255   9.963   5.685  1.00  0.00     0.000 C 
BRANCH   5   6
ATOM      6  C   UNL     1     -12.450  10.043   6.650  1.00  0.00     0.000 C 
BRANCH   6   7
ATOM      7  C   UNL     1     -13.286  11.324   6.471  1.00  0.00     0.000 C 
BRANCH   7   8
ATOM      8  C   UNL     1     -13.037  12.430   7.515  1.00  0.00     0.000 C 
BRANCH   8   9
ATOM      9  C   UNL     1     -12.311  11.919   8.770  1.00  0.00     0.000 C 
BRANCH   9  10
ATOM     10  C   UNL     1     -11.002  12.679   9.055  1.00  0.00     0.000 C 
BRANCH  10  11
ATOM     11  C   UNL     1      -9.836  12.377   8.089  1.00  0.00     0.000 C 
BRANCH  11  12
ATOM     12  C   UNL     1      -8.432  12.670   8.646  1.00  0.00     0.000 C 
BRANCH  12  13
ATOM     13  C   UNL     1      -7.403  11.590   8.271  1.00  0.00     0.006 C 
BRANCH  13  14
ATOM     14  C   UNL     1      -7.957  10.596   7.240  1.00  0.00     0.053 C 
BRANCH  14  15
ATOM     15  C   UNL     1      -7.057  10.464   6.048  1.00  0.00     0.041 C 
ATOM     16  O   UNL     1      -5.810  10.588   6.177  1.00  0.00    -0.550 OA
ATOM     17  O   UNL     1      -7.597  10.186   4.797  1.00  0.00    -0.550 OA
ENDBRANCH  14  15
ENDBRANCH  13  14
ENDBRANCH  12  13
ENDBRANCH  11  12
ENDBRANCH  10  11
ENDBRANCH   9  10
ENDBRANCH   8   9
ENDBRANCH   7   8
ENDBRANCH   6   7
ENDBRANCH   5   6
ENDBRANCH   4   5
ENDBRANCH   3   4
ENDBRANCH   2   3
ENDBRANCH   1   2
BRANCH   1  18
ATOM     18  C   UNL     1     -10.295   5.615   7.369  1.00  0.00     0.000 C 
BRANCH  18  19
ATOM     19  C   UNL     1     -11.225   4.562   7.987  1.00  0.00     0.000 C 
BRANCH  19  20
ATOM     20  C   UNL     1     -11.214   3.268   7.157  1.00  0.00     0.000 C 
BRANCH  20  21
ATOM     21  C   UNL     1     -12.613   2.856   6.670  1.00  0.00     0.000 C 
BRANCH  21  22
ATOM     22  C   UNL     1     -13.479   4.062   6.266  1.00  0.00     0.000 C 
BRANCH  22  23
ATOM     23  C   UNL     1     -13.331   4.437   4.780  1.00  0.00     0.000 C 
BRANCH  23  24
ATOM     24  C   UNL     1     -13.840   5.840   4.404  1.00  0.00    -0.000 C 
BRANCH  24  25
ATOM     25  C   UNL     1     -14.157   6.711   5.628  1.00  0.00    -0.000 C 
BRANCH  25  26
ATOM     26  C   UNL     1     -15.104   7.859   5.260  1.00  0.00    -0.000 C 
BRANCH  26  27
ATOM     27  C   UNL     1     -14.650   8.554   3.967  1.00  0.00    -0.000 C 
BRANCH  27  28
ATOM     28  C   UNL     1     -15.744   9.445   3.357  1.00  0.00    -0.000 C 
BRANCH  28  29
ATOM     29  C   UNL     1     -15.228  10.851   2.994  1.00  0.00    -0.000 C 
BRANCH  29  30
ATOM     30  C   UNL     1     -13.695  10.923   2.947  1.00  0.00    -0.000 C 
BRANCH  30  31
ATOM     31  C   UNL     1     -13.171  12.367   2.950  1.00  0.00    -0.003 C 
ATOM     32  C   UNL     1     -11.674  12.407   3.243  1.00  0.00     0.004 C 
ENDBRANCH  30  31
ENDBRANCH  29  30
ENDBRANCH  28  29
ENDBRANCH  27  28
ENDBRANCH  26  27
ENDBRANCH  25  26
ENDBRANCH  24  25
ENDBRANCH  23  24
ENDBRANCH  22  23
ENDBRANCH  21  22
ENDBRANCH  20  21
ENDBRANCH  19  20
ENDBRANCH  18  19
ENDBRANCH   1  18
TORSDOF 28
ENDMDL
MODEL 8
REMARK VINA RESULT:    -3.947      2.205      6.029
REMARK INTER + INTRA:         -15.225
REMARK INTER:                 -10.666
REMARK INTRA:                  -4.559
REMARK UNBOUND:                -4.817
REMARK SMILES CCCCCCCCCCCCCCCCCCCCCCCCCCCCCC(=O)[O-]
REMARK SMILES IDX 16 1 17 2 18 3 19 4 20 5 21 6 22 7 23 8 24 9 25 10 26 11
REMARK SMILES IDX 27 12 28 13 29 14 30 15 31 16 32 17 15 18 14 19 13 20 12 21
REMARK SMILES IDX 11 22 10 23 9 24 8 25 7 26 6 27 5 28 4 29 3 30 2 31 1 32
REMARK H PARENT
REMARK Flexibility Score: inf
ROOT
ATOM      1  C   UNL     1     -14.817   7.139   4.871  1.00  0.00     0.000 C 
ENDROOT
BRANCH   1   2
ATOM      2  C   UNL     1     -14.362   8.606   4.741  1.00  0.00     0.000 C 
BRANCH   2   3
ATOM      3  C   UNL     1     -15.498   9.625   4.520  1.00  0.00     0.000 C 
BRANCH   3   4
ATOM      4  C   UNL     1     -15.773   9.985   3.046  1.00  0.00     0.000 C 
BRANCH   4   5
ATOM      5  C   UNL     1     -14.724   9.473   2.041  1.00  0.00     0.000 C 
BRANCH   5   6
ATOM      6  C   UNL     1     -14.004  10.613   1.303  1.00  0.00     0.000 C 
BRANCH   6   7
ATOM      7  C   UNL     1     -12.510  10.717   1.662  1.00  0.00     0.000 C 
BRANCH   7   8
ATOM      8  C   UNL     1     -12.156  11.774   2.725  1.00  0.00     0.000 C 
BRANCH   8   9
ATOM      9  C   UNL     1     -13.293  12.777   2.978  1.00  0.00     0.000 C 
BRANCH   9  10
ATOM     10  C   UNL     1     -13.568  13.006   4.476  1.00  0.00     0.000 C 
BRANCH  10  11
ATOM     11  C   UNL     1     -12.960  11.956   5.430  1.00  0.00     0.000 C 
BRANCH  11  12
ATOM     12  C   UNL     1     -12.155  12.530   6.609  1.00  0.00     0.000 C 
BRANCH  12  13
ATOM     13  C   UNL     1     -12.102  11.577   7.816  1.00  0.00     0.006 C 
BRANCH  13  14
ATOM     14  C   UNL     1     -13.150  10.460   7.718  1.00  0.00     0.053 C 
BRANCH  14  15
ATOM     15  C   UNL     1     -14.337  10.724   8.596  1.00  0.00     0.041 C 
ATOM     16  O   UNL     1     -14.190  10.844   9.842  1.00  0.00    -0.550 OA
ATOM     17  O   UNL     1     -15.601  10.855   8.033  1.00  0.00    -0.550 OA
ENDBRANCH  14  15
ENDBRANCH  13  14
ENDBRANCH  12  13
ENDBRANCH  11  12
ENDBRANCH  10  11
ENDBRANCH   9  10
ENDBRANCH   8   9
ENDBRANCH   7   8
ENDBRANCH   6   7
ENDBRANCH   5   6
ENDBRANCH   4   5
ENDBRANCH   3   4
ENDBRANCH   2   3
ENDBRANCH   1   2
BRANCH   1  18
ATOM     18  C   UNL     1     -13.846   6.218   5.635  1.00  0.00     0.000 C 
BRANCH  18  19
ATOM     19  C   UNL     1     -13.535   4.918   4.881  1.00  0.00     0.000 C 
BRANCH  19  20
ATOM     20  C   UNL     1     -13.109   3.809   5.857  1.00  0.00     0.000 C 
BRANCH  20  21
ATOM     21  C   UNL     1     -11.591   3.568   5.865  1.00  0.00     0.000 C 
BRANCH  21  22
ATOM     22  C   UNL     1     -10.829   4.548   4.955  1.00  0.00     0.000 C 
BRANCH  22  23
ATOM     23  C   UNL     1      -9.798   5.398   5.720  1.00  0.00     0.000 C 
BRANCH  23  24
ATOM     24  C   UNL     1      -9.569   6.813   5.158  1.00  0.00    -0.000 C 
BRANCH  24  25
ATOM     25  C   UNL     1     -10.658   7.810   5.581  1.00  0.00    -0.000 C 
BRANCH  25  26
ATOM     26  C   UNL     1     -10.492   9.151   4.857  1.00  0.00    -0.000 C 
BRANCH  26  27
ATOM     27  C   UNL     1      -9.507  10.062   5.605  1.00  0.00    -0.000 C 
BRANCH  27  28
ATOM     28  C   UNL     1      -8.064   9.923   5.095  1.00  0.00    -0.000 C 
BRANCH  28  29
ATOM     29  C   UNL     1      -7.038  10.589   6.031  1.00  0.00    -0.000 C 
BRANCH  29  30
ATOM     30  C   UNL     1      -7.700  11.353   7.186  1.00  0.00    -0.000 C 
BRANCH  30  31
ATOM     31  C   UNL     1      -6.680  11.905   8.192  1.00  0.00    -0.003 C 
ATOM     32  C   UNL     1      -7.140  11.670   9.627  1.00  0.00     0.004 C 
ENDBRANCH  30  31
ENDBRANCH  29  30
ENDBRANCH  28  29
ENDBRANCH  27  28
ENDBRANCH  26  27
ENDBRANCH  25  26
ENDBRANCH  24  25
ENDBRANCH  23  24
ENDBRANCH  22  23
ENDBRANCH  21  22
ENDBRANCH  20  21
ENDBRANCH  19  20
ENDBRANCH  18  19
ENDBRANCH   1  18
TORSDOF 28
ENDMDL
MODEL 9
REMARK VINA RESULT:    -3.942      2.341      5.378
REMARK INTER + INTRA:         -15.211
REMARK INTER:                  -9.997
REMARK INTRA:                  -5.213
REMARK UNBOUND:                -4.817
REMARK SMILES CCCCCCCCCCCCCCCCCCCCCCCCCCCCCC(=O)[O-]
REMARK SMILES IDX 16 1 17 2 18 3 19 4 20 5 21 6 22 7 23 8 24 9 25 10 26 11
REMARK SMILES IDX 27 12 28 13 29 14 30 15 31 16 32 17 15 18 14 19 13 20 12 21
REMARK SMILES IDX 11 22 10 23 9 24 8 25 7 26 6 27 5 28 4 29 3 30 2 31 1 32
REMARK H PARENT
REMARK Flexibility Score: inf
ROOT
ATOM      1  C   UNL     1     -13.118   7.412   6.060  1.00  0.00     0.000 C 
ENDROOT
BRANCH   1   2
ATOM      2  C   UNL     1     -12.942   6.006   6.670  1.00  0.00     0.000 C 
BRANCH   2   3
ATOM      3  C   UNL     1     -11.983   5.931   7.874  1.00  0.00     0.000 C 
BRANCH   3   4
ATOM      4  C   UNL     1     -11.732   4.511   8.420  1.00  0.00     0.000 C 
BRANCH   4   5
ATOM      5  C   UNL     1     -12.463   3.383   7.670  1.00  0.00     0.000 C 
BRANCH   5   6
ATOM      6  C   UNL     1     -11.542   2.620   6.703  1.00  0.00     0.000 C 
BRANCH   6   7
ATOM      7  C   UNL     1     -11.974   2.747   5.231  1.00  0.00     0.000 C 
BRANCH   7   8
ATOM      8  C   UNL     1     -11.347   3.920   4.454  1.00  0.00     0.000 C 
BRANCH   8   9
ATOM      9  C   UNL     1     -10.101   4.499   5.143  1.00  0.00     0.000 C 
BRANCH   9  10
ATOM     10  C   UNL     1      -9.706   5.885   4.600  1.00  0.00     0.000 C 
BRANCH  10  11
ATOM     11  C   UNL     1      -9.403   6.955   5.671  1.00  0.00     0.000 C 
BRANCH  11  12
ATOM     12  C   UNL     1      -9.291   8.396   5.143  1.00  0.00     0.000 C 
BRANCH  12  13
ATOM     13  C   UNL     1      -8.010   9.106   5.613  1.00  0.00     0.006 C 
BRANCH  13  14
ATOM     14  C   UNL     1      -8.156  10.634   5.599  1.00  0.00     0.053 C 
BRANCH  14  15
ATOM     15  C   UNL     1      -8.223  11.205   6.985  1.00  0.00     0.041 C 
ATOM     16  O   UNL     1      -9.339  11.392   7.540  1.00  0.00    -0.550 OA
ATOM     17  O   UNL     1      -7.052  11.511   7.667  1.00  0.00    -0.550 OA
ENDBRANCH  14  15
ENDBRANCH  13  14
ENDBRANCH  12  13
ENDBRANCH  11  12
ENDBRANCH  10  11
ENDBRANCH   9  10
ENDBRANCH   8   9
ENDBRANCH   7   8
ENDBRANCH   6   7
ENDBRANCH   5   6
ENDBRANCH   4   5
ENDBRANCH   3   4
ENDBRANCH   2   3
ENDBRANCH   1   2
BRANCH   1  18
ATOM     18  C   UNL     1     -14.268   7.546   5.045  1.00  0.00     0.000 C 
BRANCH  18  19
ATOM     19  C   UNL     1     -14.849   8.965   4.982  1.00  0.00     0.000 C 
BRANCH  19  20
ATOM     20  C   UNL     1     -15.694   9.154   3.711  1.00  0.00     0.000 C 
BRANCH  20  21
ATOM     21  C   UNL     1     -15.970  10.631   3.389  1.00  0.00     0.000 C 
BRANCH  21  22
ATOM     22  C   UNL     1     -15.303  11.088   2.079  1.00  0.00     0.000 C 
BRANCH  22  23
ATOM     23  C   UNL     1     -14.333  10.041   1.504  1.00  0.00     0.000 C 
BRANCH  23  24
ATOM     24  C   UNL     1     -12.883  10.525   1.316  1.00  0.00    -0.000 C 
BRANCH  24  25
ATOM     25  C   UNL     1     -12.368  11.350   2.504  1.00  0.00    -0.000 C 
BRANCH  25  26
ATOM     26  C   UNL     1     -11.959  10.444   3.672  1.00  0.00    -0.000 C 
BRANCH  26  27
ATOM     27  C   UNL     1     -11.814  11.251   4.971  1.00  0.00    -0.000 C 
BRANCH  27  28
ATOM     28  C   UNL     1     -12.957  12.259   5.174  1.00  0.00    -0.000 C 
BRANCH  28  29
ATOM     29  C   UNL     1     -13.538  12.215   6.600  1.00  0.00    -0.000 C 
BRANCH  29  30
ATOM     30  C   UNL     1     -12.902  11.116   7.464  1.00  0.00    -0.000 C 
BRANCH  30  31
ATOM     31  C   UNL     1     -13.919  10.423   8.382  1.00  0.00    -0.003 C 
ATOM     32  C   UNL     1     -15.348  10.794   7.998  1.00  0.00     0.004 C 
ENDBRANCH  30  31
ENDBRANCH  29  30
ENDBRANCH  28  29
ENDBRANCH  27  28
ENDBRANCH  26  27
ENDBRANCH  25  26
ENDBRANCH  24  25
ENDBRANCH  23  24
ENDBRANCH  22  23
ENDBRANCH  21  22
ENDBRANCH  20  21
ENDBRANCH  19  20
ENDBRANCH  18  19
ENDBRANCH   1  18
TORSDOF 28
ENDMDL
