MODEL 1
REMARK VINA RESULT:    -4.467      0.000      0.000
REMARK INTER + INTRA:          -4.467
REMARK INTER:                  -4.467
REMARK INTRA:                   0.000
REMARK UNBOUND:                 0.000
REMARK SMILES O=c1ccc2ccccc2o1
REMARK SMILES IDX 7 1 8 2 9 3 10 4 5 5 6 6 4 7 3 8 2 9 1 10 11 11
REMARK H PARENT
REMARK Flexibility Score: inf
ROOT
ATOM      1  C   UNL     1     -44.441 -53.415  12.616  1.00  0.00     0.001 A 
ATOM      2  C   UNL     1     -43.183 -53.385  12.006  1.00  0.00     0.004 A 
ATOM      3  C   UNL     1     -42.907 -52.443  11.010  1.00  0.00     0.048 A 
ATOM      4  C   UNL     1     -43.890 -51.527  10.620  1.00  0.00     0.138 A 
ATOM      5  C   UNL     1     -45.161 -51.557  11.237  1.00  0.00     0.018 A 
ATOM      6  C   UNL     1     -45.431 -52.505  12.235  1.00  0.00     0.012 A 
ATOM      7  C   UNL     1     -46.123 -50.629  10.827  1.00  0.00     0.019 A 
ATOM      8  C   UNL     1     -45.804 -49.708   9.830  1.00  0.00     0.094 A 
ATOM      9  C   UNL     1     -44.524 -49.736   9.264  1.00  0.00     0.336 A 
ATOM     10  O   UNL     1     -44.218 -48.912   8.363  1.00  0.00    -0.246 OA
ATOM     11  O   UNL     1     -43.627 -50.630   9.672  1.00  0.00    -0.423 OA
ENDROOT
TORSDOF 0
ENDMDL
MODEL 2
REMARK VINA RESULT:    -4.319      1.728      2.065
REMARK INTER + INTRA:          -4.319
REMARK INTER:                  -4.319
REMARK INTRA:                   0.000
REMARK UNBOUND:                 0.000
REMARK SMILES O=c1ccc2ccccc2o1
REMARK SMILES IDX 7 1 8 2 9 3 10 4 5 5 6 6 4 7 3 8 2 9 1 10 11 11
REMARK H PARENT
REMARK Flexibility Score: inf
ROOT
ATOM      1  C   UNL     1     -45.128 -53.409  11.066  1.00  0.00     0.001 A 
ATOM      2  C   UNL     1     -45.282 -53.639   9.696  1.00  0.00     0.004 A 
ATOM      3  C   UNL     1     -45.532 -52.571   8.826  1.00  0.00     0.048 A 
ATOM      4  C   UNL     1     -45.631 -51.268   9.328  1.00  0.00     0.138 A 
ATOM      5  C   UNL     1     -45.476 -51.036  10.712  1.00  0.00     0.018 A 
ATOM      6  C   UNL     1     -45.225 -52.111  11.578  1.00  0.00     0.012 A 
ATOM      7  C   UNL     1     -45.580 -49.724  11.184  1.00  0.00     0.019 A 
ATOM      8  C   UNL     1     -45.831 -48.691  10.281  1.00  0.00     0.094 A 
ATOM      9  C   UNL     1     -45.972 -48.996   8.923  1.00  0.00     0.336 A 
ATOM     10  O   UNL     1     -46.199 -48.076   8.093  1.00  0.00    -0.246 OA
ATOM     11  O   UNL     1     -45.869 -50.253   8.500  1.00  0.00    -0.423 OA
ENDROOT
TORSDOF 0
ENDMDL
MODEL 3
REMARK VINA RESULT:    -4.234      2.008      4.387
REMARK INTER + INTRA:          -4.234
REMARK INTER:                  -4.234
REMARK INTRA:                   0.000
REMARK UNBOUND:                 0.000
REMARK SMILES O=c1ccc2ccccc2o1
REMARK SMILES IDX 7 1 8 2 9 3 10 4 5 5 6 6 4 7 3 8 2 9 1 10 11 11
REMARK H PARENT
REMARK Flexibility Score: inf
ROOT
ATOM      1  C   UNL     1     -44.481 -50.016   8.910  1.00  0.00     0.001 A 
ATOM      2  C   UNL     1     -45.746 -49.891   9.492  1.00  0.00     0.004 A 
ATOM      3  C   UNL     1     -46.097 -50.684  10.590  1.00  0.00     0.048 A 
ATOM      4  C   UNL     1     -45.181 -51.606  11.109  1.00  0.00     0.138 A 
ATOM      5  C   UNL     1     -43.903 -51.732  10.522  1.00  0.00     0.018 A 
ATOM      6  C   UNL     1     -43.558 -50.934   9.420  1.00  0.00     0.012 A 
ATOM      7  C   UNL     1     -43.009 -52.661  11.062  1.00  0.00     0.019 A 
ATOM      8  C   UNL     1     -43.401 -53.430  12.157  1.00  0.00     0.094 A 
ATOM      9  C   UNL     1     -44.684 -53.250  12.688  1.00  0.00     0.336 A 
ATOM     10  O   UNL     1     -45.056 -53.936  13.677  1.00  0.00    -0.246 OA
ATOM     11  O   UNL     1     -45.515 -52.359  12.154  1.00  0.00    -0.423 OA
ENDROOT
TORSDOF 0
ENDMDL
MODEL 4
REMARK VINA RESULT:    -4.178      2.219      2.959
REMARK INTER + INTRA:          -4.178
REMARK INTER:                  -4.178
REMARK INTRA:                   0.000
REMARK UNBOUND:                 0.000
REMARK SMILES O=c1ccc2ccccc2o1
REMARK SMILES IDX 7 1 8 2 9 3 10 4 5 5 6 6 4 7 3 8 2 9 1 10 11 11
REMARK H PARENT
REMARK Flexibility Score: inf
ROOT
ATOM      1  C   UNL     1     -45.497 -52.411  12.258  1.00  0.00     0.001 A 
ATOM      2  C   UNL     1     -45.990 -51.151  11.903  1.00  0.00     0.004 A 
ATOM      3  C   UNL     1     -45.946 -50.728  10.570  1.00  0.00     0.048 A 
ATOM      4  C   UNL     1     -45.407 -51.565   9.587  1.00  0.00     0.138 A 
ATOM      5  C   UNL     1     -44.909 -52.838   9.945  1.00  0.00     0.018 A 
ATOM      6  C   UNL     1     -44.955 -53.255  11.283  1.00  0.00     0.012 A 
ATOM      7  C   UNL     1     -44.376 -53.652   8.941  1.00  0.00     0.019 A 
ATOM      8  C   UNL     1     -44.352 -53.189   7.626  1.00  0.00     0.094 A 
ATOM      9  C   UNL     1     -44.865 -51.918   7.345  1.00  0.00     0.336 A 
ATOM     10  O   UNL     1     -44.852 -51.483   6.163  1.00  0.00    -0.246 OA
ATOM     11  O   UNL     1     -45.365 -51.162   8.319  1.00  0.00    -0.423 OA
ENDROOT
TORSDOF 0
ENDMDL
MODEL 5
REMARK VINA RESULT:    -4.174      1.477      3.775
REMARK INTER + INTRA:          -4.174
REMARK INTER:                  -4.174
REMARK INTRA:                   0.000
REMARK UNBOUND:                 0.000
REMARK SMILES O=c1ccc2ccccc2o1
REMARK SMILES IDX 7 1 8 2 9 3 10 4 5 5 6 6 4 7 3 8 2 9 1 10 11 11
REMARK H PARENT
REMARK Flexibility Score: inf
ROOT
ATOM      1  C   UNL     1     -45.918 -49.476  10.010  1.00  0.00     0.001 A 
ATOM      2  C   UNL     1     -44.752 -49.404   9.242  1.00  0.00     0.004 A 
ATOM      3  C   UNL     1     -43.742 -50.359   9.406  1.00  0.00     0.048 A 
ATOM      4  C   UNL     1     -43.897 -51.389  10.340  1.00  0.00     0.138 A 
ATOM      5  C   UNL     1     -45.075 -51.462  11.116  1.00  0.00     0.018 A 
ATOM      6  C   UNL     1     -46.083 -50.501  10.947  1.00  0.00     0.012 A 
ATOM      7  C   UNL     1     -45.202 -52.502  12.041  1.00  0.00     0.019 A 
ATOM      8  C   UNL     1     -44.170 -53.431  12.170  1.00  0.00     0.094 A 
ATOM      9  C   UNL     1     -43.031 -53.297  11.368  1.00  0.00     0.336 A 
ATOM     10  O   UNL     1     -42.090 -54.127  11.471  1.00  0.00    -0.246 OA
ATOM     11  O   UNL     1     -42.936 -52.297  10.495  1.00  0.00    -0.423 OA
ENDROOT
TORSDOF 0
ENDMDL
MODEL 6
REMARK VINA RESULT:    -4.132      2.729      2.975
REMARK INTER + INTRA:          -4.132
REMARK INTER:                  -4.132
REMARK INTRA:                   0.000
REMARK UNBOUND:                 0.000
REMARK SMILES O=c1ccc2ccccc2o1
REMARK SMILES IDX 7 1 8 2 9 3 10 4 5 5 6 6 4 7 3 8 2 9 1 10 11 11
REMARK H PARENT
REMARK Flexibility Score: inf
ROOT
ATOM      1  C   UNL     1     -44.083 -53.383  12.370  1.00  0.00     0.001 A 
ATOM      2  C   UNL     1     -42.757 -53.408  11.925  1.00  0.00     0.004 A 
ATOM      3  C   UNL     1     -42.475 -53.448  10.555  1.00  0.00     0.048 A 
ATOM      4  C   UNL     1     -43.521 -53.465   9.625  1.00  0.00     0.138 A 
ATOM      5  C   UNL     1     -44.859 -53.439  10.074  1.00  0.00     0.018 A 
ATOM      6  C   UNL     1     -45.135 -53.399  11.449  1.00  0.00     0.012 A 
ATOM      7  C   UNL     1     -45.883 -53.456   9.121  1.00  0.00     0.019 A 
ATOM      8  C   UNL     1     -45.555 -53.497   7.767  1.00  0.00     0.094 A 
ATOM      9  C   UNL     1     -44.206 -53.519   7.395  1.00  0.00     0.336 A 
ATOM     10  O   UNL     1     -43.892 -53.556   6.177  1.00  0.00    -0.246 OA
ATOM     11  O   UNL     1     -43.252 -53.503   8.322  1.00  0.00    -0.423 OA
ENDROOT
TORSDOF 0
ENDMDL
MODEL 7
REMARK VINA RESULT:    -4.127      8.898     10.415
REMARK INTER + INTRA:          -4.127
REMARK INTER:                  -4.127
REMARK INTRA:                   0.000
REMARK UNBOUND:                 0.000
REMARK SMILES O=c1ccc2ccccc2o1
REMARK SMILES IDX 7 1 8 2 9 3 10 4 5 5 6 6 4 7 3 8 2 9 1 10 11 11
REMARK H PARENT
REMARK Flexibility Score: inf
ROOT
ATOM      1  C   UNL     1     -43.369 -40.373   8.784  1.00  0.00     0.001 A 
ATOM      2  C   UNL     1     -42.844 -39.856   9.973  1.00  0.00     0.004 A 
ATOM      3  C   UNL     1     -43.338 -40.291  11.208  1.00  0.00     0.048 A 
ATOM      4  C   UNL     1     -44.361 -41.244  11.256  1.00  0.00     0.138 A 
ATOM      5  C   UNL     1     -44.891 -41.766  10.055  1.00  0.00     0.018 A 
ATOM      6  C   UNL     1     -44.392 -41.325   8.821  1.00  0.00     0.012 A 
ATOM      7  C   UNL     1     -45.913 -42.717  10.135  1.00  0.00     0.019 A 
ATOM      8  C   UNL     1     -46.375 -43.121  11.387  1.00  0.00     0.094 A 
ATOM      9  C   UNL     1     -45.801 -42.562  12.535  1.00  0.00     0.336 A 
ATOM     10  O   UNL     1     -46.205 -42.915  13.674  1.00  0.00    -0.246 OA
ATOM     11  O   UNL     1     -44.831 -41.658  12.431  1.00  0.00    -0.423 OA
ENDROOT
TORSDOF 0
ENDMDL
MODEL 8
REMARK VINA RESULT:    -4.120      2.035      4.006
REMARK INTER + INTRA:          -4.120
REMARK INTER:                  -4.120
REMARK INTRA:                   0.000
REMARK UNBOUND:                 0.000
REMARK SMILES O=c1ccc2ccccc2o1
REMARK SMILES IDX 7 1 8 2 9 3 10 4 5 5 6 6 4 7 3 8 2 9 1 10 11 11
REMARK H PARENT
REMARK Flexibility Score: inf
ROOT
ATOM      1  C   UNL     1     -45.754 -48.560  10.488  1.00  0.00     0.001 A 
ATOM      2  C   UNL     1     -45.945 -48.699   9.110  1.00  0.00     0.004 A 
ATOM      3  C   UNL     1     -45.893 -49.965   8.517  1.00  0.00     0.048 A 
ATOM      4  C   UNL     1     -45.649 -51.097   9.302  1.00  0.00     0.138 A 
ATOM      5  C   UNL     1     -45.456 -50.957  10.694  1.00  0.00     0.018 A 
ATOM      6  C   UNL     1     -45.509 -49.684  11.283  1.00  0.00     0.012 A 
ATOM      7  C   UNL     1     -45.213 -52.106  11.454  1.00  0.00     0.019 A 
ATOM      8  C   UNL     1     -45.170 -53.347  10.820  1.00  0.00     0.094 A 
ATOM      9  C   UNL     1     -45.371 -53.410   9.436  1.00  0.00     0.336 A 
ATOM     10  O   UNL     1     -45.336 -54.523   8.847  1.00  0.00    -0.246 OA
ATOM     11  O   UNL     1     -45.600 -52.302   8.738  1.00  0.00    -0.423 OA
ENDROOT
TORSDOF 0
ENDMDL
MODEL 9
REMARK VINA RESULT:    -4.088      2.813      3.550
REMARK INTER + INTRA:          -4.088
REMARK INTER:                  -4.088
REMARK INTRA:                   0.000
REMARK UNBOUND:                 0.000
REMARK SMILES O=c1ccc2ccccc2o1
REMARK SMILES IDX 7 1 8 2 9 3 10 4 5 5 6 6 4 7 3 8 2 9 1 10 11 11
REMARK H PARENT
REMARK Flexibility Score: inf
ROOT
ATOM      1  C   UNL     1     -45.782 -50.994  11.514  1.00  0.00     0.001 A 
ATOM      2  C   UNL     1     -45.466 -52.233  12.080  1.00  0.00     0.004 A 
ATOM      3  C   UNL     1     -45.079 -53.302  11.263  1.00  0.00     0.048 A 
ATOM      4  C   UNL     1     -45.008 -53.132   9.876  1.00  0.00     0.138 A 
ATOM      5  C   UNL     1     -45.326 -51.881   9.304  1.00  0.00     0.018 A 
ATOM      6  C   UNL     1     -45.714 -50.814  10.129  1.00  0.00     0.012 A 
ATOM      7  C   UNL     1     -45.246 -51.741   7.915  1.00  0.00     0.019 A 
ATOM      8  C   UNL     1     -44.856 -52.833   7.141  1.00  0.00     0.094 A 
ATOM      9  C   UNL     1     -44.554 -54.043   7.776  1.00  0.00     0.336 A 
ATOM     10  O   UNL     1     -44.200 -55.039   7.092  1.00  0.00    -0.246 OA
ATOM     11  O   UNL     1     -44.639 -54.149   9.099  1.00  0.00    -0.423 OA
ENDROOT
TORSDOF 0
ENDMDL
