MODEL 1
REMARK VINA RESULT:    67.243      0.000      0.000
REMARK INTER + INTRA:          90.959
REMARK INTER:                  90.829
REMARK INTRA:                   0.130
REMARK UNBOUND:                 0.130
REMARK SMILES CC[C@@H](CC[C@H](C)[C@@H]1CC[C@@H]2[C@H]3CC(=O)C4=CC(=O)CC[C@@]4(C)[C@@H]3CC[C@@]21C)C(C)C
REMARK SMILES IDX 4 1 3 2 2 3 1 4 29 5 30 6 31 7 5 8 6 9 7 10 8 11 9 12 27 13
REMARK SMILES IDX 10 14 11 15 26 16 28 17 12 18 25 19 24 20 13 21 22 22 14 23
REMARK SMILES IDX 16 24 21 25 23 26 15 27 17 28 20 29 18 30 19 31
REMARK H PARENT
REMARK Flexibility Score: inf
ROOT
ATOM      1  C   UNL     1      87.908  21.405 111.841  1.00  0.00     0.004 C 
ENDROOT
BRANCH   1   2
ATOM      2  C   UNL     1      89.445  21.182 111.824  1.00  0.00    -0.009 C 
BRANCH   2   3
ATOM      3  C   UNL     1      89.900  19.876 112.544  1.00  0.00     0.000 C 
ATOM      4  C   UNL     1      91.407  19.625 112.596  1.00  0.00     0.004 C 
ENDBRANCH   2   3
BRANCH   2   5
ATOM      5  C   UNL     1      90.229  22.486 112.208  1.00  0.00    -0.014 C 
ATOM      6  C   UNL     1      90.750  22.462 113.653  1.00  0.00     0.007 C 
ATOM      7  C   UNL     1      89.486  23.805 111.926  1.00  0.00     0.007 C 
ENDBRANCH   2   5
ENDBRANCH   1   2
BRANCH   1   8
ATOM      8  C   UNL     1      87.164  20.619 110.740  1.00  0.00     0.004 C 
BRANCH   8   9
ATOM      9  C   UNL     1      87.527  21.036 109.286  1.00  0.00    -0.011 C 
ATOM     10  C   UNL     1      87.506  22.568 109.149  1.00  0.00     0.008 C 
BRANCH   9  11
ATOM     11  C   UNL     1      86.637  20.313 108.209  1.00  0.00    -0.002 C 
ATOM     12  C   UNL     1      85.216  20.893 108.139  1.00  0.00     0.005 C 
ATOM     13  C   UNL     1      86.422  18.763 108.308  1.00  0.00    -0.026 C 
ATOM     14  C   UNL     1      84.304  19.780 107.632  1.00  0.00     0.005 C 
ATOM     15  C   UNL     1      85.200  18.561 107.375  1.00  0.00    -0.001 C 
ATOM     16  C   UNL     1      86.110  18.301 109.782  1.00  0.00     0.007 C 
ATOM     17  C   UNL     1      87.642  17.994 107.721  1.00  0.00     0.012 C 
ATOM     18  C   UNL     1      84.429  17.198 107.499  1.00  0.00     0.004 C 
ATOM     19  C   UNL     1      84.946  17.305 109.947  1.00  0.00     0.005 C 
ATOM     20  C   UNL     1      84.833  16.359 108.743  1.00  0.00     0.003 C 
ATOM     21  C   UNL     1      84.577  16.349 106.227  1.00  0.00     0.085 C 
ATOM     22  C   UNL     1      83.893  15.108 108.961  1.00  0.00    -0.000 C 
ATOM     23  C   UNL     1      83.823  15.059 106.347  1.00  0.00     0.159 C 
ATOM     24  C   UNL     1      83.776  14.331 107.640  1.00  0.00     0.005 C 
ATOM     25  C   UNL     1      84.516  14.177 110.052  1.00  0.00     0.020 C 
ATOM     26  C   UNL     1      82.467  15.532 109.407  1.00  0.00     0.017 C 
ATOM     27  O   UNL     1      83.285  14.568 105.318  1.00  0.00    -0.295 OA
ATOM     28  C   UNL     1      83.553  13.001 107.632  1.00  0.00     0.055 C 
ATOM     29  C   UNL     1      83.787  12.835 110.198  1.00  0.00     0.081 C 
ATOM     30  C   UNL     1      83.536  12.202 108.866  1.00  0.00     0.156 C 
ATOM     31  O   UNL     1      83.281  10.970 108.805  1.00  0.00    -0.295 OA
ENDBRANCH   9  11
ENDBRANCH   8   9
ENDBRANCH   1   8
TORSDOF 6
ENDMDL
MODEL 2
REMARK VINA RESULT:    68.243      3.822      8.925
REMARK INTER + INTRA:          92.309
REMARK INTER:                  92.160
REMARK INTRA:                   0.150
REMARK UNBOUND:                 0.130
REMARK SMILES CC[C@@H](CC[C@H](C)[C@@H]1CC[C@@H]2[C@H]3CC(=O)C4=CC(=O)CC[C@@]4(C)[C@@H]3CC[C@@]21C)C(C)C
REMARK SMILES IDX 4 1 3 2 2 3 1 4 29 5 30 6 31 7 5 8 6 9 7 10 8 11 9 12 27 13
REMARK SMILES IDX 10 14 11 15 26 16 28 17 12 18 25 19 24 20 13 21 22 22 14 23
REMARK SMILES IDX 16 24 21 25 23 26 15 27 17 28 20 29 18 30 19 31
REMARK H PARENT
REMARK Flexibility Score: inf
ROOT
ATOM      1  C   UNL     1      85.265  16.010 107.361  1.00  0.00     0.004 C 
ENDROOT
BRANCH   1   2
ATOM      2  C   UNL     1      84.253  15.204 108.221  1.00  0.00    -0.009 C 
BRANCH   2   3
ATOM      3  C   UNL     1      84.916  14.379 109.366  1.00  0.00     0.000 C 
ATOM      4  C   UNL     1      83.963  13.627 110.295  1.00  0.00     0.004 C 
ENDBRANCH   2   3
BRANCH   2   5
ATOM      5  C   UNL     1      83.214  14.433 107.333  1.00  0.00    -0.014 C 
ATOM      6  C   UNL     1      83.430  12.912 107.352  1.00  0.00     0.007 C 
ATOM      7  C   UNL     1      83.085  14.941 105.885  1.00  0.00     0.007 C 
ENDBRANCH   2   5
ENDBRANCH   1   2
BRANCH   1   8
ATOM      8  C   UNL     1      85.700  17.339 108.014  1.00  0.00     0.004 C 
BRANCH   8   9
ATOM      9  C   UNL     1      84.560  18.384 108.183  1.00  0.00    -0.011 C 
ATOM     10  C   UNL     1      83.694  18.440 106.913  1.00  0.00     0.008 C 
BRANCH   9  11
ATOM     11  C   UNL     1      85.094  19.797 108.622  1.00  0.00    -0.002 C 
ATOM     12  C   UNL     1      85.802  20.537 107.476  1.00  0.00     0.005 C 
ATOM     13  C   UNL     1      86.091  19.898 109.827  1.00  0.00    -0.026 C 
ATOM     14  C   UNL     1      86.810  21.488 108.114  1.00  0.00     0.005 C 
ATOM     15  C   UNL     1      86.665  21.326 109.633  1.00  0.00    -0.001 C 
ATOM     16  C   UNL     1      87.222  18.803 109.755  1.00  0.00     0.007 C 
ATOM     17  C   UNL     1      85.330  19.838 111.184  1.00  0.00     0.012 C 
ATOM     18  C   UNL     1      87.984  21.674 110.413  1.00  0.00     0.004 C 
ATOM     19  C   UNL     1      88.657  19.292 110.030  1.00  0.00     0.005 C 
ATOM     20  C   UNL     1      88.681  20.439 111.050  1.00  0.00     0.003 C 
ATOM     21  C   UNL     1      87.737  22.744 111.488  1.00  0.00     0.085 C 
ATOM     22  C   UNL     1      90.107  20.785 111.634  1.00  0.00    -0.000 C 
ATOM     23  C   UNL     1      89.004  23.083 112.215  1.00  0.00     0.159 C 
ATOM     24  C   UNL     1      89.996  22.025 112.534  1.00  0.00     0.005 C 
ATOM     25  C   UNL     1      90.623  19.578 112.485  1.00  0.00     0.020 C 
ATOM     26  C   UNL     1      91.132  21.088 110.508  1.00  0.00     0.017 C 
ATOM     27  O   UNL     1      89.183  24.267 112.608  1.00  0.00    -0.295 OA
ATOM     28  C   UNL     1      90.837  22.212 113.571  1.00  0.00     0.055 C 
ATOM     29  C   UNL     1      91.910  19.884 113.262  1.00  0.00     0.081 C 
ATOM     30  C   UNL     1      91.816  21.194 113.978  1.00  0.00     0.156 C 
ATOM     31  O   UNL     1      92.607  21.439 114.928  1.00  0.00    -0.295 OA
ENDBRANCH   9  11
ENDBRANCH   8   9
ENDBRANCH   1   8
TORSDOF 6
ENDMDL
