MODEL 1
REMARK VINA RESULT:    -4.091      0.000      0.000
REMARK INTER + INTRA:          -9.852
REMARK INTER:                  -7.440
REMARK INTRA:                  -2.412
REMARK UNBOUND:                -2.412
REMARK SMILES CCCCCC=CCC=CCCCCCCCC(=O)[O-]
REMARK SMILES IDX 11 1 12 2 13 3 14 4 15 5 16 6 17 7 18 8 19 9 20 10 10 11
REMARK SMILES IDX 9 12 8 13 7 14 6 15 5 16 4 17 3 18 2 19 1 20
REMARK H PARENT
REMARK Flexibility Score: inf
ROOT
ATOM      1  C   UNL     1       0.216  28.416  32.569  1.00  0.00     0.027 C 
ENDROOT
BRANCH   1   2
ATOM      2  C   UNL     1      -0.517  28.918  31.313  1.00  0.00     0.004 C 
BRANCH   2   3
ATOM      3  C   UNL     1      -1.741  29.807  31.607  1.00  0.00     0.000 C 
BRANCH   3   4
ATOM      4  C   UNL     1      -1.618  31.212  31.000  1.00  0.00     0.000 C 
BRANCH   4   5
ATOM      5  C   UNL     1      -1.922  32.291  32.045  1.00  0.00     0.000 C 
BRANCH   5   6
ATOM      6  C   UNL     1      -0.631  32.932  32.566  1.00  0.00     0.006 C 
BRANCH   6   7
ATOM      7  C   UNL     1       0.478  32.871  31.511  1.00  0.00     0.053 C 
BRANCH   7   8
ATOM      8  C   UNL     1       0.928  34.250  31.143  1.00  0.00     0.041 C 
ATOM      9  O   UNL     1       1.629  34.434  30.113  1.00  0.00    -0.550 OA
ATOM     10  O   UNL     1       0.614  35.326  31.965  1.00  0.00    -0.550 OA
ENDBRANCH   7   8
ENDBRANCH   6   7
ENDBRANCH   5   6
ENDBRANCH   4   5
ENDBRANCH   3   4
ENDBRANCH   2   3
ENDBRANCH   1   2
BRANCH   1  11
ATOM     11  C   UNL     1       0.848  29.539  33.355  1.00  0.00    -0.031 C 
ATOM     12  C   UNL     1       0.432  29.958  34.564  1.00  0.00    -0.027 C 
BRANCH  12  13
ATOM     13  C   UNL     1      -0.686  29.323  35.354  1.00  0.00     0.054 C 
BRANCH  13  14
ATOM     14  C   UNL     1      -1.700  30.346  35.784  1.00  0.00    -0.027 C 
ATOM     15  C   UNL     1      -1.420  31.658  35.784  1.00  0.00    -0.031 C 
BRANCH  15  16
ATOM     16  C   UNL     1      -2.433  32.677  36.221  1.00  0.00     0.027 C 
BRANCH  16  17
ATOM     17  C   UNL     1      -1.945  34.103  35.921  1.00  0.00     0.004 C 
BRANCH  17  18
ATOM     18  C   UNL     1      -2.089  35.044  37.126  1.00  0.00     0.000 C 
BRANCH  18  19
ATOM     19  C   UNL     1      -0.764  35.257  37.872  1.00  0.00    -0.003 C 
ATOM     20  C   UNL     1      -0.543  34.170  38.920  1.00  0.00     0.004 C 
ENDBRANCH  18  19
ENDBRANCH  17  18
ENDBRANCH  16  17
ENDBRANCH  15  16
ENDBRANCH  13  14
ENDBRANCH  12  13
ENDBRANCH   1  11
TORSDOF 14
ENDMDL
MODEL 2
REMARK VINA RESULT:    -4.047      2.164      4.344
REMARK INTER + INTRA:          -9.771
REMARK INTER:                  -8.431
REMARK INTRA:                  -1.340
REMARK UNBOUND:                -2.412
REMARK SMILES CCCCCC=CCC=CCCCCCCCC(=O)[O-]
REMARK SMILES IDX 11 1 12 2 13 3 14 4 15 5 16 6 17 7 18 8 19 9 20 10 10 11
REMARK SMILES IDX 9 12 8 13 7 14 6 15 5 16 4 17 3 18 2 19 1 20
REMARK H PARENT
REMARK Flexibility Score: inf
ROOT
ATOM      1  C   UNL     1      -1.783  31.524  36.524  1.00  0.00     0.027 C 
ENDROOT
BRANCH   1   2
ATOM      2  C   UNL     1      -2.144  30.187  35.854  1.00  0.00     0.004 C 
BRANCH   2   3
ATOM      3  C   UNL     1      -0.928  29.320  35.474  1.00  0.00     0.000 C 
BRANCH   3   4
ATOM      4  C   UNL     1       0.326  30.152  35.167  1.00  0.00     0.000 C 
BRANCH   4   5
ATOM      5  C   UNL     1       0.836  29.875  33.749  1.00  0.00     0.000 C 
BRANCH   5   6
ATOM      6  C   UNL     1      -0.191  30.311  32.698  1.00  0.00     0.006 C 
BRANCH   6   7
ATOM      7  C   UNL     1      -0.415  31.826  32.744  1.00  0.00     0.053 C 
BRANCH   7   8
ATOM      8  C   UNL     1       0.052  32.463  31.473  1.00  0.00     0.041 C 
ATOM      9  O   UNL     1       0.795  33.479  31.510  1.00  0.00    -0.550 OA
ATOM     10  O   UNL     1      -0.376  31.966  30.248  1.00  0.00    -0.550 OA
ENDBRANCH   7   8
ENDBRANCH   6   7
ENDBRANCH   5   6
ENDBRANCH   4   5
ENDBRANCH   3   4
ENDBRANCH   2   3
ENDBRANCH   1   2
BRANCH   1  11
ATOM     11  C   UNL     1      -2.577  31.769  37.783  1.00  0.00    -0.031 C 
ATOM     12  C   UNL     1      -2.103  32.389  38.880  1.00  0.00    -0.027 C 
BRANCH  12  13
ATOM     13  C   UNL     1      -0.728  32.997  38.995  1.00  0.00     0.054 C 
BRANCH  13  14
ATOM     14  C   UNL     1      -0.771  34.486  38.796  1.00  0.00    -0.027 C 
ATOM     15  C   UNL     1      -0.522  35.043  37.601  1.00  0.00    -0.031 C 
BRANCH  15  16
ATOM     16  C   UNL     1      -0.559  36.533  37.406  1.00  0.00     0.027 C 
BRANCH  16  17
ATOM     17  C   UNL     1      -0.680  36.890  35.916  1.00  0.00     0.004 C 
BRANCH  17  18
ATOM     18  C   UNL     1      -0.002  38.225  35.571  1.00  0.00     0.000 C 
BRANCH  18  19
ATOM     19  C   UNL     1       0.821  38.789  36.738  1.00  0.00    -0.003 C 
ATOM     20  C   UNL     1       2.304  38.853  36.385  1.00  0.00     0.004 C 
ENDBRANCH  18  19
ENDBRANCH  17  18
ENDBRANCH  16  17
ENDBRANCH  15  16
ENDBRANCH  13  14
ENDBRANCH  12  13
ENDBRANCH   1  11
TORSDOF 14
ENDMDL
MODEL 3
REMARK VINA RESULT:    -3.952      2.540      5.400
REMARK INTER + INTRA:          -9.598
REMARK INTER:                  -7.924
REMARK INTRA:                  -1.675
REMARK UNBOUND:                -2.412
REMARK SMILES CCCCCC=CCC=CCCCCCCCC(=O)[O-]
REMARK SMILES IDX 11 1 12 2 13 3 14 4 15 5 16 6 17 7 18 8 19 9 20 10 10 11
REMARK SMILES IDX 9 12 8 13 7 14 6 15 5 16 4 17 3 18 2 19 1 20
REMARK H PARENT
REMARK Flexibility Score: inf
ROOT
ATOM      1  C   UNL     1      -1.503  34.324  35.006  1.00  0.00     0.027 C 
ENDROOT
BRANCH   1   2
ATOM      2  C   UNL     1      -1.984  32.878  35.216  1.00  0.00     0.004 C 
BRANCH   2   3
ATOM      3  C   UNL     1      -1.206  31.827  34.401  1.00  0.00     0.000 C 
BRANCH   3   4
ATOM      4  C   UNL     1      -0.941  30.537  35.190  1.00  0.00     0.000 C 
BRANCH   4   5
ATOM      5  C   UNL     1       0.483  30.025  34.944  1.00  0.00     0.000 C 
BRANCH   5   6
ATOM      6  C   UNL     1       0.717  29.739  33.456  1.00  0.00     0.006 C 
BRANCH   6   7
ATOM      7  C   UNL     1      -0.155  28.575  32.977  1.00  0.00     0.053 C 
BRANCH   7   8
ATOM      8  C   UNL     1      -0.318  28.620  31.490  1.00  0.00     0.041 C 
ATOM      9  O   UNL     1      -0.104  27.590  30.798  1.00  0.00    -0.550 OA
ATOM     10  O   UNL     1      -0.657  29.813  30.864  1.00  0.00    -0.550 OA
ENDBRANCH   7   8
ENDBRANCH   6   7
ENDBRANCH   5   6
ENDBRANCH   4   5
ENDBRANCH   3   4
ENDBRANCH   2   3
ENDBRANCH   1   2
BRANCH   1  11
ATOM     11  C   UNL     1      -2.290  35.317  35.826  1.00  0.00    -0.031 C 
ATOM     12  C   UNL     1      -1.897  35.817  37.012  1.00  0.00    -0.027 C 
BRANCH  12  13
ATOM     13  C   UNL     1      -0.574  35.516  37.672  1.00  0.00     0.054 C 
BRANCH  13  14
ATOM     14  C   UNL     1      -0.760  34.689  38.914  1.00  0.00    -0.027 C 
ATOM     15  C   UNL     1      -1.332  33.476  38.872  1.00  0.00    -0.031 C 
BRANCH  15  16
ATOM     16  C   UNL     1      -1.523  32.654  40.115  1.00  0.00     0.027 C 
BRANCH  16  17
ATOM     17  C   UNL     1      -2.609  31.587  39.907  1.00  0.00     0.004 C 
BRANCH  17  18
ATOM     18  C   UNL     1      -2.989  31.409  38.429  1.00  0.00     0.000 C 
BRANCH  18  19
ATOM     19  C   UNL     1      -3.876  30.179  38.191  1.00  0.00    -0.003 C 
ATOM     20  C   UNL     1      -3.037  28.959  37.822  1.00  0.00     0.004 C 
ENDBRANCH  18  19
ENDBRANCH  17  18
ENDBRANCH  16  17
ENDBRANCH  15  16
ENDBRANCH  13  14
ENDBRANCH  12  13
ENDBRANCH   1  11
TORSDOF 14
ENDMDL
MODEL 4
REMARK VINA RESULT:    -3.926      1.208      5.600
REMARK INTER + INTRA:          -9.552
REMARK INTER:                  -7.868
REMARK INTRA:                  -1.684
REMARK UNBOUND:                -2.412
REMARK SMILES CCCCCC=CCC=CCCCCCCCC(=O)[O-]
REMARK SMILES IDX 11 1 12 2 13 3 14 4 15 5 16 6 17 7 18 8 19 9 20 10 10 11
REMARK SMILES IDX 9 12 8 13 7 14 6 15 5 16 4 17 3 18 2 19 1 20
REMARK H PARENT
REMARK Flexibility Score: inf
ROOT
ATOM      1  C   UNL     1      -1.525  35.329  38.431  1.00  0.00     0.027 C 
ENDROOT
BRANCH   1   2
ATOM      2  C   UNL     1      -0.814  35.986  37.235  1.00  0.00     0.004 C 
BRANCH   2   3
ATOM      3  C   UNL     1      -1.715  36.203  36.004  1.00  0.00     0.000 C 
BRANCH   3   4
ATOM      4  C   UNL     1      -1.127  35.599  34.720  1.00  0.00     0.000 C 
BRANCH   4   5
ATOM      5  C   UNL     1      -1.642  34.172  34.497  1.00  0.00     0.000 C 
BRANCH   5   6
ATOM      6  C   UNL     1      -1.235  33.649  33.115  1.00  0.00     0.006 C 
BRANCH   6   7
ATOM      7  C   UNL     1      -0.373  34.674  32.372  1.00  0.00     0.053 C 
BRANCH   7   8
ATOM      8  C   UNL     1       0.620  33.983  31.491  1.00  0.00     0.041 C 
ATOM      9  O   UNL     1       0.655  32.726  31.442  1.00  0.00    -0.550 OA
ATOM     10  O   UNL     1       1.539  34.728  30.762  1.00  0.00    -0.550 OA
ENDBRANCH   7   8
ENDBRANCH   6   7
ENDBRANCH   5   6
ENDBRANCH   4   5
ENDBRANCH   3   4
ENDBRANCH   2   3
ENDBRANCH   1   2
BRANCH   1  11
ATOM     11  C   UNL     1      -0.735  34.181  39.010  1.00  0.00    -0.031 C 
ATOM     12  C   UNL     1      -1.001  32.880  38.793  1.00  0.00    -0.027 C 
BRANCH  12  13
ATOM     13  C   UNL     1      -2.086  32.368  37.879  1.00  0.00     0.054 C 
BRANCH  13  14
ATOM     14  C   UNL     1      -1.507  31.699  36.664  1.00  0.00    -0.027 C 
ATOM     15  C   UNL     1      -1.958  30.512  36.231  1.00  0.00    -0.031 C 
BRANCH  15  16
ATOM     16  C   UNL     1      -1.372  29.842  35.020  1.00  0.00     0.027 C 
BRANCH  16  17
ATOM     17  C   UNL     1       0.154  30.017  34.980  1.00  0.00     0.004 C 
BRANCH  17  18
ATOM     18  C   UNL     1       0.738  29.795  33.576  1.00  0.00     0.000 C 
BRANCH  18  19
ATOM     19  C   UNL     1       0.077  28.621  32.840  1.00  0.00    -0.003 C 
ATOM     20  C   UNL     1      -0.424  29.047  31.463  1.00  0.00     0.004 C 
ENDBRANCH  18  19
ENDBRANCH  17  18
ENDBRANCH  16  17
ENDBRANCH  15  16
ENDBRANCH  13  14
ENDBRANCH  12  13
ENDBRANCH   1  11
TORSDOF 14
ENDMDL
MODEL 5
REMARK VINA RESULT:    -3.926      3.411      6.892
REMARK INTER + INTRA:          -9.551
REMARK INTER:                  -7.726
REMARK INTRA:                  -1.825
REMARK UNBOUND:                -2.412
REMARK SMILES CCCCCC=CCC=CCCCCCCCC(=O)[O-]
REMARK SMILES IDX 11 1 12 2 13 3 14 4 15 5 16 6 17 7 18 8 19 9 20 10 10 11
REMARK SMILES IDX 9 12 8 13 7 14 6 15 5 16 4 17 3 18 2 19 1 20
REMARK H PARENT
REMARK Flexibility Score: inf
ROOT
ATOM      1  C   UNL     1      -1.606  31.992  36.107  1.00  0.00     0.027 C 
ENDROOT
BRANCH   1   2
ATOM      2  C   UNL     1      -1.877  32.850  34.859  1.00  0.00     0.004 C 
BRANCH   2   3
ATOM      3  C   UNL     1      -1.512  34.338  35.022  1.00  0.00     0.000 C 
BRANCH   3   4
ATOM      4  C   UNL     1      -1.998  34.929  36.353  1.00  0.00     0.000 C 
BRANCH   4   5
ATOM      5  C   UNL     1      -0.836  35.550  37.136  1.00  0.00     0.000 C 
BRANCH   5   6
ATOM      6  C   UNL     1      -1.020  35.354  38.645  1.00  0.00     0.006 C 
BRANCH   6   7
ATOM      7  C   UNL     1      -0.586  33.949  39.073  1.00  0.00     0.053 C 
BRANCH   7   8
ATOM      8  C   UNL     1      -1.705  33.246  39.775  1.00  0.00     0.041 C 
ATOM      9  O   UNL     1      -1.475  32.565  40.809  1.00  0.00    -0.550 OA
ATOM     10  O   UNL     1      -2.994  33.301  39.258  1.00  0.00    -0.550 OA
ENDBRANCH   7   8
ENDBRANCH   6   7
ENDBRANCH   5   6
ENDBRANCH   4   5
ENDBRANCH   3   4
ENDBRANCH   2   3
ENDBRANCH   1   2
BRANCH   1  11
ATOM     11  C   UNL     1      -1.884  30.527  35.869  1.00  0.00    -0.031 C 
ATOM     12  C   UNL     1      -1.036  29.674  35.265  1.00  0.00    -0.027 C 
BRANCH  12  13
ATOM     13  C   UNL     1       0.352  30.032  34.796  1.00  0.00     0.054 C 
BRANCH  13  14
ATOM     14  C   UNL     1       0.596  29.547  33.394  1.00  0.00    -0.027 C 
ATOM     15  C   UNL     1      -0.037  28.472  32.901  1.00  0.00    -0.031 C 
BRANCH  15  16
ATOM     16  C   UNL     1       0.215  27.984  31.502  1.00  0.00     0.027 C 
BRANCH  16  17
ATOM     17  C   UNL     1      -1.082  27.983  30.678  1.00  0.00     0.004 C 
BRANCH  17  18
ATOM     18  C   UNL     1      -1.536  29.398  30.288  1.00  0.00     0.000 C 
BRANCH  18  19
ATOM     19  C   UNL     1      -2.921  29.750  30.849  1.00  0.00    -0.003 C 
ATOM     20  C   UNL     1      -2.807  30.713  32.028  1.00  0.00     0.004 C 
ENDBRANCH  18  19
ENDBRANCH  17  18
ENDBRANCH  16  17
ENDBRANCH  15  16
ENDBRANCH  13  14
ENDBRANCH  12  13
ENDBRANCH   1  11
TORSDOF 14
ENDMDL
MODEL 6
REMARK VINA RESULT:    -3.919      2.191      4.565
REMARK INTER + INTRA:          -9.538
REMARK INTER:                  -7.590
REMARK INTRA:                  -1.948
REMARK UNBOUND:                -2.412
REMARK SMILES CCCCCC=CCC=CCCCCCCCC(=O)[O-]
REMARK SMILES IDX 11 1 12 2 13 3 14 4 15 5 16 6 17 7 18 8 19 9 20 10 10 11
REMARK SMILES IDX 9 12 8 13 7 14 6 15 5 16 4 17 3 18 2 19 1 20
REMARK H PARENT
REMARK Flexibility Score: inf
ROOT
ATOM      1  C   UNL     1      -2.299  32.473  34.351  1.00  0.00     0.027 C 
ENDROOT
BRANCH   1   2
ATOM      2  C   UNL     1      -1.522  31.751  35.465  1.00  0.00     0.004 C 
BRANCH   2   3
ATOM      3  C   UNL     1      -1.872  30.258  35.616  1.00  0.00     0.000 C 
BRANCH   3   4
ATOM      4  C   UNL     1      -0.701  29.332  35.260  1.00  0.00     0.000 C 
BRANCH   4   5
ATOM      5  C   UNL     1       0.419  30.107  34.557  1.00  0.00     0.000 C 
BRANCH   5   6
ATOM      6  C   UNL     1       0.872  29.386  33.282  1.00  0.00     0.006 C 
BRANCH   6   7
ATOM      7  C   UNL     1      -0.327  28.813  32.520  1.00  0.00     0.053 C 
BRANCH   7   8
ATOM      8  C   UNL     1      -1.118  29.912  31.883  1.00  0.00     0.041 C 
ATOM      9  O   UNL     1      -2.374  29.917  31.963  1.00  0.00    -0.550 OA
ATOM     10  O   UNL     1      -0.469  30.905  31.159  1.00  0.00    -0.550 OA
ENDBRANCH   7   8
ENDBRANCH   6   7
ENDBRANCH   5   6
ENDBRANCH   4   5
ENDBRANCH   3   4
ENDBRANCH   2   3
ENDBRANCH   1   2
BRANCH   1  11
ATOM     11  C   UNL     1      -1.418  33.388  33.535  1.00  0.00    -0.031 C 
ATOM     12  C   UNL     1      -1.312  34.716  33.721  1.00  0.00    -0.027 C 
BRANCH  12  13
ATOM     13  C   UNL     1      -2.003  35.487  34.819  1.00  0.00     0.054 C 
BRANCH  13  14
ATOM     14  C   UNL     1      -1.133  35.596  36.040  1.00  0.00    -0.027 C 
ATOM     15  C   UNL     1      -1.509  35.082  37.221  1.00  0.00    -0.031 C 
BRANCH  15  16
ATOM     16  C   UNL     1      -0.641  35.199  38.442  1.00  0.00     0.027 C 
BRANCH  16  17
ATOM     17  C   UNL     1      -0.861  34.009  39.389  1.00  0.00     0.004 C 
BRANCH  17  18
ATOM     18  C   UNL     1      -1.402  32.768  38.664  1.00  0.00     0.000 C 
BRANCH  18  19
ATOM     19  C   UNL     1      -2.215  31.851  39.589  1.00  0.00    -0.003 C 
ATOM     20  C   UNL     1      -2.078  32.278  41.047  1.00  0.00     0.004 C 
ENDBRANCH  18  19
ENDBRANCH  17  18
ENDBRANCH  16  17
ENDBRANCH  15  16
ENDBRANCH  13  14
ENDBRANCH  12  13
ENDBRANCH   1  11
TORSDOF 14
ENDMDL
MODEL 7
REMARK VINA RESULT:    -3.916      2.644      4.284
REMARK INTER + INTRA:          -9.533
REMARK INTER:                  -6.987
REMARK INTRA:                  -2.547
REMARK UNBOUND:                -2.412
REMARK SMILES CCCCCC=CCC=CCCCCCCCC(=O)[O-]
REMARK SMILES IDX 11 1 12 2 13 3 14 4 15 5 16 6 17 7 18 8 19 9 20 10 10 11
REMARK SMILES IDX 9 12 8 13 7 14 6 15 5 16 4 17 3 18 2 19 1 20
REMARK H PARENT
REMARK Flexibility Score: inf
ROOT
ATOM      1  C   UNL     1      -2.607  29.434  29.634  1.00  0.00     0.027 C 
ENDROOT
BRANCH   1   2
ATOM      2  C   UNL     1      -2.965  30.832  30.168  1.00  0.00     0.004 C 
BRANCH   2   3
ATOM      3  C   UNL     1      -1.763  31.631  30.707  1.00  0.00     0.000 C 
BRANCH   3   4
ATOM      4  C   UNL     1      -2.024  32.239  32.092  1.00  0.00     0.000 C 
BRANCH   4   5
ATOM      5  C   UNL     1      -0.820  33.060  32.568  1.00  0.00     0.000 C 
BRANCH   5   6
ATOM      6  C   UNL     1       0.376  32.880  31.627  1.00  0.00     0.006 C 
BRANCH   6   7
ATOM      7  C   UNL     1       0.980  34.234  31.241  1.00  0.00     0.053 C 
BRANCH   7   8
ATOM      8  C   UNL     1       1.387  34.234  29.801  1.00  0.00     0.041 C 
ATOM      9  O   UNL     1       2.048  35.196  29.330  1.00  0.00    -0.550 OA
ATOM     10  O   UNL     1       0.993  33.195  28.967  1.00  0.00    -0.550 OA
ENDBRANCH   7   8
ENDBRANCH   6   7
ENDBRANCH   5   6
ENDBRANCH   4   5
ENDBRANCH   3   4
ENDBRANCH   2   3
ENDBRANCH   1   2
BRANCH   1  11
ATOM     11  C   UNL     1      -2.805  28.354  30.671  1.00  0.00    -0.031 C 
ATOM     12  C   UNL     1      -1.812  27.650  31.244  1.00  0.00    -0.027 C 
BRANCH  12  13
ATOM     13  C   UNL     1      -0.342  27.879  30.992  1.00  0.00     0.054 C 
BRANCH  13  14
ATOM     14  C   UNL     1       0.375  28.262  32.257  1.00  0.00    -0.027 C 
ATOM     15  C   UNL     1       0.184  29.454  32.841  1.00  0.00    -0.031 C 
BRANCH  15  16
ATOM     16  C   UNL     1       0.908  29.838  34.101  1.00  0.00     0.027 C 
BRANCH  16  17
ATOM     17  C   UNL     1      -0.084  30.130  35.238  1.00  0.00     0.004 C 
BRANCH  17  18
ATOM     18  C   UNL     1      -1.410  29.372  35.075  1.00  0.00     0.000 C 
BRANCH  18  19
ATOM     19  C   UNL     1      -1.441  28.058  35.868  1.00  0.00    -0.003 C 
ATOM     20  C   UNL     1      -1.787  26.878  34.965  1.00  0.00     0.004 C 
ENDBRANCH  18  19
ENDBRANCH  17  18
ENDBRANCH  16  17
ENDBRANCH  15  16
ENDBRANCH  13  14
ENDBRANCH  12  13
ENDBRANCH   1  11
TORSDOF 14
ENDMDL
MODEL 8
REMARK VINA RESULT:    -3.910      2.574      6.560
REMARK INTER + INTRA:          -9.522
REMARK INTER:                  -7.897
REMARK INTRA:                  -1.624
REMARK UNBOUND:                -2.412
REMARK SMILES CCCCCC=CCC=CCCCCCCCC(=O)[O-]
REMARK SMILES IDX 11 1 12 2 13 3 14 4 15 5 16 6 17 7 18 8 19 9 20 10 10 11
REMARK SMILES IDX 9 12 8 13 7 14 6 15 5 16 4 17 3 18 2 19 1 20
REMARK H PARENT
REMARK Flexibility Score: inf
ROOT
ATOM      1  C   UNL     1      -2.993  32.528  39.911  1.00  0.00     0.027 C 
ENDROOT
BRANCH   1   2
ATOM      2  C   UNL     1      -1.498  32.803  40.150  1.00  0.00     0.004 C 
BRANCH   2   3
ATOM      3  C   UNL     1      -0.729  33.257  38.894  1.00  0.00     0.000 C 
BRANCH   3   4
ATOM      4  C   UNL     1      -1.174  34.636  38.388  1.00  0.00     0.000 C 
BRANCH   4   5
ATOM      5  C   UNL     1      -1.493  34.595  36.889  1.00  0.00     0.000 C 
BRANCH   5   6
ATOM      6  C   UNL     1      -1.171  35.936  36.220  1.00  0.00     0.006 C 
BRANCH   6   7
ATOM      7  C   UNL     1      -0.206  36.760  37.078  1.00  0.00     0.053 C 
BRANCH   7   8
ATOM      8  C   UNL     1       0.360  37.897  36.286  1.00  0.00     0.041 C 
ATOM      9  O   UNL     1       1.379  38.510  36.697  1.00  0.00    -0.550 OA
ATOM     10  O   UNL     1      -0.270  38.311  35.118  1.00  0.00    -0.550 OA
ENDBRANCH   7   8
ENDBRANCH   6   7
ENDBRANCH   5   6
ENDBRANCH   4   5
ENDBRANCH   3   4
ENDBRANCH   2   3
ENDBRANCH   1   2
BRANCH   1  11
ATOM     11  C   UNL     1      -3.271  31.074  39.618  1.00  0.00    -0.031 C 
ATOM     12  C   UNL     1      -3.420  30.555  38.385  1.00  0.00    -0.027 C 
BRANCH  12  13
ATOM     13  C   UNL     1      -3.262  31.332  37.102  1.00  0.00     0.054 C 
BRANCH  13  14
ATOM     14  C   UNL     1      -2.116  30.807  36.283  1.00  0.00    -0.027 C 
ATOM     15  C   UNL     1      -1.946  29.493  36.072  1.00  0.00    -0.031 C 
BRANCH  15  16
ATOM     16  C   UNL     1      -0.795  28.971  35.259  1.00  0.00     0.027 C 
BRANCH  16  17
ATOM     17  C   UNL     1       0.228  30.082  34.976  1.00  0.00     0.004 C 
BRANCH  17  18
ATOM     18  C   UNL     1       1.012  29.847  33.676  1.00  0.00     0.000 C 
BRANCH  18  19
ATOM     19  C   UNL     1       0.269  28.928  32.696  1.00  0.00    -0.003 C 
ATOM     20  C   UNL     1      -0.575  29.737  31.715  1.00  0.00     0.004 C 
ENDBRANCH  18  19
ENDBRANCH  17  18
ENDBRANCH  16  17
ENDBRANCH  15  16
ENDBRANCH  13  14
ENDBRANCH  12  13
ENDBRANCH   1  11
TORSDOF 14
ENDMDL
MODEL 9
REMARK VINA RESULT:    -3.866      2.418      5.548
REMARK INTER + INTRA:          -9.443
REMARK INTER:                  -7.404
REMARK INTRA:                  -2.039
REMARK UNBOUND:                -2.412
REMARK SMILES CCCCCC=CCC=CCCCCCCCC(=O)[O-]
REMARK SMILES IDX 11 1 12 2 13 3 14 4 15 5 16 6 17 7 18 8 19 9 20 10 10 11
REMARK SMILES IDX 9 12 8 13 7 14 6 15 5 16 4 17 3 18 2 19 1 20
REMARK H PARENT
REMARK Flexibility Score: inf
ROOT
ATOM      1  C   UNL     1      -2.562  32.556  38.739  1.00  0.00     0.027 C 
ENDROOT
BRANCH   1   2
ATOM      2  C   UNL     1      -2.842  32.091  37.300  1.00  0.00     0.004 C 
BRANCH   2   3
ATOM      3  C   UNL     1      -1.585  31.678  36.511  1.00  0.00     0.000 C 
BRANCH   3   4
ATOM      4  C   UNL     1      -1.839  30.504  35.555  1.00  0.00     0.000 C 
BRANCH   4   5
ATOM      5  C   UNL     1      -0.536  29.763  35.235  1.00  0.00     0.000 C 
BRANCH   5   6
ATOM      6  C   UNL     1       0.182  30.401  34.041  1.00  0.00     0.006 C 
BRANCH   6   7
ATOM      7  C   UNL     1       0.816  29.333  33.145  1.00  0.00     0.053 C 
BRANCH   7   8
ATOM      8  C   UNL     1      -0.142  28.909  32.076  1.00  0.00     0.041 C 
ATOM      9  O   UNL     1       0.093  27.883  31.386  1.00  0.00    -0.550 OA
ATOM     10  O   UNL     1      -1.269  29.677  31.810  1.00  0.00    -0.550 OA
ENDBRANCH   7   8
ENDBRANCH   6   7
ENDBRANCH   5   6
ENDBRANCH   4   5
ENDBRANCH   3   4
ENDBRANCH   2   3
ENDBRANCH   1   2
BRANCH   1  11
ATOM     11  C   UNL     1      -1.091  32.777  38.995  1.00  0.00    -0.031 C 
ATOM     12  C   UNL     1      -0.502  33.984  39.094  1.00  0.00    -0.027 C 
BRANCH  12  13
ATOM     13  C   UNL     1      -1.233  35.302  39.033  1.00  0.00     0.054 C 
BRANCH  13  14
ATOM     14  C   UNL     1      -0.787  36.120  37.854  1.00  0.00    -0.027 C 
ATOM     15  C   UNL     1      -1.239  35.875  36.615  1.00  0.00    -0.031 C 
BRANCH  15  16
ATOM     16  C   UNL     1      -0.785  36.690  35.437  1.00  0.00     0.027 C 
BRANCH  16  17
ATOM     17  C   UNL     1      -1.163  36.004  34.115  1.00  0.00     0.004 C 
BRANCH  17  18
ATOM     18  C   UNL     1      -1.548  34.528  34.304  1.00  0.00     0.000 C 
BRANCH  18  19
ATOM     19  C   UNL     1      -1.180  33.662  33.091  1.00  0.00    -0.003 C 
ATOM     20  C   UNL     1      -2.392  32.889  32.579  1.00  0.00     0.004 C 
ENDBRANCH  18  19
ENDBRANCH  17  18
ENDBRANCH  16  17
ENDBRANCH  15  16
ENDBRANCH  13  14
ENDBRANCH  12  13
ENDBRANCH   1  11
TORSDOF 14
ENDMDL
