MODEL 1
REMARK VINA RESULT:    -2.834      0.000      0.000
REMARK INTER + INTRA:          -3.390
REMARK INTER:                  -3.331
REMARK INTRA:                  -0.059
REMARK UNBOUND:                -0.059
REMARK SMILES CCCCC(=O)[O-]
REMARK SMILES IDX 4 1 5 2 6 3 7 4 3 5 2 6 1 7
REMARK H PARENT
REMARK Flexibility Score: inf
ROOT
ATOM      1  C   UNL     1      57.744  -1.400  -5.642  1.00  0.00     0.053 C 
ENDROOT
BRANCH   1   2
ATOM      2  C   UNL     1      58.680  -2.565  -5.603  1.00  0.00     0.041 C 
ATOM      3  O   UNL     1      59.105  -3.001  -4.501  1.00  0.00    -0.550 OA
ATOM      4  O   UNL     1      59.125  -3.140  -6.788  1.00  0.00    -0.550 OA
ENDBRANCH   1   2
BRANCH   1   5
ATOM      5  C   UNL     1      57.574  -0.895  -7.078  1.00  0.00     0.006 C 
BRANCH   5   6
ATOM      6  C   UNL     1      57.560   0.637  -7.124  1.00  0.00    -0.003 C 
ATOM      7  C   UNL     1      58.753   1.222  -6.374  1.00  0.00     0.004 C 
ENDBRANCH   5   6
ENDBRANCH   1   5
TORSDOF 3
ENDMDL
MODEL 2
REMARK VINA RESULT:    -2.769      2.582      3.660
REMARK INTER + INTRA:          -3.313
REMARK INTER:                  -3.220
REMARK INTRA:                  -0.093
REMARK UNBOUND:                -0.059
REMARK SMILES CCCCC(=O)[O-]
REMARK SMILES IDX 4 1 5 2 6 3 7 4 3 5 2 6 1 7
REMARK H PARENT
REMARK Flexibility Score: inf
ROOT
ATOM      1  C   UNL     1      57.621  -0.918  -7.123  1.00  0.00     0.053 C 
ENDROOT
BRANCH   1   2
ATOM      2  C   UNL     1      57.851   0.490  -6.677  1.00  0.00     0.041 C 
ATOM      3  O   UNL     1      58.772   0.755  -5.860  1.00  0.00    -0.550 OA
ATOM      4  O   UNL     1      57.016   1.507  -7.125  1.00  0.00    -0.550 OA
ENDBRANCH   1   2
BRANCH   1   5
ATOM      5  C   UNL     1      58.932  -1.711  -7.094  1.00  0.00     0.006 C 
BRANCH   5   6
ATOM      6  C   UNL     1      58.730  -3.082  -6.441  1.00  0.00    -0.003 C 
ATOM      7  C   UNL     1      58.757  -2.977  -4.919  1.00  0.00     0.004 C 
ENDBRANCH   5   6
ENDBRANCH   1   5
TORSDOF 3
ENDMDL
MODEL 3
REMARK VINA RESULT:    -2.668      2.574      3.766
REMARK INTER + INTRA:          -3.195
REMARK INTER:                  -3.112
REMARK INTRA:                  -0.082
REMARK UNBOUND:                -0.059
REMARK SMILES CCCCC(=O)[O-]
REMARK SMILES IDX 4 1 5 2 6 3 7 4 3 5 2 6 1 7
REMARK H PARENT
REMARK Flexibility Score: inf
ROOT
ATOM      1  C   UNL     1      57.598  -0.888  -6.981  1.00  0.00     0.053 C 
ENDROOT
BRANCH   1   2
ATOM      2  C   UNL     1      57.775   0.545  -6.592  1.00  0.00     0.041 C 
ATOM      3  O   UNL     1      57.066   1.439  -7.125  1.00  0.00    -0.550 OA
ATOM      4  O   UNL     1      58.758   0.901  -5.677  1.00  0.00    -0.550 OA
ENDBRANCH   1   2
BRANCH   1   5
ATOM      5  C   UNL     1      58.957  -1.583  -7.101  1.00  0.00     0.006 C 
BRANCH   5   6
ATOM      6  C   UNL     1      58.901  -3.002  -6.524  1.00  0.00    -0.003 C 
ATOM      7  C   UNL     1      58.585  -2.978  -5.032  1.00  0.00     0.004 C 
ENDBRANCH   5   6
ENDBRANCH   1   5
TORSDOF 3
ENDMDL
MODEL 4
REMARK VINA RESULT:    -2.252      8.084      9.771
REMARK INTER + INTRA:          -2.706
REMARK INTER:                  -2.675
REMARK INTRA:                  -0.031
REMARK UNBOUND:                -0.059
REMARK SMILES CCCCC(=O)[O-]
REMARK SMILES IDX 4 1 5 2 6 3 7 4 3 5 2 6 1 7
REMARK H PARENT
REMARK Flexibility Score: inf
ROOT
ATOM      1  C   UNL     1      57.978  -5.727   1.638  1.00  0.00     0.053 C 
ENDROOT
BRANCH   1   2
ATOM      2  C   UNL     1      58.650  -5.210   0.406  1.00  0.00     0.041 C 
ATOM      3  O   UNL     1      58.750  -3.969   0.212  1.00  0.00    -0.550 OA
ATOM      4  O   UNL     1      59.123  -6.097  -0.554  1.00  0.00    -0.550 OA
ENDBRANCH   1   2
BRANCH   1   5
ATOM      5  C   UNL     1      58.513  -7.117   1.997  1.00  0.00     0.006 C 
BRANCH   5   6
ATOM      6  C   UNL     1      59.122  -7.124   3.403  1.00  0.00    -0.003 C 
ATOM      7  C   UNL     1      58.037  -7.078   4.475  1.00  0.00     0.004 C 
ENDBRANCH   5   6
ENDBRANCH   1   5
TORSDOF 3
ENDMDL
MODEL 5
REMARK VINA RESULT:    -2.161     27.224     27.741
REMARK INTER + INTRA:          -2.599
REMARK INTER:                  -2.581
REMARK INTRA:                  -0.018
REMARK UNBOUND:                -0.059
REMARK SMILES CCCCC(=O)[O-]
REMARK SMILES IDX 4 1 5 2 6 3 7 4 3 5 2 6 1 7
REMARK H PARENT
REMARK Flexibility Score: inf
ROOT
ATOM      1  C   UNL     1      40.455   7.569  12.253  1.00  0.00     0.053 C 
ENDROOT
BRANCH   1   2
ATOM      2  C   UNL     1      40.874   6.272  12.868  1.00  0.00     0.041 C 
ATOM      3  O   UNL     1      42.088   6.055  13.125  1.00  0.00    -0.550 OA
ATOM      4  O   UNL     1      39.931   5.280  13.112  1.00  0.00    -0.550 OA
ENDBRANCH   1   2
BRANCH   1   5
ATOM      5  C   UNL     1      39.402   8.260  13.125  1.00  0.00     0.006 C 
BRANCH   5   6
ATOM      6  C   UNL     1      39.589   9.781  13.111  1.00  0.00    -0.003 C 
ATOM      7  C   UNL     1      39.194  10.372  11.761  1.00  0.00     0.004 C 
ENDBRANCH   5   6
ENDBRANCH   1   5
TORSDOF 3
ENDMDL
MODEL 6
REMARK VINA RESULT:    -2.034      7.138      8.166
REMARK INTER + INTRA:          -2.450
REMARK INTER:                  -2.428
REMARK INTRA:                  -0.023
REMARK UNBOUND:                -0.059
REMARK SMILES CCCCC(=O)[O-]
REMARK SMILES IDX 4 1 5 2 6 3 7 4 3 5 2 6 1 7
REMARK H PARENT
REMARK Flexibility Score: inf
ROOT
ATOM      1  C   UNL     1      58.703  -5.352   0.376  1.00  0.00     0.053 C 
ENDROOT
BRANCH   1   2
ATOM      2  C   UNL     1      57.789  -6.049   1.332  1.00  0.00     0.041 C 
ATOM      3  O   UNL     1      56.540  -5.962   1.194  1.00  0.00    -0.550 OA
ATOM      4  O   UNL     1      58.315  -6.756   2.408  1.00  0.00    -0.550 OA
ENDBRANCH   1   2
BRANCH   1   5
ATOM      5  C   UNL     1      59.124  -6.299  -0.751  1.00  0.00     0.006 C 
BRANCH   5   6
ATOM      6  C   UNL     1      59.124  -5.579  -2.104  1.00  0.00    -0.003 C 
ATOM      7  C   UNL     1      58.506  -6.451  -3.193  1.00  0.00     0.004 C 
ENDBRANCH   5   6
ENDBRANCH   1   5
TORSDOF 3
ENDMDL
MODEL 7
REMARK VINA RESULT:    -1.905     27.441     28.087
REMARK INTER + INTRA:          -2.297
REMARK INTER:                  -2.404
REMARK INTRA:                   0.106
REMARK UNBOUND:                -0.059
REMARK SMILES CCCCC(=O)[O-]
REMARK SMILES IDX 4 1 5 2 6 3 7 4 3 5 2 6 1 7
REMARK H PARENT
REMARK Flexibility Score: inf
ROOT
ATOM      1  C   UNL     1      40.356   7.500  11.832  1.00  0.00     0.053 C 
ENDROOT
BRANCH   1   2
ATOM      2  C   UNL     1      39.594   8.761  12.091  1.00  0.00     0.041 C 
ATOM      3  O   UNL     1      38.882   8.871  13.124  1.00  0.00    -0.550 OA
ATOM      4  O   UNL     1      39.630   9.798  11.166  1.00  0.00    -0.550 OA
ENDBRANCH   1   2
BRANCH   1   5
ATOM      5  C   UNL     1      40.235   6.546  13.024  1.00  0.00     0.006 C 
BRANCH   5   6
ATOM      6  C   UNL     1      38.974   5.684  12.913  1.00  0.00    -0.003 C 
ATOM      7  C   UNL     1      39.298   4.205  13.107  1.00  0.00     0.004 C 
ENDBRANCH   5   6
ENDBRANCH   1   5
TORSDOF 3
ENDMDL
MODEL 8
REMARK VINA RESULT:    -1.762      6.043      7.669
REMARK INTER + INTRA:          -2.130
REMARK INTER:                  -2.093
REMARK INTRA:                  -0.037
REMARK UNBOUND:                -0.059
REMARK SMILES CCCCC(=O)[O-]
REMARK SMILES IDX 4 1 5 2 6 3 7 4 3 5 2 6 1 7
REMARK H PARENT
REMARK Flexibility Score: inf
ROOT
ATOM      1  C   UNL     1      59.101  -6.332  -1.021  1.00  0.00     0.053 C 
ENDROOT
BRANCH   1   2
ATOM      2  C   UNL     1      59.121  -5.749  -2.398  1.00  0.00     0.041 C 
ATOM      3  O   UNL     1      59.096  -4.500  -2.558  1.00  0.00    -0.550 OA
ATOM      4  O   UNL     1      59.116  -6.584  -3.508  1.00  0.00    -0.550 OA
ENDBRANCH   1   2
BRANCH   1   5
ATOM      5  C   UNL     1      59.002  -5.223   0.030  1.00  0.00     0.006 C 
BRANCH   5   6
ATOM      6  C   UNL     1      58.157  -5.674   1.226  1.00  0.00    -0.003 C 
ATOM      7  C   UNL     1      58.540  -7.083   1.672  1.00  0.00     0.004 C 
ENDBRANCH   5   6
ENDBRANCH   1   5
TORSDOF 3
ENDMDL
MODEL 9
REMARK VINA RESULT:    -0.168      7.883      9.380
REMARK INTER + INTRA:          -0.257
REMARK INTER:                  -0.346
REMARK INTRA:                   0.089
REMARK UNBOUND:                -0.059
REMARK SMILES CCCCC(=O)[O-]
REMARK SMILES IDX 4 1 5 2 6 3 7 4 3 5 2 6 1 7
REMARK H PARENT
REMARK Flexibility Score: inf
ROOT
ATOM      1  C   UNL     1      57.290  -5.940   1.757  1.00  0.00     0.053 C 
ENDROOT
BRANCH   1   2
ATOM      2  C   UNL     1      57.942  -6.710   2.860  1.00  0.00     0.041 C 
ATOM      3  O   UNL     1      59.125  -7.123   2.732  1.00  0.00    -0.550 OA
ATOM      4  O   UNL     1      57.228  -7.017   4.012  1.00  0.00    -0.550 OA
ENDBRANCH   1   2
BRANCH   1   5
ATOM      5  C   UNL     1      57.779  -6.435   0.393  1.00  0.00     0.006 C 
BRANCH   5   6
ATOM      6  C   UNL     1      58.967  -5.602  -0.101  1.00  0.00    -0.003 C 
ATOM      7  C   UNL     1      59.068  -5.634  -1.623  1.00  0.00     0.004 C 
ENDBRANCH   5   6
ENDBRANCH   1   5
TORSDOF 3
ENDMDL
