MODEL 1
REMARK VINA RESULT:     1.150      0.000      0.000
REMARK INTER + INTRA:           1.251
REMARK INTER:                   1.251
REMARK INTRA:                   0.000
REMARK UNBOUND:                 0.000
REMARK SMILES Cc1cc(O)c2c(c1)C(=O)c1cc(O)cc(O)c1C2=O
REMARK SMILES IDX 1 1 2 2 8 3 7 4 6 5 4 6 3 7 19 8 20 9 18 10 11 11 9 12 10 13
REMARK SMILES IDX 12 14 13 15 15 16 16 17 5 18 17 20 14 22
REMARK H PARENT 5 19 17 21 14 23
REMARK Flexibility Score: inf
ROOT
ATOM      1  C   UNL     1      80.672  16.896   9.420  1.00  0.00     0.044 C 
ATOM      2  C   UNL     1      80.124  16.497   8.081  1.00  0.00    -0.047 A 
ATOM      3  C   UNL     1      80.363  17.295   6.956  1.00  0.00     0.016 A 
ATOM      4  C   UNL     1      79.821  16.950   5.704  1.00  0.00     0.038 A 
ATOM      5  C   UNL     1      79.023  15.794   5.580  1.00  0.00     0.076 A 
ATOM      6  C   UNL     1      78.761  15.006   6.725  1.00  0.00     0.127 A 
ATOM      7  C   UNL     1      79.308  15.366   7.963  1.00  0.00     0.050 A 
ATOM      8  C   UNL     1      78.493  15.421   4.242  1.00  0.00     0.201 C 
ATOM      9  O   UNL     1      78.103  14.241   4.038  1.00  0.00    -0.288 OA
ATOM     10  C   UNL     1      78.530  16.402   3.122  1.00  0.00     0.076 A 
ATOM     11  C   UNL     1      79.382  17.526   3.241  1.00  0.00     0.041 A 
ATOM     12  C   UNL     1      80.086  17.794   4.518  1.00  0.00     0.194 C 
ATOM     13  O   UNL     1      80.899  18.757   4.599  1.00  0.00    -0.289 OA
ATOM     14  C   UNL     1      79.555  18.393   2.148  1.00  0.00     0.059 A 
ATOM     15  C   UNL     1      78.882  18.167   0.949  1.00  0.00     0.120 A 
ATOM     16  C   UNL     1      78.002  17.087   0.840  1.00  0.00     0.093 A 
ATOM     17  C   UNL     1      77.791  16.225   1.920  1.00  0.00     0.131 A 
ENDROOT
BRANCH   6  18
ATOM     18  O   UNL     1      77.949  13.875   6.639  1.00  0.00    -0.507 OA
ATOM     19  H   UNL     1      77.896  13.319   5.794  1.00  0.00     0.293 HD
ENDBRANCH   6  18
BRANCH  17  20
ATOM     20  O   UNL     1      76.817  15.236   1.765  1.00  0.00    -0.507 OA
ATOM     21  H   UNL     1      76.055  15.092   2.412  1.00  0.00     0.293 HD
ENDBRANCH  17  20
BRANCH  15  22
ATOM     22  O   UNL     1      79.082  19.031  -0.125  1.00  0.00    -0.508 OA
ATOM     23  H   UNL     1      79.963  19.510  -0.264  1.00  0.00     0.293 HD
ENDBRANCH  15  22
TORSDOF 3
ENDMDL
MODEL 2
REMARK VINA RESULT:     3.100      1.198      3.353
REMARK INTER + INTRA:           3.371
REMARK INTER:                   3.371
REMARK INTRA:                   0.000
REMARK UNBOUND:                 0.000
REMARK SMILES Cc1cc(O)c2c(c1)C(=O)c1cc(O)cc(O)c1C2=O
REMARK SMILES IDX 1 1 2 2 8 3 7 4 6 5 4 6 3 7 19 8 20 9 18 10 11 11 9 12 10 13
REMARK SMILES IDX 12 14 13 15 15 16 16 17 5 18 17 20 14 22
REMARK H PARENT 5 19 17 21 14 23
REMARK Flexibility Score: inf
ROOT
ATOM      1  C   UNL     1      80.249  15.861   9.071  1.00  0.00     0.044 C 
ATOM      2  C   UNL     1      79.961  16.331   7.675  1.00  0.00    -0.047 A 
ATOM      3  C   UNL     1      79.332  15.478   6.760  1.00  0.00     0.016 A 
ATOM      4  C   UNL     1      79.091  15.895   5.439  1.00  0.00     0.038 A 
ATOM      5  C   UNL     1      79.493  17.183   5.026  1.00  0.00     0.076 A 
ATOM      6  C   UNL     1      80.153  18.031   5.945  1.00  0.00     0.127 A 
ATOM      7  C   UNL     1      80.384  17.597   7.257  1.00  0.00     0.050 A 
ATOM      8  C   UNL     1      79.194  17.624   3.638  1.00  0.00     0.201 C 
ATOM      9  O   UNL     1      79.206  18.853   3.363  1.00  0.00    -0.288 OA
ATOM     10  C   UNL     1      78.771  16.630   2.612  1.00  0.00     0.076 A 
ATOM     11  C   UNL     1      78.316  15.364   3.050  1.00  0.00     0.041 A 
ATOM     12  C   UNL     1      78.419  14.990   4.481  1.00  0.00     0.194 C 
ATOM     13  O   UNL     1      77.949  13.888   4.879  1.00  0.00    -0.289 OA
ATOM     14  C   UNL     1      77.772  14.457   2.124  1.00  0.00     0.059 A 
ATOM     15  C   UNL     1      77.691  14.785   0.772  1.00  0.00     0.120 A 
ATOM     16  C   UNL     1      78.182  16.013   0.326  1.00  0.00     0.093 A 
ATOM     17  C   UNL     1      78.752  16.923   1.221  1.00  0.00     0.131 A 
ENDROOT
BRANCH   6  18
ATOM     18  O   UNL     1      80.589  19.298   5.557  1.00  0.00    -0.507 OA
ATOM     19  H   UNL     1      80.500  20.103   6.165  1.00  0.00     0.293 HD
ENDBRANCH   6  18
BRANCH  17  20
ATOM     20  O   UNL     1      79.316  18.081   0.679  1.00  0.00    -0.507 OA
ATOM     21  H   UNL     1      80.283  18.347   0.806  1.00  0.00     0.293 HD
ENDBRANCH  17  20
BRANCH  15  22
ATOM     22  O   UNL     1      77.133  13.875  -0.123  1.00  0.00    -0.508 OA
ATOM     23  H   UNL     1      77.681  13.459  -0.867  1.00  0.00     0.293 HD
ENDBRANCH  15  22
TORSDOF 3
ENDMDL
MODEL 3
REMARK VINA RESULT:     3.480      1.584      5.498
REMARK INTER + INTRA:           3.785
REMARK INTER:                   3.785
REMARK INTRA:                   0.000
REMARK UNBOUND:                 0.000
REMARK SMILES Cc1cc(O)c2c(c1)C(=O)c1cc(O)cc(O)c1C2=O
REMARK SMILES IDX 1 1 2 2 8 3 7 4 6 5 4 6 3 7 19 8 20 9 18 10 11 11 9 12 10 13
REMARK SMILES IDX 12 14 13 15 15 16 16 17 5 18 17 20 14 22
REMARK H PARENT 5 19 17 21 14 23
REMARK Flexibility Score: inf
ROOT
ATOM      1  C   UNL     1      81.408  19.977   0.817  1.00  0.00     0.044 C 
ATOM      2  C   UNL     1      80.730  18.997   1.729  1.00  0.00    -0.047 A 
ATOM      3  C   UNL     1      80.861  19.122   3.118  1.00  0.00     0.016 A 
ATOM      4  C   UNL     1      80.262  18.187   3.981  1.00  0.00     0.038 A 
ATOM      5  C   UNL     1      79.527  17.108   3.445  1.00  0.00     0.076 A 
ATOM      6  C   UNL     1      79.422  16.971   2.042  1.00  0.00     0.127 A 
ATOM      7  C   UNL     1      80.026  17.911   1.199  1.00  0.00     0.050 A 
ATOM      8  C   UNL     1      78.865  16.152   4.372  1.00  0.00     0.201 C 
ATOM      9  O   UNL     1      77.931  15.423   3.945  1.00  0.00    -0.288 OA
ATOM     10  C   UNL     1      79.225  16.141   5.817  1.00  0.00     0.076 A 
ATOM     11  C   UNL     1      79.910  17.259   6.348  1.00  0.00     0.041 A 
ATOM     12  C   UNL     1      80.397  18.330   5.447  1.00  0.00     0.194 C 
ATOM     13  O   UNL     1      80.946  19.359   5.931  1.00  0.00    -0.289 OA
ATOM     14  C   UNL     1      80.136  17.349   7.733  1.00  0.00     0.059 A 
ATOM     15  C   UNL     1      79.705  16.338   8.590  1.00  0.00     0.120 A 
ATOM     16  C   UNL     1      79.071  15.209   8.068  1.00  0.00     0.093 A 
ATOM     17  C   UNL     1      78.858  15.081   6.692  1.00  0.00     0.131 A 
ENDROOT
BRANCH   6  18
ATOM     18  O   UNL     1      78.729  15.897   1.483  1.00  0.00    -0.507 OA
ATOM     19  H   UNL     1      77.724  15.806   1.571  1.00  0.00     0.293 HD
ENDBRANCH   6  18
BRANCH  17  20
ATOM     20  O   UNL     1      78.315  13.876   6.240  1.00  0.00    -0.507 OA
ATOM     21  H   UNL     1      78.853  13.030   6.112  1.00  0.00     0.293 HD
ENDBRANCH  17  20
BRANCH  15  22
ATOM     22  O   UNL     1      79.926  16.458   9.960  1.00  0.00    -0.508 OA
ATOM     23  H   UNL     1      79.158  16.519  10.618  1.00  0.00     0.293 HD
ENDBRANCH  15  22
TORSDOF 3
ENDMDL
MODEL 4
REMARK VINA RESULT:     4.112      2.220      5.870
REMARK INTER + INTRA:           4.473
REMARK INTER:                   4.473
REMARK INTRA:                   0.000
REMARK UNBOUND:                 0.000
REMARK SMILES Cc1cc(O)c2c(c1)C(=O)c1cc(O)cc(O)c1C2=O
REMARK SMILES IDX 1 1 2 2 8 3 7 4 6 5 4 6 3 7 19 8 20 9 18 10 11 11 9 12 10 13
REMARK SMILES IDX 12 14 13 15 15 16 16 17 5 18 17 20 14 22
REMARK H PARENT 5 19 17 21 14 23
REMARK Flexibility Score: inf
ROOT
ATOM      1  C   UNL     1      76.541  19.656   0.606  1.00  0.00     0.044 C 
ATOM      2  C   UNL     1      77.406  18.547   1.128  1.00  0.00    -0.047 A 
ATOM      3  C   UNL     1      77.386  18.220   2.489  1.00  0.00     0.016 A 
ATOM      4  C   UNL     1      78.221  17.208   2.996  1.00  0.00     0.038 A 
ATOM      5  C   UNL     1      79.093  16.518   2.127  1.00  0.00     0.076 A 
ATOM      6  C   UNL     1      79.129  16.871   0.759  1.00  0.00     0.127 A 
ATOM      7  C   UNL     1      78.291  17.882   0.273  1.00  0.00     0.050 A 
ATOM      8  C   UNL     1      79.939  15.423   2.671  1.00  0.00     0.201 C 
ATOM      9  O   UNL     1      80.434  14.574   1.883  1.00  0.00    -0.288 OA
ATOM     10  C   UNL     1      80.103  15.264   4.143  1.00  0.00     0.076 A 
ATOM     11  C   UNL     1      79.182  15.917   4.996  1.00  0.00     0.041 A 
ATOM     12  C   UNL     1      78.188  16.863   4.434  1.00  0.00     0.194 C 
ATOM     13  O   UNL     1      77.324  17.390   5.189  1.00  0.00    -0.289 OA
ATOM     14  C   UNL     1      79.216  15.673   6.380  1.00  0.00     0.059 A 
ATOM     15  C   UNL     1      80.159  14.805   6.926  1.00  0.00     0.120 A 
ATOM     16  C   UNL     1      81.102  14.195   6.096  1.00  0.00     0.093 A 
ATOM     17  C   UNL     1      81.108  14.440   4.720  1.00  0.00     0.131 A 
ENDROOT
BRANCH   6  18
ATOM     18  O   UNL     1      80.004  16.228  -0.118  1.00  0.00    -0.507 OA
ATOM     19  H   UNL     1      80.559  15.431   0.171  1.00  0.00     0.293 HD
ENDBRANCH   6  18
BRANCH  17  20
ATOM     20  O   UNL     1      82.149  13.877   3.977  1.00  0.00    -0.507 OA
ATOM     21  H   UNL     1      82.780  14.413   3.399  1.00  0.00     0.293 HD
ENDBRANCH  17  20
BRANCH  15  22
ATOM     22  O   UNL     1      80.162  14.567   8.298  1.00  0.00    -0.508 OA
ATOM     23  H   UNL     1      80.798  13.901   8.720  1.00  0.00     0.293 HD
ENDBRANCH  15  22
TORSDOF 3
ENDMDL
