MODEL 1
REMARK VINA RESULT:    -3.477      0.000      0.000
REMARK INTER + INTRA:          -4.427
REMARK INTER:                  -4.290
REMARK INTRA:                  -0.137
REMARK UNBOUND:                -0.137
REMARK SMILES CCCCCC(=O)[O-]
REMARK SMILES IDX 4 1 5 2 6 3 7 4 8 5 3 6 2 7 1 8
REMARK H PARENT
REMARK Flexibility Score: inf
ROOT
ATOM      1  C   UNL     1       5.069  48.391  31.757  1.00  0.00     0.006 C 
ENDROOT
BRANCH   1   2
ATOM      2  C   UNL     1       6.252  47.515  32.182  1.00  0.00     0.053 C 
BRANCH   2   3
ATOM      3  C   UNL     1       6.755  47.931  33.528  1.00  0.00     0.041 C 
ATOM      4  O   UNL     1       6.050  48.663  34.270  1.00  0.00    -0.550 OA
ATOM      5  O   UNL     1       7.983  47.467  33.984  1.00  0.00    -0.550 OA
ENDBRANCH   2   3
ENDBRANCH   1   2
BRANCH   1   6
ATOM      6  C   UNL     1       5.362  49.105  30.430  1.00  0.00     0.000 C 
BRANCH   6   7
ATOM      7  C   UNL     1       6.247  48.270  29.493  1.00  0.00    -0.003 C 
ATOM      8  C   UNL     1       5.502  47.788  28.248  1.00  0.00     0.004 C 
ENDBRANCH   6   7
ENDBRANCH   1   6
TORSDOF 4
ENDMDL
MODEL 2
REMARK VINA RESULT:    -3.366      1.338      2.107
REMARK INTER + INTRA:          -4.290
REMARK INTER:                  -4.119
REMARK INTRA:                  -0.170
REMARK UNBOUND:                -0.137
REMARK SMILES CCCCCC(=O)[O-]
REMARK SMILES IDX 4 1 5 2 6 3 7 4 8 5 3 6 2 7 1 8
REMARK H PARENT
REMARK Flexibility Score: inf
ROOT
ATOM      1  C   UNL     1       6.131  47.868  30.671  1.00  0.00     0.006 C 
ENDROOT
BRANCH   1   2
ATOM      2  C   UNL     1       5.254  48.294  31.853  1.00  0.00     0.053 C 
BRANCH   2   3
ATOM      3  C   UNL     1       6.017  48.195  33.135  1.00  0.00     0.041 C 
ATOM      4  O   UNL     1       7.172  47.695  33.149  1.00  0.00    -0.550 OA
ATOM      5  O   UNL     1       5.472  48.700  34.309  1.00  0.00    -0.550 OA
ENDBRANCH   2   3
ENDBRANCH   1   2
BRANCH   1   6
ATOM      6  C   UNL     1       5.897  48.777  29.456  1.00  0.00     0.000 C 
BRANCH   6   7
ATOM      7  C   UNL     1       6.724  50.070  29.518  1.00  0.00    -0.003 C 
ATOM      8  C   UNL     1       8.161  49.832  29.980  1.00  0.00     0.004 C 
ENDBRANCH   6   7
ENDBRANCH   1   6
TORSDOF 4
ENDMDL
MODEL 3
REMARK VINA RESULT:    -3.355      2.961      4.320
REMARK INTER + INTRA:          -4.277
REMARK INTER:                  -4.137
REMARK INTRA:                  -0.139
REMARK UNBOUND:                -0.137
REMARK SMILES CCCCCC(=O)[O-]
REMARK SMILES IDX 4 1 5 2 6 3 7 4 8 5 3 6 2 7 1 8
REMARK H PARENT
REMARK Flexibility Score: inf
ROOT
ATOM      1  C   UNL     1       5.129  48.308  31.683  1.00  0.00     0.006 C 
ENDROOT
BRANCH   1   2
ATOM      2  C   UNL     1       6.160  47.949  30.608  1.00  0.00     0.053 C 
BRANCH   2   3
ATOM      3  C   UNL     1       5.857  48.668  29.332  1.00  0.00     0.041 C 
ATOM      4  O   UNL     1       5.982  49.919  29.263  1.00  0.00    -0.550 OA
ATOM      5  O   UNL     1       5.485  47.951  28.201  1.00  0.00    -0.550 OA
ENDBRANCH   2   3
ENDBRANCH   1   2
BRANCH   1   6
ATOM      6  C   UNL     1       5.765  48.290  33.081  1.00  0.00     0.000 C 
BRANCH   6   7
ATOM      7  C   UNL     1       7.290  48.476  33.039  1.00  0.00    -0.003 C 
ATOM      8  C   UNL     1       8.026  47.540  33.998  1.00  0.00     0.004 C 
ENDBRANCH   6   7
ENDBRANCH   1   6
TORSDOF 4
ENDMDL
MODEL 4
REMARK VINA RESULT:    -3.277     15.822     17.170
REMARK INTER + INTRA:          -4.181
REMARK INTER:                  -4.066
REMARK INTRA:                  -0.114
REMARK UNBOUND:                -0.137
REMARK SMILES CCCCCC(=O)[O-]
REMARK SMILES IDX 4 1 5 2 6 3 7 4 8 5 3 6 2 7 1 8
REMARK H PARENT
REMARK Flexibility Score: inf
ROOT
ATOM      1  C   UNL     1      10.427  36.200  20.624  1.00  0.00     0.006 C 
ENDROOT
BRANCH   1   2
ATOM      2  C   UNL     1       9.128  36.186  19.811  1.00  0.00     0.053 C 
BRANCH   2   3
ATOM      3  C   UNL     1       8.320  34.969  20.135  1.00  0.00     0.041 C 
ATOM      4  O   UNL     1       8.858  33.831  20.134  1.00  0.00    -0.550 OA
ATOM      5  O   UNL     1       6.982  35.098  20.488  1.00  0.00    -0.550 OA
ENDBRANCH   2   3
ENDBRANCH   1   2
BRANCH   1   6
ATOM      6  C   UNL     1      10.139  36.424  22.115  1.00  0.00     0.000 C 
BRANCH   6   7
ATOM      7  C   UNL     1      11.211  35.804  23.024  1.00  0.00    -0.003 C 
ATOM      8  C   UNL     1      11.048  36.204  24.490  1.00  0.00     0.004 C 
ENDBRANCH   6   7
ENDBRANCH   1   6
TORSDOF 4
ENDMDL
MODEL 5
REMARK VINA RESULT:    -3.232      2.230      2.597
REMARK INTER + INTRA:          -4.125
REMARK INTER:                  -4.007
REMARK INTRA:                  -0.118
REMARK UNBOUND:                -0.137
REMARK SMILES CCCCCC(=O)[O-]
REMARK SMILES IDX 4 1 5 2 6 3 7 4 8 5 3 6 2 7 1 8
REMARK H PARENT
REMARK Flexibility Score: inf
ROOT
ATOM      1  C   UNL     1       6.811  49.053  31.514  1.00  0.00     0.006 C 
ENDROOT
BRANCH   1   2
ATOM      2  C   UNL     1       8.141  48.990  30.756  1.00  0.00     0.053 C 
BRANCH   2   3
ATOM      3  C   UNL     1       9.287  48.902  31.713  1.00  0.00     0.041 C 
ATOM      4  O   UNL     1      10.419  49.348  31.390  1.00  0.00    -0.550 OA
ATOM      5  O   UNL     1       9.093  48.371  32.983  1.00  0.00    -0.550 OA
ENDBRANCH   2   3
ENDBRANCH   1   2
BRANCH   1   6
ATOM      6  C   UNL     1       5.653  48.561  30.634  1.00  0.00     0.000 C 
BRANCH   6   7
ATOM      7  C   UNL     1       5.861  48.887  29.147  1.00  0.00    -0.003 C 
ATOM      8  C   UNL     1       5.573  47.696  28.234  1.00  0.00     0.004 C 
ENDBRANCH   6   7
ENDBRANCH   1   6
TORSDOF 4
ENDMDL
MODEL 6
REMARK VINA RESULT:    -3.225     16.500     17.545
REMARK INTER + INTRA:          -4.116
REMARK INTER:                  -3.945
REMARK INTRA:                  -0.171
REMARK UNBOUND:                -0.137
REMARK SMILES CCCCCC(=O)[O-]
REMARK SMILES IDX 4 1 5 2 6 3 7 4 8 5 3 6 2 7 1 8
REMARK H PARENT
REMARK Flexibility Score: inf
ROOT
ATOM      1  C   UNL     1      10.395  36.186  22.163  1.00  0.00     0.006 C 
ENDROOT
BRANCH   1   2
ATOM      2  C   UNL     1       9.774  36.338  20.771  1.00  0.00     0.053 C 
BRANCH   2   3
ATOM      3  C   UNL     1       8.915  35.156  20.449  1.00  0.00     0.041 C 
ATOM      4  O   UNL     1       9.428  34.013  20.326  1.00  0.00    -0.550 OA
ATOM      5  O   UNL     1       7.538  35.309  20.333  1.00  0.00    -0.550 OA
ENDBRANCH   2   3
ENDBRANCH   1   2
BRANCH   1   6
ATOM      6  C   UNL     1      11.902  35.906  22.065  1.00  0.00     0.000 C 
BRANCH   6   7
ATOM      7  C   UNL     1      12.467  36.198  20.666  1.00  0.00    -0.003 C 
ATOM      8  C   UNL     1      13.765  35.442  20.383  1.00  0.00     0.004 C 
ENDBRANCH   6   7
ENDBRANCH   1   6
TORSDOF 4
ENDMDL
MODEL 7
REMARK VINA RESULT:    -3.168     16.322     17.625
REMARK INTER + INTRA:          -4.045
REMARK INTER:                  -3.941
REMARK INTRA:                  -0.104
REMARK UNBOUND:                -0.137
REMARK SMILES CCCCCC(=O)[O-]
REMARK SMILES IDX 4 1 5 2 6 3 7 4 8 5 3 6 2 7 1 8
REMARK H PARENT
REMARK Flexibility Score: inf
ROOT
ATOM      1  C   UNL     1      12.479  36.147  20.884  1.00  0.00     0.006 C 
ENDROOT
BRANCH   1   2
ATOM      2  C   UNL     1      11.825  35.188  21.884  1.00  0.00     0.053 C 
BRANCH   2   3
ATOM      3  C   UNL     1      10.925  35.937  22.816  1.00  0.00     0.041 C 
ATOM      4  O   UNL     1       9.944  36.585  22.366  1.00  0.00    -0.550 OA
ATOM      5  O   UNL     1      11.140  35.877  24.187  1.00  0.00    -0.550 OA
ENDBRANCH   2   3
ENDBRANCH   1   2
BRANCH   1   6
ATOM      6  C   UNL     1      13.708  35.501  20.228  1.00  0.00     0.000 C 
BRANCH   6   7
ATOM      7  C   UNL     1      14.070  34.146  20.856  1.00  0.00    -0.003 C 
ATOM      8  C   UNL     1      15.457  33.653  20.443  1.00  0.00     0.004 C 
ENDBRANCH   6   7
ENDBRANCH   1   6
TORSDOF 4
ENDMDL
MODEL 8
REMARK VINA RESULT:    -3.164     16.646     17.561
REMARK INTER + INTRA:          -4.040
REMARK INTER:                  -3.824
REMARK INTRA:                  -0.216
REMARK UNBOUND:                -0.137
REMARK SMILES CCCCCC(=O)[O-]
REMARK SMILES IDX 4 1 5 2 6 3 7 4 8 5 3 6 2 7 1 8
REMARK H PARENT
REMARK Flexibility Score: inf
ROOT
ATOM      1  C   UNL     1      11.596  36.222  22.179  1.00  0.00     0.006 C 
ENDROOT
BRANCH   1   2
ATOM      2  C   UNL     1      12.146  34.944  21.538  1.00  0.00     0.053 C 
BRANCH   2   3
ATOM      3  C   UNL     1      13.376  35.245  20.741  1.00  0.00     0.041 C 
ATOM      4  O   UNL     1      13.400  36.234  19.962  1.00  0.00    -0.550 OA
ATOM      5  O   UNL     1      14.513  34.462  20.894  1.00  0.00    -0.550 OA
ENDBRANCH   2   3
ENDBRANCH   1   2
BRANCH   1   6
ATOM      6  C   UNL     1      10.076  36.325  21.981  1.00  0.00     0.000 C 
BRANCH   6   7
ATOM      7  C   UNL     1       9.625  35.822  20.602  1.00  0.00    -0.003 C 
ATOM      8  C   UNL     1       9.668  36.913  19.531  1.00  0.00     0.004 C 
ENDBRANCH   6   7
ENDBRANCH   1   6
TORSDOF 4
ENDMDL
MODEL 9
REMARK VINA RESULT:    -3.151     16.450     17.867
REMARK INTER + INTRA:          -4.025
REMARK INTER:                  -3.868
REMARK INTRA:                  -0.157
REMARK UNBOUND:                -0.137
REMARK SMILES CCCCCC(=O)[O-]
REMARK SMILES IDX 4 1 5 2 6 3 7 4 8 5 3 6 2 7 1 8
REMARK H PARENT
REMARK Flexibility Score: inf
ROOT
ATOM      1  C   UNL     1      11.488  35.984  20.683  1.00  0.00     0.006 C 
ENDROOT
BRANCH   1   2
ATOM      2  C   UNL     1      12.977  35.941  21.044  1.00  0.00     0.053 C 
BRANCH   2   3
ATOM      3  C   UNL     1      13.588  34.651  20.596  1.00  0.00     0.041 C 
ATOM      4  O   UNL     1      14.838  34.506  20.601  1.00  0.00    -0.550 OA
ATOM      5  O   UNL     1      12.773  33.590  20.220  1.00  0.00    -0.550 OA
ENDBRANCH   2   3
ENDBRANCH   1   2
BRANCH   1   6
ATOM      6  C   UNL     1      10.628  36.235  21.930  1.00  0.00     0.000 C 
BRANCH   6   7
ATOM      7  C   UNL     1      11.106  35.431  23.149  1.00  0.00    -0.003 C 
ATOM      8  C   UNL     1      11.068  36.242  24.445  1.00  0.00     0.004 C 
ENDBRANCH   6   7
ENDBRANCH   1   6
TORSDOF 4
ENDMDL
