MODEL 1
REMARK VINA RESULT:    -5.501      0.000      0.000
REMARK INTER + INTRA:         -10.778
REMARK INTER:                 -10.003
REMARK INTRA:                  -0.775
REMARK UNBOUND:                -0.775
REMARK SMILES CCCCCC=CCC=CCCCCCCCC(=O)[O-]
REMARK SMILES IDX 11 1 12 2 13 3 14 4 15 5 16 6 17 7 18 8 19 9 20 10 10 11
REMARK SMILES IDX 9 12 8 13 7 14 6 15 5 16 4 17 3 18 2 19 1 20
REMARK H PARENT
REMARK Flexibility Score: inf
ROOT
ATOM      1  C   UNL     1    -129.781 111.696  41.585  1.00  0.00     0.027 C 
ENDROOT
BRANCH   1   2
ATOM      2  C   UNL     1    -129.769 111.077  40.178  1.00  0.00     0.004 C 
BRANCH   2   3
ATOM      3  C   UNL     1    -129.497 109.560  40.173  1.00  0.00     0.000 C 
BRANCH   3   4
ATOM      4  C   UNL     1    -129.810 108.902  41.529  1.00  0.00     0.000 C 
BRANCH   4   5
ATOM      5  C   UNL     1    -128.610 108.137  42.115  1.00  0.00     0.000 C 
BRANCH   5   6
ATOM      6  C   UNL     1    -128.264 106.815  41.400  1.00  0.00     0.006 C 
BRANCH   6   7
ATOM      7  C   UNL     1    -129.484 106.005  40.933  1.00  0.00     0.053 C 
BRANCH   7   8
ATOM      8  C   UNL     1    -129.203 105.245  39.674  1.00  0.00     0.041 C 
ATOM      9  O   UNL     1    -129.079 105.855  38.579  1.00  0.00    -0.550 OA
ATOM     10  O   UNL     1    -129.112 103.859  39.704  1.00  0.00    -0.550 OA
ENDBRANCH   7   8
ENDBRANCH   6   7
ENDBRANCH   5   6
ENDBRANCH   4   5
ENDBRANCH   3   4
ENDBRANCH   2   3
ENDBRANCH   1   2
BRANCH   1  11
ATOM     11  C   UNL     1    -130.262 113.128  41.575  1.00  0.00    -0.031 C 
ATOM     12  C   UNL     1    -129.952 114.011  42.538  1.00  0.00    -0.027 C 
BRANCH  12  13
ATOM     13  C   UNL     1    -129.085 113.663  43.723  1.00  0.00     0.054 C 
BRANCH  13  14
ATOM     14  C   UNL     1    -129.785 113.976  45.020  1.00  0.00    -0.027 C 
ATOM     15  C   UNL     1    -129.906 115.212  45.539  1.00  0.00    -0.031 C 
BRANCH  15  16
ATOM     16  C   UNL     1    -129.421 116.474  44.866  1.00  0.00     0.027 C 
BRANCH  16  17
ATOM     17  C   UNL     1    -130.185 117.713  45.353  1.00  0.00     0.004 C 
BRANCH  17  18
ATOM     18  C   UNL     1    -130.885 117.470  46.702  1.00  0.00     0.000 C 
BRANCH  18  19
ATOM     19  C   UNL     1    -131.446 118.761  47.317  1.00  0.00    -0.003 C 
ATOM     20  C   UNL     1    -132.975 118.782  47.350  1.00  0.00     0.004 C 
ENDBRANCH  18  19
ENDBRANCH  17  18
ENDBRANCH  16  17
ENDBRANCH  15  16
ENDBRANCH  13  14
ENDBRANCH  12  13
ENDBRANCH   1  11
TORSDOF 14
ENDMDL
MODEL 2
REMARK VINA RESULT:    -5.499      4.642      9.430
REMARK INTER + INTRA:         -10.774
REMARK INTER:                  -9.081
REMARK INTRA:                  -1.692
REMARK UNBOUND:                -0.775
REMARK SMILES CCCCCC=CCC=CCCCCCCCC(=O)[O-]
REMARK SMILES IDX 11 1 12 2 13 3 14 4 15 5 16 6 17 7 18 8 19 9 20 10 10 11
REMARK SMILES IDX 9 12 8 13 7 14 6 15 5 16 4 17 3 18 2 19 1 20
REMARK H PARENT
REMARK Flexibility Score: inf
ROOT
ATOM      1  C   UNL     1    -130.212 111.650  41.109  1.00  0.00     0.027 C 
ENDROOT
BRANCH   1   2
ATOM      2  C   UNL     1    -129.852 113.004  41.743  1.00  0.00     0.004 C 
BRANCH   2   3
ATOM      3  C   UNL     1    -129.416 112.900  43.217  1.00  0.00     0.000 C 
BRANCH   3   4
ATOM      4  C   UNL     1    -129.639 114.212  43.990  1.00  0.00     0.000 C 
BRANCH   4   5
ATOM      5  C   UNL     1    -129.637 115.452  43.079  1.00  0.00     0.000 C 
BRANCH   5   6
ATOM      6  C   UNL     1    -130.187 116.740  43.724  1.00  0.00     0.006 C 
BRANCH   6   7
ATOM      7  C   UNL     1    -129.484 117.151  45.028  1.00  0.00     0.053 C 
BRANCH   7   8
ATOM      8  C   UNL     1    -130.419 117.133  46.198  1.00  0.00     0.041 C 
ATOM      9  O   UNL     1    -130.849 116.039  46.649  1.00  0.00    -0.550 OA
ATOM     10  O   UNL     1    -130.841 118.328  46.767  1.00  0.00    -0.550 OA
ENDBRANCH   7   8
ENDBRANCH   6   7
ENDBRANCH   5   6
ENDBRANCH   4   5
ENDBRANCH   3   4
ENDBRANCH   2   3
ENDBRANCH   1   2
BRANCH   1  11
ATOM     11  C   UNL     1    -129.382 111.355  39.882  1.00  0.00    -0.031 C 
ATOM     12  C   UNL     1    -129.468 110.200  39.202  1.00  0.00    -0.027 C 
BRANCH  12  13
ATOM     13  C   UNL     1    -130.407 109.086  39.590  1.00  0.00     0.054 C 
BRANCH  13  14
ATOM     14  C   UNL     1    -129.909 107.756  39.087  1.00  0.00    -0.027 C 
ATOM     15  C   UNL     1    -129.411 106.784  39.873  1.00  0.00    -0.031 C 
BRANCH  15  16
ATOM     16  C   UNL     1    -129.342 106.854  41.380  1.00  0.00     0.027 C 
BRANCH  16  17
ATOM     17  C   UNL     1    -128.219 107.783  41.861  1.00  0.00     0.004 C 
BRANCH  17  18
ATOM     18  C   UNL     1    -128.721 108.823  42.878  1.00  0.00     0.000 C 
BRANCH  18  19
ATOM     19  C   UNL     1    -130.198 108.622  43.247  1.00  0.00    -0.003 C 
ATOM     20  C   UNL     1    -130.492 108.959  44.709  1.00  0.00     0.004 C 
ENDBRANCH  18  19
ENDBRANCH  17  18
ENDBRANCH  16  17
ENDBRANCH  15  16
ENDBRANCH  13  14
ENDBRANCH  12  13
ENDBRANCH   1  11
TORSDOF 14
ENDMDL
MODEL 3
REMARK VINA RESULT:    -5.437      4.776      8.984
REMARK INTER + INTRA:         -10.662
REMARK INTER:                  -8.912
REMARK INTRA:                  -1.750
REMARK UNBOUND:                -0.775
REMARK SMILES CCCCCC=CCC=CCCCCCCCC(=O)[O-]
REMARK SMILES IDX 11 1 12 2 13 3 14 4 15 5 16 6 17 7 18 8 19 9 20 10 10 11
REMARK SMILES IDX 9 12 8 13 7 14 6 15 5 16 4 17 3 18 2 19 1 20
REMARK H PARENT
REMARK Flexibility Score: inf
ROOT
ATOM      1  C   UNL     1    -129.694 110.699  39.928  1.00  0.00     0.027 C 
ENDROOT
BRANCH   1   2
ATOM      2  C   UNL     1    -130.038 112.028  40.620  1.00  0.00     0.004 C 
BRANCH   2   3
ATOM      3  C   UNL     1    -129.722 112.039  42.128  1.00  0.00     0.000 C 
BRANCH   3   4
ATOM      4  C   UNL     1    -129.751 113.458  42.724  1.00  0.00     0.000 C 
BRANCH   4   5
ATOM      5  C   UNL     1    -129.298 113.498  44.195  1.00  0.00     0.000 C 
BRANCH   5   6
ATOM      6  C   UNL     1    -129.709 114.765  44.972  1.00  0.00     0.006 C 
BRANCH   6   7
ATOM      7  C   UNL     1    -129.660 116.062  44.148  1.00  0.00     0.053 C 
BRANCH   7   8
ATOM      8  C   UNL     1    -129.834 117.278  45.005  1.00  0.00     0.041 C 
ATOM      9  O   UNL     1    -129.387 118.392  44.624  1.00  0.00    -0.550 OA
ATOM     10  O   UNL     1    -130.459 117.173  46.242  1.00  0.00    -0.550 OA
ENDBRANCH   7   8
ENDBRANCH   6   7
ENDBRANCH   5   6
ENDBRANCH   4   5
ENDBRANCH   3   4
ENDBRANCH   2   3
ENDBRANCH   1   2
BRANCH   1  11
ATOM     11  C   UNL     1    -130.927 109.900  39.579  1.00  0.00    -0.031 C 
ATOM     12  C   UNL     1    -130.883 108.611  39.208  1.00  0.00    -0.027 C 
BRANCH  12  13
ATOM     13  C   UNL     1    -129.597 107.828  39.109  1.00  0.00     0.054 C 
BRANCH  13  14
ATOM     14  C   UNL     1    -129.557 106.718  40.128  1.00  0.00    -0.027 C 
ATOM     15  C   UNL     1    -128.997 106.826  41.347  1.00  0.00    -0.031 C 
BRANCH  15  16
ATOM     16  C   UNL     1    -128.391 108.093  41.901  1.00  0.00     0.027 C 
BRANCH  16  17
ATOM     17  C   UNL     1    -129.066 108.527  43.210  1.00  0.00     0.004 C 
BRANCH  17  18
ATOM     18  C   UNL     1    -130.598 108.586  43.080  1.00  0.00     0.000 C 
BRANCH  18  19
ATOM     19  C   UNL     1    -131.317 108.189  44.379  1.00  0.00    -0.003 C 
ATOM     20  C   UNL     1    -130.773 108.926  45.603  1.00  0.00     0.004 C 
ENDBRANCH  18  19
ENDBRANCH  17  18
ENDBRANCH  16  17
ENDBRANCH  15  16
ENDBRANCH  13  14
ENDBRANCH  12  13
ENDBRANCH   1  11
TORSDOF 14
ENDMDL
MODEL 4
REMARK VINA RESULT:    -5.360      4.806     10.186
REMARK INTER + INTRA:         -10.521
REMARK INTER:                  -9.522
REMARK INTRA:                  -1.000
REMARK UNBOUND:                -0.775
REMARK SMILES CCCCCC=CCC=CCCCCCCCC(=O)[O-]
REMARK SMILES IDX 11 1 12 2 13 3 14 4 15 5 16 6 17 7 18 8 19 9 20 10 10 11
REMARK SMILES IDX 9 12 8 13 7 14 6 15 5 16 4 17 3 18 2 19 1 20
REMARK H PARENT
REMARK Flexibility Score: inf
ROOT
ATOM      1  C   UNL     1    -129.368 111.387  43.036  1.00  0.00     0.027 C 
ENDROOT
BRANCH   1   2
ATOM      2  C   UNL     1    -129.025 112.770  43.614  1.00  0.00     0.004 C 
BRANCH   2   3
ATOM      3  C   UNL     1    -130.137 113.816  43.413  1.00  0.00     0.000 C 
BRANCH   3   4
ATOM      4  C   UNL     1    -129.705 114.961  42.478  1.00  0.00     0.000 C 
BRANCH   4   5
ATOM      5  C   UNL     1    -129.711 116.335  43.171  1.00  0.00     0.000 C 
BRANCH   5   6
ATOM      6  C   UNL     1    -129.694 116.290  44.712  1.00  0.00     0.006 C 
BRANCH   6   7
ATOM      7  C   UNL     1    -130.053 117.622  45.392  1.00  0.00     0.053 C 
BRANCH   7   8
ATOM      8  C   UNL     1    -130.934 117.422  46.586  1.00  0.00     0.041 C 
ATOM      9  O   UNL     1    -131.740 118.324  46.938  1.00  0.00    -0.550 OA
ATOM     10  O   UNL     1    -130.841 116.253  47.331  1.00  0.00    -0.550 OA
ENDBRANCH   7   8
ENDBRANCH   6   7
ENDBRANCH   5   6
ENDBRANCH   4   5
ENDBRANCH   3   4
ENDBRANCH   2   3
ENDBRANCH   1   2
BRANCH   1  11
ATOM     11  C   UNL     1    -129.604 110.358  44.116  1.00  0.00    -0.031 C 
ATOM     12  C   UNL     1    -129.760 109.050  43.859  1.00  0.00    -0.027 C 
BRANCH  12  13
ATOM     13  C   UNL     1    -129.707 108.474  42.465  1.00  0.00     0.054 C 
BRANCH  13  14
ATOM     14  C   UNL     1    -128.359 107.866  42.179  1.00  0.00    -0.027 C 
ATOM     15  C   UNL     1    -128.168 106.749  41.453  1.00  0.00    -0.031 C 
BRANCH  15  16
ATOM     16  C   UNL     1    -129.268 105.982  40.758  1.00  0.00     0.027 C 
BRANCH  16  17
ATOM     17  C   UNL     1    -129.322 106.291  39.256  1.00  0.00     0.004 C 
BRANCH  17  18
ATOM     18  C   UNL     1    -130.643 106.967  38.850  1.00  0.00     0.000 C 
BRANCH  18  19
ATOM     19  C   UNL     1    -130.642 108.478  39.122  1.00  0.00    -0.003 C 
ATOM     20  C   UNL     1    -131.970 109.145  38.759  1.00  0.00     0.004 C 
ENDBRANCH  18  19
ENDBRANCH  17  18
ENDBRANCH  16  17
ENDBRANCH  15  16
ENDBRANCH  13  14
ENDBRANCH  12  13
ENDBRANCH   1  11
TORSDOF 14
ENDMDL
MODEL 5
REMARK VINA RESULT:    -5.355      1.352      2.187
REMARK INTER + INTRA:         -10.513
REMARK INTER:                  -9.473
REMARK INTRA:                  -1.040
REMARK UNBOUND:                -0.775
REMARK SMILES CCCCCC=CCC=CCCCCCCCC(=O)[O-]
REMARK SMILES IDX 11 1 12 2 13 3 14 4 15 5 16 6 17 7 18 8 19 9 20 10 10 11
REMARK SMILES IDX 9 12 8 13 7 14 6 15 5 16 4 17 3 18 2 19 1 20
REMARK H PARENT
REMARK Flexibility Score: inf
ROOT
ATOM      1  C   UNL     1    -129.344 111.092  42.787  1.00  0.00     0.027 C 
ENDROOT
BRANCH   1   2
ATOM      2  C   UNL     1    -129.540 109.646  43.271  1.00  0.00     0.004 C 
BRANCH   2   3
ATOM      3  C   UNL     1    -128.589 108.636  42.602  1.00  0.00     0.000 C 
BRANCH   3   4
ATOM      4  C   UNL     1    -129.320 107.697  41.626  1.00  0.00     0.000 C 
BRANCH   4   5
ATOM      5  C   UNL     1    -129.748 108.400  40.325  1.00  0.00     0.000 C 
BRANCH   5   6
ATOM      6  C   UNL     1    -130.120 107.458  39.163  1.00  0.00     0.006 C 
BRANCH   6   7
ATOM      7  C   UNL     1    -129.028 106.442  38.792  1.00  0.00     0.053 C 
BRANCH   7   8
ATOM      8  C   UNL     1    -129.464 105.032  39.046  1.00  0.00     0.041 C 
ATOM      9  O   UNL     1    -129.460 104.569  40.218  1.00  0.00    -0.550 OA
ATOM     10  O   UNL     1    -129.842 104.218  37.985  1.00  0.00    -0.550 OA
ENDBRANCH   7   8
ENDBRANCH   6   7
ENDBRANCH   5   6
ENDBRANCH   4   5
ENDBRANCH   3   4
ENDBRANCH   2   3
ENDBRANCH   1   2
BRANCH   1  11
ATOM     11  C   UNL     1    -129.026 112.037  43.921  1.00  0.00    -0.031 C 
ATOM     12  C   UNL     1    -129.401 113.327  43.927  1.00  0.00    -0.027 C 
BRANCH  12  13
ATOM     13  C   UNL     1    -130.183 113.959  42.803  1.00  0.00     0.054 C 
BRANCH  13  14
ATOM     14  C   UNL     1    -129.401 115.072  42.155  1.00  0.00    -0.027 C 
ATOM     15  C   UNL     1    -129.449 116.360  42.541  1.00  0.00    -0.031 C 
BRANCH  15  16
ATOM     16  C   UNL     1    -130.238 116.869  43.724  1.00  0.00     0.027 C 
BRANCH  16  17
ATOM     17  C   UNL     1    -129.383 116.938  44.997  1.00  0.00     0.004 C 
BRANCH  17  18
ATOM     18  C   UNL     1    -130.151 116.450  46.238  1.00  0.00     0.000 C 
BRANCH  18  19
ATOM     19  C   UNL     1    -131.281 117.407  46.646  1.00  0.00    -0.003 C 
ATOM     20  C   UNL     1    -130.759 118.740  47.184  1.00  0.00     0.004 C 
ENDBRANCH  18  19
ENDBRANCH  17  18
ENDBRANCH  16  17
ENDBRANCH  15  16
ENDBRANCH  13  14
ENDBRANCH  12  13
ENDBRANCH   1  11
TORSDOF 14
ENDMDL
MODEL 6
REMARK VINA RESULT:    -5.317      3.000      4.325
REMARK INTER + INTRA:         -10.444
REMARK INTER:                  -8.966
REMARK INTRA:                  -1.478
REMARK UNBOUND:                -0.775
REMARK SMILES CCCCCC=CCC=CCCCCCCCC(=O)[O-]
REMARK SMILES IDX 11 1 12 2 13 3 14 4 15 5 16 6 17 7 18 8 19 9 20 10 10 11
REMARK SMILES IDX 9 12 8 13 7 14 6 15 5 16 4 17 3 18 2 19 1 20
REMARK H PARENT
REMARK Flexibility Score: inf
ROOT
ATOM      1  C   UNL     1    -130.349 109.059  39.966  1.00  0.00     0.027 C 
ENDROOT
BRANCH   1   2
ATOM      2  C   UNL     1    -129.710 107.685  39.702  1.00  0.00     0.004 C 
BRANCH   2   3
ATOM      3  C   UNL     1    -129.366 106.907  40.986  1.00  0.00     0.000 C 
BRANCH   3   4
ATOM      4  C   UNL     1    -128.136 107.483  41.711  1.00  0.00     0.000 C 
BRANCH   4   5
ATOM      5  C   UNL     1    -128.507 108.516  42.790  1.00  0.00     0.000 C 
BRANCH   5   6
ATOM      6  C   UNL     1    -129.905 108.336  43.416  1.00  0.00     0.006 C 
BRANCH   6   7
ATOM      7  C   UNL     1    -130.235 109.338  44.534  1.00  0.00     0.053 C 
BRANCH   7   8
ATOM      8  C   UNL     1    -131.168 108.755  45.551  1.00  0.00     0.041 C 
ATOM      9  O   UNL     1    -132.381 108.570  45.266  1.00  0.00    -0.550 OA
ATOM     10  O   UNL     1    -130.705 108.450  46.824  1.00  0.00    -0.550 OA
ENDBRANCH   7   8
ENDBRANCH   6   7
ENDBRANCH   5   6
ENDBRANCH   4   5
ENDBRANCH   3   4
ENDBRANCH   2   3
ENDBRANCH   1   2
BRANCH   1  11
ATOM     11  C   UNL     1    -129.613 110.176  39.265  1.00  0.00    -0.031 C 
ATOM     12  C   UNL     1    -129.348 111.356  39.847  1.00  0.00    -0.027 C 
BRANCH  12  13
ATOM     13  C   UNL     1    -129.752 111.683  41.264  1.00  0.00     0.054 C 
BRANCH  13  14
ATOM     14  C   UNL     1    -130.212 113.113  41.381  1.00  0.00    -0.027 C 
ATOM     15  C   UNL     1    -130.090 113.861  42.494  1.00  0.00    -0.031 C 
BRANCH  15  16
ATOM     16  C   UNL     1    -129.412 113.403  43.762  1.00  0.00     0.027 C 
BRANCH  16  17
ATOM     17  C   UNL     1    -129.501 114.459  44.873  1.00  0.00     0.004 C 
BRANCH  17  18
ATOM     18  C   UNL     1    -129.703 115.877  44.311  1.00  0.00     0.000 C 
BRANCH  18  19
ATOM     19  C   UNL     1    -129.913 116.925  45.413  1.00  0.00    -0.003 C 
ATOM     20  C   UNL     1    -130.647 116.361  46.631  1.00  0.00     0.004 C 
ENDBRANCH  18  19
ENDBRANCH  17  18
ENDBRANCH  16  17
ENDBRANCH  15  16
ENDBRANCH  13  14
ENDBRANCH  12  13
ENDBRANCH   1  11
TORSDOF 14
ENDMDL
MODEL 7
REMARK VINA RESULT:    -5.279      4.709      9.171
REMARK INTER + INTRA:         -10.375
REMARK INTER:                  -8.833
REMARK INTRA:                  -1.542
REMARK UNBOUND:                -0.775
REMARK SMILES CCCCCC=CCC=CCCCCCCCC(=O)[O-]
REMARK SMILES IDX 11 1 12 2 13 3 14 4 15 5 16 6 17 7 18 8 19 9 20 10 10 11
REMARK SMILES IDX 9 12 8 13 7 14 6 15 5 16 4 17 3 18 2 19 1 20
REMARK H PARENT
REMARK Flexibility Score: inf
ROOT
ATOM      1  C   UNL     1    -129.759 108.732  43.340  1.00  0.00     0.027 C 
ENDROOT
BRANCH   1   2
ATOM      2  C   UNL     1    -129.761 110.103  44.036  1.00  0.00     0.004 C 
BRANCH   2   3
ATOM      3  C   UNL     1    -129.031 111.201  43.240  1.00  0.00     0.000 C 
BRANCH   3   4
ATOM      4  C   UNL     1    -129.190 112.593  43.877  1.00  0.00     0.000 C 
BRANCH   4   5
ATOM      5  C   UNL     1    -129.753 113.639  42.898  1.00  0.00     0.000 C 
BRANCH   5   6
ATOM      6  C   UNL     1    -129.837 115.076  43.451  1.00  0.00     0.006 C 
BRANCH   6   7
ATOM      7  C   UNL     1    -129.644 115.185  44.972  1.00  0.00     0.053 C 
BRANCH   7   8
ATOM      8  C   UNL     1    -130.029 116.536  45.491  1.00  0.00     0.041 C 
ATOM      9  O   UNL     1    -130.528 116.656  46.641  1.00  0.00    -0.550 OA
ATOM     10  O   UNL     1    -129.869 117.660  44.689  1.00  0.00    -0.550 OA
ENDBRANCH   7   8
ENDBRANCH   6   7
ENDBRANCH   5   6
ENDBRANCH   4   5
ENDBRANCH   3   4
ENDBRANCH   2   3
ENDBRANCH   1   2
BRANCH   1  11
ATOM     11  C   UNL     1    -128.397 108.367  42.799  1.00  0.00    -0.031 C 
ATOM     12  C   UNL     1    -128.219 107.507  41.784  1.00  0.00    -0.027 C 
BRANCH  12  13
ATOM     13  C   UNL     1    -129.362 106.823  41.076  1.00  0.00     0.054 C 
BRANCH  13  14
ATOM     14  C   UNL     1    -129.412 107.212  39.622  1.00  0.00    -0.027 C 
ATOM     15  C   UNL     1    -129.993 108.333  39.155  1.00  0.00    -0.031 C 
BRANCH  15  16
ATOM     16  C   UNL     1    -130.617 109.398  40.023  1.00  0.00     0.027 C 
BRANCH  16  17
ATOM     17  C   UNL     1    -129.906 110.750  39.872  1.00  0.00     0.004 C 
BRANCH  17  18
ATOM     18  C   UNL     1    -128.924 110.760  38.688  1.00  0.00     0.000 C 
BRANCH  18  19
ATOM     19  C   UNL     1    -128.288 112.139  38.459  1.00  0.00    -0.003 C 
ATOM     20  C   UNL     1    -128.507 112.662  37.039  1.00  0.00     0.004 C 
ENDBRANCH  18  19
ENDBRANCH  17  18
ENDBRANCH  16  17
ENDBRANCH  15  16
ENDBRANCH  13  14
ENDBRANCH  12  13
ENDBRANCH   1  11
TORSDOF 14
ENDMDL
MODEL 8
REMARK VINA RESULT:    -5.259      1.973      2.857
REMARK INTER + INTRA:         -10.338
REMARK INTER:                  -8.931
REMARK INTRA:                  -1.407
REMARK UNBOUND:                -0.775
REMARK SMILES CCCCCC=CCC=CCCCCCCCC(=O)[O-]
REMARK SMILES IDX 11 1 12 2 13 3 14 4 15 5 16 6 17 7 18 8 19 9 20 10 10 11
REMARK SMILES IDX 9 12 8 13 7 14 6 15 5 16 4 17 3 18 2 19 1 20
REMARK H PARENT
REMARK Flexibility Score: inf
ROOT
ATOM      1  C   UNL     1    -129.323 110.635  42.805  1.00  0.00     0.027 C 
ENDROOT
BRANCH   1   2
ATOM      2  C   UNL     1    -129.305 109.100  42.895  1.00  0.00     0.004 C 
BRANCH   2   3
ATOM      3  C   UNL     1    -127.904 108.486  42.709  1.00  0.00     0.000 C 
BRANCH   3   4
ATOM      4  C   UNL     1    -127.939 107.178  41.898  1.00  0.00     0.000 C 
BRANCH   4   5
ATOM      5  C   UNL     1    -129.324 106.886  41.293  1.00  0.00     0.000 C 
BRANCH   5   6
ATOM      6  C   UNL     1    -129.345 106.709  39.761  1.00  0.00     0.006 C 
BRANCH   6   7
ATOM      7  C   UNL     1    -130.403 107.556  39.037  1.00  0.00     0.053 C 
BRANCH   7   8
ATOM      8  C   UNL     1    -130.252 109.016  39.334  1.00  0.00     0.041 C 
ATOM      9  O   UNL     1    -129.133 109.578  39.198  1.00  0.00    -0.550 OA
ATOM     10  O   UNL     1    -131.339 109.748  39.796  1.00  0.00    -0.550 OA
ENDBRANCH   7   8
ENDBRANCH   6   7
ENDBRANCH   5   6
ENDBRANCH   4   5
ENDBRANCH   3   4
ENDBRANCH   2   3
ENDBRANCH   1   2
BRANCH   1  11
ATOM     11  C   UNL     1    -129.494 111.285  44.158  1.00  0.00    -0.031 C 
ATOM     12  C   UNL     1    -129.330 112.602  44.363  1.00  0.00    -0.027 C 
BRANCH  12  13
ATOM     13  C   UNL     1    -128.965 113.566  43.261  1.00  0.00     0.054 C 
BRANCH  13  14
ATOM     14  C   UNL     1    -130.187 114.263  42.722  1.00  0.00    -0.027 C 
ATOM     15  C   UNL     1    -130.354 115.599  42.705  1.00  0.00    -0.031 C 
BRANCH  15  16
ATOM     16  C   UNL     1    -129.314 116.596  43.156  1.00  0.00     0.027 C 
BRANCH  16  17
ATOM     17  C   UNL     1    -129.656 117.202  44.524  1.00  0.00     0.004 C 
BRANCH  17  18
ATOM     18  C   UNL     1    -129.750 116.132  45.625  1.00  0.00     0.000 C 
BRANCH  18  19
ATOM     19  C   UNL     1    -130.728 116.519  46.744  1.00  0.00    -0.003 C 
ATOM     20  C   UNL     1    -131.066 118.011  46.741  1.00  0.00     0.004 C 
ENDBRANCH  18  19
ENDBRANCH  17  18
ENDBRANCH  16  17
ENDBRANCH  15  16
ENDBRANCH  13  14
ENDBRANCH  12  13
ENDBRANCH   1  11
TORSDOF 14
ENDMDL
MODEL 9
REMARK VINA RESULT:    -5.224      4.680      9.949
REMARK INTER + INTRA:         -10.275
REMARK INTER:                  -9.108
REMARK INTRA:                  -1.167
REMARK UNBOUND:                -0.775
REMARK SMILES CCCCCC=CCC=CCCCCCCCC(=O)[O-]
REMARK SMILES IDX 11 1 12 2 13 3 14 4 15 5 16 6 17 7 18 8 19 9 20 10 10 11
REMARK SMILES IDX 9 12 8 13 7 14 6 15 5 16 4 17 3 18 2 19 1 20
REMARK H PARENT
REMARK Flexibility Score: inf
ROOT
ATOM      1  C   UNL     1    -129.412 109.418  42.835  1.00  0.00     0.027 C 
ENDROOT
BRANCH   1   2
ATOM      2  C   UNL     1    -129.348 110.639  43.766  1.00  0.00     0.004 C 
BRANCH   2   3
ATOM      3  C   UNL     1    -129.444 111.986  43.025  1.00  0.00     0.000 C 
BRANCH   3   4
ATOM      4  C   UNL     1    -128.791 113.138  43.812  1.00  0.00     0.000 C 
BRANCH   4   5
ATOM      5  C   UNL     1    -129.809 114.190  44.286  1.00  0.00     0.000 C 
BRANCH   5   6
ATOM      6  C   UNL     1    -129.373 115.017  45.513  1.00  0.00     0.006 C 
BRANCH   6   7
ATOM      7  C   UNL     1    -130.508 115.802  46.189  1.00  0.00     0.053 C 
BRANCH   7   8
ATOM      8  C   UNL     1    -130.399 117.275  45.936  1.00  0.00     0.041 C 
ATOM      9  O   UNL     1    -130.893 118.096  46.753  1.00  0.00    -0.550 OA
ATOM     10  O   UNL     1    -129.783 117.738  44.780  1.00  0.00    -0.550 OA
ENDBRANCH   7   8
ENDBRANCH   6   7
ENDBRANCH   5   6
ENDBRANCH   4   5
ENDBRANCH   3   4
ENDBRANCH   2   3
ENDBRANCH   1   2
BRANCH   1  11
ATOM     11  C   UNL     1    -128.067 108.748  42.678  1.00  0.00    -0.031 C 
ATOM     12  C   UNL     1    -127.914 107.534  42.123  1.00  0.00    -0.027 C 
BRANCH  12  13
ATOM     13  C   UNL     1    -129.070 106.721  41.595  1.00  0.00     0.054 C 
BRANCH  13  14
ATOM     14  C   UNL     1    -128.596 105.670  40.625  1.00  0.00    -0.027 C 
ATOM     15  C   UNL     1    -129.105 105.489  39.392  1.00  0.00    -0.031 C 
BRANCH  15  16
ATOM     16  C   UNL     1    -130.176 106.354  38.773  1.00  0.00     0.027 C 
BRANCH  16  17
ATOM     17  C   UNL     1    -129.794 107.841  38.794  1.00  0.00     0.004 C 
BRANCH  17  18
ATOM     18  C   UNL     1    -130.984 108.740  39.173  1.00  0.00     0.000 C 
BRANCH  18  19
ATOM     19  C   UNL     1    -130.544 110.131  39.653  1.00  0.00    -0.003 C 
ATOM     20  C   UNL     1    -129.113 110.473  39.236  1.00  0.00     0.004 C 
ENDBRANCH  18  19
ENDBRANCH  17  18
ENDBRANCH  16  17
ENDBRANCH  15  16
ENDBRANCH  13  14
ENDBRANCH  12  13
ENDBRANCH   1  11
TORSDOF 14
ENDMDL
