MODEL 1
REMARK VINA RESULT:     1.852      0.000      0.000
REMARK INTER + INTRA:           2.040
REMARK INTER:                   2.014
REMARK INTRA:                   0.026
REMARK UNBOUND:                 0.026
REMARK SMILES C[C@@H]1[C@@H](C)CC[C@]2(C(=O)[O-])CC[C@@]3(C)C(=CC[C@H]4[C@@]5(C)CC[C@@H](O)C(C)(C)[C@H]5CC[C@]43C)[C@@H]12
REMARK SMILES IDX 7 1 6 2 11 3 33 4 5 5 12 6 15 7 2 8 3 9 13 10 16 11 1 12
REMARK SMILES IDX 4 13 14 14 31 15 17 16 18 17 30 18 32 19 19 20 29 21 28 22
REMARK SMILES IDX 21 23 20 24 25 25 22 26 23 27 26 28 27 29 8 30 9 31 10 32
REMARK SMILES IDX 24 33
REMARK H PARENT 24 34
REMARK Flexibility Score: inf
ROOT
ATOM      1  C   UNL     1     -10.095  21.357  -9.701  1.00  0.00     0.017 C 
ATOM      2  C   UNL     1     -11.259  20.341  -9.672  1.00  0.00     0.014 C 
ATOM      3  C   UNL     1      -8.962  20.754 -10.566  1.00  0.00     0.014 C 
ATOM      4  C   UNL     1      -9.517  21.530  -8.254  1.00  0.00     0.030 C 
ATOM      5  C   UNL     1     -12.411  20.847  -8.801  1.00  0.00     0.004 C 
ATOM      6  C   UNL     1      -7.759  21.698 -10.747  1.00  0.00     0.013 C 
ATOM      7  C   UNL     1      -8.277  22.482  -8.271  1.00  0.00    -0.063 C 
ATOM      8  C   UNL     1     -10.633  21.799  -7.151  1.00  0.00    -0.003 C 
ATOM      9  C   UNL     1     -11.970  20.987  -7.342  1.00  0.00    -0.011 C 
ATOM     10  C   UNL     1      -7.368  22.632  -9.533  1.00  0.00    -0.006 C 
ATOM     11  C   UNL     1      -8.001  23.271  -7.236  1.00  0.00    -0.027 C 
ATOM     12  C   UNL     1     -10.094  21.489  -5.717  1.00  0.00     0.008 C 
ATOM     13  C   UNL     1     -13.125  21.591  -6.511  1.00  0.00     0.008 C 
ATOM     14  C   UNL     1      -7.516  24.112 -10.038  1.00  0.00     0.017 C 
ATOM     15  C   UNL     1      -5.859  22.361  -9.080  1.00  0.00    -0.020 C 
ATOM     16  C   UNL     1      -6.635  23.875  -6.994  1.00  0.00     0.032 C 
ATOM     17  C   UNL     1      -5.449  23.277  -7.836  1.00  0.00     0.006 C 
ATOM     18  C   UNL     1      -5.676  20.888  -8.592  1.00  0.00     0.008 C 
ATOM     19  C   UNL     1      -4.914  22.638 -10.323  1.00  0.00     0.012 C 
ATOM     20  C   UNL     1      -4.160  22.820  -6.964  1.00  0.00    -0.025 C 
ATOM     21  C   UNL     1      -4.227  20.539  -8.186  1.00  0.00     0.005 C 
ATOM     22  C   UNL     1      -3.308  21.735  -7.769  1.00  0.00     0.003 C 
ATOM     23  C   UNL     1      -4.549  22.179  -5.582  1.00  0.00     0.010 C 
ATOM     24  C   UNL     1      -3.360  24.125  -6.686  1.00  0.00     0.012 C 
ATOM     25  C   UNL     1      -1.957  21.254  -7.042  1.00  0.00    -0.006 C 
ATOM     26  C   UNL     1      -3.530  21.161  -4.977  1.00  0.00     0.033 C 
ATOM     27  C   UNL     1      -2.063  21.349  -5.478  1.00  0.00     0.120 C 
ATOM     28  C   UNL     1      -1.568  19.792  -7.475  1.00  0.00     0.014 C 
ATOM     29  C   UNL     1      -0.789  22.158  -7.513  1.00  0.00     0.014 C 
ENDROOT
BRANCH   1  30
ATOM     30  C   UNL     1     -10.617  22.654 -10.327  1.00  0.00     0.048 C 
ATOM     31  O   UNL     1     -10.955  22.682 -11.544  1.00  0.00    -0.550 OA
ATOM     32  O   UNL     1     -10.818  23.805  -9.567  1.00  0.00    -0.550 OA
ENDBRANCH   1  30
BRANCH  27  33
ATOM     33  O   UNL     1      -1.217  20.391  -4.875  1.00  0.00    -0.393 OA
ATOM     34  H   UNL     1      -0.303  20.571  -5.179  1.00  0.00     0.210 HD
ENDBRANCH  27  33
TORSDOF 2
ENDMDL
