MODEL 1
REMARK VINA RESULT:    -3.052      0.000      0.000
REMARK INTER + INTRA:          -4.989
REMARK INTER:                  -4.658
REMARK INTRA:                  -0.331
REMARK UNBOUND:                -0.331
REMARK SMILES CC1=CCC[C@@H](C)C(=O)C[C@H](C(C)C)C(=O)C1
REMARK SMILES IDX 8 1 9 2 6 3 7 4 5 5 4 6 3 7 2 8 1 9 10 11 11 12 15 13 16 14
REMARK SMILES IDX 17 15 12 17 13 18 14 19
REMARK H PARENT
REMARK Flexibility Score: 70.00
ROOT
ATOM      1  C   UNL     1      77.994  -7.223  25.618  1.00  0.00     0.136 C 
ATOM      2  O   UNL     1      76.795  -7.450  25.703  1.00  0.00    -0.299 OA
ENDROOT
BRANCH   1   3
ATOM      3  C   UNL     1      78.848  -8.040  24.675  1.00  0.00     0.053 C 
ATOM      4  C   UNL     1      78.392  -7.866  23.222  1.00  0.00     0.016 C 
BRANCH   3   5
ATOM      5  C   UNL     1      78.807  -9.525  25.112  1.00  0.00     0.015 C 
BRANCH   5   6
ATOM      6  C   UNL     1      79.975  -9.997  26.001  1.00  0.00     0.028 C 
BRANCH   6   7
ATOM      7  C   UNL     1      81.344  -9.427  25.695  1.00  0.00    -0.028 C 
ATOM      8  C   UNL     1      82.101  -8.648  26.506  1.00  0.00    -0.070 CG0
ATOM      9  C   UNL     1      83.484  -8.281  26.029  1.00  0.00     0.039 C 
ATOM     10  G   UNL     1      81.619  -8.066  27.822  1.00  0.00     0.000 G0
ENDBRANCH   6   7
ENDBRANCH   5   6
ENDBRANCH   3   5
ENDBRANCH   1   3
BRANCH   1  11
ATOM     11  C   UNL     1      78.616  -6.186  26.523  1.00  0.00     0.087 C 
BRANCH  11  12
ATOM     12  C   UNL     1      79.261  -6.822  27.793  1.00  0.00     0.066 C 
BRANCH  12  13
ATOM     13  C   UNL     1      80.778  -6.813  27.645  1.00  0.00     0.140 C 
ATOM     14  O   UNL     1      81.341  -5.751  27.415  1.00  0.00    -0.299 OA
BRANCH  13  15
ATOM     15  C   UNL     1      81.617  -8.059  27.846  1.00  0.00     0.106 CG0
ATOM     16  G   UNL     1      82.087  -8.618  26.516  1.00  0.00     0.000 G0
ENDBRANCH  13  15
ENDBRANCH  12  13
BRANCH  12  17
ATOM     17  C   UNL     1      78.822  -6.092  29.106  1.00  0.00    -0.006 C 
ATOM     18  C   UNL     1      77.730  -6.873  29.866  1.00  0.00     0.008 C 
ATOM     19  C   UNL     1      78.286  -4.675  28.819  1.00  0.00     0.008 C 
ENDBRANCH  12  17
ENDBRANCH  11  12
ENDBRANCH   1  11
TORSDOF 1
ENDMDL
MODEL 2
REMARK VINA RESULT:    -3.037      2.323      3.719
REMARK INTER + INTRA:          -4.966
REMARK INTER:                  -4.825
REMARK INTRA:                  -0.140
REMARK UNBOUND:                -0.331
REMARK SMILES CC1=CCC[C@@H](C)C(=O)C[C@H](C(C)C)C(=O)C1
REMARK SMILES IDX 8 1 9 2 6 3 7 4 5 5 4 6 3 7 2 8 1 9 10 11 11 12 15 13 16 14
REMARK SMILES IDX 17 15 12 17 13 18 14 19
REMARK H PARENT
REMARK Flexibility Score: 70.00
ROOT
ATOM      1  C   UNL     1      79.600  -5.251  28.918  1.00  0.00     0.136 C 
ATOM      2  O   UNL     1      78.651  -4.678  28.402  1.00  0.00    -0.299 OA
ENDROOT
BRANCH   1   3
ATOM      3  C   UNL     1      81.010  -4.859  28.542  1.00  0.00     0.053 C 
ATOM      4  C   UNL     1      81.264  -3.372  28.816  1.00  0.00     0.016 C 
BRANCH   3   5
ATOM      5  C   UNL     1      81.254  -5.214  27.054  1.00  0.00     0.015 C 
BRANCH   5   6
ATOM      6  C   UNL     1      82.277  -6.337  26.791  1.00  0.00     0.028 C 
BRANCH   6   7
ATOM      7  C   UNL     1      81.725  -7.684  26.375  1.00  0.00    -0.028 C 
ATOM      8  C   UNL     1      81.365  -8.704  27.192  1.00  0.00    -0.070 CG0
ATOM      9  C   UNL     1      80.740  -9.921  26.557  1.00  0.00     0.039 C 
ATOM     10  G   UNL     1      81.619  -8.727  28.689  1.00  0.00     0.000 G0
ENDBRANCH   6   7
ENDBRANCH   5   6
ENDBRANCH   3   5
ENDBRANCH   1   3
BRANCH   1  11
ATOM     11  C   UNL     1      79.344  -6.403  29.861  1.00  0.00     0.087 C 
BRANCH  11  12
ATOM     12  C   UNL     1      79.156  -7.754  29.105  1.00  0.00     0.066 C 
BRANCH  12  13
ATOM     13  C   UNL     1      80.301  -8.695  29.464  1.00  0.00     0.140 C 
ATOM     14  O   UNL     1      80.139  -9.501  30.370  1.00  0.00    -0.299 OA
BRANCH  13  15
ATOM     15  C   UNL     1      81.603  -8.714  28.690  1.00  0.00     0.106 CG0
ATOM     16  G   UNL     1      81.345  -8.694  27.194  1.00  0.00     0.000 G0
ENDBRANCH  13  15
ENDBRANCH  12  13
BRANCH  12  17
ATOM     17  C   UNL     1      77.771  -8.415  29.412  1.00  0.00    -0.006 C 
ATOM     18  C   UNL     1      77.082  -8.938  28.135  1.00  0.00     0.008 C 
ATOM     19  C   UNL     1      76.810  -7.429  30.106  1.00  0.00     0.008 C 
ENDBRANCH  12  17
ENDBRANCH  11  12
ENDBRANCH   1  11
TORSDOF 1
ENDMDL
MODEL 3
REMARK VINA RESULT:    -2.888      2.414      3.414
REMARK INTER + INTRA:          -4.739
REMARK INTER:                  -4.691
REMARK INTRA:                  -0.048
REMARK UNBOUND:                -0.331
REMARK SMILES CC1=CCC[C@@H](C)C(=O)C[C@H](C(C)C)C(=O)C1
REMARK SMILES IDX 8 1 9 2 6 3 7 4 5 5 4 6 3 7 2 8 1 9 10 11 11 12 15 13 16 14
REMARK SMILES IDX 17 15 12 17 13 18 14 19
REMARK H PARENT
REMARK Flexibility Score: 70.00
ROOT
ATOM      1  C   UNL     1      78.865  -6.626  25.996  1.00  0.00     0.136 C 
ATOM      2  O   UNL     1      77.892  -5.884  26.002  1.00  0.00    -0.299 OA
ENDROOT
BRANCH   1   3
ATOM      3  C   UNL     1      78.903  -7.806  25.053  1.00  0.00     0.053 C 
ATOM      4  C   UNL     1      77.837  -7.677  23.958  1.00  0.00     0.016 C 
BRANCH   3   5
ATOM      5  C   UNL     1      78.727  -9.111  25.868  1.00  0.00     0.015 C 
BRANCH   5   6
ATOM      6  C   UNL     1      77.543  -9.133  26.855  1.00  0.00     0.028 C 
BRANCH   6   7
ATOM      7  C   UNL     1      77.771  -9.818  28.186  1.00  0.00    -0.028 C 
ATOM      8  C   UNL     1      77.854  -9.225  29.402  1.00  0.00    -0.070 CG0
ATOM      9  C   UNL     1      77.982 -10.122  30.609  1.00  0.00     0.039 C 
ATOM     10  G   UNL     1      77.900  -7.723  29.618  1.00  0.00     0.000 G0
ENDBRANCH   6   7
ENDBRANCH   5   6
ENDBRANCH   3   5
ENDBRANCH   1   3
BRANCH   1  11
ATOM     11  C   UNL     1      79.975  -6.396  26.994  1.00  0.00     0.087 C 
BRANCH  11  12
ATOM     12  C   UNL     1      79.435  -5.926  28.380  1.00  0.00     0.066 C 
BRANCH  12  13
ATOM     13  C   UNL     1      79.267  -7.136  29.291  1.00  0.00     0.140 C 
ATOM     14  O   UNL     1      80.258  -7.615  29.824  1.00  0.00    -0.299 OA
BRANCH  13  15
ATOM     15  C   UNL     1      77.906  -7.718  29.617  1.00  0.00     0.106 CG0
ATOM     16  G   UNL     1      77.896  -9.222  29.412  1.00  0.00     0.000 G0
ENDBRANCH  13  15
ENDBRANCH  12  13
BRANCH  12  17
ATOM     17  C   UNL     1      80.363  -4.852  29.040  1.00  0.00    -0.006 C 
ATOM     18  C   UNL     1      79.555  -3.710  29.691  1.00  0.00     0.008 C 
ATOM     19  C   UNL     1      81.333  -4.230  28.017  1.00  0.00     0.008 C 
ENDBRANCH  12  17
ENDBRANCH  11  12
ENDBRANCH   1  11
TORSDOF 1
ENDMDL
MODEL 4
REMARK VINA RESULT:    -2.733      1.955      3.804
REMARK INTER + INTRA:          -4.501
REMARK INTER:                  -4.967
REMARK INTRA:                   0.466
REMARK UNBOUND:                -0.331
REMARK SMILES CC1=CCC[C@@H](C)C(=O)C[C@H](C(C)C)C(=O)C1
REMARK SMILES IDX 8 1 9 2 6 3 7 4 5 5 4 6 3 7 2 8 1 9 10 11 11 12 15 13 16 14
REMARK SMILES IDX 17 15 12 17 13 18 14 19
REMARK H PARENT
REMARK Flexibility Score: 70.00
ROOT
ATOM      1  C   UNL     1      79.251  -5.606  28.901  1.00  0.00     0.136 C 
ATOM      2  O   UNL     1      78.420  -4.740  28.666  1.00  0.00    -0.299 OA
ENDROOT
BRANCH   1   3
ATOM      3  C   UNL     1      80.721  -5.306  28.718  1.00  0.00     0.053 C 
ATOM      4  C   UNL     1      80.982  -3.796  28.708  1.00  0.00     0.016 C 
BRANCH   3   5
ATOM      5  C   UNL     1      81.217  -5.979  27.414  1.00  0.00     0.015 C 
BRANCH   5   6
ATOM      6  C   UNL     1      81.641  -7.456  27.539  1.00  0.00     0.028 C 
BRANCH   6   7
ATOM      7  C   UNL     1      81.336  -8.359  26.363  1.00  0.00    -0.028 C 
ATOM      8  C   UNL     1      80.217  -9.100  26.174  1.00  0.00    -0.070 CG0
ATOM      9  C   UNL     1      80.087  -9.849  24.871  1.00  0.00     0.039 C 
ATOM     10  G   UNL     1      79.128  -9.281  27.216  1.00  0.00     0.000 G0
ENDBRANCH   6   7
ENDBRANCH   5   6
ENDBRANCH   3   5
ENDBRANCH   1   3
BRANCH   1  11
ATOM     11  C   UNL     1      78.787  -6.990  29.287  1.00  0.00     0.087 C 
BRANCH  11  12
ATOM     12  C   UNL     1      77.581  -7.471  28.422  1.00  0.00     0.066 C 
BRANCH  12  13
ATOM     13  C   UNL     1      78.105  -8.152  27.164  1.00  0.00     0.140 C 
ATOM     14  O   UNL     1      77.746  -7.732  26.073  1.00  0.00    -0.299 OA
BRANCH  13  15
ATOM     15  C   UNL     1      79.113  -9.283  27.218  1.00  0.00     0.106 CG0
ATOM     16  G   UNL     1      80.206  -9.086  26.183  1.00  0.00     0.000 G0
ENDBRANCH  13  15
ENDBRANCH  12  13
BRANCH  12  17
ATOM     17  C   UNL     1      76.626  -8.422  29.218  1.00  0.00    -0.006 C 
ATOM     18  C   UNL     1      77.405  -9.435  30.083  1.00  0.00     0.008 C 
ATOM     19  C   UNL     1      75.694  -9.212  28.278  1.00  0.00     0.008 C 
ENDBRANCH  12  17
ENDBRANCH  11  12
ENDBRANCH   1  11
TORSDOF 1
ENDMDL
MODEL 5
REMARK VINA RESULT:    -2.718      1.919      3.904
REMARK INTER + INTRA:          -4.478
REMARK INTER:                  -4.637
REMARK INTRA:                   0.158
REMARK UNBOUND:                -0.331
REMARK SMILES CC1=CCC[C@@H](C)C(=O)C[C@H](C(C)C)C(=O)C1
REMARK SMILES IDX 8 1 9 2 6 3 7 4 5 5 4 6 3 7 2 8 1 9 10 11 11 12 15 13 16 14
REMARK SMILES IDX 17 15 12 17 13 18 14 19
REMARK H PARENT
REMARK Flexibility Score: 70.00
ROOT
ATOM      1  C   UNL     1      82.089  -7.350  27.120  1.00  0.00     0.136 C 
ATOM      2  O   UNL     1      82.648  -6.532  26.402  1.00  0.00    -0.299 OA
ENDROOT
BRANCH   1   3
ATOM      3  C   UNL     1      82.410  -8.820  26.975  1.00  0.00     0.053 C 
ATOM      4  C   UNL     1      83.825  -9.028  26.424  1.00  0.00     0.016 C 
BRANCH   3   5
ATOM      5  C   UNL     1      81.343  -9.484  26.070  1.00  0.00     0.015 C 
BRANCH   5   6
ATOM      6  C   UNL     1      80.131 -10.097  26.799  1.00  0.00     0.028 C 
BRANCH   6   7
ATOM      7  C   UNL     1      78.760  -9.773  26.245  1.00  0.00    -0.028 C 
ATOM      8  C   UNL     1      77.980  -8.712  26.570  1.00  0.00    -0.070 CG0
ATOM      9  C   UNL     1      76.689  -8.536  25.810  1.00  0.00     0.039 C 
ATOM     10  G   UNL     1      78.289  -7.739  27.694  1.00  0.00     0.000 G0
ENDBRANCH   6   7
ENDBRANCH   5   6
ENDBRANCH   3   5
ENDBRANCH   1   3
BRANCH   1  11
ATOM     11  C   UNL     1      81.024  -6.882  28.083  1.00  0.00     0.087 C 
BRANCH  11  12
ATOM     12  C   UNL     1      80.111  -5.780  27.462  1.00  0.00     0.066 C 
BRANCH  12  13
ATOM     13  C   UNL     1      78.749  -6.380  27.135  1.00  0.00     0.140 C 
ATOM     14  O   UNL     1      78.020  -5.793  26.347  1.00  0.00    -0.299 OA
BRANCH  13  15
ATOM     15  C   UNL     1      78.300  -7.715  27.694  1.00  0.00     0.106 CG0
ATOM     16  G   UNL     1      77.962  -8.685  26.576  1.00  0.00     0.000 G0
ENDBRANCH  13  15
ENDBRANCH  12  13
BRANCH  12  17
ATOM     17  C   UNL     1      79.964  -4.537  28.403  1.00  0.00    -0.006 C 
ATOM     18  C   UNL     1      81.312  -3.823  28.633  1.00  0.00     0.008 C 
ATOM     19  C   UNL     1      79.387  -4.928  29.778  1.00  0.00     0.008 C 
ENDBRANCH  12  17
ENDBRANCH  11  12
ENDBRANCH   1  11
TORSDOF 1
ENDMDL
MODEL 6
REMARK VINA RESULT:    -2.709      2.096      4.323
REMARK INTER + INTRA:          -4.465
REMARK INTER:                  -4.289
REMARK INTRA:                  -0.176
REMARK UNBOUND:                -0.331
REMARK SMILES CC1=CCC[C@@H](C)C(=O)C[C@H](C(C)C)C(=O)C1
REMARK SMILES IDX 8 1 9 2 6 3 7 4 5 5 4 6 3 7 2 8 1 9 10 11 11 12 15 13 16 14
REMARK SMILES IDX 17 15 12 17 13 18 14 19
REMARK H PARENT
REMARK Flexibility Score: 70.00
ROOT
ATOM      1  C   UNL     1      81.172  -8.787  26.445  1.00  0.00     0.136 C 
ATOM      2  O   UNL     1      80.821  -9.766  25.800  1.00  0.00    -0.299 OA
ENDROOT
BRANCH   1   3
ATOM      3  C   UNL     1      82.206  -8.939  27.537  1.00  0.00     0.053 C 
ATOM      4  C   UNL     1      83.533  -9.462  26.976  1.00  0.00     0.016 C 
BRANCH   3   5
ATOM      5  C   UNL     1      81.646  -9.871  28.639  1.00  0.00     0.015 C 
BRANCH   5   6
ATOM      6  C   UNL     1      81.144  -9.173  29.919  1.00  0.00     0.028 C 
BRANCH   6   7
ATOM      7  C   UNL     1      79.645  -9.073  30.103  1.00  0.00    -0.028 C 
ATOM      8  C   UNL     1      78.848  -8.036  29.746  1.00  0.00    -0.070 CG0
ATOM      9  C   UNL     1      77.360  -8.201  29.935  1.00  0.00     0.039 C 
ATOM     10  G   UNL     1      79.362  -6.700  29.240  1.00  0.00     0.000 G0
ENDBRANCH   6   7
ENDBRANCH   5   6
ENDBRANCH   3   5
ENDBRANCH   1   3
BRANCH   1  11
ATOM     11  C   UNL     1      80.501  -7.458  26.195  1.00  0.00     0.087 C 
BRANCH  11  12
ATOM     12  C   UNL     1      79.027  -7.436  26.705  1.00  0.00     0.066 C 
BRANCH  12  13
ATOM     13  C   UNL     1      78.895  -6.402  27.818  1.00  0.00     0.140 C 
ATOM     14  O   UNL     1      78.337  -5.341  27.574  1.00  0.00    -0.299 OA
BRANCH  13  15
ATOM     15  C   UNL     1      79.366  -6.674  29.232  1.00  0.00     0.106 CG0
ATOM     16  G   UNL     1      78.856  -8.016  29.725  1.00  0.00     0.000 G0
ENDBRANCH  13  15
ENDBRANCH  12  13
BRANCH  12  17
ATOM     17  C   UNL     1      78.007  -7.151  25.552  1.00  0.00    -0.006 C 
ATOM     18  C   UNL     1      76.671  -7.891  25.765  1.00  0.00     0.008 C 
ATOM     19  C   UNL     1      78.571  -7.563  24.178  1.00  0.00     0.008 C 
ENDBRANCH  12  17
ENDBRANCH  11  12
ENDBRANCH   1  11
TORSDOF 1
ENDMDL
MODEL 7
REMARK VINA RESULT:    -2.687     10.803     12.910
REMARK INTER + INTRA:          -4.431
REMARK INTER:                  -5.847
REMARK INTRA:                   1.416
REMARK UNBOUND:                -0.331
REMARK SMILES CC1=CCC[C@@H](C)C(=O)C[C@H](C(C)C)C(=O)C1
REMARK SMILES IDX 8 1 9 2 6 3 7 4 5 5 4 6 3 7 2 8 1 9 10 11 11 12 15 13 16 14
REMARK SMILES IDX 17 15 12 17 13 18 14 19
REMARK H PARENT
REMARK Flexibility Score: 70.00
ROOT
ATOM      1  C   UNL     1      82.100   5.580  26.732  1.00  0.00     0.136 C 
ATOM      2  O   UNL     1      82.549   6.302  25.852  1.00  0.00    -0.299 OA
ENDROOT
BRANCH   1   3
ATOM      3  C   UNL     1      81.389   6.194  27.916  1.00  0.00     0.053 C 
ATOM      4  C   UNL     1      80.556   7.409  27.495  1.00  0.00     0.016 C 
BRANCH   3   5
ATOM      5  C   UNL     1      82.434   6.567  28.997  1.00  0.00     0.015 C 
BRANCH   5   6
ATOM      6  C   UNL     1      83.015   5.389  29.805  1.00  0.00     0.028 C 
BRANCH   6   7
ATOM      7  C   UNL     1      82.031   4.531  30.571  1.00  0.00    -0.028 C 
ATOM      8  C   UNL     1      82.058   3.182  30.704  1.00  0.00    -0.070 CG0
ATOM      9  C   UNL     1      81.028   2.548  31.604  1.00  0.00     0.039 C 
ATOM     10  G   UNL     1      83.010   2.270  29.951  1.00  0.00     0.000 G0
ENDBRANCH   6   7
ENDBRANCH   5   6
ENDBRANCH   3   5
ENDBRANCH   1   3
BRANCH   1  11
ATOM     11  C   UNL     1      82.339   4.091  26.660  1.00  0.00     0.087 C 
BRANCH  11  12
ATOM     12  C   UNL     1      83.397   3.612  27.702  1.00  0.00     0.066 C 
BRANCH  12  13
ATOM     13  C   UNL     1      82.847   2.411  28.461  1.00  0.00     0.140 C 
ATOM     14  O   UNL     1      82.305   1.513  27.831  1.00  0.00    -0.299 OA
BRANCH  13  15
ATOM     15  C   UNL     1      83.014   2.257  29.960  1.00  0.00     0.106 CG0
ATOM     16  G   UNL     1      82.075   3.185  30.709  1.00  0.00     0.000 G0
ENDBRANCH  13  15
ENDBRANCH  12  13
BRANCH  12  17
ATOM     17  C   UNL     1      84.771   3.272  27.035  1.00  0.00    -0.006 C 
ATOM     18  C   UNL     1      85.925   3.257  28.059  1.00  0.00     0.008 C 
ATOM     19  C   UNL     1      85.129   4.278  25.923  1.00  0.00     0.008 C 
ENDBRANCH  12  17
ENDBRANCH  11  12
ENDBRANCH   1  11
TORSDOF 1
ENDMDL
MODEL 8
REMARK VINA RESULT:    -2.537     11.022     12.512
REMARK INTER + INTRA:          -4.203
REMARK INTER:                  -4.722
REMARK INTRA:                   0.519
REMARK UNBOUND:                -0.331
REMARK SMILES CC1=CCC[C@@H](C)C(=O)C[C@H](C(C)C)C(=O)C1
REMARK SMILES IDX 8 1 9 2 6 3 7 4 5 5 4 6 3 7 2 8 1 9 10 11 11 12 15 13 16 14
REMARK SMILES IDX 17 15 12 17 13 18 14 19
REMARK H PARENT
REMARK Flexibility Score: 70.00
ROOT
ATOM      1  C   UNL     1      81.883   5.670  28.246  1.00  0.00     0.136 C 
ATOM      2  O   UNL     1      80.662   5.649  28.318  1.00  0.00    -0.299 OA
ENDROOT
BRANCH   1   3
ATOM      3  C   UNL     1      82.553   6.294  27.044  1.00  0.00     0.053 C 
ATOM      4  C   UNL     1      81.743   7.482  26.512  1.00  0.00     0.016 C 
BRANCH   3   5
ATOM      5  C   UNL     1      82.756   5.210  25.957  1.00  0.00     0.015 C 
BRANCH   5   6
ATOM      6  C   UNL     1      84.219   4.844  25.638  1.00  0.00     0.028 C 
BRANCH   6   7
ATOM      7  C   UNL     1      85.086   4.405  26.799  1.00  0.00    -0.028 C 
ATOM      8  C   UNL     1      84.845   3.379  27.653  1.00  0.00    -0.070 CG0
ATOM      9  C   UNL     1      85.906   3.060  28.677  1.00  0.00     0.039 C 
ATOM     10  G   UNL     1      83.552   2.585  27.688  1.00  0.00     0.000 G0
ENDBRANCH   6   7
ENDBRANCH   5   6
ENDBRANCH   3   5
ENDBRANCH   1   3
BRANCH   1  11
ATOM     11  C   UNL     1      82.698   4.994  29.322  1.00  0.00     0.087 C 
BRANCH  11  12
ATOM     12  C   UNL     1      82.122   3.597  29.710  1.00  0.00     0.066 C 
BRANCH  12  13
ATOM     13  C   UNL     1      83.001   2.506  29.110  1.00  0.00     0.140 C 
ATOM     14  O   UNL     1      83.224   1.500  29.769  1.00  0.00    -0.299 OA
BRANCH  13  15
ATOM     15  C   UNL     1      83.545   2.593  27.698  1.00  0.00     0.106 CG0
ATOM     16  G   UNL     1      84.845   3.377  27.665  1.00  0.00     0.000 G0
ENDBRANCH  13  15
ENDBRANCH  12  13
BRANCH  12  17
ATOM     17  C   UNL     1      81.991   3.422  31.260  1.00  0.00    -0.006 C 
ATOM     18  C   UNL     1      80.643   2.787  31.659  1.00  0.00     0.008 C 
ATOM     19  C   UNL     1      82.126   4.768  31.998  1.00  0.00     0.008 C 
ENDBRANCH  12  17
ENDBRANCH  11  12
ENDBRANCH   1  11
TORSDOF 1
ENDMDL
MODEL 9
REMARK VINA RESULT:    -2.333      2.595      4.754
REMARK INTER + INTRA:          -3.891
REMARK INTER:                  -3.916
REMARK INTRA:                   0.025
REMARK UNBOUND:                -0.331
REMARK SMILES CC1=CCC[C@@H](C)C(=O)C[C@H](C(C)C)C(=O)C1
REMARK SMILES IDX 8 1 9 2 6 3 7 4 5 5 4 6 3 7 2 8 1 9 10 11 11 12 15 13 16 14
REMARK SMILES IDX 17 15 12 17 13 18 14 19
REMARK H PARENT
REMARK Flexibility Score: 70.00
ROOT
ATOM      1  C   UNL     1      78.419  -9.900  28.356  1.00  0.00     0.136 C 
ATOM      2  O   UNL     1      79.502 -10.005  28.915  1.00  0.00    -0.299 OA
ENDROOT
BRANCH   1   3
ATOM      3  C   UNL     1      77.147  -9.934  29.172  1.00  0.00     0.053 C 
ATOM      4  C   UNL     1      75.910  -9.795  28.277  1.00  0.00     0.016 C 
BRANCH   3   5
ATOM      5  C   UNL     1      77.203  -8.817  30.243  1.00  0.00     0.015 C 
BRANCH   5   6
ATOM      6  C   UNL     1      77.168  -7.371  29.710  1.00  0.00     0.028 C 
BRANCH   6   7
ATOM      7  C   UNL     1      78.481  -6.619  29.678  1.00  0.00    -0.028 C 
ATOM      8  C   UNL     1      79.025  -5.976  28.616  1.00  0.00    -0.070 CG0
ATOM      9  C   UNL     1      80.300  -5.202  28.846  1.00  0.00     0.039 C 
ATOM     10  G   UNL     1      78.474  -6.045  27.203  1.00  0.00     0.000 G0
ENDBRANCH   6   7
ENDBRANCH   5   6
ENDBRANCH   3   5
ENDBRANCH   1   3
BRANCH   1  11
ATOM     11  C   UNL     1      78.370  -9.826  26.849  1.00  0.00     0.087 C 
BRANCH  11  12
ATOM     12  C   UNL     1      77.784  -8.471  26.344  1.00  0.00     0.066 C 
BRANCH  12  13
ATOM     13  C   UNL     1      78.821  -7.371  26.537  1.00  0.00     0.140 C 
ATOM     14  O   UNL     1      79.951  -7.543  26.099  1.00  0.00    -0.299 OA
BRANCH  13  15
ATOM     15  C   UNL     1      78.481  -6.044  27.186  1.00  0.00     0.106 CG0
ATOM     16  G   UNL     1      79.024  -5.978  28.603  1.00  0.00     0.000 G0
ENDBRANCH  13  15
ENDBRANCH  12  13
BRANCH  12  17
ATOM     17  C   UNL     1      77.320  -8.548  24.851  1.00  0.00    -0.006 C 
ATOM     18  C   UNL     1      75.818  -8.233  24.694  1.00  0.00     0.008 C 
ATOM     19  C   UNL     1      77.585  -9.939  24.243  1.00  0.00     0.008 C 
ENDBRANCH  12  17
ENDBRANCH  11  12
ENDBRANCH   1  11
TORSDOF 1
ENDMDL
