MODEL 1
REMARK VINA RESULT:    -6.570      0.000      0.000
REMARK INTER + INTRA:         -11.241
REMARK INTER:                 -10.026
REMARK INTRA:                  -1.214
REMARK UNBOUND:                -1.214
REMARK SMILES CC(=O)CCC=C(C)CCC=C(C)CCC=C(C)C
REMARK SMILES IDX 10 1 11 2 12 3 13 4 14 5 15 6 16 7 18 8 17 9 19 10 9 11 7 12
REMARK SMILES IDX 6 13 8 14 5 15 4 16 2 17 3 18 1 19
REMARK H PARENT
REMARK Flexibility Score: inf
ROOT
ATOM      1  C   UNL     1      32.370  20.676  25.513  1.00  0.00     0.032 C 
ENDROOT
BRANCH   1   2
ATOM      2  C   UNL     1      32.494  19.385  24.743  1.00  0.00    -0.028 C 
ATOM      3  C   UNL     1      31.907  19.149  23.547  1.00  0.00    -0.077 C 
ATOM      4  C   UNL     1      31.021  20.173  22.878  1.00  0.00     0.039 C 
BRANCH   3   5
ATOM      5  C   UNL     1      32.141  17.817  22.868  1.00  0.00     0.034 C 
BRANCH   5   6
ATOM      6  C   UNL     1      32.819  18.011  21.505  1.00  0.00     0.032 C 
BRANCH   6   7
ATOM      7  C   UNL     1      31.910  17.571  20.386  1.00  0.00    -0.028 C 
ATOM      8  C   UNL     1      30.963  16.048  18.706  1.00  0.00     0.039 C 
ATOM      9  C   UNL     1      31.908  16.333  19.844  1.00  0.00    -0.080 C 
ATOM     10  C   UNL     1      32.803  15.231  20.362  1.00  0.00     0.039 C 
ENDBRANCH   6   7
ENDBRANCH   5   6
ENDBRANCH   3   5
ENDBRANCH   1   2
BRANCH   1  11
ATOM     11  C   UNL     1      33.027  20.553  26.893  1.00  0.00     0.034 C 
BRANCH  11  12
ATOM     12  C   UNL     1      32.326  19.502  27.727  1.00  0.00    -0.077 C 
ATOM     13  C   UNL     1      33.061  18.517  28.293  1.00  0.00    -0.028 C 
ATOM     14  C   UNL     1      30.831  19.593  27.917  1.00  0.00     0.039 C 
BRANCH  13  15
ATOM     15  C   UNL     1      32.486  17.372  29.092  1.00  0.00     0.035 C 
BRANCH  15  16
ATOM     16  C   UNL     1      32.532  16.054  28.310  1.00  0.00     0.079 C 
BRANCH  16  17
ATOM     17  C   UNL     1      31.340  15.906  27.399  1.00  0.00     0.130 C 
ATOM     18  O   UNL     1      31.406  16.306  26.247  1.00  0.00    -0.300 OA
ATOM     19  C   UNL     1      30.083  15.242  27.875  1.00  0.00     0.087 C 
ENDBRANCH  16  17
ENDBRANCH  15  16
ENDBRANCH  13  15
ENDBRANCH  11  12
ENDBRANCH   1  11
TORSDOF 9
ENDMDL
MODEL 2
REMARK VINA RESULT:    -6.480      2.041      5.119
REMARK INTER + INTRA:         -11.103
REMARK INTER:                  -9.894
REMARK INTRA:                  -1.209
REMARK UNBOUND:                -1.214
REMARK SMILES CC(=O)CCC=C(C)CCC=C(C)CCC=C(C)C
REMARK SMILES IDX 10 1 11 2 12 3 13 4 14 5 15 6 16 7 18 8 17 9 19 10 9 11 7 12
REMARK SMILES IDX 6 13 8 14 5 15 4 16 2 17 3 18 1 19
REMARK H PARENT
REMARK Flexibility Score: inf
ROOT
ATOM      1  C   UNL     1      30.867  16.986  24.643  1.00  0.00     0.032 C 
ENDROOT
BRANCH   1   2
ATOM      2  C   UNL     1      31.048  18.466  24.417  1.00  0.00    -0.028 C 
ATOM      3  C   UNL     1      31.760  19.003  23.400  1.00  0.00    -0.077 C 
ATOM      4  C   UNL     1      32.488  18.142  22.395  1.00  0.00     0.039 C 
BRANCH   3   5
ATOM      5  C   UNL     1      31.833  20.510  23.274  1.00  0.00     0.034 C 
BRANCH   5   6
ATOM      6  C   UNL     1      31.380  21.189  24.573  1.00  0.00     0.032 C 
BRANCH   6   7
ATOM      7  C   UNL     1      32.565  21.545  25.434  1.00  0.00    -0.028 C 
ATOM      8  C   UNL     1      33.814  21.935  27.514  1.00  0.00     0.039 C 
ATOM      9  C   UNL     1      32.562  21.521  26.786  1.00  0.00    -0.080 C 
ATOM     10  C   UNL     1      31.356  21.070  27.576  1.00  0.00     0.039 C 
ENDBRANCH   6   7
ENDBRANCH   5   6
ENDBRANCH   3   5
ENDBRANCH   1   2
BRANCH   1  11
ATOM     11  C   UNL     1      29.779  16.724  25.690  1.00  0.00     0.034 C 
BRANCH  11  12
ATOM     12  C   UNL     1      30.357  16.015  26.896  1.00  0.00    -0.077 C 
ATOM     13  C   UNL     1      31.688  16.093  27.127  1.00  0.00    -0.028 C 
ATOM     14  C   UNL     1      29.431  15.256  27.817  1.00  0.00     0.039 C 
BRANCH  13  15
ATOM     15  C   UNL     1      32.404  15.384  28.251  1.00  0.00     0.035 C 
BRANCH  15  16
ATOM     16  C   UNL     1      33.437  16.292  28.929  1.00  0.00     0.079 C 
BRANCH  16  17
ATOM     17  C   UNL     1      32.935  17.709  29.051  1.00  0.00     0.130 C 
ATOM     18  O   UNL     1      33.609  18.628  28.613  1.00  0.00    -0.300 OA
ATOM     19  C   UNL     1      31.603  18.005  29.670  1.00  0.00     0.087 C 
ENDBRANCH  16  17
ENDBRANCH  15  16
ENDBRANCH  13  15
ENDBRANCH  11  12
ENDBRANCH   1  11
TORSDOF 9
ENDMDL
MODEL 3
REMARK VINA RESULT:    -6.338      1.827      5.588
REMARK INTER + INTRA:         -10.887
REMARK INTER:                 -10.052
REMARK INTRA:                  -0.835
REMARK UNBOUND:                -1.214
REMARK SMILES CC(=O)CCC=C(C)CCC=C(C)CCC=C(C)C
REMARK SMILES IDX 10 1 11 2 12 3 13 4 14 5 15 6 16 7 18 8 17 9 19 10 9 11 7 12
REMARK SMILES IDX 6 13 8 14 5 15 4 16 2 17 3 18 1 19
REMARK H PARENT
REMARK Flexibility Score: inf
ROOT
ATOM      1  C   UNL     1      31.302  21.062  23.725  1.00  0.00     0.032 C 
ENDROOT
BRANCH   1   2
ATOM      2  C   UNL     1      32.163  20.725  24.916  1.00  0.00    -0.028 C 
ATOM      3  C   UNL     1      32.627  21.633  25.805  1.00  0.00    -0.077 C 
ATOM      4  C   UNL     1      32.346  23.109  25.657  1.00  0.00     0.039 C 
BRANCH   3   5
ATOM      5  C   UNL     1      33.457  21.152  26.975  1.00  0.00     0.034 C 
BRANCH   5   6
ATOM      6  C   UNL     1      32.621  20.271  27.913  1.00  0.00     0.032 C 
BRANCH   6   7
ATOM      7  C   UNL     1      33.303  18.950  28.159  1.00  0.00    -0.028 C 
ATOM      8  C   UNL     1      33.571  16.671  29.041  1.00  0.00     0.039 C 
ATOM      9  C   UNL     1      32.754  17.923  28.846  1.00  0.00    -0.080 C 
ATOM     10  C   UNL     1      31.348  17.987  29.396  1.00  0.00     0.039 C 
ENDBRANCH   6   7
ENDBRANCH   5   6
ENDBRANCH   3   5
ENDBRANCH   1   2
BRANCH   1  11
ATOM     11  C   UNL     1      31.366  19.948  22.673  1.00  0.00     0.034 C 
BRANCH  11  12
ATOM     12  C   UNL     1      31.606  18.605  23.330  1.00  0.00    -0.077 C 
ATOM     13  C   UNL     1      30.997  18.333  24.507  1.00  0.00    -0.028 C 
ATOM     14  C   UNL     1      32.503  17.603  22.645  1.00  0.00     0.039 C 
BRANCH  13  15
ATOM     15  C   UNL     1      31.198  17.065  25.301  1.00  0.00     0.035 C 
BRANCH  15  16
ATOM     16  C   UNL     1      29.986  16.751  26.187  1.00  0.00     0.079 C 
BRANCH  16  17
ATOM     17  C   UNL     1      30.234  15.548  27.061  1.00  0.00     0.130 C 
ATOM     18  O   UNL     1      31.371  15.121  27.194  1.00  0.00    -0.300 OA
ATOM     19  C   UNL     1      29.110  14.887  27.801  1.00  0.00     0.087 C 
ENDBRANCH  16  17
ENDBRANCH  15  16
ENDBRANCH  13  15
ENDBRANCH  11  12
ENDBRANCH   1  11
TORSDOF 9
ENDMDL
MODEL 4
REMARK VINA RESULT:    -6.275      1.947      3.579
REMARK INTER + INTRA:         -10.791
REMARK INTER:                  -9.553
REMARK INTRA:                  -1.238
REMARK UNBOUND:                -1.214
REMARK SMILES CC(=O)CCC=C(C)CCC=C(C)CCC=C(C)C
REMARK SMILES IDX 10 1 11 2 12 3 13 4 14 5 15 6 16 7 18 8 17 9 19 10 9 11 7 12
REMARK SMILES IDX 6 13 8 14 5 15 4 16 2 17 3 18 1 19
REMARK H PARENT
REMARK Flexibility Score: inf
ROOT
ATOM      1  C   UNL     1      30.633  17.488  25.050  1.00  0.00     0.032 C 
ENDROOT
BRANCH   1   2
ATOM      2  C   UNL     1      31.633  17.529  23.922  1.00  0.00    -0.028 C 
ATOM      3  C   UNL     1      31.958  18.644  23.228  1.00  0.00    -0.077 C 
ATOM      4  C   UNL     1      31.301  19.976  23.506  1.00  0.00     0.039 C 
BRANCH   3   5
ATOM      5  C   UNL     1      33.004  18.549  22.139  1.00  0.00     0.034 C 
BRANCH   5   6
ATOM      6  C   UNL     1      33.003  17.154  21.501  1.00  0.00     0.032 C 
BRANCH   6   7
ATOM      7  C   UNL     1      31.950  17.055  20.427  1.00  0.00    -0.028 C 
ATOM      8  C   UNL     1      30.805  16.130  18.460  1.00  0.00     0.039 C 
ATOM      9  C   UNL     1      31.900  16.080  19.493  1.00  0.00    -0.080 C 
ATOM     10  C   UNL     1      32.890  14.939  19.473  1.00  0.00     0.039 C 
ENDBRANCH   6   7
ENDBRANCH   5   6
ENDBRANCH   3   5
ENDBRANCH   1   2
BRANCH   1  11
ATOM     11  C   UNL     1      31.232  16.806  26.285  1.00  0.00     0.034 C 
BRANCH  11  12
ATOM     12  C   UNL     1      31.649  17.834  27.314  1.00  0.00    -0.077 C 
ATOM     13  C   UNL     1      31.478  19.147  27.036  1.00  0.00    -0.028 C 
ATOM     14  C   UNL     1      32.227  17.366  28.628  1.00  0.00     0.039 C 
BRANCH  13  15
ATOM     15  C   UNL     1      31.909  20.277  27.941  1.00  0.00     0.035 C 
BRANCH  15  16
ATOM     16  C   UNL     1      31.631  21.647  27.311  1.00  0.00     0.079 C 
BRANCH  16  17
ATOM     17  C   UNL     1      32.744  22.069  26.385  1.00  0.00     0.130 C 
ATOM     18  O   UNL     1      32.494  22.775  25.421  1.00  0.00    -0.300 OA
ATOM     19  C   UNL     1      34.163  21.663  26.650  1.00  0.00     0.087 C 
ENDBRANCH  16  17
ENDBRANCH  15  16
ENDBRANCH  13  15
ENDBRANCH  11  12
ENDBRANCH   1  11
TORSDOF 9
ENDMDL
MODEL 5
REMARK VINA RESULT:    -6.215      2.012      7.077
REMARK INTER + INTRA:         -10.699
REMARK INTER:                  -9.737
REMARK INTRA:                  -0.961
REMARK UNBOUND:                -1.214
REMARK SMILES CC(=O)CCC=C(C)CCC=C(C)CCC=C(C)C
REMARK SMILES IDX 10 1 11 2 12 3 13 4 14 5 15 6 16 7 18 8 17 9 19 10 9 11 7 12
REMARK SMILES IDX 6 13 8 14 5 15 4 16 2 17 3 18 1 19
REMARK H PARENT
REMARK Flexibility Score: inf
ROOT
ATOM      1  C   UNL     1      30.742  17.481  24.594  1.00  0.00     0.032 C 
ENDROOT
BRANCH   1   2
ATOM      2  C   UNL     1      31.401  17.270  25.934  1.00  0.00    -0.028 C 
ATOM      3  C   UNL     1      30.849  16.576  26.956  1.00  0.00    -0.077 C 
ATOM      4  C   UNL     1      29.470  15.968  26.854  1.00  0.00     0.039 C 
BRANCH   3   5
ATOM      5  C   UNL     1      31.636  16.414  28.239  1.00  0.00     0.034 C 
BRANCH   5   6
ATOM      6  C   UNL     1      31.706  17.740  29.007  1.00  0.00     0.032 C 
BRANCH   6   7
ATOM      7  C   UNL     1      32.861  18.580  28.525  1.00  0.00    -0.028 C 
ATOM      8  C   UNL     1      33.979  20.488  27.453  1.00  0.00     0.039 C 
ATOM      9  C   UNL     1      32.732  19.777  27.910  1.00  0.00    -0.080 C 
ATOM     10  C   UNL     1      31.384  20.424  27.692  1.00  0.00     0.039 C 
ENDBRANCH   6   7
ENDBRANCH   5   6
ENDBRANCH   3   5
ENDBRANCH   1   2
BRANCH   1  11
ATOM     11  C   UNL     1      31.501  18.530  23.773  1.00  0.00     0.034 C 
BRANCH  11  12
ATOM     12  C   UNL     1      32.297  17.871  22.667  1.00  0.00    -0.077 C 
ATOM     13  C   UNL     1      32.079  16.564  22.392  1.00  0.00    -0.028 C 
ATOM     14  C   UNL     1      33.298  18.694  21.891  1.00  0.00     0.039 C 
BRANCH  13  15
ATOM     15  C   UNL     1      32.846  15.767  21.364  1.00  0.00     0.035 C 
BRANCH  15  16
ATOM     16  C   UNL     1      31.908  14.976  20.443  1.00  0.00     0.079 C 
BRANCH  16  17
ATOM     17  C   UNL     1      31.259  15.867  19.414  1.00  0.00     0.130 C 
ATOM     18  O   UNL     1      31.671  17.006  19.254  1.00  0.00    -0.300 OA
ATOM     19  C   UNL     1      30.136  15.366  18.558  1.00  0.00     0.087 C 
ENDBRANCH  16  17
ENDBRANCH  15  16
ENDBRANCH  13  15
ENDBRANCH  11  12
ENDBRANCH   1  11
TORSDOF 9
ENDMDL
MODEL 6
REMARK VINA RESULT:    -5.976      1.961      5.987
REMARK INTER + INTRA:         -10.334
REMARK INTER:                  -9.689
REMARK INTRA:                  -0.645
REMARK UNBOUND:                -1.214
REMARK SMILES CC(=O)CCC=C(C)CCC=C(C)CCC=C(C)C
REMARK SMILES IDX 10 1 11 2 12 3 13 4 14 5 15 6 16 7 18 8 17 9 19 10 9 11 7 12
REMARK SMILES IDX 6 13 8 14 5 15 4 16 2 17 3 18 1 19
REMARK H PARENT
REMARK Flexibility Score: inf
ROOT
ATOM      1  C   UNL     1      31.451  20.639  27.368  1.00  0.00     0.032 C 
ENDROOT
BRANCH   1   2
ATOM      2  C   UNL     1      31.529  19.331  28.114  1.00  0.00    -0.028 C 
ATOM      3  C   UNL     1      32.682  18.740  28.503  1.00  0.00    -0.077 C 
ATOM      4  C   UNL     1      34.032  19.338  28.183  1.00  0.00     0.039 C 
BRANCH   3   5
ATOM      5  C   UNL     1      32.614  17.440  29.275  1.00  0.00     0.034 C 
BRANCH   5   6
ATOM      6  C   UNL     1      32.653  16.238  28.322  1.00  0.00     0.032 C 
BRANCH   6   7
ATOM      7  C   UNL     1      31.296  15.588  28.222  1.00  0.00    -0.028 C 
ATOM      8  C   UNL     1      29.088  15.099  27.261  1.00  0.00     0.039 C 
ATOM      9  C   UNL     1      30.424  15.794  27.210  1.00  0.00    -0.080 C 
ATOM     10  C   UNL     1      30.760  16.674  26.028  1.00  0.00     0.039 C 
ENDBRANCH   6   7
ENDBRANCH   5   6
ENDBRANCH   3   5
ENDBRANCH   1   2
BRANCH   1  11
ATOM     11  C   UNL     1      32.567  20.737  26.321  1.00  0.00     0.034 C 
BRANCH  11  12
ATOM     12  C   UNL     1      31.985  20.883  24.931  1.00  0.00    -0.077 C 
ATOM     13  C   UNL     1      31.705  19.768  24.218  1.00  0.00    -0.028 C 
ATOM     14  C   UNL     1      31.719  22.266  24.388  1.00  0.00     0.039 C 
BRANCH  13  15
ATOM     15  C   UNL     1      31.186  19.768  22.800  1.00  0.00     0.035 C 
BRANCH  15  16
ATOM     16  C   UNL     1      32.280  19.386  21.795  1.00  0.00     0.079 C 
BRANCH  16  17
ATOM     17  C   UNL     1      32.111  17.971  21.301  1.00  0.00     0.130 C 
ATOM     18  O   UNL     1      32.035  17.755  20.102  1.00  0.00    -0.300 OA
ATOM     19  C   UNL     1      32.070  16.819  22.260  1.00  0.00     0.087 C 
ENDBRANCH  16  17
ENDBRANCH  15  16
ENDBRANCH  13  15
ENDBRANCH  11  12
ENDBRANCH   1  11
TORSDOF 9
ENDMDL
MODEL 7
REMARK VINA RESULT:    -5.963     12.149     13.888
REMARK INTER + INTRA:         -10.314
REMARK INTER:                  -9.121
REMARK INTRA:                  -1.193
REMARK UNBOUND:                -1.214
REMARK SMILES CC(=O)CCC=C(C)CCC=C(C)CCC=C(C)C
REMARK SMILES IDX 10 1 11 2 12 3 13 4 14 5 15 6 16 7 18 8 17 9 19 10 9 11 7 12
REMARK SMILES IDX 6 13 8 14 5 15 4 16 2 17 3 18 1 19
REMARK H PARENT
REMARK Flexibility Score: inf
ROOT
ATOM      1  C   UNL     1      20.363  22.882  26.729  1.00  0.00     0.032 C 
ENDROOT
BRANCH   1   2
ATOM      2  C   UNL     1      21.452  23.529  25.911  1.00  0.00    -0.028 C 
ATOM      3  C   UNL     1      22.434  24.306  26.423  1.00  0.00    -0.077 C 
ATOM      4  C   UNL     1      22.505  24.634  27.895  1.00  0.00     0.039 C 
BRANCH   3   5
ATOM      5  C   UNL     1      23.484  24.867  25.489  1.00  0.00     0.034 C 
BRANCH   5   6
ATOM      6  C   UNL     1      23.081  24.656  24.024  1.00  0.00     0.032 C 
BRANCH   6   7
ATOM      7  C   UNL     1      24.092  23.798  23.307  1.00  0.00    -0.028 C 
ATOM      8  C   UNL     1      24.903  21.953  21.900  1.00  0.00     0.039 C 
ATOM      9  C   UNL     1      23.781  22.738  22.528  1.00  0.00    -0.080 C 
ATOM     10  C   UNL     1      22.349  22.339  22.254  1.00  0.00     0.039 C 
ENDBRANCH   6   7
ENDBRANCH   5   6
ENDBRANCH   3   5
ENDBRANCH   1   2
BRANCH   1  11
ATOM     11  C   UNL     1      19.023  22.929  25.987  1.00  0.00     0.034 C 
BRANCH  11  12
ATOM     12  C   UNL     1      17.908  23.347  26.921  1.00  0.00    -0.077 C 
ATOM     13  C   UNL     1      17.207  22.393  27.575  1.00  0.00    -0.028 C 
ATOM     14  C   UNL     1      17.621  24.818  27.109  1.00  0.00     0.039 C 
BRANCH  13  15
ATOM     15  C   UNL     1      16.031  22.665  28.482  1.00  0.00     0.035 C 
BRANCH  15  16
ATOM     16  C   UNL     1      16.243  22.071  29.880  1.00  0.00     0.079 C 
BRANCH  16  17
ATOM     17  C   UNL     1      16.194  23.133  30.948  1.00  0.00     0.130 C 
ATOM     18  O   UNL     1      15.696  22.876  32.034  1.00  0.00    -0.300 OA
ATOM     19  C   UNL     1      16.778  24.493  30.712  1.00  0.00     0.087 C 
ENDBRANCH  16  17
ENDBRANCH  15  16
ENDBRANCH  13  15
ENDBRANCH  11  12
ENDBRANCH   1  11
TORSDOF 9
ENDMDL
MODEL 8
REMARK VINA RESULT:    -5.806     11.713     14.288
REMARK INTER + INTRA:         -10.076
REMARK INTER:                  -8.838
REMARK INTRA:                  -1.237
REMARK UNBOUND:                -1.214
REMARK SMILES CC(=O)CCC=C(C)CCC=C(C)CCC=C(C)C
REMARK SMILES IDX 10 1 11 2 12 3 13 4 14 5 15 6 16 7 18 8 17 9 19 10 9 11 7 12
REMARK SMILES IDX 6 13 8 14 5 15 4 16 2 17 3 18 1 19
REMARK H PARENT
REMARK Flexibility Score: inf
ROOT
ATOM      1  C   UNL     1      21.751  25.790  28.277  1.00  0.00     0.032 C 
ENDROOT
BRANCH   1   2
ATOM      2  C   UNL     1      20.264  25.774  28.525  1.00  0.00    -0.028 C 
ATOM      3  C   UNL     1      19.452  26.845  28.373  1.00  0.00    -0.077 C 
ATOM      4  C   UNL     1      19.985  28.198  27.966  1.00  0.00     0.039 C 
BRANCH   3   5
ATOM      5  C   UNL     1      17.969  26.680  28.627  1.00  0.00     0.034 C 
BRANCH   5   6
ATOM      6  C   UNL     1      17.297  25.930  27.470  1.00  0.00     0.032 C 
BRANCH   6   7
ATOM      7  C   UNL     1      16.934  24.525  27.880  1.00  0.00    -0.028 C 
ATOM      8  C   UNL     1      17.009  22.069  27.849  1.00  0.00     0.039 C 
ATOM      9  C   UNL     1      17.498  23.409  27.365  1.00  0.00    -0.080 C 
ATOM     10  C   UNL     1      18.611  23.472  26.345  1.00  0.00     0.039 C 
ENDBRANCH   6   7
ENDBRANCH   5   6
ENDBRANCH   3   5
ENDBRANCH   1   2
BRANCH   1  11
ATOM     11  C   UNL     1      22.173  24.590  27.420  1.00  0.00     0.034 C 
BRANCH  11  12
ATOM     12  C   UNL     1      22.898  25.051  26.174  1.00  0.00    -0.077 C 
ATOM     13  C   UNL     1      22.933  24.235  25.096  1.00  0.00    -0.028 C 
ATOM     14  C   UNL     1      23.547  26.415  26.164  1.00  0.00     0.039 C 
BRANCH  13  15
ATOM     15  C   UNL     1      23.674  24.539  23.816  1.00  0.00     0.035 C 
BRANCH  15  16
ATOM     16  C   UNL     1      24.548  23.360  23.371  1.00  0.00     0.079 C 
BRANCH  16  17
ATOM     17  C   UNL     1      23.787  22.409  22.483  1.00  0.00     0.130 C 
ATOM     18  O   UNL     1      22.615  22.632  22.222  1.00  0.00    -0.300 OA
ATOM     19  C   UNL     1      24.457  21.209  21.884  1.00  0.00     0.087 C 
ENDBRANCH  16  17
ENDBRANCH  15  16
ENDBRANCH  13  15
ENDBRANCH  11  12
ENDBRANCH   1  11
TORSDOF 9
ENDMDL
MODEL 9
REMARK VINA RESULT:    -5.798     12.117     13.843
REMARK INTER + INTRA:         -10.063
REMARK INTER:                  -8.880
REMARK INTRA:                  -1.183
REMARK UNBOUND:                -1.214
REMARK SMILES CC(=O)CCC=C(C)CCC=C(C)CCC=C(C)C
REMARK SMILES IDX 10 1 11 2 12 3 13 4 14 5 15 6 16 7 18 8 17 9 19 10 9 11 7 12
REMARK SMILES IDX 6 13 8 14 5 15 4 16 2 17 3 18 1 19
REMARK H PARENT
REMARK Flexibility Score: inf
ROOT
ATOM      1  C   UNL     1      21.143  25.705  28.572  1.00  0.00     0.032 C 
ENDROOT
BRANCH   1   2
ATOM      2  C   UNL     1      22.315  25.528  27.640  1.00  0.00    -0.028 C 
ATOM      3  C   UNL     1      22.372  24.608  26.649  1.00  0.00    -0.077 C 
ATOM      4  C   UNL     1      21.251  23.625  26.408  1.00  0.00     0.039 C 
BRANCH   3   5
ATOM      5  C   UNL     1      23.600  24.561  25.765  1.00  0.00     0.034 C 
BRANCH   5   6
ATOM      6  C   UNL     1      23.213  24.693  24.287  1.00  0.00     0.032 C 
BRANCH   6   7
ATOM      7  C   UNL     1      24.069  23.799  23.426  1.00  0.00    -0.028 C 
ATOM      8  C   UNL     1      24.572  21.970  21.863  1.00  0.00     0.039 C 
ATOM      9  C   UNL     1      23.591  22.805  22.645  1.00  0.00    -0.080 C 
ATOM     10  C   UNL     1      22.111  22.527  22.518  1.00  0.00     0.039 C 
ENDBRANCH   6   7
ENDBRANCH   5   6
ENDBRANCH   3   5
ENDBRANCH   1   2
BRANCH   1  11
ATOM     11  C   UNL     1      20.261  26.875  28.123  1.00  0.00     0.034 C 
BRANCH  11  12
ATOM     12  C   UNL     1      18.795  26.540  28.300  1.00  0.00    -0.077 C 
ATOM     13  C   UNL     1      18.315  25.394  27.764  1.00  0.00    -0.028 C 
ATOM     14  C   UNL     1      17.916  27.484  29.085  1.00  0.00     0.039 C 
BRANCH  13  15
ATOM     15  C   UNL     1      16.867  24.970  27.808  1.00  0.00     0.035 C 
BRANCH  15  16
ATOM     16  C   UNL     1      16.586  24.028  28.985  1.00  0.00     0.079 C 
BRANCH  16  17
ATOM     17  C   UNL     1      16.459  22.596  28.532  1.00  0.00     0.130 C 
ATOM     18  O   UNL     1      16.028  21.754  29.305  1.00  0.00    -0.300 OA
ATOM     19  C   UNL     1      16.821  22.194  27.134  1.00  0.00     0.087 C 
ENDBRANCH  16  17
ENDBRANCH  15  16
ENDBRANCH  13  15
ENDBRANCH  11  12
ENDBRANCH   1  11
TORSDOF 9
ENDMDL
