MODEL 1
REMARK VINA RESULT:    -5.325      0.000      0.000
REMARK INTER + INTRA:          -6.007
REMARK INTER:                  -5.791
REMARK INTRA:                  -0.216
REMARK UNBOUND:                -0.216
REMARK SMILES O=C([O-])c1ccccc1O
REMARK SMILES IDX 4 1 9 2 5 3 8 4 6 5 7 6 2 7 1 8 3 9 10 10
REMARK H PARENT 10 11
REMARK Flexibility Score: inf
ROOT
ATOM      1  C   UNL     1     -33.717  45.048  40.917  1.00  0.00     0.039 A 
ATOM      2  C   UNL     1     -33.042  45.470  42.091  1.00  0.00     0.124 A 
ATOM      3  C   UNL     1     -33.477  45.733  39.712  1.00  0.00     0.014 A 
ATOM      4  C   UNL     1     -32.204  46.592  42.042  1.00  0.00     0.047 A 
ATOM      5  C   UNL     1     -32.623  46.837  39.676  1.00  0.00     0.001 A 
ATOM      6  C   UNL     1     -31.995  47.272  40.842  1.00  0.00     0.004 A 
ENDROOT
BRANCH   1   7
ATOM      7  C   UNL     1     -34.693  43.935  40.909  1.00  0.00     0.075 C 
ATOM      8  O   UNL     1     -35.070  43.398  41.983  1.00  0.00    -0.545 OA
ATOM      9  O   UNL     1     -35.258  43.515  39.711  1.00  0.00    -0.545 OA
ENDBRANCH   1   7
BRANCH   2  10
ATOM     10  O   UNL     1     -33.146  44.792  43.308  1.00  0.00    -0.507 OA
ATOM     11  H   UNL     1     -32.424  44.185  43.672  1.00  0.00     0.293 HD
ENDBRANCH   2  10
TORSDOF 2
ENDMDL
MODEL 2
REMARK VINA RESULT:    -4.970      1.991      3.390
REMARK INTER + INTRA:          -5.622
REMARK INTER:                  -5.378
REMARK INTRA:                  -0.243
REMARK UNBOUND:                -0.216
REMARK SMILES O=C([O-])c1ccccc1O
REMARK SMILES IDX 4 1 9 2 5 3 8 4 6 5 7 6 2 7 1 8 3 9 10 10
REMARK H PARENT 10 11
REMARK Flexibility Score: inf
ROOT
ATOM      1  C   UNL     1     -33.277  45.641  40.971  1.00  0.00     0.039 A 
ATOM      2  C   UNL     1     -33.306  44.837  42.140  1.00  0.00     0.124 A 
ATOM      3  C   UNL     1     -34.178  45.359  39.928  1.00  0.00     0.014 A 
ATOM      4  C   UNL     1     -34.182  43.745  42.206  1.00  0.00     0.047 A 
ATOM      5  C   UNL     1     -35.058  44.279  40.020  1.00  0.00     0.001 A 
ATOM      6  C   UNL     1     -35.054  43.467  41.152  1.00  0.00     0.004 A 
ENDROOT
BRANCH   1   7
ATOM      7  C   UNL     1     -32.314  46.749  40.785  1.00  0.00     0.075 C 
ATOM      8  O   UNL     1     -31.927  47.443  41.762  1.00  0.00    -0.545 OA
ATOM      9  O   UNL     1     -31.769  46.993  39.529  1.00  0.00    -0.545 OA
ENDBRANCH   1   7
BRANCH   2  10
ATOM     10  O   UNL     1     -32.516  45.102  43.260  1.00  0.00    -0.507 OA
ATOM     11  H   UNL     1     -32.358  44.434  44.002  1.00  0.00     0.293 HD
ENDBRANCH   2  10
TORSDOF 2
ENDMDL
MODEL 3
REMARK VINA RESULT:    -4.905      6.482      7.744
REMARK INTER + INTRA:          -5.551
REMARK INTER:                  -5.304
REMARK INTRA:                  -0.247
REMARK UNBOUND:                -0.216
REMARK SMILES O=C([O-])c1ccccc1O
REMARK SMILES IDX 4 1 9 2 5 3 8 4 6 5 7 6 2 7 1 8 3 9 10 10
REMARK H PARENT 10 11
REMARK Flexibility Score: inf
ROOT
ATOM      1  C   UNL     1     -32.108  51.846  38.415  1.00  0.00     0.039 A 
ATOM      2  C   UNL     1     -32.708  50.703  39.003  1.00  0.00     0.124 A 
ATOM      3  C   UNL     1     -32.935  52.847  37.875  1.00  0.00     0.014 A 
ATOM      4  C   UNL     1     -34.102  50.564  38.978  1.00  0.00     0.047 A 
ATOM      5  C   UNL     1     -34.323  52.702  37.877  1.00  0.00     0.001 A 
ATOM      6  C   UNL     1     -34.906  51.558  38.418  1.00  0.00     0.004 A 
ENDROOT
BRANCH   1   7
ATOM      7  C   UNL     1     -30.641  52.018  38.315  1.00  0.00     0.075 C 
ATOM      8  O   UNL     1     -29.879  51.024  38.185  1.00  0.00    -0.545 OA
ATOM      9  O   UNL     1     -30.091  53.295  38.293  1.00  0.00    -0.545 OA
ENDBRANCH   1   7
BRANCH   2  10
ATOM     10  O   UNL     1     -31.970  49.707  39.646  1.00  0.00    -0.507 OA
ATOM     11  H   UNL     1     -31.549  48.924  39.163  1.00  0.00     0.293 HD
ENDBRANCH   2  10
TORSDOF 2
ENDMDL
MODEL 4
REMARK VINA RESULT:    -4.902      2.695      3.621
REMARK INTER + INTRA:          -5.548
REMARK INTER:                  -5.296
REMARK INTRA:                  -0.252
REMARK UNBOUND:                -0.216
REMARK SMILES O=C([O-])c1ccccc1O
REMARK SMILES IDX 4 1 9 2 5 3 8 4 6 5 7 6 2 7 1 8 3 9 10 10
REMARK H PARENT 10 11
REMARK Flexibility Score: inf
ROOT
ATOM      1  C   UNL     1     -32.816  46.471  40.324  1.00  0.00     0.039 A 
ATOM      2  C   UNL     1     -32.394  46.748  41.650  1.00  0.00     0.124 A 
ATOM      3  C   UNL     1     -33.608  45.333  40.086  1.00  0.00     0.014 A 
ATOM      4  C   UNL     1     -32.719  45.856  42.681  1.00  0.00     0.047 A 
ATOM      5  C   UNL     1     -33.941  44.466  41.129  1.00  0.00     0.001 A 
ATOM      6  C   UNL     1     -33.489  44.721  42.422  1.00  0.00     0.004 A 
ENDROOT
BRANCH   1   7
ATOM      7  C   UNL     1     -32.429  47.311  39.168  1.00  0.00     0.075 C 
ATOM      8  O   UNL     1     -32.122  46.791  38.064  1.00  0.00    -0.545 OA
ATOM      9  O   UNL     1     -32.468  48.697  39.272  1.00  0.00    -0.545 OA
ENDBRANCH   1   7
BRANCH   2  10
ATOM     10  O   UNL     1     -31.686  47.903  41.993  1.00  0.00    -0.507 OA
ATOM     11  H   UNL     1     -31.071  47.963  42.793  1.00  0.00     0.293 HD
ENDBRANCH   2  10
TORSDOF 2
ENDMDL
MODEL 5
REMARK VINA RESULT:    -4.779      1.607      2.480
REMARK INTER + INTRA:          -5.414
REMARK INTER:                  -5.198
REMARK INTRA:                  -0.215
REMARK UNBOUND:                -0.216
REMARK SMILES O=C([O-])c1ccccc1O
REMARK SMILES IDX 4 1 9 2 5 3 8 4 6 5 7 6 2 7 1 8 3 9 10 10
REMARK H PARENT 10 11
REMARK Flexibility Score: inf
ROOT
ATOM      1  C   UNL     1     -32.558  45.874  40.718  1.00  0.00     0.039 A 
ATOM      2  C   UNL     1     -32.119  47.222  40.789  1.00  0.00     0.124 A 
ATOM      3  C   UNL     1     -32.637  45.250  39.460  1.00  0.00     0.014 A 
ATOM      4  C   UNL     1     -31.834  47.920  39.608  1.00  0.00     0.047 A 
ATOM      5  C   UNL     1     -32.329  45.954  38.294  1.00  0.00     0.001 A 
ATOM      6  C   UNL     1     -31.938  47.289  38.367  1.00  0.00     0.004 A 
ENDROOT
BRANCH   1   7
ATOM      7  C   UNL     1     -32.973  45.102  41.912  1.00  0.00     0.075 C 
ATOM      8  O   UNL     1     -32.736  45.528  43.072  1.00  0.00    -0.545 OA
ATOM      9  O   UNL     1     -33.694  43.923  41.760  1.00  0.00    -0.545 OA
ENDBRANCH   1   7
BRANCH   2  10
ATOM     10  O   UNL     1     -31.921  47.890  42.000  1.00  0.00    -0.507 OA
ATOM     11  H   UNL     1     -31.012  48.179  42.335  1.00  0.00     0.293 HD
ENDBRANCH   2  10
TORSDOF 2
ENDMDL
MODEL 6
REMARK VINA RESULT:    -4.600      5.125      6.181
REMARK INTER + INTRA:          -5.219
REMARK INTER:                  -4.967
REMARK INTRA:                  -0.252
REMARK UNBOUND:                -0.216
REMARK SMILES O=C([O-])c1ccccc1O
REMARK SMILES IDX 4 1 9 2 5 3 8 4 6 5 7 6 2 7 1 8 3 9 10 10
REMARK H PARENT 10 11
REMARK Flexibility Score: inf
ROOT
ATOM      1  C   UNL     1     -31.846  50.064  38.632  1.00  0.00     0.039 A 
ATOM      2  C   UNL     1     -32.679  51.154  38.995  1.00  0.00     0.124 A 
ATOM      3  C   UNL     1     -30.575  50.329  38.092  1.00  0.00     0.014 A 
ATOM      4  C   UNL     1     -32.248  52.465  38.752  1.00  0.00     0.047 A 
ATOM      5  C   UNL     1     -30.153  51.642  37.875  1.00  0.00     0.001 A 
ATOM      6  C   UNL     1     -30.992  52.708  38.195  1.00  0.00     0.004 A 
ENDROOT
BRANCH   1   7
ATOM      7  C   UNL     1     -32.271  48.652  38.766  1.00  0.00     0.075 C 
ATOM      8  O   UNL     1     -31.998  47.806  37.875  1.00  0.00    -0.545 OA
ATOM      9  O   UNL     1     -32.921  48.228  39.920  1.00  0.00    -0.545 OA
ENDBRANCH   1   7
BRANCH   2  10
ATOM     10  O   UNL     1     -33.915  50.985  39.624  1.00  0.00    -0.507 OA
ATOM     11  H   UNL     1     -34.794  51.268  39.213  1.00  0.00     0.293 HD
ENDBRANCH   2  10
TORSDOF 2
ENDMDL
MODEL 7
REMARK VINA RESULT:    -4.560      5.514      6.514
REMARK INTER + INTRA:          -5.175
REMARK INTER:                  -4.970
REMARK INTRA:                  -0.205
REMARK UNBOUND:                -0.216
REMARK SMILES O=C([O-])c1ccccc1O
REMARK SMILES IDX 4 1 9 2 5 3 8 4 6 5 7 6 2 7 1 8 3 9 10 10
REMARK H PARENT 10 11
REMARK Flexibility Score: inf
ROOT
ATOM      1  C   UNL     1     -32.090  50.730  38.646  1.00  0.00     0.039 A 
ATOM      2  C   UNL     1     -30.887  50.096  38.240  1.00  0.00     0.124 A 
ATOM      3  C   UNL     1     -32.163  52.134  38.616  1.00  0.00     0.014 A 
ATOM      4  C   UNL     1     -29.782  50.878  37.879  1.00  0.00     0.047 A 
ATOM      5  C   UNL     1     -31.058  52.897  38.233  1.00  0.00     0.001 A 
ATOM      6  C   UNL     1     -29.867  52.270  37.875  1.00  0.00     0.004 A 
ENDROOT
BRANCH   1   7
ATOM      7  C   UNL     1     -33.267  49.976  39.135  1.00  0.00     0.075 C 
ATOM      8  O   UNL     1     -34.364  50.555  39.346  1.00  0.00    -0.545 OA
ATOM      9  O   UNL     1     -33.189  48.598  39.302  1.00  0.00    -0.545 OA
ENDBRANCH   1   7
BRANCH   2  10
ATOM     10  O   UNL     1     -30.757  48.708  38.148  1.00  0.00    -0.507 OA
ATOM     11  H   UNL     1     -30.133  48.249  37.499  1.00  0.00     0.293 HD
ENDBRANCH   2  10
TORSDOF 2
ENDMDL
MODEL 8
REMARK VINA RESULT:    -4.355      2.275      3.332
REMARK INTER + INTRA:          -4.953
REMARK INTER:                  -4.742
REMARK INTRA:                  -0.210
REMARK UNBOUND:                -0.216
REMARK SMILES O=C([O-])c1ccccc1O
REMARK SMILES IDX 4 1 9 2 5 3 8 4 6 5 7 6 2 7 1 8 3 9 10 10
REMARK H PARENT 10 11
REMARK Flexibility Score: inf
ROOT
ATOM      1  C   UNL     1     -32.768  46.737  39.789  1.00  0.00     0.039 A 
ATOM      2  C   UNL     1     -32.005  46.600  38.601  1.00  0.00     0.124 A 
ATOM      3  C   UNL     1     -33.196  48.019  40.179  1.00  0.00     0.014 A 
ATOM      4  C   UNL     1     -31.641  47.744  37.877  1.00  0.00     0.047 A 
ATOM      5  C   UNL     1     -32.842  49.146  39.434  1.00  0.00     0.001 A 
ATOM      6  C   UNL     1     -32.057  49.009  38.291  1.00  0.00     0.004 A 
ENDROOT
BRANCH   1   7
ATOM      7  C   UNL     1     -33.108  45.589  40.660  1.00  0.00     0.075 C 
ATOM      8  O   UNL     1     -32.207  44.855  41.145  1.00  0.00    -0.545 OA
ATOM      9  O   UNL     1     -34.432  45.349  41.009  1.00  0.00    -0.545 OA
ENDBRANCH   1   7
BRANCH   2  10
ATOM     10  O   UNL     1     -31.619  45.360  38.088  1.00  0.00    -0.507 OA
ATOM     11  H   UNL     1     -31.080  44.683  38.612  1.00  0.00     0.293 HD
ENDBRANCH   2  10
TORSDOF 2
ENDMDL
