MODEL 1
REMARK VINA RESULT:    -3.560      0.000      0.000
REMARK INTER + INTRA:          -4.218
REMARK INTER:                  -4.184
REMARK INTRA:                  -0.034
REMARK UNBOUND:                -0.034
REMARK SMILES O=C([O-])CCC(=O)[O-]
REMARK SMILES IDX 4 1 2 2 1 3 3 4 5 5 6 6 7 7 8 8
REMARK H PARENT
REMARK Flexibility Score: inf
ROOT
ATOM      1  C   UNL     1      41.824  12.152 -36.081  1.00  0.00     0.059 C 
ENDROOT
BRANCH   1   2
ATOM      2  C   UNL     1      43.282  12.083 -35.743  1.00  0.00     0.042 C 
ATOM      3  O   UNL     1      43.666  12.249 -34.556  1.00  0.00    -0.550 OA
ATOM      4  O   UNL     1      44.219  11.875 -36.748  1.00  0.00    -0.550 OA
ENDBRANCH   1   2
BRANCH   1   5
ATOM      5  C   UNL     1      41.321  13.599 -36.116  1.00  0.00     0.059 C 
BRANCH   5   6
ATOM      6  C   UNL     1      39.851  13.679 -35.836  1.00  0.00     0.042 C 
ATOM      7  O   UNL     1      39.350  14.738 -35.375  1.00  0.00    -0.550 OA
ATOM      8  O   UNL     1      39.042  12.568 -36.045  1.00  0.00    -0.550 OA
ENDBRANCH   5   6
ENDBRANCH   1   5
TORSDOF 3
ENDMDL
MODEL 2
REMARK VINA RESULT:    -3.532      0.038      4.182
REMARK INTER + INTRA:          -4.185
REMARK INTER:                  -4.151
REMARK INTRA:                  -0.034
REMARK UNBOUND:                -0.034
REMARK SMILES O=C([O-])CCC(=O)[O-]
REMARK SMILES IDX 4 1 2 2 1 3 3 4 5 5 6 6 7 7 8 8
REMARK H PARENT
REMARK Flexibility Score: inf
ROOT
ATOM      1  C   UNL     1      41.314  13.619 -36.090  1.00  0.00     0.059 C 
ENDROOT
BRANCH   1   2
ATOM      2  C   UNL     1      39.836  13.685 -35.854  1.00  0.00     0.042 C 
ATOM      3  O   UNL     1      39.315  14.728 -35.379  1.00  0.00    -0.550 OA
ATOM      4  O   UNL     1      39.039  12.579 -36.122  1.00  0.00    -0.550 OA
ENDBRANCH   1   2
BRANCH   1   5
ATOM      5  C   UNL     1      41.817  12.172 -36.110  1.00  0.00     0.059 C 
BRANCH   5   6
ATOM      6  C   UNL     1      43.272  12.089 -35.759  1.00  0.00     0.042 C 
ATOM      7  O   UNL     1      43.647  12.250 -34.567  1.00  0.00    -0.550 OA
ATOM      8  O   UNL     1      44.216  11.875 -36.756  1.00  0.00    -0.550 OA
ENDBRANCH   5   6
ENDBRANCH   1   5
TORSDOF 3
ENDMDL
MODEL 3
REMARK VINA RESULT:    -3.334      2.573      3.463
REMARK INTER + INTRA:          -3.953
REMARK INTER:                  -3.857
REMARK INTRA:                  -0.096
REMARK UNBOUND:                -0.034
REMARK SMILES O=C([O-])CCC(=O)[O-]
REMARK SMILES IDX 4 1 2 2 1 3 3 4 5 5 6 6 7 7 8 8
REMARK H PARENT
REMARK Flexibility Score: inf
ROOT
ATOM      1  C   UNL     1      38.882  14.501 -35.479  1.00  0.00     0.059 C 
ENDROOT
BRANCH   1   2
ATOM      2  C   UNL     1      40.302  14.163 -35.820  1.00  0.00     0.042 C 
ATOM      3  O   UNL     1      41.116  15.075 -36.122  1.00  0.00    -0.550 OA
ATOM      4  O   UNL     1      40.714  12.837 -35.841  1.00  0.00    -0.550 OA
ENDBRANCH   1   2
BRANCH   1   5
ATOM      5  C   UNL     1      37.918  14.066 -36.588  1.00  0.00     0.059 C 
BRANCH   5   6
ATOM      6  C   UNL     1      37.216  12.789 -36.237  1.00  0.00     0.042 C 
ATOM      7  O   UNL     1      36.946  12.522 -35.037  1.00  0.00    -0.550 OA
ATOM      8  O   UNL     1      36.897  11.876 -37.235  1.00  0.00    -0.550 OA
ENDBRANCH   5   6
ENDBRANCH   1   5
TORSDOF 3
ENDMDL
MODEL 4
REMARK VINA RESULT:    -3.315      2.561      4.756
REMARK INTER + INTRA:          -3.930
REMARK INTER:                  -3.837
REMARK INTRA:                  -0.092
REMARK UNBOUND:                -0.034
REMARK SMILES O=C([O-])CCC(=O)[O-]
REMARK SMILES IDX 4 1 2 2 1 3 3 4 5 5 6 6 7 7 8 8
REMARK H PARENT
REMARK Flexibility Score: inf
ROOT
ATOM      1  C   UNL     1      37.906  13.985 -36.601  1.00  0.00     0.059 C 
ENDROOT
BRANCH   1   2
ATOM      2  C   UNL     1      37.207  12.723 -36.197  1.00  0.00     0.042 C 
ATOM      3  O   UNL     1      36.875  11.875 -37.068  1.00  0.00    -0.550 OA
ATOM      4  O   UNL     1      36.886  12.502 -34.864  1.00  0.00    -0.550 OA
ENDBRANCH   1   2
BRANCH   1   5
ATOM      5  C   UNL     1      38.870  14.469 -35.512  1.00  0.00     0.059 C 
BRANCH   5   6
ATOM      6  C   UNL     1      40.289  14.111 -35.833  1.00  0.00     0.042 C 
ATOM      7  O   UNL     1      41.101  15.002 -36.195  1.00  0.00    -0.550 OA
ATOM      8  O   UNL     1      40.703  12.786 -35.769  1.00  0.00    -0.550 OA
ENDBRANCH   5   6
ENDBRANCH   1   5
TORSDOF 3
ENDMDL
MODEL 5
REMARK VINA RESULT:    -3.283      4.538      6.637
REMARK INTER + INTRA:          -3.893
REMARK INTER:                  -3.794
REMARK INTRA:                  -0.098
REMARK UNBOUND:                -0.034
REMARK SMILES O=C([O-])CCC(=O)[O-]
REMARK SMILES IDX 4 1 2 2 1 3 3 4 5 5 6 6 7 7 8 8
REMARK H PARENT
REMARK Flexibility Score: inf
ROOT
ATOM      1  C   UNL     1      46.025  13.031 -32.593  1.00  0.00     0.059 C 
ENDROOT
BRANCH   1   2
ATOM      2  C   UNL     1      44.743  12.626 -33.254  1.00  0.00     0.042 C 
ATOM      3  O   UNL     1      43.767  12.235 -32.560  1.00  0.00    -0.550 OA
ATOM      4  O   UNL     1      44.639  12.644 -34.639  1.00  0.00    -0.550 OA
ENDBRANCH   1   2
BRANCH   1   5
ATOM      5  C   UNL     1      46.458  12.013 -31.533  1.00  0.00     0.059 C 
BRANCH   5   6
ATOM      6  C   UNL     1      46.213  12.524 -30.145  1.00  0.00     0.042 C 
ATOM      7  O   UNL     1      46.627  11.875 -29.148  1.00  0.00    -0.550 OA
ATOM      8  O   UNL     1      45.492  13.697 -29.954  1.00  0.00    -0.550 OA
ENDBRANCH   5   6
ENDBRANCH   1   5
TORSDOF 3
ENDMDL
MODEL 6
REMARK VINA RESULT:    -3.077     20.432     21.127
REMARK INTER + INTRA:          -3.651
REMARK INTER:                  -3.613
REMARK INTRA:                  -0.038
REMARK UNBOUND:                -0.034
REMARK SMILES O=C([O-])CCC(=O)[O-]
REMARK SMILES IDX 4 1 2 2 1 3 3 4 5 5 6 6 7 7 8 8
REMARK H PARENT
REMARK Flexibility Score: inf
ROOT
ATOM      1  C   UNL     1      56.011  28.514 -35.800  1.00  0.00     0.059 C 
ENDROOT
BRANCH   1   2
ATOM      2  C   UNL     1      55.624  27.308 -35.000  1.00  0.00     0.042 C 
ATOM      3  O   UNL     1      55.675  27.338 -33.742  1.00  0.00    -0.550 OA
ATOM      4  O   UNL     1      55.244  26.139 -35.646  1.00  0.00    -0.550 OA
ENDBRANCH   1   2
BRANCH   1   5
ATOM      5  C   UNL     1      55.255  28.574 -37.132  1.00  0.00     0.059 C 
BRANCH   5   6
ATOM      6  C   UNL     1      55.205  29.970 -37.675  1.00  0.00     0.042 C 
ATOM      7  O   UNL     1      55.222  30.956 -36.893  1.00  0.00    -0.550 OA
ATOM      8  O   UNL     1      55.099  30.178 -39.045  1.00  0.00    -0.550 OA
ENDBRANCH   5   6
ENDBRANCH   1   5
TORSDOF 3
ENDMDL
MODEL 7
REMARK VINA RESULT:    -3.072     20.466     21.283
REMARK INTER + INTRA:          -3.644
REMARK INTER:                  -3.606
REMARK INTRA:                  -0.038
REMARK UNBOUND:                -0.034
REMARK SMILES O=C([O-])CCC(=O)[O-]
REMARK SMILES IDX 4 1 2 2 1 3 3 4 5 5 6 6 7 7 8 8
REMARK H PARENT
REMARK Flexibility Score: inf
ROOT
ATOM      1  C   UNL     1      55.237  28.642 -37.152  1.00  0.00     0.059 C 
ENDROOT
BRANCH   1   2
ATOM      2  C   UNL     1      55.168  30.055 -37.644  1.00  0.00     0.042 C 
ATOM      3  O   UNL     1      55.135  31.011 -36.825  1.00  0.00    -0.550 OA
ATOM      4  O   UNL     1      55.100  30.314 -39.007  1.00  0.00    -0.550 OA
ENDBRANCH   1   2
BRANCH   1   5
ATOM      5  C   UNL     1      56.024  28.539 -35.842  1.00  0.00     0.059 C 
BRANCH   5   6
ATOM      6  C   UNL     1      55.626  27.328 -35.053  1.00  0.00     0.042 C 
ATOM      7  O   UNL     1      55.653  27.354 -33.795  1.00  0.00    -0.550 OA
ATOM      8  O   UNL     1      55.263  26.159 -35.711  1.00  0.00    -0.550 OA
ENDBRANCH   5   6
ENDBRANCH   1   5
TORSDOF 3
ENDMDL
MODEL 8
REMARK VINA RESULT:    -3.022      2.422      3.637
REMARK INTER + INTRA:          -3.586
REMARK INTER:                  -3.526
REMARK INTRA:                  -0.060
REMARK UNBOUND:                -0.034
REMARK SMILES O=C([O-])CCC(=O)[O-]
REMARK SMILES IDX 4 1 2 2 1 3 3 4 5 5 6 6 7 7 8 8
REMARK H PARENT
REMARK Flexibility Score: inf
ROOT
ATOM      1  C   UNL     1      38.876  13.771 -36.186  1.00  0.00     0.059 C 
ENDROOT
BRANCH   1   2
ATOM      2  C   UNL     1      40.333  13.965 -35.896  1.00  0.00     0.042 C 
ATOM      3  O   UNL     1      41.089  12.968 -35.750  1.00  0.00    -0.550 OA
ATOM      4  O   UNL     1      40.848  15.246 -35.749  1.00  0.00    -0.550 OA
ENDBRANCH   1   2
BRANCH   1   5
ATOM      5  C   UNL     1      38.000  14.628 -35.266  1.00  0.00     0.059 C 
BRANCH   5   6
ATOM      6  C   UNL     1      37.232  13.785 -34.294  1.00  0.00     0.042 C 
ATOM      7  O   UNL     1      36.875  12.620 -34.609  1.00  0.00    -0.550 OA
ATOM      8  O   UNL     1      36.875  14.304 -33.055  1.00  0.00    -0.550 OA
ENDBRANCH   5   6
ENDBRANCH   1   5
TORSDOF 3
ENDMDL
MODEL 9
REMARK VINA RESULT:    -2.304      2.443      4.903
REMARK INTER + INTRA:          -2.741
REMARK INTER:                  -2.680
REMARK INTRA:                  -0.062
REMARK UNBOUND:                -0.034
REMARK SMILES O=C([O-])CCC(=O)[O-]
REMARK SMILES IDX 4 1 2 2 1 3 3 4 5 5 6 6 7 7 8 8
REMARK H PARENT
REMARK Flexibility Score: inf
ROOT
ATOM      1  C   UNL     1      38.078  14.574 -35.115  1.00  0.00     0.059 C 
ENDROOT
BRANCH   1   2
ATOM      2  C   UNL     1      37.236  13.572 -34.384  1.00  0.00     0.042 C 
ATOM      3  O   UNL     1      36.875  13.791 -33.198  1.00  0.00    -0.550 OA
ATOM      4  O   UNL     1      36.885  12.378 -35.001  1.00  0.00    -0.550 OA
ENDBRANCH   1   2
BRANCH   1   5
ATOM      5  C   UNL     1      38.877  13.920 -36.247  1.00  0.00     0.059 C 
BRANCH   5   6
ATOM      6  C   UNL     1      40.351  13.964 -35.978  1.00  0.00     0.042 C 
ATOM      7  O   UNL     1      40.993  12.898 -35.788  1.00  0.00    -0.550 OA
ATOM      8  O   UNL     1      41.006  15.187 -35.900  1.00  0.00    -0.550 OA
ENDBRANCH   5   6
ENDBRANCH   1   5
TORSDOF 3
ENDMDL
