MODEL 1
REMARK VINA RESULT:    50.345      0.000      0.000
REMARK INTER + INTRA:          54.760
REMARK INTER:                  54.760
REMARK INTRA:                   0.000
REMARK UNBOUND:                 0.000
REMARK SMILES Cc1cc(O)c2c(c1)C(=O)c1cc(O)cc(O)c1C2=O
REMARK SMILES IDX 1 1 2 2 8 3 7 4 6 5 4 6 3 7 19 8 20 9 18 10 11 11 9 12 10 13
REMARK SMILES IDX 12 14 13 15 15 16 16 17 5 18 17 20 14 22
REMARK H PARENT 5 19 17 21 14 23
REMARK Flexibility Score: inf
ROOT
ATOM      1  C   UNL     1       6.480   8.887  15.723  1.00  0.00     0.044 C 
ATOM      2  C   UNL     1       7.956   8.662  15.871  1.00  0.00    -0.047 A 
ATOM      3  C   UNL     1       8.775   9.675  16.381  1.00  0.00     0.016 A 
ATOM      4  C   UNL     1      10.152   9.460  16.564  1.00  0.00     0.038 A 
ATOM      5  C   UNL     1      10.712   8.200  16.257  1.00  0.00     0.076 A 
ATOM      6  C   UNL     1       9.886   7.191  15.698  1.00  0.00     0.127 A 
ATOM      7  C   UNL     1       8.516   7.423  15.543  1.00  0.00     0.050 A 
ATOM      8  C   UNL     1      12.139   7.964  16.603  1.00  0.00     0.201 C 
ATOM      9  O   UNL     1      12.529   6.803  16.897  1.00  0.00    -0.288 OA
ATOM     10  C   UNL     1      13.055   9.120  16.784  1.00  0.00     0.076 A 
ATOM     11  C   UNL     1      12.489  10.378  17.091  1.00  0.00     0.041 A 
ATOM     12  C   UNL     1      11.017  10.549  17.075  1.00  0.00     0.194 C 
ATOM     13  O   UNL     1      10.503  11.631  17.472  1.00  0.00    -0.289 OA
ATOM     14  C   UNL     1      13.325  11.463  17.405  1.00  0.00     0.059 A 
ATOM     15  C   UNL     1      14.715  11.312  17.402  1.00  0.00     0.120 A 
ATOM     16  C   UNL     1      15.277  10.083  17.060  1.00  0.00     0.093 A 
ATOM     17  C   UNL     1      14.467   8.993  16.725  1.00  0.00     0.131 A 
ENDROOT
BRANCH   6  18
ATOM     18  O   UNL     1      10.385   5.964  15.254  1.00  0.00    -0.507 OA
ATOM     19  H   UNL     1      11.360   5.704  15.315  1.00  0.00     0.293 HD
ENDBRANCH   6  18
BRANCH  17  20
ATOM     20  O   UNL     1      15.103   7.822  16.305  1.00  0.00    -0.507 OA
ATOM     21  H   UNL     1      16.104   7.687  16.338  1.00  0.00     0.293 HD
ENDBRANCH  17  20
BRANCH  15  22
ATOM     22  O   UNL     1      15.546  12.381  17.725  1.00  0.00    -0.508 OA
ATOM     23  H   UNL     1      16.544  12.348  17.555  1.00  0.00     0.293 HD
ENDBRANCH  15  22
TORSDOF 3
ENDMDL
MODEL 2
REMARK VINA RESULT:    51.431      2.013      5.463
REMARK INTER + INTRA:          55.941
REMARK INTER:                  55.941
REMARK INTRA:                   0.000
REMARK UNBOUND:                 0.000
REMARK SMILES Cc1cc(O)c2c(c1)C(=O)c1cc(O)cc(O)c1C2=O
REMARK SMILES IDX 1 1 2 2 8 3 7 4 6 5 4 6 3 7 19 8 20 9 18 10 11 11 9 12 10 13
REMARK SMILES IDX 12 14 13 15 15 16 16 17 5 18 17 20 14 22
REMARK H PARENT 5 19 17 21 14 23
REMARK Flexibility Score: inf
ROOT
ATOM      1  C   UNL     1      15.219  14.265  16.870  1.00  0.00     0.044 C 
ATOM      2  C   UNL     1      14.830  12.816  16.868  1.00  0.00    -0.047 A 
ATOM      3  C   UNL     1      13.507  12.443  17.124  1.00  0.00     0.016 A 
ATOM      4  C   UNL     1      13.123  11.091  17.083  1.00  0.00     0.038 A 
ATOM      5  C   UNL     1      14.074  10.100  16.752  1.00  0.00     0.076 A 
ATOM      6  C   UNL     1      15.424  10.480  16.538  1.00  0.00     0.127 A 
ATOM      7  C   UNL     1      15.778  11.832  16.566  1.00  0.00     0.050 A 
ATOM      8  C   UNL     1      13.598   8.703  16.573  1.00  0.00     0.201 C 
ATOM      9  O   UNL     1      14.193   7.936  15.770  1.00  0.00    -0.288 OA
ATOM     10  C   UNL     1      12.318   8.275  17.194  1.00  0.00     0.076 A 
ATOM     11  C   UNL     1      11.370   9.269  17.523  1.00  0.00     0.041 A 
ATOM     12  C   UNL     1      11.725  10.702  17.387  1.00  0.00     0.194 C 
ATOM     13  O   UNL     1      10.844  11.590  17.556  1.00  0.00    -0.289 OA
ATOM     14  C   UNL     1      10.096   8.896  17.983  1.00  0.00     0.059 A 
ATOM     15  C   UNL     1       9.763   7.547  18.132  1.00  0.00     0.120 A 
ATOM     16  C   UNL     1      10.710   6.564  17.847  1.00  0.00     0.093 A 
ATOM     17  C   UNL     1      11.991   6.910  17.407  1.00  0.00     0.131 A 
ENDROOT
BRANCH   6  18
ATOM     18  O   UNL     1      16.446   9.552  16.327  1.00  0.00    -0.507 OA
ATOM     19  H   UNL     1      16.902   9.415  15.435  1.00  0.00     0.293 HD
ENDBRANCH   6  18
BRANCH  17  20
ATOM     20  O   UNL     1      12.913   5.876  17.229  1.00  0.00    -0.507 OA
ATOM     21  H   UNL     1      12.859   4.990  17.712  1.00  0.00     0.293 HD
ENDBRANCH  17  20
BRANCH  15  22
ATOM     22  O   UNL     1       8.497   7.173  18.575  1.00  0.00    -0.508 OA
ATOM     23  H   UNL     1       7.656   7.459  18.086  1.00  0.00     0.293 HD
ENDBRANCH  15  22
TORSDOF 3
ENDMDL
MODEL 3
REMARK VINA RESULT:    51.553      2.009      2.642
REMARK INTER + INTRA:          56.074
REMARK INTER:                  56.074
REMARK INTRA:                   0.000
REMARK UNBOUND:                 0.000
REMARK SMILES Cc1cc(O)c2c(c1)C(=O)c1cc(O)cc(O)c1C2=O
REMARK SMILES IDX 1 1 2 2 8 3 7 4 6 5 4 6 3 7 19 8 20 9 18 10 11 11 9 12 10 13
REMARK SMILES IDX 12 14 13 15 15 16 16 17 5 18 17 20 14 22
REMARK H PARENT 5 19 17 21 14 23
REMARK Flexibility Score: inf
ROOT
ATOM      1  C   UNL     1       9.239   6.498  17.903  1.00  0.00     0.044 C 
ATOM      2  C   UNL     1      10.546   7.123  17.512  1.00  0.00    -0.047 A 
ATOM      3  C   UNL     1      10.759   8.491  17.711  1.00  0.00     0.016 A 
ATOM      4  C   UNL     1      11.995   9.078  17.387  1.00  0.00     0.038 A 
ATOM      5  C   UNL     1      13.042   8.276  16.882  1.00  0.00     0.076 A 
ATOM      6  C   UNL     1      12.805   6.898  16.639  1.00  0.00     0.127 A 
ATOM      7  C   UNL     1      11.575   6.334  16.987  1.00  0.00     0.050 A 
ATOM      8  C   UNL     1      14.377   8.904  16.693  1.00  0.00     0.201 C 
ATOM      9  O   UNL     1      15.420   8.207  16.811  1.00  0.00    -0.288 OA
ATOM     10  C   UNL     1      14.485  10.379  16.552  1.00  0.00     0.076 A 
ATOM     11  C   UNL     1      13.434  11.176  17.060  1.00  0.00     0.041 A 
ATOM     12  C   UNL     1      12.201  10.534  17.572  1.00  0.00     0.194 C 
ATOM     13  O   UNL     1      11.316  11.230  18.143  1.00  0.00    -0.289 OA
ATOM     14  C   UNL     1      13.561  12.576  17.071  1.00  0.00     0.059 A 
ATOM     15  C   UNL     1      14.714  13.187  16.570  1.00  0.00     0.120 A 
ATOM     16  C   UNL     1      15.735  12.405  16.032  1.00  0.00     0.093 A 
ATOM     17  C   UNL     1      15.624  11.012  15.991  1.00  0.00     0.131 A 
ENDROOT
BRANCH   6  18
ATOM     18  O   UNL     1      13.746   6.066  16.028  1.00  0.00    -0.507 OA
ATOM     19  H   UNL     1      13.775   5.064  16.161  1.00  0.00     0.293 HD
ENDBRANCH   6  18
BRANCH  17  20
ATOM     20  O   UNL     1      16.646  10.302  15.355  1.00  0.00    -0.507 OA
ATOM     21  H   UNL     1      16.690   9.294  15.325  1.00  0.00     0.293 HD
ENDBRANCH  17  20
BRANCH  15  22
ATOM     22  O   UNL     1      14.849  14.573  16.591  1.00  0.00    -0.508 OA
ATOM     23  H   UNL     1      15.203  15.060  17.406  1.00  0.00     0.293 HD
ENDBRANCH  15  22
TORSDOF 3
ENDMDL
