MODEL 1
REMARK VINA RESULT:    -3.395      0.000      0.000
REMARK INTER + INTRA:         -12.205
REMARK INTER:                  -7.762
REMARK INTRA:                  -4.443
REMARK UNBOUND:                -4.443
REMARK SMILES CCCCCCCCCCCCCCCCCCCCCCCC(=O)[O-]
REMARK SMILES IDX 13 1 14 2 15 3 16 4 17 5 18 6 19 7 20 8 21 9 22 10 23 11
REMARK SMILES IDX 24 12 25 13 26 14 12 15 11 16 10 17 9 18 8 19 7 20 6 21 5 22
REMARK SMILES IDX 4 23 3 24 2 25 1 26
REMARK H PARENT
REMARK Flexibility Score: inf
ROOT
ATOM      1  C   UNL     1      22.745   1.813  29.622  1.00  0.00     0.000 C 
ENDROOT
BRANCH   1   2
ATOM      2  C   UNL     1      22.860   3.342  29.603  1.00  0.00     0.000 C 
BRANCH   2   3
ATOM      3  C   UNL     1      21.908   3.977  30.628  1.00  0.00     0.000 C 
BRANCH   3   4
ATOM      4  C   UNL     1      22.020   5.509  30.676  1.00  0.00     0.000 C 
BRANCH   4   5
ATOM      5  C   UNL     1      22.602   6.021  32.004  1.00  0.00     0.000 C 
BRANCH   5   6
ATOM      6  C   UNL     1      24.147   6.047  32.005  1.00  0.00     0.000 C 
BRANCH   6   7
ATOM      7  C   UNL     1      24.743   7.259  31.265  1.00  0.00     0.000 C 
BRANCH   7   8
ATOM      8  C   UNL     1      25.426   6.922  29.927  1.00  0.00     0.000 C 
BRANCH   8   9
ATOM      9  C   UNL     1      25.491   8.114  28.945  1.00  0.00     0.000 C 
BRANCH   9  10
ATOM     10  C   UNL     1      24.969   7.762  27.546  1.00  0.00     0.006 C 
BRANCH  10  11
ATOM     11  C   UNL     1      24.072   6.522  27.588  1.00  0.00     0.053 C 
BRANCH  11  12
ATOM     12  C   UNL     1      23.377   6.334  26.277  1.00  0.00     0.041 C 
ATOM     13  O   UNL     1      22.119   6.345  26.220  1.00  0.00    -0.550 OA
ATOM     14  O   UNL     1      24.117   6.198  25.110  1.00  0.00    -0.550 OA
ENDBRANCH  11  12
ENDBRANCH  10  11
ENDBRANCH   9  10
ENDBRANCH   8   9
ENDBRANCH   7   8
ENDBRANCH   6   7
ENDBRANCH   5   6
ENDBRANCH   4   5
ENDBRANCH   3   4
ENDBRANCH   2   3
ENDBRANCH   1   2
BRANCH   1  15
ATOM     15  C   UNL     1      23.632   1.180  28.538  1.00  0.00     0.000 C 
BRANCH  15  16
ATOM     16  C   UNL     1      24.298   2.225  27.630  1.00  0.00     0.000 C 
BRANCH  16  17
ATOM     17  C   UNL     1      25.724   1.824  27.212  1.00  0.00     0.000 C 
BRANCH  17  18
ATOM     18  C   UNL     1      26.774   2.193  28.273  1.00  0.00    -0.000 C 
BRANCH  18  19
ATOM     19  C   UNL     1      26.502   3.560  28.925  1.00  0.00    -0.000 C 
BRANCH  19  20
ATOM     20  C   UNL     1      26.428   3.475  30.459  1.00  0.00    -0.000 C 
BRANCH  20  21
ATOM     21  C   UNL     1      26.497   2.026  30.972  1.00  0.00    -0.000 C 
BRANCH  21  22
ATOM     22  C   UNL     1      25.373   1.701  31.970  1.00  0.00    -0.000 C 
BRANCH  22  23
ATOM     23  C   UNL     1      25.225   2.777  33.060  1.00  0.00    -0.000 C 
BRANCH  23  24
ATOM     24  C   UNL     1      23.862   2.715  33.768  1.00  0.00    -0.000 C 
BRANCH  24  25
ATOM     25  C   UNL     1      23.287   1.291  33.814  1.00  0.00    -0.003 C 
ATOM     26  C   UNL     1      21.819   1.278  33.398  1.00  0.00     0.004 C 
ENDBRANCH  24  25
ENDBRANCH  23  24
ENDBRANCH  22  23
ENDBRANCH  21  22
ENDBRANCH  20  21
ENDBRANCH  19  20
ENDBRANCH  18  19
ENDBRANCH  17  18
ENDBRANCH  16  17
ENDBRANCH  15  16
ENDBRANCH   1  15
TORSDOF 22
ENDMDL
MODEL 2
REMARK VINA RESULT:    -3.318      2.909      4.481
REMARK INTER + INTRA:         -12.028
REMARK INTER:                  -7.572
REMARK INTRA:                  -4.457
REMARK UNBOUND:                -4.443
REMARK SMILES CCCCCCCCCCCCCCCCCCCCCCCC(=O)[O-]
REMARK SMILES IDX 13 1 14 2 15 3 16 4 17 5 18 6 19 7 20 8 21 9 22 10 23 11
REMARK SMILES IDX 24 12 25 13 26 14 12 15 11 16 10 17 9 18 8 19 7 20 6 21 5 22
REMARK SMILES IDX 4 23 3 24 2 25 1 26
REMARK H PARENT
REMARK Flexibility Score: inf
ROOT
ATOM      1  C   UNL     1      23.682   7.880  28.287  1.00  0.00     0.000 C 
ENDROOT
BRANCH   1   2
ATOM      2  C   UNL     1      25.052   8.125  28.929  1.00  0.00     0.000 C 
BRANCH   2   3
ATOM      3  C   UNL     1      25.084   7.598  30.372  1.00  0.00     0.000 C 
BRANCH   3   4
ATOM      4  C   UNL     1      23.840   6.768  30.730  1.00  0.00     0.000 C 
BRANCH   4   5
ATOM      5  C   UNL     1      23.171   7.235  32.034  1.00  0.00     0.000 C 
BRANCH   5   6
ATOM      6  C   UNL     1      21.862   8.017  31.782  1.00  0.00     0.000 C 
BRANCH   6   7
ATOM      7  C   UNL     1      21.631   9.168  32.777  1.00  0.00     0.000 C 
BRANCH   7   8
ATOM      8  C   UNL     1      22.023  10.561  32.249  1.00  0.00     0.000 C 
BRANCH   8   9
ATOM      9  C   UNL     1      23.549  10.783  32.153  1.00  0.00     0.000 C 
BRANCH   9  10
ATOM     10  C   UNL     1      24.008  11.167  30.739  1.00  0.00     0.006 C 
BRANCH  10  11
ATOM     11  C   UNL     1      22.837  11.135  29.753  1.00  0.00     0.053 C 
BRANCH  11  12
ATOM     12  C   UNL     1      23.197  11.849  28.489  1.00  0.00     0.041 C 
ATOM     13  O   UNL     1      22.461  11.749  27.472  1.00  0.00    -0.550 OA
ATOM     14  O   UNL     1      24.318  12.669  28.449  1.00  0.00    -0.550 OA
ENDBRANCH  11  12
ENDBRANCH  10  11
ENDBRANCH   9  10
ENDBRANCH   8   9
ENDBRANCH   7   8
ENDBRANCH   6   7
ENDBRANCH   5   6
ENDBRANCH   4   5
ENDBRANCH   3   4
ENDBRANCH   2   3
ENDBRANCH   1   2
BRANCH   1  15
ATOM     15  C   UNL     1      23.820   7.618  26.778  1.00  0.00     0.000 C 
BRANCH  15  16
ATOM     16  C   UNL     1      23.651   6.134  26.414  1.00  0.00     0.000 C 
BRANCH  16  17
ATOM     17  C   UNL     1      23.176   5.283  27.605  1.00  0.00     0.000 C 
BRANCH  17  18
ATOM     18  C   UNL     1      24.013   4.006  27.786  1.00  0.00    -0.000 C 
BRANCH  18  19
ATOM     19  C   UNL     1      25.253   4.231  28.671  1.00  0.00    -0.000 C 
BRANCH  19  20
ATOM     20  C   UNL     1      25.349   3.211  29.817  1.00  0.00    -0.000 C 
BRANCH  20  21
ATOM     21  C   UNL     1      23.967   2.777  30.336  1.00  0.00    -0.000 C 
BRANCH  21  22
ATOM     22  C   UNL     1      23.728   3.198  31.795  1.00  0.00    -0.000 C 
BRANCH  22  23
ATOM     23  C   UNL     1      22.254   3.541  32.076  1.00  0.00    -0.000 C 
BRANCH  23  24
ATOM     24  C   UNL     1      21.471   3.867  30.794  1.00  0.00    -0.000 C 
BRANCH  24  25
ATOM     25  C   UNL     1      20.200   4.683  31.072  1.00  0.00    -0.003 C 
ATOM     26  C   UNL     1      19.910   4.756  32.569  1.00  0.00     0.004 C 
ENDBRANCH  24  25
ENDBRANCH  23  24
ENDBRANCH  22  23
ENDBRANCH  21  22
ENDBRANCH  20  21
ENDBRANCH  19  20
ENDBRANCH  18  19
ENDBRANCH  17  18
ENDBRANCH  16  17
ENDBRANCH  15  16
ENDBRANCH   1  15
TORSDOF 22
ENDMDL
MODEL 3
REMARK VINA RESULT:    -3.311      2.491      4.920
REMARK INTER + INTRA:         -12.012
REMARK INTER:                  -8.108
REMARK INTRA:                  -3.903
REMARK UNBOUND:                -4.443
REMARK SMILES CCCCCCCCCCCCCCCCCCCCCCCC(=O)[O-]
REMARK SMILES IDX 13 1 14 2 15 3 16 4 17 5 18 6 19 7 20 8 21 9 22 10 23 11
REMARK SMILES IDX 24 12 25 13 26 14 12 15 11 16 10 17 9 18 8 19 7 20 6 21 5 22
REMARK SMILES IDX 4 23 3 24 2 25 1 26
REMARK H PARENT
REMARK Flexibility Score: inf
ROOT
ATOM      1  C   UNL     1      20.997   3.433  33.150  1.00  0.00     0.000 C 
ENDROOT
BRANCH   1   2
ATOM      2  C   UNL     1      20.178   4.626  32.645  1.00  0.00     0.000 C 
BRANCH   2   3
ATOM      3  C   UNL     1      20.542   4.966  31.192  1.00  0.00     0.000 C 
BRANCH   3   4
ATOM      4  C   UNL     1      21.561   6.112  31.086  1.00  0.00     0.000 C 
BRANCH   4   5
ATOM      5  C   UNL     1      21.571   7.015  32.331  1.00  0.00     0.000 C 
BRANCH   5   6
ATOM      6  C   UNL     1      23.001   7.361  32.802  1.00  0.00     0.000 C 
BRANCH   6   7
ATOM      7  C   UNL     1      23.980   7.641  31.648  1.00  0.00     0.000 C 
BRANCH   7   8
ATOM      8  C   UNL     1      24.171   9.132  31.315  1.00  0.00     0.000 C 
BRANCH   8   9
ATOM      9  C   UNL     1      23.021   9.735  30.476  1.00  0.00     0.000 C 
BRANCH   9  10
ATOM     10  C   UNL     1      23.523  10.587  29.303  1.00  0.00     0.006 C 
BRANCH  10  11
ATOM     11  C   UNL     1      22.896  10.129  27.982  1.00  0.00     0.053 C 
BRANCH  11  12
ATOM     12  C   UNL     1      22.323  11.296  27.243  1.00  0.00     0.041 C 
ATOM     13  O   UNL     1      22.711  12.465  27.506  1.00  0.00    -0.550 OA
ATOM     14  O   UNL     1      21.399  11.090  26.227  1.00  0.00    -0.550 OA
ENDBRANCH  11  12
ENDBRANCH  10  11
ENDBRANCH   9  10
ENDBRANCH   8   9
ENDBRANCH   7   8
ENDBRANCH   6   7
ENDBRANCH   5   6
ENDBRANCH   4   5
ENDBRANCH   3   4
ENDBRANCH   2   3
ENDBRANCH   1   2
BRANCH   1  15
ATOM     15  C   UNL     1      22.096   3.891  34.122  1.00  0.00     0.000 C 
BRANCH  15  16
ATOM     16  C   UNL     1      23.412   3.116  33.940  1.00  0.00     0.000 C 
BRANCH  16  17
ATOM     17  C   UNL     1      24.510   3.964  33.275  1.00  0.00     0.000 C 
BRANCH  17  18
ATOM     18  C   UNL     1      24.409   3.958  31.741  1.00  0.00    -0.000 C 
BRANCH  18  19
ATOM     19  C   UNL     1      24.062   2.569  31.175  1.00  0.00    -0.000 C 
BRANCH  19  20
ATOM     20  C   UNL     1      23.231   2.652  29.884  1.00  0.00    -0.000 C 
BRANCH  20  21
ATOM     21  C   UNL     1      24.076   2.397  28.623  1.00  0.00    -0.000 C 
BRANCH  21  22
ATOM     22  C   UNL     1      24.056   3.587  27.650  1.00  0.00    -0.000 C 
BRANCH  22  23
ATOM     23  C   UNL     1      24.714   4.845  28.245  1.00  0.00    -0.000 C 
BRANCH  23  24
ATOM     24  C   UNL     1      23.760   6.049  28.279  1.00  0.00    -0.000 C 
BRANCH  24  25
ATOM     25  C   UNL     1      22.947   6.193  26.984  1.00  0.00    -0.003 C 
ATOM     26  C   UNL     1      23.648   7.121  25.996  1.00  0.00     0.004 C 
ENDBRANCH  24  25
ENDBRANCH  23  24
ENDBRANCH  22  23
ENDBRANCH  21  22
ENDBRANCH  20  21
ENDBRANCH  19  20
ENDBRANCH  18  19
ENDBRANCH  17  18
ENDBRANCH  16  17
ENDBRANCH  15  16
ENDBRANCH   1  15
TORSDOF 22
ENDMDL
MODEL 4
REMARK VINA RESULT:    -3.219      2.926      6.181
REMARK INTER + INTRA:         -11.801
REMARK INTER:                  -6.994
REMARK INTRA:                  -4.806
REMARK UNBOUND:                -4.443
REMARK SMILES CCCCCCCCCCCCCCCCCCCCCCCC(=O)[O-]
REMARK SMILES IDX 13 1 14 2 15 3 16 4 17 5 18 6 19 7 20 8 21 9 22 10 23 11
REMARK SMILES IDX 24 12 25 13 26 14 12 15 11 16 10 17 9 18 8 19 7 20 6 21 5 22
REMARK SMILES IDX 4 23 3 24 2 25 1 26
REMARK H PARENT
REMARK Flexibility Score: inf
ROOT
ATOM      1  C   UNL     1      23.810   5.140  27.228  1.00  0.00     0.000 C 
ENDROOT
BRANCH   1   2
ATOM      2  C   UNL     1      23.233   4.531  28.511  1.00  0.00     0.000 C 
BRANCH   2   3
ATOM      3  C   UNL     1      24.354   4.024  29.430  1.00  0.00     0.000 C 
BRANCH   3   4
ATOM      4  C   UNL     1      25.740   4.553  29.027  1.00  0.00     0.000 C 
BRANCH   4   5
ATOM      5  C   UNL     1      26.466   5.259  30.185  1.00  0.00     0.000 C 
BRANCH   5   6
ATOM      6  C   UNL     1      26.113   4.655  31.563  1.00  0.00     0.000 C 
BRANCH   6   7
ATOM      7  C   UNL     1      25.783   5.712  32.633  1.00  0.00     0.000 C 
BRANCH   7   8
ATOM      8  C   UNL     1      24.517   5.417  33.458  1.00  0.00     0.000 C 
BRANCH   8   9
ATOM      9  C   UNL     1      23.736   4.174  32.973  1.00  0.00     0.000 C 
BRANCH   9  10
ATOM     10  C   UNL     1      22.221   4.300  33.190  1.00  0.00     0.006 C 
BRANCH  10  11
ATOM     11  C   UNL     1      21.448   3.858  31.944  1.00  0.00     0.053 C 
BRANCH  11  12
ATOM     12  C   UNL     1      20.108   4.519  31.898  1.00  0.00     0.041 C 
ATOM     13  O   UNL     1      19.497   4.636  30.803  1.00  0.00    -0.550 OA
ATOM     14  O   UNL     1      19.509   4.961  33.070  1.00  0.00    -0.550 OA
ENDBRANCH  11  12
ENDBRANCH  10  11
ENDBRANCH   9  10
ENDBRANCH   8   9
ENDBRANCH   7   8
ENDBRANCH   6   7
ENDBRANCH   5   6
ENDBRANCH   4   5
ENDBRANCH   3   4
ENDBRANCH   2   3
ENDBRANCH   1   2
BRANCH   1  15
ATOM     15  C   UNL     1      22.879   6.225  26.665  1.00  0.00     0.000 C 
BRANCH  15  16
ATOM     16  C   UNL     1      23.472   7.639  26.785  1.00  0.00     0.000 C 
BRANCH  16  17
ATOM     17  C   UNL     1      24.932   7.628  27.270  1.00  0.00     0.000 C 
BRANCH  17  18
ATOM     18  C   UNL     1      25.128   8.434  28.565  1.00  0.00    -0.000 C 
BRANCH  18  19
ATOM     19  C   UNL     1      23.814   8.641  29.338  1.00  0.00    -0.000 C 
BRANCH  19  20
ATOM     20  C   UNL     1      23.691   7.702  30.549  1.00  0.00    -0.000 C 
BRANCH  20  21
ATOM     21  C   UNL     1      22.235   7.294  30.832  1.00  0.00    -0.000 C 
BRANCH  21  22
ATOM     22  C   UNL     1      21.741   7.787  32.202  1.00  0.00    -0.000 C 
BRANCH  22  23
ATOM     23  C   UNL     1      22.716   8.782  32.856  1.00  0.00    -0.000 C 
BRANCH  23  24
ATOM     24  C   UNL     1      22.083  10.164  33.084  1.00  0.00    -0.000 C 
BRANCH  24  25
ATOM     25  C   UNL     1      22.226  11.086  31.863  1.00  0.00    -0.003 C 
ATOM     26  C   UNL     1      21.646  12.469  32.149  1.00  0.00     0.004 C 
ENDBRANCH  24  25
ENDBRANCH  23  24
ENDBRANCH  22  23
ENDBRANCH  21  22
ENDBRANCH  20  21
ENDBRANCH  19  20
ENDBRANCH  18  19
ENDBRANCH  17  18
ENDBRANCH  16  17
ENDBRANCH  15  16
ENDBRANCH   1  15
TORSDOF 22
ENDMDL
MODEL 5
REMARK VINA RESULT:    -3.204      3.178      4.793
REMARK INTER + INTRA:         -11.768
REMARK INTER:                  -7.876
REMARK INTRA:                  -3.892
REMARK UNBOUND:                -4.443
REMARK SMILES CCCCCCCCCCCCCCCCCCCCCCCC(=O)[O-]
REMARK SMILES IDX 13 1 14 2 15 3 16 4 17 5 18 6 19 7 20 8 21 9 22 10 23 11
REMARK SMILES IDX 24 12 25 13 26 14 12 15 11 16 10 17 9 18 8 19 7 20 6 21 5 22
REMARK SMILES IDX 4 23 3 24 2 25 1 26
REMARK H PARENT
REMARK Flexibility Score: inf
ROOT
ATOM      1  C   UNL     1      23.567   6.185  26.246  1.00  0.00     0.000 C 
ENDROOT
BRANCH   1   2
ATOM      2  C   UNL     1      23.659   7.687  26.541  1.00  0.00     0.000 C 
BRANCH   2   3
ATOM      3  C   UNL     1      23.756   7.945  28.053  1.00  0.00     0.000 C 
BRANCH   3   4
ATOM      4  C   UNL     1      25.208   8.055  28.547  1.00  0.00     0.000 C 
BRANCH   4   5
ATOM      5  C   UNL     1      25.330   7.888  30.070  1.00  0.00     0.000 C 
BRANCH   5   6
ATOM      6  C   UNL     1      24.000   7.460  30.730  1.00  0.00     0.000 C 
BRANCH   6   7
ATOM      7  C   UNL     1      23.556   8.383  31.879  1.00  0.00     0.000 C 
BRANCH   7   8
ATOM      8  C   UNL     1      22.483   9.417  31.493  1.00  0.00     0.000 C 
BRANCH   8   9
ATOM      9  C   UNL     1      23.063  10.776  31.040  1.00  0.00     0.000 C 
BRANCH   9  10
ATOM     10  C   UNL     1      22.926  11.008  29.529  1.00  0.00     0.006 C 
BRANCH  10  11
ATOM     11  C   UNL     1      24.180  11.675  28.958  1.00  0.00     0.053 C 
BRANCH  11  12
ATOM     12  C   UNL     1      23.992  13.156  28.869  1.00  0.00     0.041 C 
ATOM     13  O   UNL     1      23.463  13.667  27.847  1.00  0.00    -0.550 OA
ATOM     14  O   UNL     1      24.353  13.968  29.936  1.00  0.00    -0.550 OA
ENDBRANCH  11  12
ENDBRANCH  10  11
ENDBRANCH   9  10
ENDBRANCH   8   9
ENDBRANCH   7   8
ENDBRANCH   6   7
ENDBRANCH   5   6
ENDBRANCH   4   5
ENDBRANCH   3   4
ENDBRANCH   2   3
ENDBRANCH   1   2
BRANCH   1  15
ATOM     15  C   UNL     1      23.158   5.401  27.504  1.00  0.00     0.000 C 
BRANCH  15  16
ATOM     16  C   UNL     1      24.037   4.163  27.744  1.00  0.00     0.000 C 
BRANCH  16  17
ATOM     17  C   UNL     1      24.863   4.266  29.038  1.00  0.00     0.000 C 
BRANCH  17  18
ATOM     18  C   UNL     1      24.131   3.672  30.252  1.00  0.00    -0.000 C 
BRANCH  18  19
ATOM     19  C   UNL     1      23.225   2.486  29.876  1.00  0.00    -0.000 C 
BRANCH  19  20
ATOM     20  C   UNL     1      22.535   1.863  31.101  1.00  0.00    -0.000 C 
BRANCH  20  21
ATOM     21  C   UNL     1      22.882   2.596  32.409  1.00  0.00    -0.000 C 
BRANCH  21  22
ATOM     22  C   UNL     1      21.702   2.633  33.393  1.00  0.00    -0.000 C 
BRANCH  22  23
ATOM     23  C   UNL     1      20.911   3.950  33.315  1.00  0.00    -0.000 C 
BRANCH  23  24
ATOM     24  C   UNL     1      21.668   5.048  32.550  1.00  0.00    -0.000 C 
BRANCH  24  25
ATOM     25  C   UNL     1      20.954   5.464  31.256  1.00  0.00    -0.003 C 
ATOM     26  C   UNL     1      19.659   4.678  31.066  1.00  0.00     0.004 C 
ENDBRANCH  24  25
ENDBRANCH  23  24
ENDBRANCH  22  23
ENDBRANCH  21  22
ENDBRANCH  20  21
ENDBRANCH  19  20
ENDBRANCH  18  19
ENDBRANCH  17  18
ENDBRANCH  16  17
ENDBRANCH  15  16
ENDBRANCH   1  15
TORSDOF 22
ENDMDL
MODEL 6
REMARK VINA RESULT:    -3.190      2.611      4.749
REMARK INTER + INTRA:         -11.735
REMARK INTER:                  -7.765
REMARK INTRA:                  -3.971
REMARK UNBOUND:                -4.443
REMARK SMILES CCCCCCCCCCCCCCCCCCCCCCCC(=O)[O-]
REMARK SMILES IDX 13 1 14 2 15 3 16 4 17 5 18 6 19 7 20 8 21 9 22 10 23 11
REMARK SMILES IDX 24 12 25 13 26 14 12 15 11 16 10 17 9 18 8 19 7 20 6 21 5 22
REMARK SMILES IDX 4 23 3 24 2 25 1 26
REMARK H PARENT
REMARK Flexibility Score: inf
ROOT
ATOM      1  C   UNL     1      21.868   2.991  30.988  1.00  0.00     0.000 C 
ENDROOT
BRANCH   1   2
ATOM      2  C   UNL     1      21.525   4.469  30.766  1.00  0.00     0.000 C 
BRANCH   2   3
ATOM      3  C   UNL     1      20.103   4.782  31.255  1.00  0.00     0.000 C 
BRANCH   3   4
ATOM      4  C   UNL     1      19.957   4.659  32.781  1.00  0.00     0.000 C 
BRANCH   4   5
ATOM      5  C   UNL     1      21.113   5.328  33.543  1.00  0.00     0.000 C 
BRANCH   5   6
ATOM      6  C   UNL     1      20.849   6.824  33.828  1.00  0.00     0.000 C 
BRANCH   6   7
ATOM      7  C   UNL     1      21.933   7.760  33.263  1.00  0.00     0.000 C 
BRANCH   7   8
ATOM      8  C   UNL     1      21.821   8.033  31.752  1.00  0.00     0.000 C 
BRANCH   8   9
ATOM      9  C   UNL     1      23.181   8.033  31.018  1.00  0.00     0.000 C 
BRANCH   9  10
ATOM     10  C   UNL     1      23.169   8.880  29.739  1.00  0.00     0.006 C 
BRANCH  10  11
ATOM     11  C   UNL     1      23.876  10.220  29.958  1.00  0.00     0.053 C 
BRANCH  11  12
ATOM     12  C   UNL     1      22.942  11.356  29.688  1.00  0.00     0.041 C 
ATOM     13  O   UNL     1      22.739  11.743  28.506  1.00  0.00    -0.550 OA
ATOM     14  O   UNL     1      22.254  11.956  30.735  1.00  0.00    -0.550 OA
ENDBRANCH  11  12
ENDBRANCH  10  11
ENDBRANCH   9  10
ENDBRANCH   8   9
ENDBRANCH   7   8
ENDBRANCH   6   7
ENDBRANCH   5   6
ENDBRANCH   4   5
ENDBRANCH   3   4
ENDBRANCH   2   3
ENDBRANCH   1   2
BRANCH   1  15
ATOM     15  C   UNL     1      22.443   2.361  29.710  1.00  0.00     0.000 C 
BRANCH  15  16
ATOM     16  C   UNL     1      23.749   1.590  29.962  1.00  0.00     0.000 C 
BRANCH  16  17
ATOM     17  C   UNL     1      24.181   1.627  31.439  1.00  0.00     0.000 C 
BRANCH  17  18
ATOM     18  C   UNL     1      25.497   2.395  31.647  1.00  0.00    -0.000 C 
BRANCH  18  19
ATOM     19  C   UNL     1      25.311   3.673  32.484  1.00  0.00    -0.000 C 
BRANCH  19  20
ATOM     20  C   UNL     1      25.024   4.907  31.614  1.00  0.00    -0.000 C 
BRANCH  20  21
ATOM     21  C   UNL     1      26.117   5.150  30.557  1.00  0.00    -0.000 C 
BRANCH  21  22
ATOM     22  C   UNL     1      25.569   5.823  29.288  1.00  0.00    -0.000 C 
BRANCH  22  23
ATOM     23  C   UNL     1      24.648   4.893  28.479  1.00  0.00    -0.000 C 
BRANCH  23  24
ATOM     24  C   UNL     1      23.432   5.630  27.895  1.00  0.00    -0.000 C 
BRANCH  24  25
ATOM     25  C   UNL     1      23.673   6.115  26.457  1.00  0.00    -0.003 C 
ATOM     26  C   UNL     1      23.335   7.597  26.314  1.00  0.00     0.004 C 
ENDBRANCH  24  25
ENDBRANCH  23  24
ENDBRANCH  22  23
ENDBRANCH  21  22
ENDBRANCH  20  21
ENDBRANCH  19  20
ENDBRANCH  18  19
ENDBRANCH  17  18
ENDBRANCH  16  17
ENDBRANCH  15  16
ENDBRANCH   1  15
TORSDOF 22
ENDMDL
MODEL 7
REMARK VINA RESULT:    -3.183      2.612      4.171
REMARK INTER + INTRA:         -11.720
REMARK INTER:                  -7.145
REMARK INTRA:                  -4.575
REMARK UNBOUND:                -4.443
REMARK SMILES CCCCCCCCCCCCCCCCCCCCCCCC(=O)[O-]
REMARK SMILES IDX 13 1 14 2 15 3 16 4 17 5 18 6 19 7 20 8 21 9 22 10 23 11
REMARK SMILES IDX 24 12 25 13 26 14 12 15 11 16 10 17 9 18 8 19 7 20 6 21 5 22
REMARK SMILES IDX 4 23 3 24 2 25 1 26
REMARK H PARENT
REMARK Flexibility Score: inf
ROOT
ATOM      1  C   UNL     1      23.159   4.854  28.798  1.00  0.00     0.000 C 
ENDROOT
BRANCH   1   2
ATOM      2  C   UNL     1      23.872   5.070  27.458  1.00  0.00     0.000 C 
BRANCH   2   3
ATOM      3  C   UNL     1      23.140   6.121  26.610  1.00  0.00     0.000 C 
BRANCH   3   4
ATOM      4  C   UNL     1      23.599   7.556  26.913  1.00  0.00     0.000 C 
BRANCH   4   5
ATOM      5  C   UNL     1      25.022   7.614  27.493  1.00  0.00     0.000 C 
BRANCH   5   6
ATOM      6  C   UNL     1      25.051   8.148  28.943  1.00  0.00     0.000 C 
BRANCH   6   7
ATOM      7  C   UNL     1      23.655   8.469  29.509  1.00  0.00     0.000 C 
BRANCH   7   8
ATOM      8  C   UNL     1      23.467   8.111  30.994  1.00  0.00     0.000 C 
BRANCH   8   9
ATOM      9  C   UNL     1      22.000   8.196  31.473  1.00  0.00     0.000 C 
BRANCH   9  10
ATOM     10  C   UNL     1      21.685   7.208  32.605  1.00  0.00     0.006 C 
BRANCH  10  11
ATOM     11  C   UNL     1      21.658   5.768  32.087  1.00  0.00     0.053 C 
BRANCH  11  12
ATOM     12  C   UNL     1      20.778   4.918  32.948  1.00  0.00     0.041 C 
ATOM     13  O   UNL     1      19.889   5.450  33.664  1.00  0.00    -0.550 OA
ATOM     14  O   UNL     1      20.904   3.535  32.920  1.00  0.00    -0.550 OA
ENDBRANCH  11  12
ENDBRANCH  10  11
ENDBRANCH   9  10
ENDBRANCH   8   9
ENDBRANCH   7   8
ENDBRANCH   6   7
ENDBRANCH   5   6
ENDBRANCH   4   5
ENDBRANCH   3   4
ENDBRANCH   2   3
ENDBRANCH   1   2
BRANCH   1  15
ATOM     15  C   UNL     1      23.224   3.379  29.225  1.00  0.00     0.000 C 
BRANCH  15  16
ATOM     16  C   UNL     1      23.981   2.500  28.217  1.00  0.00     0.000 C 
BRANCH  16  17
ATOM     17  C   UNL     1      24.609   1.257  28.870  1.00  0.00     0.000 C 
BRANCH  17  18
ATOM     18  C   UNL     1      26.130   1.392  29.050  1.00  0.00    -0.000 C 
BRANCH  18  19
ATOM     19  C   UNL     1      26.740   2.475  28.143  1.00  0.00    -0.000 C 
BRANCH  19  20
ATOM     20  C   UNL     1      27.605   3.477  28.926  1.00  0.00    -0.000 C 
BRANCH  20  21
ATOM     21  C   UNL     1      26.766   4.571  29.610  1.00  0.00    -0.000 C 
BRANCH  21  22
ATOM     22  C   UNL     1      26.741   4.422  31.140  1.00  0.00    -0.000 C 
BRANCH  22  23
ATOM     23  C   UNL     1      25.476   5.031  31.770  1.00  0.00    -0.000 C 
BRANCH  23  24
ATOM     24  C   UNL     1      24.647   3.995  32.544  1.00  0.00    -0.000 C 
BRANCH  24  25
ATOM     25  C   UNL     1      25.266   2.590  32.496  1.00  0.00    -0.003 C 
ATOM     26  C   UNL     1      24.185   1.512  32.534  1.00  0.00     0.004 C 
ENDBRANCH  24  25
ENDBRANCH  23  24
ENDBRANCH  22  23
ENDBRANCH  21  22
ENDBRANCH  20  21
ENDBRANCH  19  20
ENDBRANCH  18  19
ENDBRANCH  17  18
ENDBRANCH  16  17
ENDBRANCH  15  16
ENDBRANCH   1  15
TORSDOF 22
ENDMDL
MODEL 8
REMARK VINA RESULT:    -3.153      1.546      4.455
REMARK INTER + INTRA:         -11.650
REMARK INTER:                  -7.308
REMARK INTRA:                  -4.342
REMARK UNBOUND:                -4.443
REMARK SMILES CCCCCCCCCCCCCCCCCCCCCCCC(=O)[O-]
REMARK SMILES IDX 13 1 14 2 15 3 16 4 17 5 18 6 19 7 20 8 21 9 22 10 23 11
REMARK SMILES IDX 24 12 25 13 26 14 12 15 11 16 10 17 9 18 8 19 7 20 6 21 5 22
REMARK SMILES IDX 4 23 3 24 2 25 1 26
REMARK H PARENT
REMARK Flexibility Score: inf
ROOT
ATOM      1  C   UNL     1      22.951   5.668  30.971  1.00  0.00     0.000 C 
ENDROOT
BRANCH   1   2
ATOM      2  C   UNL     1      23.991   5.606  32.096  1.00  0.00     0.000 C 
BRANCH   2   3
ATOM      3  C   UNL     1      23.562   6.475  33.288  1.00  0.00     0.000 C 
BRANCH   3   4
ATOM      4  C   UNL     1      24.605   7.544  33.652  1.00  0.00     0.000 C 
BRANCH   4   5
ATOM      5  C   UNL     1      25.926   7.370  32.884  1.00  0.00     0.000 C 
BRANCH   5   6
ATOM      6  C   UNL     1      26.305   8.625  32.065  1.00  0.00     0.000 C 
BRANCH   6   7
ATOM      7  C   UNL     1      25.878   8.549  30.588  1.00  0.00     0.000 C 
BRANCH   7   8
ATOM      8  C   UNL     1      24.462   9.082  30.301  1.00  0.00     0.000 C 
BRANCH   8   9
ATOM      9  C   UNL     1      24.112   9.136  28.796  1.00  0.00     0.000 C 
BRANCH   9  10
ATOM     10  C   UNL     1      23.457   7.843  28.291  1.00  0.00     0.006 C 
BRANCH  10  11
ATOM     11  C   UNL     1      24.371   7.113  27.302  1.00  0.00     0.053 C 
BRANCH  11  12
ATOM     12  C   UNL     1      23.573   6.553  26.167  1.00  0.00     0.041 C 
ATOM     13  O   UNL     1      22.321   6.459  26.259  1.00  0.00    -0.550 OA
ATOM     14  O   UNL     1      24.207   6.185  24.988  1.00  0.00    -0.550 OA
ENDBRANCH  11  12
ENDBRANCH  10  11
ENDBRANCH   9  10
ENDBRANCH   8   9
ENDBRANCH   7   8
ENDBRANCH   6   7
ENDBRANCH   5   6
ENDBRANCH   4   5
ENDBRANCH   3   4
ENDBRANCH   2   3
ENDBRANCH   1   2
BRANCH   1  15
ATOM     15  C   UNL     1      21.550   5.962  31.532  1.00  0.00     0.000 C 
BRANCH  15  16
ATOM     16  C   UNL     1      20.687   4.697  31.670  1.00  0.00     0.000 C 
BRANCH  16  17
ATOM     17  C   UNL     1      20.243   4.439  33.120  1.00  0.00     0.000 C 
BRANCH  17  18
ATOM     18  C   UNL     1      21.334   3.748  33.955  1.00  0.00    -0.000 C 
BRANCH  18  19
ATOM     19  C   UNL     1      21.770   2.398  33.359  1.00  0.00    -0.000 C 
BRANCH  19  20
ATOM     20  C   UNL     1      23.291   2.313  33.150  1.00  0.00    -0.000 C 
BRANCH  20  21
ATOM     21  C   UNL     1      23.665   1.723  31.779  1.00  0.00    -0.000 C 
BRANCH  21  22
ATOM     22  C   UNL     1      22.435   1.466  30.894  1.00  0.00    -0.000 C 
BRANCH  22  23
ATOM     23  C   UNL     1      22.457   2.297  29.599  1.00  0.00    -0.000 C 
BRANCH  23  24
ATOM     24  C   UNL     1      23.781   2.158  28.831  1.00  0.00    -0.000 C 
BRANCH  24  25
ATOM     25  C   UNL     1      24.269   3.494  28.253  1.00  0.00    -0.003 C 
ATOM     26  C   UNL     1      25.546   3.960  28.948  1.00  0.00     0.004 C 
ENDBRANCH  24  25
ENDBRANCH  23  24
ENDBRANCH  22  23
ENDBRANCH  21  22
ENDBRANCH  20  21
ENDBRANCH  19  20
ENDBRANCH  18  19
ENDBRANCH  17  18
ENDBRANCH  16  17
ENDBRANCH  15  16
ENDBRANCH   1  15
TORSDOF 22
ENDMDL
MODEL 9
REMARK VINA RESULT:    -3.072      2.673      4.656
REMARK INTER + INTRA:         -11.467
REMARK INTER:                  -7.210
REMARK INTRA:                  -4.257
REMARK UNBOUND:                -4.443
REMARK SMILES CCCCCCCCCCCCCCCCCCCCCCCC(=O)[O-]
REMARK SMILES IDX 13 1 14 2 15 3 16 4 17 5 18 6 19 7 20 8 21 9 22 10 23 11
REMARK SMILES IDX 24 12 25 13 26 14 12 15 11 16 10 17 9 18 8 19 7 20 6 21 5 22
REMARK SMILES IDX 4 23 3 24 2 25 1 26
REMARK H PARENT
REMARK Flexibility Score: inf
ROOT
ATOM      1  C   UNL     1      23.278   5.338  27.767  1.00  0.00     0.000 C 
ENDROOT
BRANCH   1   2
ATOM      2  C   UNL     1      23.627   6.093  26.479  1.00  0.00     0.000 C 
BRANCH   2   3
ATOM      3  C   UNL     1      23.751   7.601  26.744  1.00  0.00     0.000 C 
BRANCH   3   4
ATOM      4  C   UNL     1      23.858   7.936  28.241  1.00  0.00     0.000 C 
BRANCH   4   5
ATOM      5  C   UNL     1      25.278   8.359  28.654  1.00  0.00     0.000 C 
BRANCH   5   6
ATOM      6  C   UNL     1      25.860   7.467  29.774  1.00  0.00     0.000 C 
BRANCH   6   7
ATOM      7  C   UNL     1      24.793   6.908  30.734  1.00  0.00     0.000 C 
BRANCH   7   8
ATOM      8  C   UNL     1      25.026   7.244  32.218  1.00  0.00     0.000 C 
BRANCH   8   9
ATOM      9  C   UNL     1      23.930   8.145  32.830  1.00  0.00     0.000 C 
BRANCH   9  10
ATOM     10  C   UNL     1      23.168   8.958  31.775  1.00  0.00     0.006 C 
BRANCH  10  11
ATOM     11  C   UNL     1      23.447  10.456  31.926  1.00  0.00     0.053 C 
BRANCH  11  12
ATOM     12  C   UNL     1      22.742  11.231  30.859  1.00  0.00     0.041 C 
ATOM     13  O   UNL     1      22.934  10.956  29.645  1.00  0.00    -0.550 OA
ATOM     14  O   UNL     1      21.833  12.223  31.205  1.00  0.00    -0.550 OA
ENDBRANCH  11  12
ENDBRANCH  10  11
ENDBRANCH   9  10
ENDBRANCH   8   9
ENDBRANCH   7   8
ENDBRANCH   6   7
ENDBRANCH   5   6
ENDBRANCH   4   5
ENDBRANCH   3   4
ENDBRANCH   2   3
ENDBRANCH   1   2
BRANCH   1  15
ATOM     15  C   UNL     1      23.981   3.971  27.812  1.00  0.00     0.000 C 
BRANCH  15  16
ATOM     16  C   UNL     1      25.132   3.928  28.830  1.00  0.00     0.000 C 
BRANCH  16  17
ATOM     17  C   UNL     1      24.938   2.835  29.896  1.00  0.00     0.000 C 
BRANCH  17  18
ATOM     18  C   UNL     1      23.471   2.693  30.332  1.00  0.00    -0.000 C 
BRANCH  18  19
ATOM     19  C   UNL     1      23.316   2.554  31.856  1.00  0.00    -0.000 C 
BRANCH  19  20
ATOM     20  C   UNL     1      24.176   3.567  32.629  1.00  0.00    -0.000 C 
BRANCH  20  21
ATOM     21  C   UNL     1      23.363   4.359  33.668  1.00  0.00    -0.000 C 
BRANCH  21  22
ATOM     22  C   UNL     1      21.908   3.873  33.771  1.00  0.00    -0.000 C 
BRANCH  22  23
ATOM     23  C   UNL     1      20.892   5.017  33.606  1.00  0.00    -0.000 C 
BRANCH  23  24
ATOM     24  C   UNL     1      19.792   4.686  32.584  1.00  0.00    -0.000 C 
BRANCH  24  25
ATOM     25  C   UNL     1      20.315   4.675  31.140  1.00  0.00    -0.003 C 
ATOM     26  C   UNL     1      21.273   5.838  30.894  1.00  0.00     0.004 C 
ENDBRANCH  24  25
ENDBRANCH  23  24
ENDBRANCH  22  23
ENDBRANCH  21  22
ENDBRANCH  20  21
ENDBRANCH  19  20
ENDBRANCH  18  19
ENDBRANCH  17  18
ENDBRANCH  16  17
ENDBRANCH  15  16
ENDBRANCH   1  15
TORSDOF 22
ENDMDL
