MODEL 1
REMARK VINA RESULT:    -0.177      0.000      0.000
REMARK INTER + INTRA:           2.977
REMARK INTER:                  -0.421
REMARK INTRA:                   3.398
REMARK UNBOUND:                 3.398
REMARK SMILES O=C(OC[C@@H]1O[C@@H](OC(=O)c2cc(O)c(O)c(O)c2)[C@@H](OC(=O)c2cc(O)c(O)c(O)c2)[C@H](OC(=O)c2cc(O)c(O)c(O)c2)[C@@H]1OC(=O)c1cc(O)c(O)c(O)c1)c1cc(O)c(O)c(O)c1
REMARK SMILES IDX 5 1 46 2 33 3 20 4 7 5 6 6 4 7 3 8 2 9 1 10 59 11 60 12
REMARK SMILES IDX 61 13 67 14 63 15 65 16 62 17 64 19 66 21 47 23 48 24 49 25
REMARK SMILES IDX 50 26 58 27 51 28 56 29 52 30 54 31 57 32 53 34 55 36 34 38
REMARK SMILES IDX 35 39 36 40 37 41 45 42 38 43 43 44 39 45 41 46 44 47 40 49
REMARK SMILES IDX 42 51 8 53 9 54 10 55 11 56 19 57 12 58 17 59 13 60 15 61
REMARK SMILES IDX 18 62 14 64 16 66 21 68 22 69 23 70 24 71 32 72 25 73 30 74
REMARK SMILES IDX 26 75 28 76 31 77 27 79 29 81
REMARK H PARENT 62 18 64 20 66 22 57 33 53 35 55 37 44 48 40 50 42 52 18 63
REMARK H PARENT 14 65 16 67 31 78 27 80 29 82
REMARK Flexibility Score: inf
ROOT
ATOM      1  C   UNL     1     -19.628  13.907 -30.172  1.00  0.00     0.205 C 
ATOM      2  C   UNL     1     -20.097  12.438 -30.085  1.00  0.00     0.254 C 
ATOM      3  C   UNL     1     -21.560  12.346 -30.564  1.00  0.00     0.267 C 
ATOM      4  C   UNL     1     -22.431  13.360 -29.801  1.00  0.00     0.290 C 
ATOM      5  C   UNL     1     -21.792  14.759 -29.861  1.00  0.00     0.357 C 
ATOM      6  O   UNL     1     -20.458  14.741 -29.377  1.00  0.00    -0.329 OA
ENDROOT
BRANCH   1   7
ATOM      7  C   UNL     1     -18.170  14.051 -29.701  1.00  0.00     0.269 C 
BRANCH   7   8
ATOM      8  O   UNL     1     -17.421  14.846 -30.619  1.00  0.00    -0.459 OA
BRANCH   8   9
ATOM      9  C   UNL     1     -16.724  14.331 -31.717  1.00  0.00     0.338 C 
ATOM     10  O   UNL     1     -17.351  13.903 -32.724  1.00  0.00    -0.246 OA
BRANCH   9  11
ATOM     11  C   UNL     1     -15.244  14.324 -31.705  1.00  0.00     0.067 A 
ATOM     12  C   UNL     1     -14.545  14.921 -30.648  1.00  0.00     0.066 A 
ATOM     13  C   UNL     1     -13.149  14.936 -30.632  1.00  0.00     0.162 A 
ATOM     14  C   UNL     1     -14.522  13.727 -32.749  1.00  0.00     0.066 A 
ATOM     15  C   UNL     1     -12.425  14.348 -31.684  1.00  0.00     0.200 A 
ATOM     16  C   UNL     1     -13.123  13.729 -32.751  1.00  0.00     0.162 A 
BRANCH  13  17
ATOM     17  O   UNL     1     -12.494  15.558 -29.567  1.00  0.00    -0.504 OA
ATOM     18  H   UNL     1     -12.810  15.468 -28.609  1.00  0.00     0.293 HD
ENDBRANCH  13  17
BRANCH  15  19
ATOM     19  O   UNL     1     -11.028  14.402 -31.642  1.00  0.00    -0.502 OA
ATOM     20  H   UNL     1     -10.425  13.642 -31.914  1.00  0.00     0.293 HD
ENDBRANCH  15  19
BRANCH  16  21
ATOM     21  O   UNL     1     -12.473  13.103 -33.818  1.00  0.00    -0.504 OA
ATOM     22  H   UNL     1     -11.662  13.473 -34.285  1.00  0.00     0.293 HD
ENDBRANCH  16  21
ENDBRANCH   9  11
ENDBRANCH   8   9
ENDBRANCH   7   8
ENDBRANCH   1   7
BRANCH   2  23
ATOM     23  O   UNL     1     -20.001  11.987 -28.734  1.00  0.00    -0.452 OA
BRANCH  23  24
ATOM     24  C   UNL     1     -19.138  10.968 -28.308  1.00  0.00     0.338 C 
ATOM     25  O   UNL     1     -19.604   9.875 -27.881  1.00  0.00    -0.246 OA
BRANCH  24  26
ATOM     26  C   UNL     1     -17.677  11.179 -28.365  1.00  0.00     0.067 A 
ATOM     27  C   UNL     1     -16.995  11.771 -27.288  1.00  0.00     0.066 A 
ATOM     28  C   UNL     1     -16.952  10.780 -29.498  1.00  0.00     0.066 A 
ATOM     29  C   UNL     1     -15.612  11.961 -27.339  1.00  0.00     0.162 A 
ATOM     30  C   UNL     1     -15.570  10.972 -29.562  1.00  0.00     0.162 A 
ATOM     31  C   UNL     1     -14.893  11.567 -28.481  1.00  0.00     0.200 A 
BRANCH  29  32
ATOM     32  O   UNL     1     -14.964  12.525 -26.240  1.00  0.00    -0.504 OA
ATOM     33  H   UNL     1     -15.096  12.170 -25.300  1.00  0.00     0.293 HD
ENDBRANCH  29  32
BRANCH  30  34
ATOM     34  O   UNL     1     -14.861  10.582 -30.699  1.00  0.00    -0.504 OA
ATOM     35  H   UNL     1     -15.230  10.744 -31.630  1.00  0.00     0.293 HD
ENDBRANCH  30  34
BRANCH  31  36
ATOM     36  O   UNL     1     -13.512  11.761 -28.527  1.00  0.00    -0.502 OA
ATOM     37  H   UNL     1     -13.022  11.964 -29.393  1.00  0.00     0.293 HD
ENDBRANCH  31  36
ENDBRANCH  24  26
ENDBRANCH  23  24
ENDBRANCH   2  23
BRANCH   3  38
ATOM     38  O   UNL     1     -22.081  11.034 -30.352  1.00  0.00    -0.450 OA
BRANCH  38  39
ATOM     39  C   UNL     1     -22.565  10.562 -29.128  1.00  0.00     0.338 C 
ATOM     40  O   UNL     1     -21.765  10.310 -28.185  1.00  0.00    -0.246 OA
BRANCH  39  41
ATOM     41  C   UNL     1     -24.021  10.351 -28.950  1.00  0.00     0.067 A 
ATOM     42  C   UNL     1     -24.874  10.185 -30.055  1.00  0.00     0.066 A 
ATOM     43  C   UNL     1     -24.570  10.323 -27.659  1.00  0.00     0.066 A 
ATOM     44  C   UNL     1     -26.256  10.028 -29.877  1.00  0.00     0.162 A 
ATOM     45  C   UNL     1     -25.946  10.168 -27.470  1.00  0.00     0.162 A 
ATOM     46  C   UNL     1     -26.796  10.026 -28.579  1.00  0.00     0.200 A 
BRANCH  44  47
ATOM     47  O   UNL     1     -27.096   9.875 -30.984  1.00  0.00    -0.504 OA
ATOM     48  H   UNL     1     -27.691   9.061 -31.096  1.00  0.00     0.293 HD
ENDBRANCH  44  47
BRANCH  45  49
ATOM     49  O   UNL     1     -26.456  10.154 -26.171  1.00  0.00    -0.504 OA
ATOM     50  H   UNL     1     -27.191   9.519 -25.891  1.00  0.00     0.293 HD
ENDBRANCH  45  49
BRANCH  46  51
ATOM     51  O   UNL     1     -28.168   9.879 -28.379  1.00  0.00    -0.502 OA
ATOM     52  H   UNL     1     -28.844   9.993 -29.127  1.00  0.00     0.293 HD
ENDBRANCH  46  51
ENDBRANCH  39  41
ENDBRANCH  38  39
ENDBRANCH   3  38
BRANCH   5  53
ATOM     53  O   UNL     1     -21.839  15.284 -31.190  1.00  0.00    -0.428 OA
BRANCH  53  54
ATOM     54  C   UNL     1     -22.991  15.842 -31.758  1.00  0.00     0.340 C 
ATOM     55  O   UNL     1     -23.945  15.098 -32.117  1.00  0.00    -0.246 OA
BRANCH  54  56
ATOM     56  C   UNL     1     -23.067  17.306 -31.961  1.00  0.00     0.067 A 
ATOM     57  C   UNL     1     -23.577  17.825 -33.162  1.00  0.00     0.066 A 
ATOM     58  C   UNL     1     -22.643  18.190 -30.955  1.00  0.00     0.066 A 
ATOM     59  C   UNL     1     -23.655  19.211 -33.362  1.00  0.00     0.162 A 
ATOM     60  C   UNL     1     -22.726  19.576 -31.146  1.00  0.00     0.162 A 
ATOM     61  C   UNL     1     -23.225  20.090 -32.353  1.00  0.00     0.200 A 
BRANCH  59  62
ATOM     62  O   UNL     1     -24.157  19.720 -34.557  1.00  0.00    -0.504 OA
ATOM     63  H   UNL     1     -25.082  20.131 -34.614  1.00  0.00     0.293 HD
ENDBRANCH  59  62
BRANCH  60  64
ATOM     64  O   UNL     1     -22.296  20.433 -30.133  1.00  0.00    -0.504 OA
ATOM     65  H   UNL     1     -21.353  20.805 -30.112  1.00  0.00     0.293 HD
ENDBRANCH  60  64
BRANCH  61  66
ATOM     66  O   UNL     1     -23.290  21.474 -32.533  1.00  0.00    -0.502 OA
ATOM     67  H   UNL     1     -22.516  22.001 -32.937  1.00  0.00     0.293 HD
ENDBRANCH  61  66
ENDBRANCH  54  56
ENDBRANCH  53  54
ENDBRANCH   5  53
BRANCH   4  68
ATOM     68  O   UNL     1     -23.743  13.414 -30.370  1.00  0.00    -0.448 OA
BRANCH  68  69
ATOM     69  C   UNL     1     -24.864  13.911 -29.688  1.00  0.00     0.339 C 
ATOM     70  O   UNL     1     -24.735  14.865 -28.873  1.00  0.00    -0.246 OA
BRANCH  69  71
ATOM     71  C   UNL     1     -26.203  13.344 -29.952  1.00  0.00     0.067 A 
ATOM     72  C   UNL     1     -27.190  13.344 -28.950  1.00  0.00     0.066 A 
ATOM     73  C   UNL     1     -26.509  12.803 -31.211  1.00  0.00     0.066 A 
ATOM     74  C   UNL     1     -28.472  12.840 -29.213  1.00  0.00     0.162 A 
ATOM     75  C   UNL     1     -27.781  12.281 -31.483  1.00  0.00     0.162 A 
ATOM     76  C   UNL     1     -28.780  12.318 -30.478  1.00  0.00     0.200 A 
BRANCH  74  77
ATOM     77  O   UNL     1     -29.456  12.866 -28.224  1.00  0.00    -0.504 OA
ATOM     78  H   UNL     1     -30.250  13.485 -28.287  1.00  0.00     0.293 HD
ENDBRANCH  74  77
BRANCH  75  79
ATOM     79  O   UNL     1     -27.998  11.733 -32.750  1.00  0.00    -0.504 OA
ATOM     80  H   UNL     1     -27.630  10.845 -33.052  1.00  0.00     0.293 HD
ENDBRANCH  75  79
BRANCH  76  81
ATOM     81  O   UNL     1     -30.080  11.861 -30.703  1.00  0.00    -0.502 OA
ATOM     82  H   UNL     1     -30.301  11.102 -31.325  1.00  0.00     0.293 HD
ENDBRANCH  76  81
ENDBRANCH  69  71
ENDBRANCH  68  69
ENDBRANCH   4  68
TORSDOF 31
ENDMDL
MODEL 2
REMARK VINA RESULT:     0.385      2.186      4.232
REMARK INTER + INTRA:           4.312
REMARK INTER:                   1.094
REMARK INTRA:                   3.218
REMARK UNBOUND:                 3.398
REMARK SMILES O=C(OC[C@@H]1O[C@@H](OC(=O)c2cc(O)c(O)c(O)c2)[C@@H](OC(=O)c2cc(O)c(O)c(O)c2)[C@H](OC(=O)c2cc(O)c(O)c(O)c2)[C@@H]1OC(=O)c1cc(O)c(O)c(O)c1)c1cc(O)c(O)c(O)c1
REMARK SMILES IDX 5 1 46 2 33 3 20 4 7 5 6 6 4 7 3 8 2 9 1 10 59 11 60 12
REMARK SMILES IDX 61 13 67 14 63 15 65 16 62 17 64 19 66 21 47 23 48 24 49 25
REMARK SMILES IDX 50 26 58 27 51 28 56 29 52 30 54 31 57 32 53 34 55 36 34 38
REMARK SMILES IDX 35 39 36 40 37 41 45 42 38 43 43 44 39 45 41 46 44 47 40 49
REMARK SMILES IDX 42 51 8 53 9 54 10 55 11 56 19 57 12 58 17 59 13 60 15 61
REMARK SMILES IDX 18 62 14 64 16 66 21 68 22 69 23 70 24 71 32 72 25 73 30 74
REMARK SMILES IDX 26 75 28 76 31 77 27 79 29 81
REMARK H PARENT 62 18 64 20 66 22 57 33 53 35 55 37 44 48 40 50 42 52 18 63
REMARK H PARENT 14 65 16 67 31 78 27 80 29 82
REMARK Flexibility Score: inf
ROOT
ATOM      1  C   UNL     1     -21.553  13.901 -30.696  1.00  0.00     0.205 C 
ATOM      2  C   UNL     1     -22.770  12.972 -30.901  1.00  0.00     0.254 C 
ATOM      3  C   UNL     1     -23.925  13.782 -31.523  1.00  0.00     0.267 C 
ATOM      4  C   UNL     1     -24.196  15.044 -30.685  1.00  0.00     0.290 C 
ATOM      5  C   UNL     1     -22.885  15.816 -30.449  1.00  0.00     0.357 C 
ATOM      6  O   UNL     1     -21.897  14.991 -29.854  1.00  0.00    -0.329 OA
ENDROOT
BRANCH   1   7
ATOM      7  C   UNL     1     -20.371  13.136 -30.076  1.00  0.00     0.269 C 
BRANCH   7   8
ATOM      8  O   UNL     1     -19.137  13.565 -30.649  1.00  0.00    -0.459 OA
BRANCH   8   9
ATOM      9  C   UNL     1     -17.929  13.640 -29.947  1.00  0.00     0.338 C 
ATOM     10  O   UNL     1     -17.898  13.398 -28.710  1.00  0.00    -0.246 OA
BRANCH   9  11
ATOM     11  C   UNL     1     -16.683  13.973 -30.670  1.00  0.00     0.067 A 
ATOM     12  C   UNL     1     -16.427  13.413 -31.929  1.00  0.00     0.066 A 
ATOM     13  C   UNL     1     -15.247  13.705 -32.616  1.00  0.00     0.162 A 
ATOM     14  C   UNL     1     -15.739  14.845 -30.108  1.00  0.00     0.066 A 
ATOM     15  C   UNL     1     -14.295  14.570 -32.047  1.00  0.00     0.200 A 
ATOM     16  C   UNL     1     -14.551  15.153 -30.781  1.00  0.00     0.162 A 
BRANCH  13  17
ATOM     17  O   UNL     1     -15.027  13.110 -33.860  1.00  0.00    -0.504 OA
ATOM     18  H   UNL     1     -15.025  12.105 -33.987  1.00  0.00     0.293 HD
ENDBRANCH  13  17
BRANCH  15  19
ATOM     19  O   UNL     1     -13.117  14.821 -32.757  1.00  0.00    -0.502 OA
ATOM     20  H   UNL     1     -12.446  15.530 -32.506  1.00  0.00     0.293 HD
ENDBRANCH  15  19
BRANCH  16  21
ATOM     21  O   UNL     1     -13.665  16.040 -30.163  1.00  0.00    -0.504 OA
ATOM     22  H   UNL     1     -12.763  16.291 -30.533  1.00  0.00     0.293 HD
ENDBRANCH  16  21
ENDBRANCH   9  11
ENDBRANCH   8   9
ENDBRANCH   7   8
ENDBRANCH   1   7
BRANCH   2  23
ATOM     23  O   UNL     1     -23.176  12.436 -29.642  1.00  0.00    -0.452 OA
BRANCH  23  24
ATOM     24  C   UNL     1     -22.915  11.122 -29.228  1.00  0.00     0.338 C 
ATOM     25  O   UNL     1     -23.777  10.217 -29.398  1.00  0.00    -0.246 OA
BRANCH  24  26
ATOM     26  C   UNL     1     -21.620  10.803 -28.594  1.00  0.00     0.067 A 
ATOM     27  C   UNL     1     -21.547  10.505 -27.222  1.00  0.00     0.066 A 
ATOM     28  C   UNL     1     -20.446  10.785 -29.361  1.00  0.00     0.066 A 
ATOM     29  C   UNL     1     -20.323  10.194 -26.625  1.00  0.00     0.162 A 
ATOM     30  C   UNL     1     -19.215  10.481 -28.772  1.00  0.00     0.162 A 
ATOM     31  C   UNL     1     -19.149  10.186 -27.399  1.00  0.00     0.200 A 
BRANCH  29  32
ATOM     32  O   UNL     1     -20.292   9.875 -25.267  1.00  0.00    -0.504 OA
ATOM     33  H   UNL     1     -19.454   9.986 -24.709  1.00  0.00     0.293 HD
ENDBRANCH  29  32
BRANCH  30  34
ATOM     34  O   UNL     1     -18.052  10.478 -29.543  1.00  0.00    -0.504 OA
ATOM     35  H   UNL     1     -17.701   9.622 -29.961  1.00  0.00     0.293 HD
ENDBRANCH  30  34
BRANCH  31  36
ATOM     36  O   UNL     1     -17.929   9.875 -26.796  1.00  0.00    -0.502 OA
ATOM     37  H   UNL     1     -17.445  10.527 -26.185  1.00  0.00     0.293 HD
ENDBRANCH  31  36
ENDBRANCH  24  26
ENDBRANCH  23  24
ENDBRANCH   2  23
BRANCH   3  38
ATOM     38  O   UNL     1     -25.118  12.999 -31.583  1.00  0.00    -0.450 OA
BRANCH  38  39
ATOM     39  C   UNL     1     -26.334  13.362 -30.996  1.00  0.00     0.338 C 
ATOM     40  O   UNL     1     -26.994  14.335 -31.456  1.00  0.00    -0.246 OA
BRANCH  39  41
ATOM     41  C   UNL     1     -26.837  12.604 -29.827  1.00  0.00     0.067 A 
ATOM     42  C   UNL     1     -25.954  12.061 -28.877  1.00  0.00     0.066 A 
ATOM     43  C   UNL     1     -28.217  12.411 -29.659  1.00  0.00     0.066 A 
ATOM     44  C   UNL     1     -26.438  11.310 -27.796  1.00  0.00     0.162 A 
ATOM     45  C   UNL     1     -28.709  11.662 -28.587  1.00  0.00     0.162 A 
ATOM     46  C   UNL     1     -27.821  11.103 -27.653  1.00  0.00     0.200 A 
BRANCH  44  47
ATOM     47  O   UNL     1     -25.551  10.765 -26.863  1.00  0.00    -0.504 OA
ATOM     48  H   UNL     1     -25.127   9.853 -26.996  1.00  0.00     0.293 HD
ENDBRANCH  44  47
BRANCH  45  49
ATOM     49  O   UNL     1     -30.087  11.485 -28.459  1.00  0.00    -0.504 OA
ATOM     50  H   UNL     1     -30.743  12.233 -28.641  1.00  0.00     0.293 HD
ENDBRANCH  45  49
BRANCH  46  51
ATOM     51  O   UNL     1     -28.324  10.352 -26.591  1.00  0.00    -0.502 OA
ATOM     52  H   UNL     1     -29.233  10.531 -26.179  1.00  0.00     0.293 HD
ENDBRANCH  46  51
ENDBRANCH  39  41
ENDBRANCH  38  39
ENDBRANCH   3  38
BRANCH   5  53
ATOM     53  O   UNL     1     -22.402  16.382 -31.670  1.00  0.00    -0.428 OA
BRANCH  53  54
ATOM     54  C   UNL     1     -22.996  17.483 -32.299  1.00  0.00     0.340 C 
ATOM     55  O   UNL     1     -23.664  17.324 -33.357  1.00  0.00    -0.246 OA
BRANCH  54  56
ATOM     56  C   UNL     1     -22.809  18.836 -31.728  1.00  0.00     0.067 A 
ATOM     57  C   UNL     1     -22.854  19.965 -32.562  1.00  0.00     0.066 A 
ATOM     58  C   UNL     1     -22.598  19.007 -30.350  1.00  0.00     0.066 A 
ATOM     59  C   UNL     1     -22.681  21.250 -32.029  1.00  0.00     0.162 A 
ATOM     60  C   UNL     1     -22.432  20.289 -29.811  1.00  0.00     0.162 A 
ATOM     61  C   UNL     1     -22.465  21.414 -30.650  1.00  0.00     0.200 A 
BRANCH  59  62
ATOM     62  O   UNL     1     -22.722  22.365 -32.863  1.00  0.00    -0.504 OA
ATOM     63  H   UNL     1     -23.412  23.097 -32.739  1.00  0.00     0.293 HD
ENDBRANCH  59  62
BRANCH  60  64
ATOM     64  O   UNL     1     -22.219  20.434 -28.440  1.00  0.00    -0.504 OA
ATOM     65  H   UNL     1     -21.876  19.671 -27.868  1.00  0.00     0.293 HD
ENDBRANCH  60  64
BRANCH  61  66
ATOM     66  O   UNL     1     -22.285  22.686 -30.099  1.00  0.00    -0.502 OA
ATOM     67  H   UNL     1     -21.359  23.054 -29.887  1.00  0.00     0.293 HD
ENDBRANCH  61  66
ENDBRANCH  54  56
ENDBRANCH  53  54
ENDBRANCH   5  53
BRANCH   4  68
ATOM     68  O   UNL     1     -25.133  15.893 -31.355  1.00  0.00    -0.448 OA
BRANCH  68  69
ATOM     69  C   UNL     1     -25.702  17.034 -30.770  1.00  0.00     0.339 C 
ATOM     70  O   UNL     1     -25.505  17.283 -29.550  1.00  0.00    -0.246 OA
BRANCH  69  71
ATOM     71  C   UNL     1     -26.501  17.968 -31.592  1.00  0.00     0.067 A 
ATOM     72  C   UNL     1     -25.877  19.008 -32.304  1.00  0.00     0.066 A 
ATOM     73  C   UNL     1     -27.895  17.824 -31.676  1.00  0.00     0.066 A 
ATOM     74  C   UNL     1     -26.631  19.870 -33.113  1.00  0.00     0.162 A 
ATOM     75  C   UNL     1     -28.663  18.689 -32.468  1.00  0.00     0.162 A 
ATOM     76  C   UNL     1     -28.021  19.711 -33.211  1.00  0.00     0.200 A 
BRANCH  74  77
ATOM     77  O   UNL     1     -26.004  20.884 -33.837  1.00  0.00    -0.504 OA
ATOM     78  H   UNL     1     -26.531  21.634 -34.257  1.00  0.00     0.293 HD
ENDBRANCH  74  77
BRANCH  75  79
ATOM     79  O   UNL     1     -30.048  18.500 -32.477  1.00  0.00    -0.504 OA
ATOM     80  H   UNL     1     -30.716  19.205 -32.209  1.00  0.00     0.293 HD
ENDBRANCH  75  79
BRANCH  76  81
ATOM     81  O   UNL     1     -28.724  20.572 -34.056  1.00  0.00    -0.502 OA
ATOM     82  H   UNL     1     -28.294  21.089 -34.803  1.00  0.00     0.293 HD
ENDBRANCH  76  81
ENDBRANCH  69  71
ENDBRANCH  68  69
ENDBRANCH   4  68
TORSDOF 31
ENDMDL
MODEL 3
REMARK VINA RESULT:     0.529      2.155      4.160
REMARK INTER + INTRA:           4.655
REMARK INTER:                   0.854
REMARK INTRA:                   3.801
REMARK UNBOUND:                 3.398
REMARK SMILES O=C(OC[C@@H]1O[C@@H](OC(=O)c2cc(O)c(O)c(O)c2)[C@@H](OC(=O)c2cc(O)c(O)c(O)c2)[C@H](OC(=O)c2cc(O)c(O)c(O)c2)[C@@H]1OC(=O)c1cc(O)c(O)c(O)c1)c1cc(O)c(O)c(O)c1
REMARK SMILES IDX 5 1 46 2 33 3 20 4 7 5 6 6 4 7 3 8 2 9 1 10 59 11 60 12
REMARK SMILES IDX 61 13 67 14 63 15 65 16 62 17 64 19 66 21 47 23 48 24 49 25
REMARK SMILES IDX 50 26 58 27 51 28 56 29 52 30 54 31 57 32 53 34 55 36 34 38
REMARK SMILES IDX 35 39 36 40 37 41 45 42 38 43 43 44 39 45 41 46 44 47 40 49
REMARK SMILES IDX 42 51 8 53 9 54 10 55 11 56 19 57 12 58 17 59 13 60 15 61
REMARK SMILES IDX 18 62 14 64 16 66 21 68 22 69 23 70 24 71 32 72 25 73 30 74
REMARK SMILES IDX 26 75 28 76 31 77 27 79 29 81
REMARK H PARENT 62 18 64 20 66 22 57 33 53 35 55 37 44 48 40 50 42 52 18 63
REMARK H PARENT 14 65 16 67 31 78 27 80 29 82
REMARK Flexibility Score: inf
ROOT
ATOM      1  C   UNL     1     -21.404  13.971 -30.676  1.00  0.00     0.205 C 
ATOM      2  C   UNL     1     -22.594  13.008 -30.881  1.00  0.00     0.254 C 
ATOM      3  C   UNL     1     -23.775  13.788 -31.495  1.00  0.00     0.267 C 
ATOM      4  C   UNL     1     -24.079  15.039 -30.650  1.00  0.00     0.290 C 
ATOM      5  C   UNL     1     -22.790  15.846 -30.416  1.00  0.00     0.357 C 
ATOM      6  O   UNL     1     -21.776  15.047 -29.827  1.00  0.00    -0.329 OA
ENDROOT
BRANCH   1   7
ATOM      7  C   UNL     1     -20.199  13.238 -30.062  1.00  0.00     0.269 C 
BRANCH   7   8
ATOM      8  O   UNL     1     -18.985  13.656 -30.684  1.00  0.00    -0.459 OA
BRANCH   8   9
ATOM      9  C   UNL     1     -17.790  13.890 -29.995  1.00  0.00     0.338 C 
ATOM     10  O   UNL     1     -17.777  13.912 -28.734  1.00  0.00    -0.246 OA
BRANCH   9  11
ATOM     11  C   UNL     1     -16.534  14.078 -30.753  1.00  0.00     0.067 A 
ATOM     12  C   UNL     1     -15.522  14.906 -30.247  1.00  0.00     0.066 A 
ATOM     13  C   UNL     1     -14.338  15.105 -30.961  1.00  0.00     0.162 A 
ATOM     14  C   UNL     1     -16.339  13.440 -31.987  1.00  0.00     0.066 A 
ATOM     15  C   UNL     1     -14.148  14.475 -32.204  1.00  0.00     0.200 A 
ATOM     16  C   UNL     1     -15.160  13.625 -32.717  1.00  0.00     0.162 A 
BRANCH  13  17
ATOM     17  O   UNL     1     -13.364  15.952 -30.427  1.00  0.00    -0.504 OA
ATOM     18  H   UNL     1     -12.416  15.643 -30.249  1.00  0.00     0.293 HD
ENDBRANCH  13  17
BRANCH  15  19
ATOM     19  O   UNL     1     -12.958  14.717 -32.896  1.00  0.00    -0.502 OA
ATOM     20  H   UNL     1     -12.050  14.406 -32.587  1.00  0.00     0.293 HD
ENDBRANCH  15  19
BRANCH  16  21
ATOM     21  O   UNL     1     -15.033  12.946 -33.931  1.00  0.00    -0.504 OA
ATOM     22  H   UNL     1     -14.257  12.351 -34.171  1.00  0.00     0.293 HD
ENDBRANCH  16  21
ENDBRANCH   9  11
ENDBRANCH   8   9
ENDBRANCH   7   8
ENDBRANCH   1   7
BRANCH   2  23
ATOM     23  O   UNL     1     -22.981  12.456 -29.622  1.00  0.00    -0.452 OA
BRANCH  23  24
ATOM     24  C   UNL     1     -22.693  11.144 -29.221  1.00  0.00     0.338 C 
ATOM     25  O   UNL     1     -23.584  10.252 -29.273  1.00  0.00    -0.246 OA
BRANCH  24  26
ATOM     26  C   UNL     1     -21.337  10.810 -28.740  1.00  0.00     0.067 A 
ATOM     27  C   UNL     1     -20.244  10.804 -29.624  1.00  0.00     0.066 A 
ATOM     28  C   UNL     1     -21.125  10.504 -27.388  1.00  0.00     0.066 A 
ATOM     29  C   UNL     1     -18.960  10.498 -29.166  1.00  0.00     0.162 A 
ATOM     30  C   UNL     1     -19.846  10.190 -26.922  1.00  0.00     0.162 A 
ATOM     31  C   UNL     1     -18.757  10.184 -27.811  1.00  0.00     0.200 A 
BRANCH  29  32
ATOM     32  O   UNL     1     -17.894  10.530 -30.066  1.00  0.00    -0.504 OA
ATOM     33  H   UNL     1     -16.968  10.832 -29.788  1.00  0.00     0.293 HD
ENDBRANCH  29  32
BRANCH  30  34
ATOM     34  O   UNL     1     -19.649   9.875 -25.576  1.00  0.00    -0.504 OA
ATOM     35  H   UNL     1     -18.724   9.898 -25.161  1.00  0.00     0.293 HD
ENDBRANCH  30  34
BRANCH  31  36
ATOM     36  O   UNL     1     -17.472   9.878 -27.361  1.00  0.00    -0.502 OA
ATOM     37  H   UNL     1     -16.789  10.597 -27.142  1.00  0.00     0.293 HD
ENDBRANCH  31  36
ENDBRANCH  24  26
ENDBRANCH  23  24
ENDBRANCH   2  23
BRANCH   3  38
ATOM     38  O   UNL     1     -24.945  12.972 -31.554  1.00  0.00    -0.450 OA
BRANCH  38  39
ATOM     39  C   UNL     1     -26.177  13.312 -30.988  1.00  0.00     0.338 C 
ATOM     40  O   UNL     1     -26.818  14.310 -31.418  1.00  0.00    -0.246 OA
BRANCH  39  41
ATOM     41  C   UNL     1     -26.719  12.498 -29.875  1.00  0.00     0.067 A 
ATOM     42  C   UNL     1     -28.104  12.346 -29.690  1.00  0.00     0.066 A 
ATOM     43  C   UNL     1     -25.842  11.868 -28.977  1.00  0.00     0.066 A 
ATOM     44  C   UNL     1     -28.607  11.607 -28.609  1.00  0.00     0.162 A 
ATOM     45  C   UNL     1     -26.333  11.132 -27.896  1.00  0.00     0.162 A 
ATOM     46  C   UNL     1     -27.718  11.002 -27.704  1.00  0.00     0.200 A 
BRANCH  44  47
ATOM     47  O   UNL     1     -29.987  11.472 -28.429  1.00  0.00    -0.504 OA
ATOM     48  H   UNL     1     -30.637  11.544 -29.204  1.00  0.00     0.293 HD
ENDBRANCH  44  47
BRANCH  45  49
ATOM     49  O   UNL     1     -25.429  10.528 -27.021  1.00  0.00    -0.504 OA
ATOM     50  H   UNL     1     -24.430  10.653 -27.111  1.00  0.00     0.293 HD
ENDBRANCH  45  49
BRANCH  46  51
ATOM     51  O   UNL     1     -28.195  10.270 -26.617  1.00  0.00    -0.502 OA
ATOM     52  H   UNL     1     -28.497   9.305 -26.700  1.00  0.00     0.293 HD
ENDBRANCH  46  51
ENDBRANCH  39  41
ENDBRANCH  38  39
ENDBRANCH   3  38
BRANCH   5  53
ATOM     53  O   UNL     1     -22.326  16.431 -31.635  1.00  0.00    -0.428 OA
BRANCH  53  54
ATOM     54  C   UNL     1     -22.941  17.532 -32.245  1.00  0.00     0.340 C 
ATOM     55  O   UNL     1     -23.629  17.375 -33.291  1.00  0.00    -0.246 OA
BRANCH  54  56
ATOM     56  C   UNL     1     -22.751  18.882 -31.670  1.00  0.00     0.067 A 
ATOM     57  C   UNL     1     -22.489  19.033 -30.298  1.00  0.00     0.066 A 
ATOM     58  C   UNL     1     -22.818  20.023 -32.486  1.00  0.00     0.066 A 
ATOM     59  C   UNL     1     -22.306  20.309 -29.745  1.00  0.00     0.162 A 
ATOM     60  C   UNL     1     -22.628  21.299 -31.941  1.00  0.00     0.162 A 
ATOM     61  C   UNL     1     -22.379  21.447 -30.567  1.00  0.00     0.200 A 
BRANCH  59  62
ATOM     62  O   UNL     1     -22.051  20.451 -28.383  1.00  0.00    -0.504 OA
ATOM     63  H   UNL     1     -22.796  20.420 -27.696  1.00  0.00     0.293 HD
ENDBRANCH  59  62
BRANCH  60  64
ATOM     64  O   UNL     1     -22.703  22.417 -32.771  1.00  0.00    -0.504 OA
ATOM     65  H   UNL     1     -23.061  22.359 -33.717  1.00  0.00     0.293 HD
ENDBRANCH  60  64
BRANCH  61  66
ATOM     66  O   UNL     1     -22.203  22.727 -30.036  1.00  0.00    -0.502 OA
ATOM     67  H   UNL     1     -22.945  23.425 -30.059  1.00  0.00     0.293 HD
ENDBRANCH  61  66
ENDBRANCH  54  56
ENDBRANCH  53  54
ENDBRANCH   5  53
BRANCH   4  68
ATOM     68  O   UNL     1     -25.041  15.863 -31.314  1.00  0.00    -0.448 OA
BRANCH  68  69
ATOM     69  C   UNL     1     -25.662  16.968 -30.712  1.00  0.00     0.339 C 
ATOM     70  O   UNL     1     -25.532  17.169 -29.474  1.00  0.00    -0.246 OA
BRANCH  69  71
ATOM     71  C   UNL     1     -26.437  17.921 -31.534  1.00  0.00     0.067 A 
ATOM     72  C   UNL     1     -25.783  18.915 -32.284  1.00  0.00     0.066 A 
ATOM     73  C   UNL     1     -27.838  17.843 -31.581  1.00  0.00     0.066 A 
ATOM     74  C   UNL     1     -26.515  19.795 -33.093  1.00  0.00     0.162 A 
ATOM     75  C   UNL     1     -28.584  18.726 -32.372  1.00  0.00     0.162 A 
ATOM     76  C   UNL     1     -27.914  19.701 -33.153  1.00  0.00     0.200 A 
BRANCH  74  77
ATOM     77  O   UNL     1     -25.860  20.762 -33.855  1.00  0.00    -0.504 OA
ATOM     78  H   UNL     1     -25.510  20.557 -34.779  1.00  0.00     0.293 HD
ENDBRANCH  74  77
BRANCH  75  79
ATOM     79  O   UNL     1     -29.976  18.603 -32.342  1.00  0.00    -0.504 OA
ATOM     80  H   UNL     1     -30.569  18.692 -33.152  1.00  0.00     0.293 HD
ENDBRANCH  75  79
BRANCH  76  81
ATOM     81  O   UNL     1     -28.597  20.577 -33.999  1.00  0.00    -0.502 OA
ATOM     82  H   UNL     1     -29.259  20.274 -34.693  1.00  0.00     0.293 HD
ENDBRANCH  76  81
ENDBRANCH  69  71
ENDBRANCH  68  69
ENDBRANCH   4  68
TORSDOF 31
ENDMDL
MODEL 4
REMARK VINA RESULT:     1.392      1.554      9.467
REMARK INTER + INTRA:           6.704
REMARK INTER:                   3.782
REMARK INTRA:                   2.922
REMARK UNBOUND:                 3.398
REMARK SMILES O=C(OC[C@@H]1O[C@@H](OC(=O)c2cc(O)c(O)c(O)c2)[C@@H](OC(=O)c2cc(O)c(O)c(O)c2)[C@H](OC(=O)c2cc(O)c(O)c(O)c2)[C@@H]1OC(=O)c1cc(O)c(O)c(O)c1)c1cc(O)c(O)c(O)c1
REMARK SMILES IDX 5 1 46 2 33 3 20 4 7 5 6 6 4 7 3 8 2 9 1 10 59 11 60 12
REMARK SMILES IDX 61 13 67 14 63 15 65 16 62 17 64 19 66 21 47 23 48 24 49 25
REMARK SMILES IDX 50 26 58 27 51 28 56 29 52 30 54 31 57 32 53 34 55 36 34 38
REMARK SMILES IDX 35 39 36 40 37 41 45 42 38 43 43 44 39 45 41 46 44 47 40 49
REMARK SMILES IDX 42 51 8 53 9 54 10 55 11 56 19 57 12 58 17 59 13 60 15 61
REMARK SMILES IDX 18 62 14 64 16 66 21 68 22 69 23 70 24 71 32 72 25 73 30 74
REMARK SMILES IDX 26 75 28 76 31 77 27 79 29 81
REMARK H PARENT 62 18 64 20 66 22 57 33 53 35 55 37 44 48 40 50 42 52 18 63
REMARK H PARENT 14 65 16 67 31 78 27 80 29 82
REMARK Flexibility Score: inf
ROOT
ATOM      1  C   UNL     1     -21.963  14.580 -30.726  1.00  0.00     0.205 C 
ATOM      2  C   UNL     1     -22.896  13.963 -29.662  1.00  0.00     0.254 C 
ATOM      3  C   UNL     1     -22.121  12.891 -28.870  1.00  0.00     0.267 C 
ATOM      4  C   UNL     1     -21.472  11.885 -29.838  1.00  0.00     0.290 C 
ATOM      5  C   UNL     1     -20.671  12.631 -30.920  1.00  0.00     0.357 C 
ATOM      6  O   UNL     1     -21.479  13.575 -31.604  1.00  0.00    -0.329 OA
ENDROOT
BRANCH   1   7
ATOM      7  C   UNL     1     -22.694  15.658 -31.545  1.00  0.00     0.269 C 
BRANCH   7   8
ATOM      8  O   UNL     1     -22.656  16.914 -30.871  1.00  0.00    -0.459 OA
BRANCH   8   9
ATOM      9  C   UNL     1     -23.707  17.839 -30.873  1.00  0.00     0.338 C 
ATOM     10  O   UNL     1     -24.382  18.035 -29.827  1.00  0.00    -0.246 OA
BRANCH   9  11
ATOM     11  C   UNL     1     -23.998  18.611 -32.101  1.00  0.00     0.067 A 
ATOM     12  C   UNL     1     -25.321  18.777 -32.532  1.00  0.00     0.066 A 
ATOM     13  C   UNL     1     -25.609  19.489 -33.698  1.00  0.00     0.162 A 
ATOM     14  C   UNL     1     -22.960  19.180 -32.854  1.00  0.00     0.066 A 
ATOM     15  C   UNL     1     -24.567  20.049 -34.459  1.00  0.00     0.200 A 
ATOM     16  C   UNL     1     -23.227  19.898 -34.024  1.00  0.00     0.162 A 
BRANCH  13  17
ATOM     17  O   UNL     1     -26.941  19.615 -34.099  1.00  0.00    -0.504 OA
ATOM     18  H   UNL     1     -27.327  19.085 -34.871  1.00  0.00     0.293 HD
ENDBRANCH  13  17
BRANCH  15  19
ATOM     19  O   UNL     1     -24.896  20.737 -35.631  1.00  0.00    -0.502 OA
ATOM     20  H   UNL     1     -24.425  21.569 -35.949  1.00  0.00     0.293 HD
ENDBRANCH  15  19
BRANCH  16  21
ATOM     21  O   UNL     1     -22.142  20.447 -34.712  1.00  0.00    -0.504 OA
ATOM     22  H   UNL     1     -21.504  19.916 -35.283  1.00  0.00     0.293 HD
ENDBRANCH  16  21
ENDBRANCH   9  11
ENDBRANCH   8   9
ENDBRANCH   7   8
ENDBRANCH   1   7
BRANCH   2  23
ATOM     23  O   UNL     1     -24.024  13.369 -30.305  1.00  0.00    -0.452 OA
BRANCH  23  24
ATOM     24  C   UNL     1     -25.236  14.034 -30.533  1.00  0.00     0.338 C 
ATOM     25  O   UNL     1     -25.314  15.285 -30.388  1.00  0.00    -0.246 OA
BRANCH  24  26
ATOM     26  C   UNL     1     -26.424  13.261 -30.948  1.00  0.00     0.067 A 
ATOM     27  C   UNL     1     -27.600  13.282 -30.177  1.00  0.00     0.066 A 
ATOM     28  C   UNL     1     -26.393  12.501 -32.127  1.00  0.00     0.066 A 
ATOM     29  C   UNL     1     -28.726  12.558 -30.576  1.00  0.00     0.162 A 
ATOM     30  C   UNL     1     -27.513  11.768 -32.530  1.00  0.00     0.162 A 
ATOM     31  C   UNL     1     -28.685  11.792 -31.754  1.00  0.00     0.200 A 
BRANCH  29  32
ATOM     32  O   UNL     1     -29.885  12.626 -29.801  1.00  0.00    -0.504 OA
ATOM     33  H   UNL     1     -30.706  12.073 -30.016  1.00  0.00     0.293 HD
ENDBRANCH  29  32
BRANCH  30  34
ATOM     34  O   UNL     1     -27.466  11.006 -33.699  1.00  0.00    -0.504 OA
ATOM     35  H   UNL     1     -27.442   9.992 -33.665  1.00  0.00     0.293 HD
ENDBRANCH  30  34
BRANCH  31  36
ATOM     36  O   UNL     1     -29.813  11.070 -32.146  1.00  0.00    -0.502 OA
ATOM     37  H   UNL     1     -29.940  10.091 -31.904  1.00  0.00     0.293 HD
ENDBRANCH  31  36
ENDBRANCH  24  26
ENDBRANCH  23  24
ENDBRANCH   2  23
BRANCH   3  38
ATOM     38  O   UNL     1     -22.991  12.187 -27.983  1.00  0.00    -0.450 OA
BRANCH  38  39
ATOM     39  C   UNL     1     -23.408  10.865 -28.166  1.00  0.00     0.338 C 
ATOM     40  O   UNL     1     -22.563   9.928 -28.165  1.00  0.00    -0.246 OA
BRANCH  39  41
ATOM     41  C   UNL     1     -24.847  10.574 -28.369  1.00  0.00     0.067 A 
ATOM     42  C   UNL     1     -25.367  10.335 -29.653  1.00  0.00     0.066 A 
ATOM     43  C   UNL     1     -25.716  10.543 -27.268  1.00  0.00     0.066 A 
ATOM     44  C   UNL     1     -26.737  10.101 -29.839  1.00  0.00     0.162 A 
ATOM     45  C   UNL     1     -27.084  10.313 -27.443  1.00  0.00     0.162 A 
ATOM     46  C   UNL     1     -27.601  10.097 -28.731  1.00  0.00     0.200 A 
BRANCH  44  47
ATOM     47  O   UNL     1     -27.245   9.875 -31.122  1.00  0.00    -0.504 OA
ATOM     48  H   UNL     1     -27.958   9.175 -31.299  1.00  0.00     0.293 HD
ENDBRANCH  44  47
BRANCH  45  49
ATOM     49  O   UNL     1     -27.917  10.298 -26.324  1.00  0.00    -0.504 OA
ATOM     50  H   UNL     1     -27.626   9.896 -25.444  1.00  0.00     0.293 HD
ENDBRANCH  45  49
BRANCH  46  51
ATOM     51  O   UNL     1     -28.968   9.876 -28.893  1.00  0.00    -0.502 OA
ATOM     52  H   UNL     1     -29.656  10.614 -28.792  1.00  0.00     0.293 HD
ENDBRANCH  46  51
ENDBRANCH  39  41
ENDBRANCH  38  39
ENDBRANCH   3  38
BRANCH   5  53
ATOM     53  O   UNL     1     -19.522  13.266 -30.355  1.00  0.00    -0.428 OA
BRANCH  53  54
ATOM     54  C   UNL     1     -18.379  13.594 -31.096  1.00  0.00     0.340 C 
ATOM     55  O   UNL     1     -18.484  13.922 -32.309  1.00  0.00    -0.246 OA
BRANCH  54  56
ATOM     56  C   UNL     1     -17.049  13.522 -30.452  1.00  0.00     0.067 A 
ATOM     57  C   UNL     1     -15.885  13.509 -31.239  1.00  0.00     0.066 A 
ATOM     58  C   UNL     1     -16.933  13.481 -29.053  1.00  0.00     0.066 A 
ATOM     59  C   UNL     1     -14.620  13.444 -30.637  1.00  0.00     0.162 A 
ATOM     60  C   UNL     1     -15.672  13.424 -28.446  1.00  0.00     0.162 A 
ATOM     61  C   UNL     1     -14.512  13.397 -29.237  1.00  0.00     0.200 A 
BRANCH  59  62
ATOM     62  O   UNL     1     -13.471  13.426 -31.423  1.00  0.00    -0.504 OA
ATOM     63  H   UNL     1     -12.564  13.194 -31.035  1.00  0.00     0.293 HD
ENDBRANCH  59  62
BRANCH  60  64
ATOM     64  O   UNL     1     -15.582  13.379 -27.055  1.00  0.00    -0.504 OA
ATOM     65  H   UNL     1     -15.806  12.541 -26.531  1.00  0.00     0.293 HD
ENDBRANCH  60  64
BRANCH  61  66
ATOM     66  O   UNL     1     -13.261  13.328 -28.617  1.00  0.00    -0.502 OA
ATOM     67  H   UNL     1     -12.408  13.151 -29.146  1.00  0.00     0.293 HD
ENDBRANCH  61  66
ENDBRANCH  54  56
ENDBRANCH  53  54
ENDBRANCH   5  53
BRANCH   4  68
ATOM     68  O   UNL     1     -20.599  11.003 -29.125  1.00  0.00    -0.448 OA
BRANCH  68  69
ATOM     69  C   UNL     1     -19.427  10.461 -29.674  1.00  0.00     0.339 C 
ATOM     70  O   UNL     1     -19.382  10.166 -30.899  1.00  0.00    -0.246 OA
BRANCH  69  71
ATOM     71  C   UNL     1     -18.231  10.274 -28.827  1.00  0.00     0.067 A 
ATOM     72  C   UNL     1     -16.949  10.208 -29.403  1.00  0.00     0.066 A 
ATOM     73  C   UNL     1     -18.358  10.164 -27.433  1.00  0.00     0.066 A 
ATOM     74  C   UNL     1     -15.811  10.068 -28.596  1.00  0.00     0.162 A 
ATOM     75  C   UNL     1     -17.231  10.008 -26.615  1.00  0.00     0.162 A 
ATOM     76  C   UNL     1     -15.941   9.979 -27.202  1.00  0.00     0.200 A 
BRANCH  74  77
ATOM     77  O   UNL     1     -14.541  10.029 -29.170  1.00  0.00    -0.504 OA
ATOM     78  H   UNL     1     -13.900   9.274 -28.981  1.00  0.00     0.293 HD
ENDBRANCH  74  77
BRANCH  75  79
ATOM     79  O   UNL     1     -17.443   9.876 -25.239  1.00  0.00    -0.504 OA
ATOM     80  H   UNL     1     -17.445  10.647 -24.591  1.00  0.00     0.293 HD
ENDBRANCH  75  79
BRANCH  76  81
ATOM     81  O   UNL     1     -14.777   9.875 -26.438  1.00  0.00    -0.502 OA
ATOM     82  H   UNL     1     -14.488   9.029 -25.978  1.00  0.00     0.293 HD
ENDBRANCH  76  81
ENDBRANCH  69  71
ENDBRANCH  68  69
ENDBRANCH   4  68
TORSDOF 31
ENDMDL
MODEL 5
REMARK VINA RESULT:     1.485      1.539      9.529
REMARK INTER + INTRA:           6.924
REMARK INTER:                   2.374
REMARK INTRA:                   4.549
REMARK UNBOUND:                 3.398
REMARK SMILES O=C(OC[C@@H]1O[C@@H](OC(=O)c2cc(O)c(O)c(O)c2)[C@@H](OC(=O)c2cc(O)c(O)c(O)c2)[C@H](OC(=O)c2cc(O)c(O)c(O)c2)[C@@H]1OC(=O)c1cc(O)c(O)c(O)c1)c1cc(O)c(O)c(O)c1
REMARK SMILES IDX 5 1 46 2 33 3 20 4 7 5 6 6 4 7 3 8 2 9 1 10 59 11 60 12
REMARK SMILES IDX 61 13 67 14 63 15 65 16 62 17 64 19 66 21 47 23 48 24 49 25
REMARK SMILES IDX 50 26 58 27 51 28 56 29 52 30 54 31 57 32 53 34 55 36 34 38
REMARK SMILES IDX 35 39 36 40 37 41 45 42 38 43 43 44 39 45 41 46 44 47 40 49
REMARK SMILES IDX 42 51 8 53 9 54 10 55 11 56 19 57 12 58 17 59 13 60 15 61
REMARK SMILES IDX 18 62 14 64 16 66 21 68 22 69 23 70 24 71 32 72 25 73 30 74
REMARK SMILES IDX 26 75 28 76 31 77 27 79 29 81
REMARK H PARENT 62 18 64 20 66 22 57 33 53 35 55 37 44 48 40 50 42 52 18 63
REMARK H PARENT 14 65 16 67 31 78 27 80 29 82
REMARK Flexibility Score: inf
ROOT
ATOM      1  C   UNL     1     -22.018  14.753 -30.837  1.00  0.00     0.205 C 
ATOM      2  C   UNL     1     -22.880  14.104 -29.731  1.00  0.00     0.254 C 
ATOM      3  C   UNL     1     -22.031  13.062 -28.975  1.00  0.00     0.267 C 
ATOM      4  C   UNL     1     -21.392  12.078 -29.972  1.00  0.00     0.290 C 
ATOM      5  C   UNL     1     -20.668  12.850 -31.089  1.00  0.00     0.357 C 
ATOM      6  O   UNL     1     -21.540  13.764 -31.737  1.00  0.00    -0.329 OA
ENDROOT
BRANCH   1   7
ATOM      7  C   UNL     1     -22.824  15.802 -31.622  1.00  0.00     0.269 C 
BRANCH   7   8
ATOM      8  O   UNL     1     -23.270  16.844 -30.757  1.00  0.00    -0.459 OA
BRANCH   8   9
ATOM      9  C   UNL     1     -24.444  17.581 -30.955  1.00  0.00     0.338 C 
ATOM     10  O   UNL     1     -25.367  17.548 -30.098  1.00  0.00    -0.246 OA
BRANCH   9  11
ATOM     11  C   UNL     1     -24.580  18.427 -32.161  1.00  0.00     0.067 A 
ATOM     12  C   UNL     1     -23.481  18.633 -33.006  1.00  0.00     0.066 A 
ATOM     13  C   UNL     1     -23.591  19.443 -34.138  1.00  0.00     0.162 A 
ATOM     14  C   UNL     1     -25.803  19.037 -32.474  1.00  0.00     0.066 A 
ATOM     15  C   UNL     1     -24.815  20.064 -34.446  1.00  0.00     0.200 A 
ATOM     16  C   UNL     1     -25.936  19.850 -33.605  1.00  0.00     0.162 A 
BRANCH  13  17
ATOM     17  O   UNL     1     -22.465  19.634 -34.941  1.00  0.00    -0.504 OA
ATOM     18  H   UNL     1     -22.405  19.275 -35.887  1.00  0.00     0.293 HD
ENDBRANCH  13  17
BRANCH  15  19
ATOM     19  O   UNL     1     -24.878  20.883 -35.577  1.00  0.00    -0.502 OA
ATOM     20  H   UNL     1     -24.213  20.854 -36.334  1.00  0.00     0.293 HD
ENDBRANCH  15  19
BRANCH  16  21
ATOM     21  O   UNL     1     -27.189  20.413 -33.859  1.00  0.00    -0.504 OA
ATOM     22  H   UNL     1     -27.629  21.107 -33.276  1.00  0.00     0.293 HD
ENDBRANCH  16  21
ENDBRANCH   9  11
ENDBRANCH   8   9
ENDBRANCH   7   8
ENDBRANCH   1   7
BRANCH   2  23
ATOM     23  O   UNL     1     -24.013  13.469 -30.322  1.00  0.00    -0.452 OA
BRANCH  23  24
ATOM     24  C   UNL     1     -25.319  13.974 -30.252  1.00  0.00     0.338 C 
ATOM     25  O   UNL     1     -25.544  15.084 -29.698  1.00  0.00    -0.246 OA
BRANCH  24  26
ATOM     26  C   UNL     1     -26.432  13.197 -30.836  1.00  0.00     0.067 A 
ATOM     27  C   UNL     1     -26.272  12.521 -32.058  1.00  0.00     0.066 A 
ATOM     28  C   UNL     1     -27.663  13.119 -30.167  1.00  0.00     0.066 A 
ATOM     29  C   UNL     1     -27.322  11.779 -32.604  1.00  0.00     0.162 A 
ATOM     30  C   UNL     1     -28.721  12.385 -30.709  1.00  0.00     0.162 A 
ATOM     31  C   UNL     1     -28.556  11.712 -31.932  1.00  0.00     0.200 A 
BRANCH  29  32
ATOM     32  O   UNL     1     -27.118  11.097 -33.804  1.00  0.00    -0.504 OA
ATOM     33  H   UNL     1     -26.236  11.139 -34.300  1.00  0.00     0.293 HD
ENDBRANCH  29  32
BRANCH  30  34
ATOM     34  O   UNL     1     -29.945  12.325 -30.039  1.00  0.00    -0.504 OA
ATOM     35  H   UNL     1     -30.239  13.068 -29.414  1.00  0.00     0.293 HD
ENDBRANCH  30  34
BRANCH  31  36
ATOM     36  O   UNL     1     -29.601  10.970 -32.484  1.00  0.00    -0.502 OA
ATOM     37  H   UNL     1     -30.473  11.400 -32.779  1.00  0.00     0.293 HD
ENDBRANCH  31  36
ENDBRANCH  24  26
ENDBRANCH  23  24
ENDBRANCH   2  23
BRANCH   3  38
ATOM     38  O   UNL     1     -22.834  12.329 -28.050  1.00  0.00    -0.450 OA
BRANCH  38  39
ATOM     39  C   UNL     1     -23.222  10.996 -28.219  1.00  0.00     0.338 C 
ATOM     40  O   UNL     1     -22.356  10.078 -28.202  1.00  0.00    -0.246 OA
BRANCH  39  41
ATOM     41  C   UNL     1     -24.652  10.671 -28.427  1.00  0.00     0.067 A 
ATOM     42  C   UNL     1     -25.159  10.401 -29.709  1.00  0.00     0.066 A 
ATOM     43  C   UNL     1     -25.528  10.638 -27.330  1.00  0.00     0.066 A 
ATOM     44  C   UNL     1     -26.522  10.135 -29.900  1.00  0.00     0.162 A 
ATOM     45  C   UNL     1     -26.889  10.377 -27.510  1.00  0.00     0.162 A 
ATOM     46  C   UNL     1     -27.393  10.129 -28.797  1.00  0.00     0.200 A 
BRANCH  44  47
ATOM     47  O   UNL     1     -27.017   9.878 -31.182  1.00  0.00    -0.504 OA
ATOM     48  H   UNL     1     -28.006   9.953 -31.399  1.00  0.00     0.293 HD
ENDBRANCH  44  47
BRANCH  45  49
ATOM     49  O   UNL     1     -27.729  10.361 -26.396  1.00  0.00    -0.504 OA
ATOM     50  H   UNL     1     -27.924  11.196 -25.860  1.00  0.00     0.293 HD
ENDBRANCH  45  49
BRANCH  46  51
ATOM     51  O   UNL     1     -28.754   9.876 -28.964  1.00  0.00    -0.502 OA
ATOM     52  H   UNL     1     -29.402  10.578 -29.307  1.00  0.00     0.293 HD
ENDBRANCH  46  51
ENDBRANCH  39  41
ENDBRANCH  38  39
ENDBRANCH   3  38
BRANCH   5  53
ATOM     53  O   UNL     1     -19.518  13.527 -30.577  1.00  0.00    -0.428 OA
BRANCH  53  54
ATOM     54  C   UNL     1     -18.374  13.791 -31.342  1.00  0.00     0.340 C 
ATOM     55  O   UNL     1     -18.476  14.008 -32.581  1.00  0.00    -0.246 OA
BRANCH  54  56
ATOM     56  C   UNL     1     -17.045  13.784 -30.691  1.00  0.00     0.067 A 
ATOM     57  C   UNL     1     -16.942  13.606 -29.301  1.00  0.00     0.066 A 
ATOM     58  C   UNL     1     -15.876  13.940 -31.453  1.00  0.00     0.066 A 
ATOM     59  C   UNL     1     -15.687  13.595 -28.677  1.00  0.00     0.162 A 
ATOM     60  C   UNL     1     -14.618  13.922 -30.835  1.00  0.00     0.162 A 
ATOM     61  C   UNL     1     -14.520  13.757 -29.444  1.00  0.00     0.200 A 
BRANCH  59  62
ATOM     62  O   UNL     1     -15.592  13.424 -27.298  1.00  0.00    -0.504 OA
ATOM     63  H   UNL     1     -16.331  12.980 -26.765  1.00  0.00     0.293 HD
ENDBRANCH  59  62
BRANCH  60  64
ATOM     64  O   UNL     1     -13.471  14.083 -31.612  1.00  0.00    -0.504 OA
ATOM     65  H   UNL     1     -12.999  14.977 -31.692  1.00  0.00     0.293 HD
ENDBRANCH  60  64
BRANCH  61  66
ATOM     66  O   UNL     1     -13.260  13.753 -28.841  1.00  0.00    -0.502 OA
ATOM     67  H   UNL     1     -12.801  12.888 -28.559  1.00  0.00     0.293 HD
ENDBRANCH  61  66
ENDBRANCH  54  56
ENDBRANCH  53  54
ENDBRANCH   5  53
BRANCH   4  68
ATOM     68  O   UNL     1     -20.456  11.229 -29.299  1.00  0.00    -0.448 OA
BRANCH  68  69
ATOM     69  C   UNL     1     -19.249  10.800 -29.871  1.00  0.00     0.339 C 
ATOM     70  O   UNL     1     -19.168  10.621 -31.116  1.00  0.00    -0.246 OA
BRANCH  69  71
ATOM     71  C   UNL     1     -18.058  10.595 -29.019  1.00  0.00     0.067 A 
ATOM     72  C   UNL     1     -18.183  10.524 -27.620  1.00  0.00     0.066 A 
ATOM     73  C   UNL     1     -16.786  10.465 -29.598  1.00  0.00     0.066 A 
ATOM     74  C   UNL     1     -17.058  10.292 -26.816  1.00  0.00     0.162 A 
ATOM     75  C   UNL     1     -15.651  10.249 -28.805  1.00  0.00     0.162 A 
ATOM     76  C   UNL     1     -15.792  10.142 -27.399  1.00  0.00     0.200 A 
BRANCH  74  77
ATOM     77  O   UNL     1     -17.191  10.196 -25.431  1.00  0.00    -0.504 OA
ATOM     78  H   UNL     1     -18.087  10.033 -24.997  1.00  0.00     0.293 HD
ENDBRANCH  74  77
BRANCH  75  79
ATOM     79  O   UNL     1     -14.415  10.160 -29.454  1.00  0.00    -0.504 OA
ATOM     80  H   UNL     1     -13.610  10.716 -29.215  1.00  0.00     0.293 HD
ENDBRANCH  75  79
BRANCH  76  81
ATOM     81  O   UNL     1     -14.707   9.879 -26.559  1.00  0.00    -0.502 OA
ATOM     82  H   UNL     1     -14.161  10.597 -26.117  1.00  0.00     0.293 HD
ENDBRANCH  76  81
ENDBRANCH  69  71
ENDBRANCH  68  69
ENDBRANCH   4  68
TORSDOF 31
ENDMDL
MODEL 6
REMARK VINA RESULT:     1.650      2.112      9.845
REMARK INTER + INTRA:           7.315
REMARK INTER:                   4.672
REMARK INTRA:                   2.643
REMARK UNBOUND:                 3.398
REMARK SMILES O=C(OC[C@@H]1O[C@@H](OC(=O)c2cc(O)c(O)c(O)c2)[C@@H](OC(=O)c2cc(O)c(O)c(O)c2)[C@H](OC(=O)c2cc(O)c(O)c(O)c2)[C@@H]1OC(=O)c1cc(O)c(O)c(O)c1)c1cc(O)c(O)c(O)c1
REMARK SMILES IDX 5 1 46 2 33 3 20 4 7 5 6 6 4 7 3 8 2 9 1 10 59 11 60 12
REMARK SMILES IDX 61 13 67 14 63 15 65 16 62 17 64 19 66 21 47 23 48 24 49 25
REMARK SMILES IDX 50 26 58 27 51 28 56 29 52 30 54 31 57 32 53 34 55 36 34 38
REMARK SMILES IDX 35 39 36 40 37 41 45 42 38 43 43 44 39 45 41 46 44 47 40 49
REMARK SMILES IDX 42 51 8 53 9 54 10 55 11 56 19 57 12 58 17 59 13 60 15 61
REMARK SMILES IDX 18 62 14 64 16 66 21 68 22 69 23 70 24 71 32 72 25 73 30 74
REMARK SMILES IDX 26 75 28 76 31 77 27 79 29 81
REMARK H PARENT 62 18 64 20 66 22 57 33 53 35 55 37 44 48 40 50 42 52 18 63
REMARK H PARENT 14 65 16 67 31 78 27 80 29 82
REMARK Flexibility Score: inf
ROOT
ATOM      1  C   UNL     1     -24.303  14.803 -30.370  1.00  0.00     0.205 C 
ATOM      2  C   UNL     1     -23.571  13.796 -29.456  1.00  0.00     0.254 C 
ATOM      3  C   UNL     1     -22.048  13.979 -29.620  1.00  0.00     0.267 C 
ATOM      4  C   UNL     1     -21.666  13.913 -31.110  1.00  0.00     0.290 C 
ATOM      5  C   UNL     1     -22.550  14.872 -31.927  1.00  0.00     0.357 C 
ATOM      6  O   UNL     1     -23.929  14.606 -31.725  1.00  0.00    -0.329 OA
ENDROOT
BRANCH   1   7
ATOM      7  C   UNL     1     -25.829  14.658 -30.241  1.00  0.00     0.269 C 
BRANCH   7   8
ATOM      8  O   UNL     1     -26.495  15.699 -30.954  1.00  0.00    -0.459 OA
BRANCH   8   9
ATOM      9  C   UNL     1     -26.226  17.062 -30.787  1.00  0.00     0.338 C 
ATOM     10  O   UNL     1     -25.510  17.455 -29.827  1.00  0.00    -0.246 OA
BRANCH   9  11
ATOM     11  C   UNL     1     -26.758  18.037 -31.764  1.00  0.00     0.067 A 
ATOM     12  C   UNL     1     -25.898  18.948 -32.391  1.00  0.00     0.066 A 
ATOM     13  C   UNL     1     -26.390  19.885 -33.302  1.00  0.00     0.162 A 
ATOM     14  C   UNL     1     -28.127  18.068 -32.073  1.00  0.00     0.066 A 
ATOM     15  C   UNL     1     -27.764  19.924 -33.603  1.00  0.00     0.200 A 
ATOM     16  C   UNL     1     -28.639  18.997 -32.985  1.00  0.00     0.162 A 
BRANCH  13  17
ATOM     17  O   UNL     1     -25.499  20.785 -33.889  1.00  0.00    -0.504 OA
ATOM     18  H   UNL     1     -24.904  21.396 -33.341  1.00  0.00     0.293 HD
ENDBRANCH  13  17
BRANCH  15  19
ATOM     19  O   UNL     1     -28.219  20.890 -34.505  1.00  0.00    -0.502 OA
ATOM     20  H   UNL     1     -29.138  20.888 -34.919  1.00  0.00     0.293 HD
ENDBRANCH  15  19
BRANCH  16  21
ATOM     21  O   UNL     1     -30.011  18.958 -33.251  1.00  0.00    -0.504 OA
ATOM     22  H   UNL     1     -30.728  19.012 -32.547  1.00  0.00     0.293 HD
ENDBRANCH  16  21
ENDBRANCH   9  11
ENDBRANCH   8   9
ENDBRANCH   7   8
ENDBRANCH   1   7
BRANCH   2  23
ATOM     23  O   UNL     1     -23.941  12.466 -29.821  1.00  0.00    -0.452 OA
BRANCH  23  24
ATOM     24  C   UNL     1     -24.898  11.704 -29.137  1.00  0.00     0.338 C 
ATOM     25  O   UNL     1     -24.639  11.229 -27.997  1.00  0.00    -0.246 OA
BRANCH  24  26
ATOM     26  C   UNL     1     -26.216  11.461 -29.759  1.00  0.00     0.067 A 
ATOM     27  C   UNL     1     -26.323  11.213 -31.138  1.00  0.00     0.066 A 
ATOM     28  C   UNL     1     -27.377  11.468 -28.972  1.00  0.00     0.066 A 
ATOM     29  C   UNL     1     -27.569  10.974 -31.724  1.00  0.00     0.162 A 
ATOM     30  C   UNL     1     -28.629  11.237 -29.550  1.00  0.00     0.162 A 
ATOM     31  C   UNL     1     -28.730  10.991 -30.931  1.00  0.00     0.200 A 
BRANCH  29  32
ATOM     32  O   UNL     1     -27.635  10.702 -33.091  1.00  0.00    -0.504 OA
ATOM     33  H   UNL     1     -26.830  10.370 -33.610  1.00  0.00     0.293 HD
ENDBRANCH  29  32
BRANCH  30  34
ATOM     34  O   UNL     1     -29.779  11.258 -28.759  1.00  0.00    -0.504 OA
ATOM     35  H   UNL     1     -29.917  10.581 -28.015  1.00  0.00     0.293 HD
ENDBRANCH  30  34
BRANCH  31  36
ATOM     36  O   UNL     1     -29.971  10.753 -31.522  1.00  0.00    -0.502 OA
ATOM     37  H   UNL     1     -30.731  11.427 -31.477  1.00  0.00     0.293 HD
ENDBRANCH  31  36
ENDBRANCH  24  26
ENDBRANCH  23  24
ENDBRANCH   2  23
BRANCH   3  38
ATOM     38  O   UNL     1     -21.337  12.963 -28.913  1.00  0.00    -0.450 OA
BRANCH  38  39
ATOM     39  C   UNL     1     -20.909  11.757 -29.476  1.00  0.00     0.338 C 
ATOM     40  O   UNL     1     -21.671  11.114 -30.249  1.00  0.00    -0.246 OA
BRANCH  39  41
ATOM     41  C   UNL     1     -19.561  11.235 -29.150  1.00  0.00     0.067 A 
ATOM     42  C   UNL     1     -19.220  10.865 -27.838  1.00  0.00     0.066 A 
ATOM     43  C   UNL     1     -18.596  11.112 -30.162  1.00  0.00     0.066 A 
ATOM     44  C   UNL     1     -17.929  10.412 -27.533  1.00  0.00     0.162 A 
ATOM     45  C   UNL     1     -17.306  10.663 -29.868  1.00  0.00     0.162 A 
ATOM     46  C   UNL     1     -16.965  10.317 -28.551  1.00  0.00     0.200 A 
BRANCH  44  47
ATOM     47  O   UNL     1     -17.598  10.057 -26.222  1.00  0.00    -0.504 OA
ATOM     48  H   UNL     1     -17.038  10.661 -25.629  1.00  0.00     0.293 HD
ENDBRANCH  44  47
BRANCH  45  49
ATOM     49  O   UNL     1     -16.372  10.562 -30.900  1.00  0.00    -0.504 OA
ATOM     50  H   UNL     1     -15.703   9.805 -30.946  1.00  0.00     0.293 HD
ENDBRANCH  45  49
BRANCH  46  51
ATOM     51  O   UNL     1     -15.671   9.877 -28.270  1.00  0.00    -0.502 OA
ATOM     52  H   UNL     1     -14.966  10.481 -27.862  1.00  0.00     0.293 HD
ENDBRANCH  46  51
ENDBRANCH  39  41
ENDBRANCH  38  39
ENDBRANCH   3  38
BRANCH   5  53
ATOM     53  O   UNL     1     -22.247  16.234 -31.614  1.00  0.00    -0.428 OA
BRANCH  53  54
ATOM     54  C   UNL     1     -22.885  17.324 -32.219  1.00  0.00     0.340 C 
ATOM     55  O   UNL     1     -23.578  17.156 -33.259  1.00  0.00    -0.246 OA
BRANCH  54  56
ATOM     56  C   UNL     1     -22.715  18.678 -31.644  1.00  0.00     0.067 A 
ATOM     57  C   UNL     1     -22.698  19.803 -32.485  1.00  0.00     0.066 A 
ATOM     58  C   UNL     1     -22.582  18.854 -30.257  1.00  0.00     0.066 A 
ATOM     59  C   UNL     1     -22.540  21.089 -31.949  1.00  0.00     0.162 A 
ATOM     60  C   UNL     1     -22.431  20.137 -29.715  1.00  0.00     0.162 A 
ATOM     61  C   UNL     1     -22.403  21.258 -30.560  1.00  0.00     0.200 A 
BRANCH  59  62
ATOM     62  O   UNL     1     -22.520  22.200 -32.788  1.00  0.00    -0.504 OA
ATOM     63  H   UNL     1     -22.965  22.188 -33.699  1.00  0.00     0.293 HD
ENDBRANCH  59  62
BRANCH  60  64
ATOM     64  O   UNL     1     -22.297  20.286 -28.335  1.00  0.00    -0.504 OA
ATOM     65  H   UNL     1     -22.569  19.555 -27.688  1.00  0.00     0.293 HD
ENDBRANCH  60  64
BRANCH  61  66
ATOM     66  O   UNL     1     -22.240  22.530 -30.006  1.00  0.00    -0.502 OA
ATOM     67  H   UNL     1     -23.034  23.143 -29.824  1.00  0.00     0.293 HD
ENDBRANCH  61  66
ENDBRANCH  54  56
ENDBRANCH  53  54
ENDBRANCH   5  53
BRANCH   4  68
ATOM     68  O   UNL     1     -20.291  14.269 -31.285  1.00  0.00    -0.448 OA
BRANCH  68  69
ATOM     69  C   UNL     1     -19.355  14.282 -30.240  1.00  0.00     0.339 C 
ATOM     70  O   UNL     1     -19.736  14.467 -29.053  1.00  0.00    -0.246 OA
BRANCH  69  71
ATOM     71  C   UNL     1     -17.925  14.038 -30.524  1.00  0.00     0.067 A 
ATOM     72  C   UNL     1     -17.482  13.837 -31.844  1.00  0.00     0.066 A 
ATOM     73  C   UNL     1     -16.988  14.009 -29.478  1.00  0.00     0.066 A 
ATOM     74  C   UNL     1     -16.120  13.643 -32.117  1.00  0.00     0.162 A 
ATOM     75  C   UNL     1     -15.627  13.800 -29.735  1.00  0.00     0.162 A 
ATOM     76  C   UNL     1     -15.185  13.635 -31.071  1.00  0.00     0.200 A 
BRANCH  74  77
ATOM     77  O   UNL     1     -15.682  13.471 -33.430  1.00  0.00    -0.504 OA
ATOM     78  H   UNL     1     -16.319  13.214 -34.168  1.00  0.00     0.293 HD
ENDBRANCH  74  77
BRANCH  75  79
ATOM     79  O   UNL     1     -14.761  13.755 -28.638  1.00  0.00    -0.504 OA
ATOM     80  H   UNL     1     -15.031  13.446 -27.717  1.00  0.00     0.293 HD
ENDBRANCH  75  79
BRANCH  76  81
ATOM     81  O   UNL     1     -13.836  13.473 -31.396  1.00  0.00    -0.502 OA
ATOM     82  H   UNL     1     -13.117  13.314 -30.712  1.00  0.00     0.293 HD
ENDBRANCH  76  81
ENDBRANCH  69  71
ENDBRANCH  68  69
ENDBRANCH   4  68
TORSDOF 31
ENDMDL
MODEL 7
REMARK VINA RESULT:     2.630      1.539      6.962
REMARK INTER + INTRA:           9.641
REMARK INTER:                   6.086
REMARK INTRA:                   3.555
REMARK UNBOUND:                 3.398
REMARK SMILES O=C(OC[C@@H]1O[C@@H](OC(=O)c2cc(O)c(O)c(O)c2)[C@@H](OC(=O)c2cc(O)c(O)c(O)c2)[C@H](OC(=O)c2cc(O)c(O)c(O)c2)[C@@H]1OC(=O)c1cc(O)c(O)c(O)c1)c1cc(O)c(O)c(O)c1
REMARK SMILES IDX 5 1 46 2 33 3 20 4 7 5 6 6 4 7 3 8 2 9 1 10 59 11 60 12
REMARK SMILES IDX 61 13 67 14 63 15 65 16 62 17 64 19 66 21 47 23 48 24 49 25
REMARK SMILES IDX 50 26 58 27 51 28 56 29 52 30 54 31 57 32 53 34 55 36 34 38
REMARK SMILES IDX 35 39 36 40 37 41 45 42 38 43 43 44 39 45 41 46 44 47 40 49
REMARK SMILES IDX 42 51 8 53 9 54 10 55 11 56 19 57 12 58 17 59 13 60 15 61
REMARK SMILES IDX 18 62 14 64 16 66 21 68 22 69 23 70 24 71 32 72 25 73 30 74
REMARK SMILES IDX 26 75 28 76 31 77 27 79 29 81
REMARK H PARENT 62 18 64 20 66 22 57 33 53 35 55 37 44 48 40 50 42 52 18 63
REMARK H PARENT 14 65 16 67 31 78 27 80 29 82
REMARK Flexibility Score: inf
ROOT
ATOM      1  C   UNL     1     -20.271  11.143 -29.526  1.00  0.00     0.205 C 
ATOM      2  C   UNL     1     -21.814  11.156 -29.600  1.00  0.00     0.254 C 
ATOM      3  C   UNL     1     -22.265  12.260 -30.577  1.00  0.00     0.267 C 
ATOM      4  C   UNL     1     -21.614  13.602 -30.195  1.00  0.00     0.290 C 
ATOM      5  C   UNL     1     -20.093  13.427 -30.034  1.00  0.00     0.357 C 
ATOM      6  O   UNL     1     -19.785  12.406 -29.098  1.00  0.00    -0.329 OA
ENDROOT
BRANCH   1   7
ATOM      7  C   UNL     1     -19.772  10.055 -28.560  1.00  0.00     0.269 C 
BRANCH   7   8
ATOM      8  O   UNL     1     -18.385  10.232 -28.277  1.00  0.00    -0.459 OA
BRANCH   8   9
ATOM      9  C   UNL     1     -17.381  10.254 -29.252  1.00  0.00     0.338 C 
ATOM     10  O   UNL     1     -17.684  10.226 -30.475  1.00  0.00    -0.246 OA
BRANCH   9  11
ATOM     11  C   UNL     1     -15.964  10.345 -28.839  1.00  0.00     0.067 A 
ATOM     12  C   UNL     1     -14.952  10.427 -29.805  1.00  0.00     0.066 A 
ATOM     13  C   UNL     1     -13.609  10.496 -29.429  1.00  0.00     0.162 A 
ATOM     14  C   UNL     1     -15.611  10.344 -27.481  1.00  0.00     0.066 A 
ATOM     15  C   UNL     1     -13.255  10.484 -28.068  1.00  0.00     0.200 A 
ATOM     16  C   UNL     1     -14.272  10.415 -27.083  1.00  0.00     0.162 A 
BRANCH  13  17
ATOM     17  O   UNL     1     -12.633  10.559 -30.426  1.00  0.00    -0.504 OA
ATOM     18  H   UNL     1     -12.800  11.004 -31.321  1.00  0.00     0.293 HD
ENDBRANCH  13  17
BRANCH  15  19
ATOM     19  O   UNL     1     -11.898  10.534 -27.733  1.00  0.00    -0.502 OA
ATOM     20  H   UNL     1     -11.465   9.947 -27.038  1.00  0.00     0.293 HD
ENDBRANCH  15  19
BRANCH  16  21
ATOM     21  O   UNL     1     -14.000  10.423 -25.713  1.00  0.00    -0.504 OA
ATOM     22  H   UNL     1     -13.369   9.786 -25.255  1.00  0.00     0.293 HD
ENDBRANCH  16  21
ENDBRANCH   9  11
ENDBRANCH   8   9
ENDBRANCH   7   8
ENDBRANCH   1   7
BRANCH   2  23
ATOM     23  O   UNL     1     -22.350  11.410 -28.301  1.00  0.00    -0.452 OA
BRANCH  23  24
ATOM     24  C   UNL     1     -23.187  10.523 -27.611  1.00  0.00     0.338 C 
ATOM     25  O   UNL     1     -22.751   9.876 -26.619  1.00  0.00    -0.246 OA
BRANCH  24  26
ATOM     26  C   UNL     1     -24.586  10.351 -28.051  1.00  0.00     0.067 A 
ATOM     27  C   UNL     1     -25.636  10.343 -27.116  1.00  0.00     0.066 A 
ATOM     28  C   UNL     1     -24.883  10.203 -29.414  1.00  0.00     0.066 A 
ATOM     29  C   UNL     1     -26.961  10.190 -27.534  1.00  0.00     0.162 A 
ATOM     30  C   UNL     1     -26.204  10.042 -29.841  1.00  0.00     0.162 A 
ATOM     31  C   UNL     1     -27.250  10.033 -28.901  1.00  0.00     0.200 A 
BRANCH  29  32
ATOM     32  O   UNL     1     -27.980  10.215 -26.581  1.00  0.00    -0.504 OA
ATOM     33  H   UNL     1     -27.899   9.726 -25.698  1.00  0.00     0.293 HD
ENDBRANCH  29  32
BRANCH  30  34
ATOM     34  O   UNL     1     -26.485   9.885 -31.200  1.00  0.00    -0.504 OA
ATOM     35  H   UNL     1     -25.829  10.190 -31.911  1.00  0.00     0.293 HD
ENDBRANCH  30  34
BRANCH  31  36
ATOM     36  O   UNL     1     -28.575   9.880 -29.312  1.00  0.00    -0.502 OA
ATOM     37  H   UNL     1     -29.218   9.250 -28.841  1.00  0.00     0.293 HD
ENDBRANCH  31  36
ENDBRANCH  24  26
ENDBRANCH  23  24
ENDBRANCH   2  23
BRANCH   3  38
ATOM     38  O   UNL     1     -23.684  12.409 -30.555  1.00  0.00    -0.450 OA
BRANCH  38  39
ATOM     39  C   UNL     1     -24.367  13.382 -29.818  1.00  0.00     0.338 C 
ATOM     40  O   UNL     1     -23.749  14.388 -29.372  1.00  0.00    -0.246 OA
BRANCH  39  41
ATOM     41  C   UNL     1     -25.817  13.220 -29.559  1.00  0.00     0.067 A 
ATOM     42  C   UNL     1     -26.715  12.934 -30.602  1.00  0.00     0.066 A 
ATOM     43  C   UNL     1     -26.314  13.359 -28.254  1.00  0.00     0.066 A 
ATOM     44  C   UNL     1     -28.091  12.823 -30.352  1.00  0.00     0.162 A 
ATOM     45  C   UNL     1     -27.683  13.252 -27.995  1.00  0.00     0.162 A 
ATOM     46  C   UNL     1     -28.578  12.989 -29.044  1.00  0.00     0.200 A 
BRANCH  44  47
ATOM     47  O   UNL     1     -28.977  12.550 -31.399  1.00  0.00    -0.504 OA
ATOM     48  H   UNL     1     -28.736  12.736 -32.366  1.00  0.00     0.293 HD
ENDBRANCH  44  47
BRANCH  45  49
ATOM     49  O   UNL     1     -28.139  13.405 -26.685  1.00  0.00    -0.504 OA
ATOM     50  H   UNL     1     -29.058  13.773 -26.477  1.00  0.00     0.293 HD
ENDBRANCH  45  49
BRANCH  46  51
ATOM     51  O   UNL     1     -29.943  12.891 -28.774  1.00  0.00    -0.502 OA
ATOM     52  H   UNL     1     -30.390  13.416 -28.030  1.00  0.00     0.293 HD
ENDBRANCH  46  51
ENDBRANCH  39  41
ENDBRANCH  38  39
ENDBRANCH   3  38
BRANCH   5  53
ATOM     53  O   UNL     1     -19.475  13.158 -31.295  1.00  0.00    -0.428 OA
BRANCH  53  54
ATOM     54  C   UNL     1     -18.299  13.783 -31.727  1.00  0.00     0.340 C 
ATOM     55  O   UNL     1     -18.254  14.338 -32.859  1.00  0.00    -0.246 OA
BRANCH  54  56
ATOM     56  C   UNL     1     -17.102  13.762 -30.857  1.00  0.00     0.067 A 
ATOM     57  C   UNL     1     -17.247  13.716 -29.460  1.00  0.00     0.066 A 
ATOM     58  C   UNL     1     -15.813  13.775 -31.414  1.00  0.00     0.066 A 
ATOM     59  C   UNL     1     -16.118  13.693 -28.628  1.00  0.00     0.162 A 
ATOM     60  C   UNL     1     -14.681  13.744 -30.588  1.00  0.00     0.162 A 
ATOM     61  C   UNL     1     -14.830  13.710 -29.193  1.00  0.00     0.200 A 
BRANCH  59  62
ATOM     62  O   UNL     1     -16.268  13.652 -27.245  1.00  0.00    -0.504 OA
ATOM     63  H   UNL     1     -15.567  14.035 -26.621  1.00  0.00     0.293 HD
ENDBRANCH  59  62
BRANCH  60  64
ATOM     64  O   UNL     1     -13.411  13.761 -31.165  1.00  0.00    -0.504 OA
ATOM     65  H   UNL     1     -12.590  13.445 -30.661  1.00  0.00     0.293 HD
ENDBRANCH  60  64
BRANCH  61  66
ATOM     66  O   UNL     1     -13.693  13.692 -28.382  1.00  0.00    -0.502 OA
ATOM     67  H   UNL     1     -13.586  13.024 -27.619  1.00  0.00     0.293 HD
ENDBRANCH  61  66
ENDBRANCH  54  56
ENDBRANCH  53  54
ENDBRANCH   5  53
BRANCH   4  68
ATOM     68  O   UNL     1     -21.874  14.584 -31.203  1.00  0.00    -0.448 OA
BRANCH  68  69
ATOM     69  C   UNL     1     -21.958  15.960 -30.941  1.00  0.00     0.339 C 
ATOM     70  O   UNL     1     -21.024  16.544 -30.329  1.00  0.00    -0.246 OA
BRANCH  69  71
ATOM     71  C   UNL     1     -23.124  16.734 -31.416  1.00  0.00     0.067 A 
ATOM     72  C   UNL     1     -22.954  17.809 -32.307  1.00  0.00     0.066 A 
ATOM     73  C   UNL     1     -24.419  16.403 -30.987  1.00  0.00     0.066 A 
ATOM     74  C   UNL     1     -24.063  18.519 -32.787  1.00  0.00     0.162 A 
ATOM     75  C   UNL     1     -25.536  17.114 -31.446  1.00  0.00     0.162 A 
ATOM     76  C   UNL     1     -25.358  18.173 -32.372  1.00  0.00     0.200 A 
BRANCH  74  77
ATOM     77  O   UNL     1     -23.892  19.567 -33.691  1.00  0.00    -0.504 OA
ATOM     78  H   UNL     1     -24.378  19.585 -34.575  1.00  0.00     0.293 HD
ENDBRANCH  74  77
BRANCH  75  79
ATOM     79  O   UNL     1     -26.789  16.743 -30.949  1.00  0.00    -0.504 OA
ATOM     80  H   UNL     1     -27.083  16.885 -29.996  1.00  0.00     0.293 HD
ENDBRANCH  75  79
BRANCH  76  81
ATOM     81  O   UNL     1     -26.433  18.886 -32.904  1.00  0.00    -0.502 OA
ATOM     82  H   UNL     1     -26.713  18.832 -33.868  1.00  0.00     0.293 HD
ENDBRANCH  76  81
ENDBRANCH  69  71
ENDBRANCH  68  69
ENDBRANCH   4  68
TORSDOF 31
ENDMDL
