MODEL 1
REMARK VINA RESULT:    -6.346      0.000      0.000
REMARK INTER + INTRA:         -11.612
REMARK INTER:                  -9.870
REMARK INTRA:                  -1.742
REMARK UNBOUND:                -1.742
REMARK SMILES C[C@]12C[C@H](O)[C@@H]3C[C@@]1(O[C@@H]1O[C@@H](CO)[C@H](O)[C@H](O)[C@H]1O)[C@]3(COC(=O)c1ccccc1)C(=O)O2
REMARK SMILES IDX 1 1 2 2 3 3 4 4 6 5 7 6 8 7 21 8 32 9 33 10 34 11 9 12 10 13
REMARK SMILES IDX 19 14 11 15 17 16 12 17 15 18 20 19 18 21 13 23 14 24 16 26
REMARK SMILES IDX 5 28 22 30 23 31 24 32 25 33 26 34 27 35 31 36 28 37 30 38
REMARK SMILES IDX 29 39
REMARK H PARENT 20 20 18 22 14 25 16 27 5 29
REMARK Flexibility Score: inf
ROOT
ATOM      1  C   UNL     1     -20.011  13.115  -5.456  1.00  0.00     0.060 C 
ATOM      2  C   UNL     1     -18.902  14.094  -5.058  1.00  0.00     0.142 C 
ATOM      3  C   UNL     1     -19.505  15.441  -4.528  1.00  0.00     0.083 C 
ATOM      4  C   UNL     1     -18.378  16.521  -4.365  1.00  0.00     0.123 C 
ATOM      5  C   UNL     1     -17.223  16.281  -5.398  1.00  0.00     0.045 C 
ATOM      6  C   UNL     1     -17.865  15.836  -6.722  1.00  0.00     0.049 C 
ATOM      7  C   UNL     1     -17.792  14.390  -6.170  1.00  0.00     0.131 C 
ATOM      8  C   UNL     1     -16.628  14.840  -5.249  1.00  0.00     0.140 C 
ATOM      9  C   UNL     1     -16.892  14.061  -3.998  1.00  0.00     0.319 C 
ATOM     10  O   UNL     1     -16.071  13.878  -3.061  1.00  0.00    -0.251 OA
ATOM     11  O   UNL     1     -18.166  13.551  -3.978  1.00  0.00    -0.456 OA
ENDROOT
BRANCH   7  12
ATOM     12  O   UNL     1     -17.448  13.256  -6.978  1.00  0.00    -0.338 OA
BRANCH  12  13
ATOM     13  C   UNL     1     -17.895  13.251  -8.332  1.00  0.00     0.282 C 
ATOM     14  C   UNL     1     -16.741  13.330  -9.377  1.00  0.00     0.202 C 
ATOM     15  O   UNL     1     -18.787  12.175  -8.571  1.00  0.00    -0.341 OA
ATOM     16  C   UNL     1     -17.178  12.772 -10.744  1.00  0.00     0.179 C 
ATOM     17  C   UNL     1     -19.469  12.262  -9.823  1.00  0.00     0.178 C 
ATOM     18  C   UNL     1     -18.680  12.999 -10.941  1.00  0.00     0.177 C 
BRANCH  14  19
ATOM     19  O   UNL     1     -16.356  14.674  -9.545  1.00  0.00    -0.385 OA
ATOM     20  H   UNL     1     -16.208  15.044  -8.645  1.00  0.00     0.211 HD
ENDBRANCH  14  19
BRANCH  16  21
ATOM     21  O   UNL     1     -16.879  11.397 -10.806  1.00  0.00    -0.387 OA
ATOM     22  H   UNL     1     -17.747  10.912 -10.825  1.00  0.00     0.211 HD
ENDBRANCH  16  21
BRANCH  17  23
ATOM     23  C   UNL     1     -20.869  12.858  -9.620  1.00  0.00     0.191 C 
BRANCH  23  24
ATOM     24  O   UNL     1     -21.007  14.007 -10.410  1.00  0.00    -0.394 OA
ATOM     25  H   UNL     1     -20.155  14.508 -10.330  1.00  0.00     0.210 HD
ENDBRANCH  23  24
ENDBRANCH  17  23
BRANCH  18  26
ATOM     26  O   UNL     1     -19.072  12.535 -12.209  1.00  0.00    -0.387 OA
ATOM     27  H   UNL     1     -18.322  11.982 -12.553  1.00  0.00     0.211 HD
ENDBRANCH  18  26
ENDBRANCH  12  13
ENDBRANCH   7  12
BRANCH   4  28
ATOM     28  O   UNL     1     -18.903  17.819  -4.476  1.00  0.00    -0.393 OA
ATOM     29  H   UNL     1     -19.517  17.838  -5.252  1.00  0.00     0.210 HD
ENDBRANCH   4  28
BRANCH   8  30
ATOM     30  C   UNL     1     -15.191  14.648  -5.825  1.00  0.00     0.255 C 
BRANCH  30  31
ATOM     31  O   UNL     1     -14.227  15.489  -5.192  1.00  0.00    -0.461 OA
BRANCH  31  32
ATOM     32  C   UNL     1     -13.463  16.465  -5.845  1.00  0.00     0.338 C 
ATOM     33  O   UNL     1     -12.569  17.100  -5.226  1.00  0.00    -0.246 OA
BRANCH  32  34
ATOM     34  C   UNL     1     -13.697  16.737  -7.280  1.00  0.00     0.060 A 
ATOM     35  C   UNL     1     -12.987  16.021  -8.261  1.00  0.00     0.015 A 
ATOM     36  C   UNL     1     -14.612  17.730  -7.683  1.00  0.00     0.015 A 
ATOM     37  C   UNL     1     -13.178  16.303  -9.619  1.00  0.00     0.001 A 
ATOM     38  C   UNL     1     -14.803  18.006  -9.042  1.00  0.00     0.001 A 
ATOM     39  C   UNL     1     -14.085  17.295 -10.009  1.00  0.00     0.000 A 
ENDBRANCH  32  34
ENDBRANCH  31  32
ENDBRANCH  30  31
ENDBRANCH   8  30
TORSDOF 12
ENDMDL
MODEL 2
REMARK VINA RESULT:    -6.212      1.940      6.135
REMARK INTER + INTRA:         -11.405
REMARK INTER:                  -9.942
REMARK INTRA:                  -1.462
REMARK UNBOUND:                -1.742
REMARK SMILES C[C@]12C[C@H](O)[C@@H]3C[C@@]1(O[C@@H]1O[C@@H](CO)[C@H](O)[C@H](O)[C@H]1O)[C@]3(COC(=O)c1ccccc1)C(=O)O2
REMARK SMILES IDX 1 1 2 2 3 3 4 4 6 5 7 6 8 7 21 8 32 9 33 10 34 11 9 12 10 13
REMARK SMILES IDX 19 14 11 15 17 16 12 17 15 18 20 19 18 21 13 23 14 24 16 26
REMARK SMILES IDX 5 28 22 30 23 31 24 32 25 33 26 34 27 35 31 36 28 37 30 38
REMARK SMILES IDX 29 39
REMARK H PARENT 20 20 18 22 14 25 16 27 5 29
REMARK Flexibility Score: inf
ROOT
ATOM      1  C   UNL     1     -19.267  16.370  -4.903  1.00  0.00     0.060 C 
ATOM      2  C   UNL     1     -19.666  15.465  -6.073  1.00  0.00     0.142 C 
ATOM      3  C   UNL     1     -20.536  14.258  -5.578  1.00  0.00     0.083 C 
ATOM      4  C   UNL     1     -20.724  13.208  -6.730  1.00  0.00     0.123 C 
ATOM      5  C   UNL     1     -19.495  13.222  -7.702  1.00  0.00     0.045 C 
ATOM      6  C   UNL     1     -18.228  13.416  -6.853  1.00  0.00     0.049 C 
ATOM      7  C   UNL     1     -18.471  14.939  -6.995  1.00  0.00     0.131 C 
ATOM      8  C   UNL     1     -19.266  14.653  -8.296  1.00  0.00     0.140 C 
ATOM      9  C   UNL     1     -20.368  15.664  -8.225  1.00  0.00     0.319 C 
ATOM     10  O   UNL     1     -21.109  16.008  -9.182  1.00  0.00    -0.251 OA
ATOM     11  O   UNL     1     -20.490  16.192  -6.965  1.00  0.00    -0.456 OA
ENDROOT
BRANCH   7  12
ATOM     12  O   UNL     1     -17.415  15.889  -7.192  1.00  0.00    -0.338 OA
BRANCH  12  13
ATOM     13  C   UNL     1     -16.107  15.522  -6.759  1.00  0.00     0.282 C 
ATOM     14  C   UNL     1     -15.032  15.574  -7.885  1.00  0.00     0.202 C 
ATOM     15  O   UNL     1     -15.732  16.245  -5.599  1.00  0.00    -0.341 OA
ATOM     16  C   UNL     1     -13.614  15.729  -7.305  1.00  0.00     0.179 C 
ATOM     17  C   UNL     1     -14.554  15.745  -4.966  1.00  0.00     0.178 C 
ATOM     18  C   UNL     1     -13.541  15.062  -5.927  1.00  0.00     0.177 C 
BRANCH  14  19
ATOM     19  O   UNL     1     -15.081  14.383  -8.633  1.00  0.00    -0.385 OA
ATOM     20  H   UNL     1     -14.752  13.663  -8.047  1.00  0.00     0.211 HD
ENDBRANCH  14  19
BRANCH  16  21
ATOM     21  O   UNL     1     -13.295  17.097  -7.204  1.00  0.00    -0.387 OA
ATOM     22  H   UNL     1     -14.151  17.599  -7.269  1.00  0.00     0.211 HD
ENDBRANCH  16  21
BRANCH  17  23
ATOM     23  C   UNL     1     -14.935  14.832  -3.791  1.00  0.00     0.191 C 
BRANCH  23  24
ATOM     24  O   UNL     1     -15.495  13.646  -4.283  1.00  0.00    -0.394 OA
ATOM     25  H   UNL     1     -15.838  13.149  -3.495  1.00  0.00     0.210 HD
ENDBRANCH  23  24
ENDBRANCH  17  23
BRANCH  18  26
ATOM     26  O   UNL     1     -12.235  15.159  -5.417  1.00  0.00    -0.387 OA
ATOM     27  H   UNL     1     -11.619  15.036  -6.187  1.00  0.00     0.211 HD
ENDBRANCH  18  26
ENDBRANCH  12  13
ENDBRANCH   7  12
BRANCH   4  28
ATOM     28  O   UNL     1     -20.951  11.924  -6.208  1.00  0.00    -0.393 OA
ATOM     29  H   UNL     1     -21.903  11.695  -6.357  1.00  0.00     0.210 HD
ENDBRANCH   4  28
BRANCH   8  30
ATOM     30  C   UNL     1     -18.443  14.703  -9.621  1.00  0.00     0.255 C 
BRANCH  30  31
ATOM     31  O   UNL     1     -19.110  14.060 -10.707  1.00  0.00    -0.461 OA
BRANCH  31  32
ATOM     32  C   UNL     1     -18.626  12.938 -11.393  1.00  0.00     0.338 C 
ATOM     33  O   UNL     1     -19.256  12.467 -12.376  1.00  0.00    -0.246 OA
BRANCH  32  34
ATOM     34  C   UNL     1     -17.353  12.315 -10.970  1.00  0.00     0.060 A 
ATOM     35  C   UNL     1     -16.140  12.707 -11.564  1.00  0.00     0.015 A 
ATOM     36  C   UNL     1     -17.340  11.306  -9.986  1.00  0.00     0.015 A 
ATOM     37  C   UNL     1     -14.939  12.093 -11.193  1.00  0.00     0.001 A 
ATOM     38  C   UNL     1     -16.136  10.697  -9.614  1.00  0.00     0.001 A 
ATOM     39  C   UNL     1     -14.937  11.088 -10.219  1.00  0.00     0.000 A 
ENDBRANCH  32  34
ENDBRANCH  31  32
ENDBRANCH  30  31
ENDBRANCH   8  30
TORSDOF 12
ENDMDL
MODEL 3
REMARK VINA RESULT:    -6.054      2.666      7.158
REMARK INTER + INTRA:         -11.158
REMARK INTER:                 -10.463
REMARK INTRA:                  -0.696
REMARK UNBOUND:                -1.742
REMARK SMILES C[C@]12C[C@H](O)[C@@H]3C[C@@]1(O[C@@H]1O[C@@H](CO)[C@H](O)[C@H](O)[C@H]1O)[C@]3(COC(=O)c1ccccc1)C(=O)O2
REMARK SMILES IDX 1 1 2 2 3 3 4 4 6 5 7 6 8 7 21 8 32 9 33 10 34 11 9 12 10 13
REMARK SMILES IDX 19 14 11 15 17 16 12 17 15 18 20 19 18 21 13 23 14 24 16 26
REMARK SMILES IDX 5 28 22 30 23 31 24 32 25 33 26 34 27 35 31 36 28 37 30 38
REMARK SMILES IDX 29 39
REMARK H PARENT 20 20 18 22 14 25 16 27 5 29
REMARK Flexibility Score: inf
ROOT
ATOM      1  C   UNL     1     -14.645  17.949  -3.217  1.00  0.00     0.060 C 
ATOM      2  C   UNL     1     -14.872  17.015  -4.409  1.00  0.00     0.142 C 
ATOM      3  C   UNL     1     -13.600  16.952  -5.323  1.00  0.00     0.083 C 
ATOM      4  C   UNL     1     -13.924  16.203  -6.665  1.00  0.00     0.123 C 
ATOM      5  C   UNL     1     -15.430  16.393  -7.058  1.00  0.00     0.045 C 
ATOM      6  C   UNL     1     -15.826  17.837  -6.710  1.00  0.00     0.049 C 
ATOM      7  C   UNL     1     -16.170  17.307  -5.295  1.00  0.00     0.131 C 
ATOM      8  C   UNL     1     -16.376  15.899  -5.912  1.00  0.00     0.140 C 
ATOM      9  C   UNL     1     -15.832  15.001  -4.845  1.00  0.00     0.319 C 
ATOM     10  O   UNL     1     -16.026  13.761  -4.761  1.00  0.00    -0.251 OA
ATOM     11  O   UNL     1     -15.072  15.696  -3.937  1.00  0.00    -0.456 OA
ENDROOT
BRANCH   7  12
ATOM     12  O   UNL     1     -17.309  17.751  -4.545  1.00  0.00    -0.338 OA
BRANCH  12  13
ATOM     13  C   UNL     1     -17.902  18.994  -4.918  1.00  0.00     0.282 C 
ATOM     14  C   UNL     1     -19.320  19.222  -4.313  1.00  0.00     0.202 C 
ATOM     15  O   UNL     1     -17.015  20.074  -4.680  1.00  0.00    -0.341 OA
ATOM     16  C   UNL     1     -19.674  20.720  -4.257  1.00  0.00     0.179 C 
ATOM     17  C   UNL     1     -17.440  21.305  -5.267  1.00  0.00     0.178 C 
ATOM     18  C   UNL     1     -18.980  21.462  -5.404  1.00  0.00     0.177 C 
BRANCH  14  19
ATOM     19  O   UNL     1     -20.278  18.566  -5.109  1.00  0.00    -0.385 OA
ATOM     20  H   UNL     1     -21.161  18.892  -4.821  1.00  0.00     0.211 HD
ENDBRANCH  14  19
BRANCH  16  21
ATOM     21  O   UNL     1     -19.272  21.251  -3.016  1.00  0.00    -0.387 OA
ATOM     22  H   UNL     1     -19.296  20.504  -2.360  1.00  0.00     0.211 HD
ENDBRANCH  16  21
BRANCH  17  23
ATOM     23  C   UNL     1     -16.718  21.527  -6.604  1.00  0.00     0.191 C 
BRANCH  23  24
ATOM     24  O   UNL     1     -17.395  22.506  -7.343  1.00  0.00    -0.394 OA
ATOM     25  H   UNL     1     -17.057  22.440  -8.274  1.00  0.00     0.210 HD
ENDBRANCH  23  24
ENDBRANCH  17  23
BRANCH  18  26
ATOM     26  O   UNL     1     -19.342  22.820  -5.385  1.00  0.00    -0.387 OA
ATOM     27  H   UNL     1     -20.232  22.883  -5.820  1.00  0.00     0.211 HD
ENDBRANCH  18  26
ENDBRANCH  12  13
ENDBRANCH   7  12
BRANCH   4  28
ATOM     28  O   UNL     1     -13.067  16.622  -7.696  1.00  0.00    -0.393 OA
ATOM     29  H   UNL     1     -13.075  15.930  -8.403  1.00  0.00     0.210 HD
ENDBRANCH   4  28
BRANCH   8  30
ATOM     30  C   UNL     1     -17.833  15.554  -6.350  1.00  0.00     0.255 C 
BRANCH  30  31
ATOM     31  O   UNL     1     -17.889  14.943  -7.639  1.00  0.00    -0.461 OA
BRANCH  31  32
ATOM     32  C   UNL     1     -18.271  13.616  -7.879  1.00  0.00     0.338 C 
ATOM     33  O   UNL     1     -18.391  12.801  -6.927  1.00  0.00    -0.246 OA
BRANCH  32  34
ATOM     34  C   UNL     1     -18.555  13.176  -9.263  1.00  0.00     0.060 A 
ATOM     35  C   UNL     1     -18.860  11.828  -9.529  1.00  0.00     0.015 A 
ATOM     36  C   UNL     1     -18.501  14.091 -10.333  1.00  0.00     0.015 A 
ATOM     37  C   UNL     1     -19.092  11.402 -10.842  1.00  0.00     0.001 A 
ATOM     38  C   UNL     1     -18.737  13.662 -11.643  1.00  0.00     0.001 A 
ATOM     39  C   UNL     1     -19.031  12.318 -11.898  1.00  0.00     0.000 A 
ENDBRANCH  32  34
ENDBRANCH  31  32
ENDBRANCH  30  31
ENDBRANCH   8  30
TORSDOF 12
ENDMDL
MODEL 4
REMARK VINA RESULT:    -5.977      2.901      7.846
REMARK INTER + INTRA:         -11.038
REMARK INTER:                 -10.421
REMARK INTRA:                  -0.617
REMARK UNBOUND:                -1.742
REMARK SMILES C[C@]12C[C@H](O)[C@@H]3C[C@@]1(O[C@@H]1O[C@@H](CO)[C@H](O)[C@H](O)[C@H]1O)[C@]3(COC(=O)c1ccccc1)C(=O)O2
REMARK SMILES IDX 1 1 2 2 3 3 4 4 6 5 7 6 8 7 21 8 32 9 33 10 34 11 9 12 10 13
REMARK SMILES IDX 19 14 11 15 17 16 12 17 15 18 20 19 18 21 13 23 14 24 16 26
REMARK SMILES IDX 5 28 22 30 23 31 24 32 25 33 26 34 27 35 31 36 28 37 30 38
REMARK SMILES IDX 29 39
REMARK H PARENT 20 20 18 22 14 25 16 27 5 29
REMARK Flexibility Score: inf
ROOT
ATOM      1  C   UNL     1     -15.125  13.334  -9.770  1.00  0.00     0.060 C 
ATOM      2  C   UNL     1     -16.560  12.816  -9.899  1.00  0.00     0.142 C 
ATOM      3  C   UNL     1     -17.034  12.841 -11.394  1.00  0.00     0.083 C 
ATOM      4  C   UNL     1     -18.575  12.554 -11.486  1.00  0.00     0.123 C 
ATOM      5  C   UNL     1     -19.312  13.052 -10.195  1.00  0.00     0.045 C 
ATOM      6  C   UNL     1     -18.663  14.378  -9.767  1.00  0.00     0.049 C 
ATOM      7  C   UNL     1     -17.650  13.522  -8.966  1.00  0.00     0.131 C 
ATOM      8  C   UNL     1     -18.706  12.388  -8.913  1.00  0.00     0.140 C 
ATOM      9  C   UNL     1     -17.863  11.159  -9.049  1.00  0.00     0.319 C 
ATOM     10  O   UNL     1     -18.231   9.984  -8.788  1.00  0.00    -0.251 OA
ATOM     11  O   UNL     1     -16.604  11.457  -9.505  1.00  0.00    -0.456 OA
ENDROOT
BRANCH   7  12
ATOM     12  O   UNL     1     -17.167  13.886  -7.666  1.00  0.00    -0.338 OA
BRANCH  12  13
ATOM     13  C   UNL     1     -16.928  15.269  -7.415  1.00  0.00     0.282 C 
ATOM     14  C   UNL     1     -17.916  15.903  -6.388  1.00  0.00     0.202 C 
ATOM     15  O   UNL     1     -15.567  15.502  -7.092  1.00  0.00    -0.341 OA
ATOM     16  C   UNL     1     -17.318  17.162  -5.734  1.00  0.00     0.179 C 
ATOM     17  C   UNL     1     -15.208  16.884  -7.085  1.00  0.00     0.178 C 
ATOM     18  C   UNL     1     -16.364  17.854  -6.714  1.00  0.00     0.177 C 
BRANCH  14  19
ATOM     19  O   UNL     1     -19.106  16.263  -7.048  1.00  0.00    -0.385 OA
ATOM     20  H   UNL     1     -19.825  15.711  -6.664  1.00  0.00     0.211 HD
ENDBRANCH  14  19
BRANCH  16  21
ATOM     21  O   UNL     1     -16.634  16.800  -4.558  1.00  0.00    -0.387 OA
ATOM     22  H   UNL     1     -17.113  16.019  -4.173  1.00  0.00     0.211 HD
ENDBRANCH  16  21
BRANCH  17  23
ATOM     23  C   UNL     1     -14.545  17.264  -8.417  1.00  0.00     0.191 C 
BRANCH  23  24
ATOM     24  O   UNL     1     -13.160  17.370  -8.237  1.00  0.00    -0.394 OA
ATOM     25  H   UNL     1     -12.883  16.577  -7.708  1.00  0.00     0.210 HD
ENDBRANCH  23  24
ENDBRANCH  17  23
BRANCH  18  26
ATOM     26  O   UNL     1     -15.857  19.031  -6.137  1.00  0.00    -0.387 OA
ATOM     27  H   UNL     1     -15.529  18.785  -5.232  1.00  0.00     0.211 HD
ENDBRANCH  18  26
ENDBRANCH  12  13
ENDBRANCH   7  12
BRANCH   4  28
ATOM     28  O   UNL     1     -19.125  13.127 -12.645  1.00  0.00    -0.393 OA
ATOM     29  H   UNL     1     -19.145  12.435 -13.352  1.00  0.00     0.210 HD
ENDBRANCH   4  28
BRANCH   8  30
ATOM     30  C   UNL     1     -19.637  12.383  -7.660  1.00  0.00     0.255 C 
BRANCH  30  31
ATOM     31  O   UNL     1     -19.353  11.306  -6.768  1.00  0.00    -0.461 OA
BRANCH  31  32
ATOM     32  C   UNL     1     -20.308  10.635  -5.992  1.00  0.00     0.338 C 
ATOM     33  O   UNL     1     -21.046  11.270  -5.193  1.00  0.00    -0.246 OA
BRANCH  32  34
ATOM     34  C   UNL     1     -20.464   9.170  -6.130  1.00  0.00     0.060 A 
ATOM     35  C   UNL     1     -20.052   8.313  -5.094  1.00  0.00     0.015 A 
ATOM     36  C   UNL     1     -21.005   8.614  -7.307  1.00  0.00     0.015 A 
ATOM     37  C   UNL     1     -20.164   6.925  -5.237  1.00  0.00     0.001 A 
ATOM     38  C   UNL     1     -21.119   7.226  -7.444  1.00  0.00     0.001 A 
ATOM     39  C   UNL     1     -20.697   6.382  -6.411  1.00  0.00     0.000 A 
ENDBRANCH  32  34
ENDBRANCH  31  32
ENDBRANCH  30  31
ENDBRANCH   8  30
TORSDOF 12
ENDMDL
MODEL 5
REMARK VINA RESULT:    -5.887      2.382      5.327
REMARK INTER + INTRA:         -10.898
REMARK INTER:                  -9.675
REMARK INTRA:                  -1.223
REMARK UNBOUND:                -1.742
REMARK SMILES C[C@]12C[C@H](O)[C@@H]3C[C@@]1(O[C@@H]1O[C@@H](CO)[C@H](O)[C@H](O)[C@H]1O)[C@]3(COC(=O)c1ccccc1)C(=O)O2
REMARK SMILES IDX 1 1 2 2 3 3 4 4 6 5 7 6 8 7 21 8 32 9 33 10 34 11 9 12 10 13
REMARK SMILES IDX 19 14 11 15 17 16 12 17 15 18 20 19 18 21 13 23 14 24 16 26
REMARK SMILES IDX 5 28 22 30 23 31 24 32 25 33 26 34 27 35 31 36 28 37 30 38
REMARK SMILES IDX 29 39
REMARK H PARENT 20 20 18 22 14 25 16 27 5 29
REMARK Flexibility Score: inf
ROOT
ATOM      1  C   UNL     1     -14.321  16.263  -9.370  1.00  0.00     0.060 C 
ATOM      2  C   UNL     1     -14.588  16.587  -7.897  1.00  0.00     0.142 C 
ATOM      3  C   UNL     1     -13.262  16.540  -7.062  1.00  0.00     0.083 C 
ATOM      4  C   UNL     1     -13.578  16.620  -5.526  1.00  0.00     0.123 C 
ATOM      5  C   UNL     1     -14.980  15.993  -5.212  1.00  0.00     0.045 C 
ATOM      6  C   UNL     1     -15.149  14.754  -6.107  1.00  0.00     0.049 C 
ATOM      7  C   UNL     1     -15.720  15.716  -7.179  1.00  0.00     0.131 C 
ATOM      8  C   UNL     1     -16.107  16.696  -6.041  1.00  0.00     0.140 C 
ATOM      9  C   UNL     1     -15.839  18.030  -6.664  1.00  0.00     0.319 C 
ATOM     10  O   UNL     1     -16.255  19.137  -6.234  1.00  0.00    -0.251 OA
ATOM     11  O   UNL     1     -15.063  17.916  -7.790  1.00  0.00    -0.456 OA
ENDROOT
BRANCH   7  12
ATOM     12  O   UNL     1     -16.832  15.383  -8.021  1.00  0.00    -0.338 OA
BRANCH  12  13
ATOM     13  C   UNL     1     -17.095  14.001  -8.252  1.00  0.00     0.282 C 
ATOM     14  C   UNL     1     -18.449  13.508  -7.657  1.00  0.00     0.202 C 
ATOM     15  O   UNL     1     -16.940  13.674  -9.623  1.00  0.00    -0.341 OA
ATOM     16  C   UNL     1     -18.952  12.241  -8.373  1.00  0.00     0.179 C 
ATOM     17  C   UNL     1     -16.932  12.269  -9.881  1.00  0.00     0.178 C 
ATOM     18  C   UNL     1     -17.760  11.420  -8.876  1.00  0.00     0.177 C 
BRANCH  14  19
ATOM     19  O   UNL     1     -18.278  13.212  -6.292  1.00  0.00    -0.385 OA
ATOM     20  H   UNL     1     -19.146  13.366  -5.854  1.00  0.00     0.211 HD
ENDBRANCH  14  19
BRANCH  16  21
ATOM     21  O   UNL     1     -19.782  12.609  -9.450  1.00  0.00    -0.387 OA
ATOM     22  H   UNL     1     -20.587  13.044  -9.060  1.00  0.00     0.211 HD
ENDBRANCH  16  21
BRANCH  17  23
ATOM     23  C   UNL     1     -15.487  11.764 -10.005  1.00  0.00     0.191 C 
BRANCH  23  24
ATOM     24  O   UNL     1     -15.484  10.364 -10.053  1.00  0.00    -0.394 OA
ATOM     25  H   UNL     1     -14.546  10.079  -9.896  1.00  0.00     0.210 HD
ENDBRANCH  23  24
ENDBRANCH  17  23
BRANCH  18  26
ATOM     26  O   UNL     1     -18.215  10.239  -9.486  1.00  0.00    -0.387 OA
ATOM     27  H   UNL     1     -17.685  10.126 -10.318  1.00  0.00     0.211 HD
ENDBRANCH  18  26
ENDBRANCH  12  13
ENDBRANCH   7  12
BRANCH   4  28
ATOM     28  O   UNL     1     -12.562  16.011  -4.771  1.00  0.00    -0.393 OA
ATOM     29  H   UNL     1     -12.841  16.012  -3.821  1.00  0.00     0.210 HD
ENDBRANCH   4  28
BRANCH   8  30
ATOM     30  C   UNL     1     -17.551  16.540  -5.470  1.00  0.00     0.255 C 
BRANCH  30  31
ATOM     31  O   UNL     1     -17.639  16.896  -4.091  1.00  0.00    -0.461 OA
BRANCH  31  32
ATOM     32  C   UNL     1     -18.584  17.778  -3.549  1.00  0.00     0.338 C 
ATOM     33  O   UNL     1     -19.633  17.339  -3.009  1.00  0.00    -0.246 OA
BRANCH  32  34
ATOM     34  C   UNL     1     -18.336  19.235  -3.596  1.00  0.00     0.060 A 
ATOM     35  C   UNL     1     -19.153  20.068  -4.382  1.00  0.00     0.015 A 
ATOM     36  C   UNL     1     -17.268  19.805  -2.875  1.00  0.00     0.015 A 
ATOM     37  C   UNL     1     -18.897  21.442  -4.458  1.00  0.00     0.001 A 
ATOM     38  C   UNL     1     -17.018  21.180  -2.950  1.00  0.00     0.001 A 
ATOM     39  C   UNL     1     -17.830  21.998  -3.743  1.00  0.00     0.000 A 
ENDBRANCH  32  34
ENDBRANCH  31  32
ENDBRANCH  30  31
ENDBRANCH   8  30
TORSDOF 12
ENDMDL
MODEL 6
REMARK VINA RESULT:    -5.853      1.677      5.513
REMARK INTER + INTRA:         -10.845
REMARK INTER:                  -9.369
REMARK INTRA:                  -1.476
REMARK UNBOUND:                -1.742
REMARK SMILES C[C@]12C[C@H](O)[C@@H]3C[C@@]1(O[C@@H]1O[C@@H](CO)[C@H](O)[C@H](O)[C@H]1O)[C@]3(COC(=O)c1ccccc1)C(=O)O2
REMARK SMILES IDX 1 1 2 2 3 3 4 4 6 5 7 6 8 7 21 8 32 9 33 10 34 11 9 12 10 13
REMARK SMILES IDX 19 14 11 15 17 16 12 17 15 18 20 19 18 21 13 23 14 24 16 26
REMARK SMILES IDX 5 28 22 30 23 31 24 32 25 33 26 34 27 35 31 36 28 37 30 38
REMARK SMILES IDX 29 39
REMARK H PARENT 20 20 18 22 14 25 16 27 5 29
REMARK Flexibility Score: inf
ROOT
ATOM      1  C   UNL     1     -14.161  15.842  -9.242  1.00  0.00     0.060 C 
ATOM      2  C   UNL     1     -14.559  16.346  -7.852  1.00  0.00     0.142 C 
ATOM      3  C   UNL     1     -13.351  16.259  -6.856  1.00  0.00     0.083 C 
ATOM      4  C   UNL     1     -13.831  16.533  -5.386  1.00  0.00     0.123 C 
ATOM      5  C   UNL     1     -15.320  16.083  -5.193  1.00  0.00     0.045 C 
ATOM      6  C   UNL     1     -15.521  14.779  -5.982  1.00  0.00     0.049 C 
ATOM      7  C   UNL     1     -15.855  15.672  -7.203  1.00  0.00     0.131 C 
ATOM      8  C   UNL     1     -16.260  16.801  -6.220  1.00  0.00     0.140 C 
ATOM      9  C   UNL     1     -15.776  18.028  -6.927  1.00  0.00     0.319 C 
ATOM     10  O   UNL     1     -16.114  19.211  -6.659  1.00  0.00    -0.251 OA
ATOM     11  O   UNL     1     -14.893  17.719  -7.931  1.00  0.00    -0.456 OA
ENDROOT
BRANCH   7  12
ATOM     12  O   UNL     1     -16.893  15.362  -8.143  1.00  0.00    -0.338 OA
BRANCH  12  13
ATOM     13  C   UNL     1     -17.209  13.987  -8.348  1.00  0.00     0.282 C 
ATOM     14  C   UNL     1     -18.580  13.558  -7.742  1.00  0.00     0.202 C 
ATOM     15  O   UNL     1     -17.069  13.628  -9.712  1.00  0.00    -0.341 OA
ATOM     16  C   UNL     1     -19.133  12.298  -8.433  1.00  0.00     0.179 C 
ATOM     17  C   UNL     1     -17.116  12.219  -9.943  1.00  0.00     0.178 C 
ATOM     18  C   UNL     1     -17.974  11.422  -8.921  1.00  0.00     0.177 C 
BRANCH  14  19
ATOM     19  O   UNL     1     -18.418  13.281  -6.371  1.00  0.00    -0.385 OA
ATOM     20  H   UNL     1     -18.918  12.454  -6.185  1.00  0.00     0.211 HD
ENDBRANCH  14  19
BRANCH  16  21
ATOM     21  O   UNL     1     -19.950  12.677  -9.516  1.00  0.00    -0.387 OA
ATOM     22  H   UNL     1     -20.551  11.908  -9.708  1.00  0.00     0.211 HD
ENDBRANCH  16  21
BRANCH  17  23
ATOM     23  C   UNL     1     -15.692  11.657 -10.059  1.00  0.00     0.191 C 
BRANCH  23  24
ATOM     24  O   UNL     1     -15.633  10.749 -11.125  1.00  0.00    -0.394 OA
ATOM     25  H   UNL     1     -14.842  11.002 -11.667  1.00  0.00     0.210 HD
ENDBRANCH  23  24
ENDBRANCH  17  23
BRANCH  18  26
ATOM     26  O   UNL     1     -18.476  10.248  -9.508  1.00  0.00    -0.387 OA
ATOM     27  H   UNL     1     -18.754   9.654  -8.762  1.00  0.00     0.211 HD
ENDBRANCH  18  26
ENDBRANCH  12  13
ENDBRANCH   7  12
BRANCH   4  28
ATOM     28  O   UNL     1     -12.982  15.911  -4.455  1.00  0.00    -0.393 OA
ATOM     29  H   UNL     1     -12.820  16.547  -3.713  1.00  0.00     0.210 HD
ENDBRANCH   4  28
BRANCH   8  30
ATOM     30  C   UNL     1     -17.769  16.850  -5.824  1.00  0.00     0.255 C 
BRANCH  30  31
ATOM     31  O   UNL     1     -17.978  17.400  -4.523  1.00  0.00    -0.461 OA
BRANCH  31  32
ATOM     32  C   UNL     1     -18.912  16.924  -3.593  1.00  0.00     0.338 C 
ATOM     33  O   UNL     1     -19.566  17.726  -2.875  1.00  0.00    -0.246 OA
BRANCH  32  34
ATOM     34  C   UNL     1     -19.146  15.469  -3.470  1.00  0.00     0.060 A 
ATOM     35  C   UNL     1     -20.407  14.926  -3.779  1.00  0.00     0.015 A 
ATOM     36  C   UNL     1     -18.121  14.612  -3.021  1.00  0.00     0.015 A 
ATOM     37  C   UNL     1     -20.643  13.555  -3.627  1.00  0.00     0.001 A 
ATOM     38  C   UNL     1     -18.360  13.241  -2.875  1.00  0.00     0.001 A 
ATOM     39  C   UNL     1     -19.620  12.713  -3.176  1.00  0.00     0.000 A 
ENDBRANCH  32  34
ENDBRANCH  31  32
ENDBRANCH  30  31
ENDBRANCH   8  30
TORSDOF 12
ENDMDL
MODEL 7
REMARK VINA RESULT:    -5.799      1.813      6.997
REMARK INTER + INTRA:         -10.761
REMARK INTER:                  -9.290
REMARK INTRA:                  -1.471
REMARK UNBOUND:                -1.742
REMARK SMILES C[C@]12C[C@H](O)[C@@H]3C[C@@]1(O[C@@H]1O[C@@H](CO)[C@H](O)[C@H](O)[C@H]1O)[C@]3(COC(=O)c1ccccc1)C(=O)O2
REMARK SMILES IDX 1 1 2 2 3 3 4 4 6 5 7 6 8 7 21 8 32 9 33 10 34 11 9 12 10 13
REMARK SMILES IDX 19 14 11 15 17 16 12 17 15 18 20 19 18 21 13 23 14 24 16 26
REMARK SMILES IDX 5 28 22 30 23 31 24 32 25 33 26 34 27 35 31 36 28 37 30 38
REMARK SMILES IDX 29 39
REMARK H PARENT 20 20 18 22 14 25 16 27 5 29
REMARK Flexibility Score: inf
ROOT
ATOM      1  C   UNL     1     -15.408  12.467  -9.681  1.00  0.00     0.060 C 
ATOM      2  C   UNL     1     -16.921  12.322  -9.869  1.00  0.00     0.142 C 
ATOM      3  C   UNL     1     -17.312  12.422 -11.384  1.00  0.00     0.083 C 
ATOM      4  C   UNL     1     -18.870  12.529 -11.544  1.00  0.00     0.123 C 
ATOM      5  C   UNL     1     -19.511  13.231 -10.298  1.00  0.00     0.045 C 
ATOM      6  C   UNL     1     -18.567  14.364  -9.863  1.00  0.00     0.049 C 
ATOM      7  C   UNL     1     -17.836  13.305  -9.000  1.00  0.00     0.131 C 
ATOM      8  C   UNL     1     -19.145  12.474  -8.977  1.00  0.00     0.140 C 
ATOM      9  C   UNL     1     -18.633  11.069  -9.052  1.00  0.00     0.319 C 
ATOM     10  O   UNL     1     -19.296  10.032  -8.788  1.00  0.00    -0.251 OA
ATOM     11  O   UNL     1     -17.322  11.030  -9.454  1.00  0.00    -0.456 OA
ENDROOT
BRANCH   7  12
ATOM     12  O   UNL     1     -17.331  13.574  -7.686  1.00  0.00    -0.338 OA
BRANCH  12  13
ATOM     13  C   UNL     1     -16.911  14.906  -7.400  1.00  0.00     0.282 C 
ATOM     14  C   UNL     1     -17.840  15.659  -6.399  1.00  0.00     0.202 C 
ATOM     15  O   UNL     1     -15.545  14.941  -7.022  1.00  0.00    -0.341 OA
ATOM     16  C   UNL     1     -17.098  16.813  -5.700  1.00  0.00     0.179 C 
ATOM     17  C   UNL     1     -14.995  16.258  -6.975  1.00  0.00     0.178 C 
ATOM     18  C   UNL     1     -16.018  17.376  -6.630  1.00  0.00     0.177 C 
BRANCH  14  19
ATOM     19  O   UNL     1     -18.940  16.192  -7.096  1.00  0.00    -0.385 OA
ATOM     20  H   UNL     1     -19.404  15.435  -7.522  1.00  0.00     0.211 HD
ENDBRANCH  14  19
BRANCH  16  21
ATOM     21  O   UNL     1     -16.518  16.343  -4.506  1.00  0.00    -0.387 OA
ATOM     22  H   UNL     1     -17.098  16.653  -3.760  1.00  0.00     0.211 HD
ENDBRANCH  16  21
BRANCH  17  23
ATOM     23  C   UNL     1     -14.234  16.558  -8.275  1.00  0.00     0.191 C 
BRANCH  23  24
ATOM     24  O   UNL     1     -13.244  17.517  -8.026  1.00  0.00    -0.394 OA
ATOM     25  H   UNL     1     -13.718  18.352  -7.775  1.00  0.00     0.210 HD
ENDBRANCH  23  24
ENDBRANCH  17  23
BRANCH  18  26
ATOM     26  O   UNL     1     -15.373  18.462  -6.013  1.00  0.00    -0.387 OA
ATOM     27  H   UNL     1     -14.397  18.298  -6.098  1.00  0.00     0.211 HD
ENDBRANCH  18  26
ENDBRANCH  12  13
ENDBRANCH   7  12
BRANCH   4  28
ATOM     28  O   UNL     1     -19.210  13.188 -12.737  1.00  0.00    -0.393 OA
ATOM     29  H   UNL     1     -20.194  13.291 -12.762  1.00  0.00     0.210 HD
ENDBRANCH   4  28
BRANCH   8  30
ATOM     30  C   UNL     1     -20.098  12.739  -7.769  1.00  0.00     0.255 C 
BRANCH  30  31
ATOM     31  O   UNL     1     -19.699  12.040  -6.591  1.00  0.00    -0.461 OA
BRANCH  31  32
ATOM     32  C   UNL     1     -20.326  12.151  -5.342  1.00  0.00     0.338 C 
ATOM     33  O   UNL     1     -21.031  11.210  -4.893  1.00  0.00    -0.246 OA
BRANCH  32  34
ATOM     34  C   UNL     1     -20.141  13.378  -4.537  1.00  0.00     0.060 A 
ATOM     35  C   UNL     1     -21.006  14.475  -4.707  1.00  0.00     0.015 A 
ATOM     36  C   UNL     1     -19.085  13.476  -3.609  1.00  0.00     0.015 A 
ATOM     37  C   UNL     1     -20.811  15.651  -3.974  1.00  0.00     0.001 A 
ATOM     38  C   UNL     1     -18.895  14.652  -2.875  1.00  0.00     0.001 A 
ATOM     39  C   UNL     1     -19.756  15.739  -3.059  1.00  0.00     0.000 A 
ENDBRANCH  32  34
ENDBRANCH  31  32
ENDBRANCH  30  31
ENDBRANCH   8  30
TORSDOF 12
ENDMDL
MODEL 8
REMARK VINA RESULT:    -5.564      1.040      2.141
REMARK INTER + INTRA:         -10.396
REMARK INTER:                  -9.662
REMARK INTRA:                  -0.734
REMARK UNBOUND:                -1.742
REMARK SMILES C[C@]12C[C@H](O)[C@@H]3C[C@@]1(O[C@@H]1O[C@@H](CO)[C@H](O)[C@H](O)[C@H]1O)[C@]3(COC(=O)c1ccccc1)C(=O)O2
REMARK SMILES IDX 1 1 2 2 3 3 4 4 6 5 7 6 8 7 21 8 32 9 33 10 34 11 9 12 10 13
REMARK SMILES IDX 19 14 11 15 17 16 12 17 15 18 20 19 18 21 13 23 14 24 16 26
REMARK SMILES IDX 5 28 22 30 23 31 24 32 25 33 26 34 27 35 31 36 28 37 30 38
REMARK SMILES IDX 29 39
REMARK H PARENT 20 20 18 22 14 25 16 27 5 29
REMARK Flexibility Score: inf
ROOT
ATOM      1  C   UNL     1     -20.779  12.744  -5.503  1.00  0.00     0.060 C 
ATOM      2  C   UNL     1     -19.806  13.916  -5.346  1.00  0.00     0.142 C 
ATOM      3  C   UNL     1     -20.580  15.271  -5.187  1.00  0.00     0.083 C 
ATOM      4  C   UNL     1     -19.588  16.484  -5.283  1.00  0.00     0.123 C 
ATOM      5  C   UNL     1     -18.366  16.133  -6.199  1.00  0.00     0.045 C 
ATOM      6  C   UNL     1     -18.890  15.298  -7.378  1.00  0.00     0.049 C 
ATOM      7  C   UNL     1     -18.683  14.056  -6.476  1.00  0.00     0.131 C 
ATOM      8  C   UNL     1     -17.622  14.857  -5.678  1.00  0.00     0.140 C 
ATOM      9  C   UNL     1     -17.857  14.390  -4.276  1.00  0.00     0.319 C 
ATOM     10  O   UNL     1     -17.067  14.546  -3.309  1.00  0.00    -0.251 OA
ATOM     11  O   UNL     1     -19.066  13.753  -4.151  1.00  0.00    -0.456 OA
ENDROOT
BRANCH   7  12
ATOM     12  O   UNL     1     -18.178  12.805  -6.963  1.00  0.00    -0.338 OA
BRANCH  12  13
ATOM     13  C   UNL     1     -18.363  12.512  -8.346  1.00  0.00     0.282 C 
ATOM     14  C   UNL     1     -19.857  12.375  -8.767  1.00  0.00     0.202 C 
ATOM     15  O   UNL     1     -17.637  13.417  -9.161  1.00  0.00    -0.341 OA
ATOM     16  C   UNL     1     -20.043  12.621 -10.276  1.00  0.00     0.179 C 
ATOM     17  C   UNL     1     -17.568  13.025 -10.533  1.00  0.00     0.178 C 
ATOM     18  C   UNL     1     -18.781  12.191 -11.032  1.00  0.00     0.177 C 
BRANCH  14  19
ATOM     19  O   UNL     1     -20.309  11.076  -8.467  1.00  0.00    -0.385 OA
ATOM     20  H   UNL     1     -19.530  10.570  -8.141  1.00  0.00     0.211 HD
ENDBRANCH  14  19
BRANCH  16  21
ATOM     21  O   UNL     1     -20.306  13.986 -10.500  1.00  0.00    -0.387 OA
ATOM     22  H   UNL     1     -19.834  14.238 -11.339  1.00  0.00     0.211 HD
ENDBRANCH  16  21
BRANCH  17  23
ATOM     23  C   UNL     1     -16.232  12.320 -10.813  1.00  0.00     0.191 C 
BRANCH  23  24
ATOM     24  O   UNL     1     -16.475  10.993 -11.193  1.00  0.00    -0.394 OA
ATOM     25  H   UNL     1     -17.438  10.824 -11.025  1.00  0.00     0.210 HD
ENDBRANCH  23  24
ENDBRANCH  17  23
BRANCH  18  26
ATOM     26  O   UNL     1     -18.967  12.368 -12.414  1.00  0.00    -0.387 OA
ATOM     27  H   UNL     1     -18.833  13.335 -12.597  1.00  0.00     0.211 HD
ENDBRANCH  18  26
ENDBRANCH  12  13
ENDBRANCH   7  12
BRANCH   4  28
ATOM     28  O   UNL     1     -20.249  17.640  -5.729  1.00  0.00    -0.393 OA
ATOM     29  H   UNL     1     -19.614  18.165  -6.279  1.00  0.00     0.210 HD
ENDBRANCH   4  28
BRANCH   8  30
ATOM     30  C   UNL     1     -16.146  14.700  -6.161  1.00  0.00     0.255 C 
BRANCH  30  31
ATOM     31  O   UNL     1     -15.222  15.421  -5.347  1.00  0.00    -0.461 OA
BRANCH  31  32
ATOM     32  C   UNL     1     -14.458  16.514  -5.778  1.00  0.00     0.338 C 
ATOM     33  O   UNL     1     -13.947  17.308  -4.945  1.00  0.00    -0.246 OA
BRANCH  32  34
ATOM     34  C   UNL     1     -14.232  16.723  -7.225  1.00  0.00     0.060 A 
ATOM     35  C   UNL     1     -13.251  15.978  -7.904  1.00  0.00     0.015 A 
ATOM     36  C   UNL     1     -14.978  17.684  -7.937  1.00  0.00     0.015 A 
ATOM     37  C   UNL     1     -13.009  16.200  -9.265  1.00  0.00     0.001 A 
ATOM     38  C   UNL     1     -14.737  17.900  -9.298  1.00  0.00     0.001 A 
ATOM     39  C   UNL     1     -13.752  17.161  -9.961  1.00  0.00     0.000 A 
ENDBRANCH  32  34
ENDBRANCH  31  32
ENDBRANCH  30  31
ENDBRANCH   8  30
TORSDOF 12
ENDMDL
