MODEL 1
REMARK VINA RESULT:    -4.971      0.000      0.000
REMARK INTER + INTRA:          -9.485
REMARK INTER:                  -8.750
REMARK INTRA:                  -0.735
REMARK UNBOUND:                -0.735
REMARK SMILES CCCCCCC=CCCCCCCCC(=O)[O-]
REMARK SMILES IDX 10 1 11 2 12 3 13 4 14 5 15 6 16 7 17 8 18 9 9 10 8 11 7 12
REMARK SMILES IDX 6 13 5 14 4 15 3 16 2 17 1 18
REMARK H PARENT
REMARK Flexibility Score: inf
ROOT
ATOM      1  C   UNL     1      -1.319  -7.947   6.511  1.00  0.00     0.004 C 
ENDROOT
BRANCH   1   2
ATOM      2  C   UNL     1      -0.016  -7.597   7.246  1.00  0.00     0.000 C 
BRANCH   2   3
ATOM      3  C   UNL     1       0.855  -6.599   6.468  1.00  0.00     0.000 C 
BRANCH   3   4
ATOM      4  C   UNL     1       2.273  -6.471   7.054  1.00  0.00     0.000 C 
BRANCH   4   5
ATOM      5  C   UNL     1       2.340  -5.480   8.227  1.00  0.00     0.006 C 
BRANCH   5   6
ATOM      6  C   UNL     1       1.738  -4.111   7.881  1.00  0.00     0.053 C 
BRANCH   6   7
ATOM      7  C   UNL     1       2.740  -3.026   8.118  1.00  0.00     0.041 C 
ATOM      8  O   UNL     1       3.419  -3.011   9.179  1.00  0.00    -0.550 OA
ATOM      9  O   UNL     1       2.892  -2.004   7.190  1.00  0.00    -0.550 OA
ENDBRANCH   6   7
ENDBRANCH   5   6
ENDBRANCH   4   5
ENDBRANCH   3   4
ENDBRANCH   2   3
ENDBRANCH   1   2
BRANCH   1  10
ATOM     10  C   UNL     1      -1.042  -8.860   5.309  1.00  0.00     0.027 C 
BRANCH  10  11
ATOM     11  C   UNL     1      -2.041  -8.626   4.210  1.00  0.00    -0.031 C 
ATOM     12  C   UNL     1      -1.671  -8.139   3.015  1.00  0.00    -0.031 C 
BRANCH  12  13
ATOM     13  C   UNL     1      -2.674  -7.888   1.924  1.00  0.00     0.027 C 
BRANCH  13  14
ATOM     14  C   UNL     1      -1.991  -7.334   0.664  1.00  0.00     0.004 C 
BRANCH  14  15
ATOM     15  C   UNL     1      -2.593  -5.997   0.198  1.00  0.00     0.000 C 
BRANCH  15  16
ATOM     16  C   UNL     1      -1.661  -5.131  -0.675  1.00  0.00    -0.000 C 
BRANCH  16  17
ATOM     17  C   UNL     1      -0.381  -4.645   0.026  1.00  0.00    -0.003 C 
ATOM     18  C   UNL     1      -0.659  -3.636   1.140  1.00  0.00     0.004 C 
ENDBRANCH  16  17
ENDBRANCH  15  16
ENDBRANCH  14  15
ENDBRANCH  13  14
ENDBRANCH  12  13
ENDBRANCH  10  11
ENDBRANCH   1  10
TORSDOF 13
ENDMDL
MODEL 2
REMARK VINA RESULT:    -4.866      6.816      9.704
REMARK INTER + INTRA:          -9.300
REMARK INTER:                  -8.507
REMARK INTRA:                  -0.793
REMARK UNBOUND:                -0.735
REMARK SMILES CCCCCCC=CCCCCCCCC(=O)[O-]
REMARK SMILES IDX 10 1 11 2 12 3 13 4 14 5 15 6 16 7 17 8 18 9 9 10 8 11 7 12
REMARK SMILES IDX 6 13 5 14 4 15 3 16 2 17 1 18
REMARK H PARENT
REMARK Flexibility Score: inf
ROOT
ATOM      1  C   UNL     1      -3.325  -7.483  -0.152  1.00  0.00     0.004 C 
ENDROOT
BRANCH   1   2
ATOM      2  C   UNL     1      -3.202  -7.190  -1.655  1.00  0.00     0.000 C 
BRANCH   2   3
ATOM      3  C   UNL     1      -3.049  -8.466  -2.498  1.00  0.00     0.000 C 
BRANCH   3   4
ATOM      4  C   UNL     1      -1.877  -8.380  -3.492  1.00  0.00     0.000 C 
BRANCH   4   5
ATOM      5  C   UNL     1      -2.291  -7.774  -4.842  1.00  0.00     0.006 C 
BRANCH   5   6
ATOM      6  C   UNL     1      -2.063  -6.258  -4.906  1.00  0.00     0.053 C 
BRANCH   6   7
ATOM      7  C   UNL     1      -3.333  -5.554  -5.270  1.00  0.00     0.041 C 
ATOM      8  O   UNL     1      -3.322  -4.321  -5.527  1.00  0.00    -0.550 OA
ATOM      9  O   UNL     1      -4.536  -6.248  -5.279  1.00  0.00    -0.550 OA
ENDBRANCH   6   7
ENDBRANCH   5   6
ENDBRANCH   4   5
ENDBRANCH   3   4
ENDBRANCH   2   3
ENDBRANCH   1   2
BRANCH   1  10
ATOM     10  C   UNL     1      -2.080  -7.002   0.605  1.00  0.00     0.027 C 
BRANCH  10  11
ATOM     11  C   UNL     1      -1.741  -5.582   0.243  1.00  0.00    -0.031 C 
ATOM     12  C   UNL     1      -0.861  -4.865   0.959  1.00  0.00    -0.031 C 
BRANCH  12  13
ATOM     13  C   UNL     1      -0.538  -3.440   0.608  1.00  0.00     0.027 C 
BRANCH  13  14
ATOM     14  C   UNL     1      -0.060  -2.662   1.843  1.00  0.00     0.004 C 
BRANCH  14  15
ATOM     15  C   UNL     1      -0.122  -1.136   1.649  1.00  0.00     0.000 C 
BRANCH  15  16
ATOM     16  C   UNL     1      -0.623  -0.675   0.264  1.00  0.00    -0.000 C 
BRANCH  16  17
ATOM     17  C   UNL     1       0.007   0.631  -0.251  1.00  0.00    -0.003 C 
ATOM     18  C   UNL     1      -0.299   0.899  -1.724  1.00  0.00     0.004 C 
ENDBRANCH  16  17
ENDBRANCH  15  16
ENDBRANCH  14  15
ENDBRANCH  13  14
ENDBRANCH  12  13
ENDBRANCH  10  11
ENDBRANCH   1  10
TORSDOF 13
ENDMDL
MODEL 3
REMARK VINA RESULT:    -4.856      1.772      3.422
REMARK INTER + INTRA:          -9.282
REMARK INTER:                  -8.596
REMARK INTRA:                  -0.686
REMARK UNBOUND:                -0.735
REMARK SMILES CCCCCCC=CCCCCCCCC(=O)[O-]
REMARK SMILES IDX 10 1 11 2 12 3 13 4 14 5 15 6 16 7 17 8 18 9 9 10 8 11 7 12
REMARK SMILES IDX 6 13 5 14 4 15 3 16 2 17 1 18
REMARK H PARENT
REMARK Flexibility Score: inf
ROOT
ATOM      1  C   UNL     1      -1.810  -8.247   3.004  1.00  0.00     0.004 C 
ENDROOT
BRANCH   1   2
ATOM      2  C   UNL     1      -2.277  -8.621   4.419  1.00  0.00     0.000 C 
BRANCH   2   3
ATOM      3  C   UNL     1      -1.107  -8.865   5.385  1.00  0.00     0.000 C 
BRANCH   3   4
ATOM      4  C   UNL     1      -0.116  -7.687   5.421  1.00  0.00     0.000 C 
BRANCH   4   5
ATOM      5  C   UNL     1       0.242  -7.261   6.854  1.00  0.00     0.006 C 
BRANCH   5   6
ATOM      6  C   UNL     1       1.144  -6.021   6.896  1.00  0.00     0.053 C 
BRANCH   6   7
ATOM      7  C   UNL     1       2.464  -6.357   7.514  1.00  0.00     0.041 C 
ATOM      8  O   UNL     1       3.535  -6.056   6.922  1.00  0.00    -0.550 OA
ATOM      9  O   UNL     1       2.514  -7.043   8.721  1.00  0.00    -0.550 OA
ENDBRANCH   6   7
ENDBRANCH   5   6
ENDBRANCH   4   5
ENDBRANCH   3   4
ENDBRANCH   2   3
ENDBRANCH   1   2
BRANCH   1  10
ATOM     10  C   UNL     1      -2.947  -8.422   1.988  1.00  0.00     0.027 C 
BRANCH  10  11
ATOM     11  C   UNL     1      -2.762  -7.512   0.805  1.00  0.00    -0.031 C 
ATOM     12  C   UNL     1      -1.610  -6.854   0.599  1.00  0.00    -0.031 C 
BRANCH  12  13
ATOM     13  C   UNL     1      -1.432  -5.930  -0.574  1.00  0.00     0.027 C 
BRANCH  13  14
ATOM     14  C   UNL     1      -0.199  -5.033  -0.387  1.00  0.00     0.004 C 
BRANCH  14  15
ATOM     15  C   UNL     1      -0.565  -3.584  -0.019  1.00  0.00     0.000 C 
BRANCH  15  16
ATOM     16  C   UNL     1      -0.511  -3.261   1.489  1.00  0.00    -0.000 C 
BRANCH  16  17
ATOM     17  C   UNL     1       0.149  -1.916   1.841  1.00  0.00    -0.003 C 
ATOM     18  C   UNL     1      -0.295  -0.777   0.924  1.00  0.00     0.004 C 
ENDBRANCH  16  17
ENDBRANCH  15  16
ENDBRANCH  14  15
ENDBRANCH  13  14
ENDBRANCH  12  13
ENDBRANCH  10  11
ENDBRANCH   1  10
TORSDOF 13
ENDMDL
MODEL 4
REMARK VINA RESULT:    -4.825      6.653      9.677
REMARK INTER + INTRA:          -9.227
REMARK INTER:                  -7.941
REMARK INTRA:                  -1.286
REMARK UNBOUND:                -0.735
REMARK SMILES CCCCCCC=CCCCCCCCC(=O)[O-]
REMARK SMILES IDX 10 1 11 2 12 3 13 4 14 5 15 6 16 7 17 8 18 9 9 10 8 11 7 12
REMARK SMILES IDX 6 13 5 14 4 15 3 16 2 17 1 18
REMARK H PARENT
REMARK Flexibility Score: inf
ROOT
ATOM      1  C   UNL     1      -0.523  -7.551  -2.555  1.00  0.00     0.004 C 
ENDROOT
BRANCH   1   2
ATOM      2  C   UNL     1      -0.391  -8.510  -3.748  1.00  0.00     0.000 C 
BRANCH   2   3
ATOM      3  C   UNL     1      -0.745  -7.845  -5.087  1.00  0.00     0.000 C 
BRANCH   3   4
ATOM      4  C   UNL     1      -0.126  -6.443  -5.232  1.00  0.00     0.000 C 
BRANCH   4   5
ATOM      5  C   UNL     1      -1.169  -5.373  -5.593  1.00  0.00     0.006 C 
BRANCH   5   6
ATOM      6  C   UNL     1      -1.773  -4.693  -4.358  1.00  0.00     0.053 C 
BRANCH   6   7
ATOM      7  C   UNL     1      -3.232  -5.008  -4.250  1.00  0.00     0.041 C 
ATOM      8  O   UNL     1      -3.875  -4.682  -3.218  1.00  0.00    -0.550 OA
ATOM      9  O   UNL     1      -3.871  -5.704  -5.268  1.00  0.00    -0.550 OA
ENDBRANCH   6   7
ENDBRANCH   5   6
ENDBRANCH   4   5
ENDBRANCH   3   4
ENDBRANCH   2   3
ENDBRANCH   1   2
BRANCH   1  10
ATOM     10  C   UNL     1      -1.922  -7.643  -1.930  1.00  0.00     0.027 C 
BRANCH  10  11
ATOM     11  C   UNL     1      -2.107  -6.601  -0.861  1.00  0.00    -0.031 C 
ATOM     12  C   UNL     1      -1.059  -5.995  -0.282  1.00  0.00    -0.031 C 
BRANCH  12  13
ATOM     13  C   UNL     1      -1.245  -4.968   0.799  1.00  0.00     0.027 C 
BRANCH  13  14
ATOM     14  C   UNL     1      -0.600  -3.630   0.406  1.00  0.00     0.004 C 
BRANCH  14  15
ATOM     15  C   UNL     1      -0.182  -2.788   1.624  1.00  0.00     0.000 C 
BRANCH  15  16
ATOM     16  C   UNL     1      -0.398  -1.268   1.472  1.00  0.00    -0.000 C 
BRANCH  16  17
ATOM     17  C   UNL     1      -0.217  -0.727   0.043  1.00  0.00    -0.003 C 
ATOM     18  C   UNL     1      -0.062   0.793  -0.003  1.00  0.00     0.004 C 
ENDBRANCH  16  17
ENDBRANCH  15  16
ENDBRANCH  14  15
ENDBRANCH  13  14
ENDBRANCH  12  13
ENDBRANCH  10  11
ENDBRANCH   1  10
TORSDOF 13
ENDMDL
MODEL 5
REMARK VINA RESULT:    -4.647      6.160      9.405
REMARK INTER + INTRA:          -8.914
REMARK INTER:                  -8.103
REMARK INTRA:                  -0.810
REMARK UNBOUND:                -0.735
REMARK SMILES CCCCCCC=CCCCCCCCC(=O)[O-]
REMARK SMILES IDX 10 1 11 2 12 3 13 4 14 5 15 6 16 7 17 8 18 9 9 10 8 11 7 12
REMARK SMILES IDX 6 13 5 14 4 15 3 16 2 17 1 18
REMARK H PARENT
REMARK Flexibility Score: inf
ROOT
ATOM      1  C   UNL     1      -1.370  -6.457   0.590  1.00  0.00     0.004 C 
ENDROOT
BRANCH   1   2
ATOM      2  C   UNL     1      -1.219  -4.962   0.268  1.00  0.00     0.000 C 
BRANCH   2   3
ATOM      3  C   UNL     1      -0.479  -4.711  -1.054  1.00  0.00     0.000 C 
BRANCH   3   4
ATOM      4  C   UNL     1      -1.414  -4.199  -2.165  1.00  0.00     0.000 C 
BRANCH   4   5
ATOM      5  C   UNL     1      -2.336  -5.299  -2.714  1.00  0.00     0.006 C 
BRANCH   5   6
ATOM      6  C   UNL     1      -3.613  -4.738  -3.353  1.00  0.00     0.053 C 
BRANCH   6   7
ATOM      7  C   UNL     1      -3.665  -5.085  -4.808  1.00  0.00     0.041 C 
ATOM      8  O   UNL     1      -3.042  -4.384  -5.648  1.00  0.00    -0.550 OA
ATOM      9  O   UNL     1      -4.438  -6.155  -5.241  1.00  0.00    -0.550 OA
ENDBRANCH   6   7
ENDBRANCH   5   6
ENDBRANCH   4   5
ENDBRANCH   3   4
ENDBRANCH   2   3
ENDBRANCH   1   2
BRANCH   1  10
ATOM     10  C   UNL     1      -2.848  -6.836   0.756  1.00  0.00     0.027 C 
BRANCH  10  11
ATOM     11  C   UNL     1      -3.011  -7.965   1.735  1.00  0.00    -0.031 C 
ATOM     12  C   UNL     1      -2.063  -8.251   2.641  1.00  0.00    -0.031 C 
BRANCH  12  13
ATOM     13  C   UNL     1      -2.219  -9.392   3.608  1.00  0.00     0.027 C 
BRANCH  13  14
ATOM     14  C   UNL     1      -2.375  -8.878   5.047  1.00  0.00     0.004 C 
BRANCH  14  15
ATOM     15  C   UNL     1      -3.737  -8.206   5.296  1.00  0.00     0.000 C 
BRANCH  15  16
ATOM     16  C   UNL     1      -3.860  -7.461   6.642  1.00  0.00    -0.000 C 
BRANCH  16  17
ATOM     17  C   UNL     1      -4.082  -8.366   7.866  1.00  0.00    -0.003 C 
ATOM     18  C   UNL     1      -2.806  -8.596   8.675  1.00  0.00     0.004 C 
ENDBRANCH  16  17
ENDBRANCH  15  16
ENDBRANCH  14  15
ENDBRANCH  13  14
ENDBRANCH  12  13
ENDBRANCH  10  11
ENDBRANCH   1  10
TORSDOF 13
ENDMDL
MODEL 6
REMARK VINA RESULT:    -4.630      6.746     10.056
REMARK INTER + INTRA:          -8.885
REMARK INTER:                  -6.892
REMARK INTRA:                  -1.993
REMARK UNBOUND:                -0.735
REMARK SMILES CCCCCCC=CCCCCCCCC(=O)[O-]
REMARK SMILES IDX 10 1 11 2 12 3 13 4 14 5 15 6 16 7 17 8 18 9 9 10 8 11 7 12
REMARK SMILES IDX 6 13 5 14 4 15 3 16 2 17 1 18
REMARK H PARENT
REMARK Flexibility Score: inf
ROOT
ATOM      1  C   UNL     1      -3.296  -5.042  -4.273  1.00  0.00     0.004 C 
ENDROOT
BRANCH   1   2
ATOM      2  C   UNL     1      -2.939  -4.354  -5.600  1.00  0.00     0.000 C 
BRANCH   2   3
ATOM      3  C   UNL     1      -1.455  -4.506  -5.968  1.00  0.00     0.000 C 
BRANCH   3   4
ATOM      4  C   UNL     1      -0.672  -5.332  -4.931  1.00  0.00     0.000 C 
BRANCH   4   5
ATOM      5  C   UNL     1      -0.022  -6.583  -5.543  1.00  0.00     0.006 C 
BRANCH   5   6
ATOM      6  C   UNL     1      -0.800  -7.869  -5.229  1.00  0.00     0.053 C 
BRANCH   6   7
ATOM      7  C   UNL     1      -0.151  -8.610  -4.104  1.00  0.00     0.041 C 
ATOM      8  O   UNL     1      -0.189  -9.868  -4.069  1.00  0.00    -0.550 OA
ATOM      9  O   UNL     1       0.457  -7.911  -3.068  1.00  0.00    -0.550 OA
ENDBRANCH   6   7
ENDBRANCH   5   6
ENDBRANCH   4   5
ENDBRANCH   3   4
ENDBRANCH   2   3
ENDBRANCH   1   2
BRANCH   1  10
ATOM     10  C   UNL     1      -4.162  -6.285  -4.515  1.00  0.00     0.027 C 
BRANCH  10  11
ATOM     11  C   UNL     1      -4.135  -7.204  -3.325  1.00  0.00    -0.031 C 
ATOM     12  C   UNL     1      -3.163  -7.130  -2.402  1.00  0.00    -0.031 C 
BRANCH  12  13
ATOM     13  C   UNL     1      -3.127  -8.062  -1.223  1.00  0.00     0.027 C 
BRANCH  13  14
ATOM     14  C   UNL     1      -2.218  -7.512  -0.114  1.00  0.00     0.004 C 
BRANCH  14  15
ATOM     15  C   UNL     1      -2.597  -6.084   0.316  1.00  0.00     0.000 C 
BRANCH  15  16
ATOM     16  C   UNL     1      -1.406  -5.122   0.503  1.00  0.00    -0.000 C 
BRANCH  16  17
ATOM     17  C   UNL     1      -0.395  -5.106  -0.657  1.00  0.00    -0.003 C 
ATOM     18  C   UNL     1      -0.730  -4.065  -1.725  1.00  0.00     0.004 C 
ENDBRANCH  16  17
ENDBRANCH  15  16
ENDBRANCH  14  15
ENDBRANCH  13  14
ENDBRANCH  12  13
ENDBRANCH  10  11
ENDBRANCH   1  10
TORSDOF 13
ENDMDL
MODEL 7
REMARK VINA RESULT:    -4.613      1.696      2.944
REMARK INTER + INTRA:          -8.855
REMARK INTER:                  -8.041
REMARK INTRA:                  -0.813
REMARK UNBOUND:                -0.735
REMARK SMILES CCCCCCC=CCCCCCCCC(=O)[O-]
REMARK SMILES IDX 10 1 11 2 12 3 13 4 14 5 15 6 16 7 17 8 18 9 9 10 8 11 7 12
REMARK SMILES IDX 6 13 5 14 4 15 3 16 2 17 1 18
REMARK H PARENT
REMARK Flexibility Score: inf
ROOT
ATOM      1  C   UNL     1      -1.978  -8.807   4.168  1.00  0.00     0.004 C 
ENDROOT
BRANCH   1   2
ATOM      2  C   UNL     1      -2.037  -9.208   5.650  1.00  0.00     0.000 C 
BRANCH   2   3
ATOM      3  C   UNL     1      -1.903  -8.005   6.597  1.00  0.00     0.000 C 
BRANCH   3   4
ATOM      4  C   UNL     1      -0.495  -7.888   7.207  1.00  0.00     0.000 C 
BRANCH   4   5
ATOM      5  C   UNL     1       0.464  -7.072   6.326  1.00  0.00     0.006 C 
BRANCH   5   6
ATOM      6  C   UNL     1       1.159  -5.941   7.096  1.00  0.00     0.053 C 
BRANCH   6   7
ATOM      7  C   UNL     1       2.570  -6.319   7.418  1.00  0.00     0.041 C 
ATOM      8  O   UNL     1       3.526  -5.618   6.994  1.00  0.00    -0.550 OA
ATOM      9  O   UNL     1       2.833  -7.472   8.147  1.00  0.00    -0.550 OA
ENDBRANCH   6   7
ENDBRANCH   5   6
ENDBRANCH   4   5
ENDBRANCH   3   4
ENDBRANCH   2   3
ENDBRANCH   1   2
BRANCH   1  10
ATOM     10  C   UNL     1      -3.389  -8.711   3.570  1.00  0.00     0.027 C 
BRANCH  10  11
ATOM     11  C   UNL     1      -3.348  -8.157   2.173  1.00  0.00    -0.031 C 
ATOM     12  C   UNL     1      -2.188  -7.831   1.580  1.00  0.00    -0.031 C 
BRANCH  12  13
ATOM     13  C   UNL     1      -2.150  -7.260   0.190  1.00  0.00     0.027 C 
BRANCH  13  14
ATOM     14  C   UNL     1      -2.480  -5.759   0.201  1.00  0.00     0.004 C 
BRANCH  14  15
ATOM     15  C   UNL     1      -1.243  -4.878   0.444  1.00  0.00     0.000 C 
BRANCH  15  16
ATOM     16  C   UNL     1      -0.215  -4.865  -0.707  1.00  0.00    -0.000 C 
BRANCH  16  17
ATOM     17  C   UNL     1      -0.628  -4.039  -1.937  1.00  0.00    -0.003 C 
ATOM     18  C   UNL     1      -1.109  -4.905  -3.101  1.00  0.00     0.004 C 
ENDBRANCH  16  17
ENDBRANCH  15  16
ENDBRANCH  14  15
ENDBRANCH  13  14
ENDBRANCH  12  13
ENDBRANCH  10  11
ENDBRANCH   1  10
TORSDOF 13
ENDMDL
MODEL 8
REMARK VINA RESULT:    -4.574      4.566      7.318
REMARK INTER + INTRA:          -8.785
REMARK INTER:                  -6.872
REMARK INTRA:                  -1.913
REMARK UNBOUND:                -0.735
REMARK SMILES CCCCCCC=CCCCCCCCC(=O)[O-]
REMARK SMILES IDX 10 1 11 2 12 3 13 4 14 5 15 6 16 7 17 8 18 9 9 10 8 11 7 12
REMARK SMILES IDX 6 13 5 14 4 15 3 16 2 17 1 18
REMARK H PARENT
REMARK Flexibility Score: inf
ROOT
ATOM      1  C   UNL     1      -0.591  -5.366  -0.950  1.00  0.00     0.004 C 
ENDROOT
BRANCH   1   2
ATOM      2  C   UNL     1      -1.383  -5.243   0.361  1.00  0.00     0.000 C 
BRANCH   2   3
ATOM      3  C   UNL     1      -2.663  -6.093   0.364  1.00  0.00     0.000 C 
BRANCH   3   4
ATOM      4  C   UNL     1      -2.391  -7.569   0.706  1.00  0.00     0.000 C 
BRANCH   4   5
ATOM      5  C   UNL     1      -1.683  -7.740   2.060  1.00  0.00     0.006 C 
BRANCH   5   6
ATOM      6  C   UNL     1      -2.242  -8.911   2.878  1.00  0.00     0.053 C 
BRANCH   6   7
ATOM      7  C   UNL     1      -2.105  -8.636   4.343  1.00  0.00     0.041 C 
ATOM      8  O   UNL     1      -0.972  -8.678   4.891  1.00  0.00    -0.550 OA
ATOM      9  O   UNL     1      -3.233  -8.381   5.112  1.00  0.00    -0.550 OA
ENDBRANCH   6   7
ENDBRANCH   5   6
ENDBRANCH   4   5
ENDBRANCH   3   4
ENDBRANCH   2   3
ENDBRANCH   1   2
BRANCH   1  10
ATOM     10  C   UNL     1      -0.886  -4.183  -1.882  1.00  0.00     0.027 C 
BRANCH  10  11
ATOM     11  C   UNL     1      -1.432  -4.656  -3.201  1.00  0.00    -0.031 C 
ATOM     12  C   UNL     1      -2.752  -4.688  -3.444  1.00  0.00    -0.031 C 
BRANCH  12  13
ATOM     13  C   UNL     1      -3.297  -5.179  -4.756  1.00  0.00     0.027 C 
BRANCH  13  14
ATOM     14  C   UNL     1      -4.069  -6.494  -4.575  1.00  0.00     0.004 C 
BRANCH  14  15
ATOM     15  C   UNL     1      -4.208  -6.907  -3.099  1.00  0.00     0.000 C 
BRANCH  15  16
ATOM     16  C   UNL     1      -3.507  -8.229  -2.723  1.00  0.00    -0.000 C 
BRANCH  16  17
ATOM     17  C   UNL     1      -2.331  -8.623  -3.634  1.00  0.00    -0.003 C 
ATOM     18  C   UNL     1      -0.969  -8.371  -2.990  1.00  0.00     0.004 C 
ENDBRANCH  16  17
ENDBRANCH  15  16
ENDBRANCH  14  15
ENDBRANCH  13  14
ENDBRANCH  12  13
ENDBRANCH  10  11
ENDBRANCH   1  10
TORSDOF 13
ENDMDL
MODEL 9
REMARK VINA RESULT:    -4.555      7.072     10.084
REMARK INTER + INTRA:          -8.752
REMARK INTER:                  -6.244
REMARK INTRA:                  -2.507
REMARK UNBOUND:                -0.735
REMARK SMILES CCCCCCC=CCCCCCCCC(=O)[O-]
REMARK SMILES IDX 10 1 11 2 12 3 13 4 14 5 15 6 16 7 17 8 18 9 9 10 8 11 7 12
REMARK SMILES IDX 6 13 5 14 4 15 3 16 2 17 1 18
REMARK H PARENT
REMARK Flexibility Score: inf
ROOT
ATOM      1  C   UNL     1      -4.260  -6.371  -4.470  1.00  0.00     0.004 C 
ENDROOT
BRANCH   1   2
ATOM      2  C   UNL     1      -4.053  -7.088  -3.126  1.00  0.00     0.000 C 
BRANCH   2   3
ATOM      3  C   UNL     1      -3.253  -8.392  -3.266  1.00  0.00     0.000 C 
BRANCH   3   4
ATOM      4  C   UNL     1      -1.839  -8.285  -2.665  1.00  0.00     0.000 C 
BRANCH   4   5
ATOM      5  C   UNL     1      -0.737  -8.594  -3.691  1.00  0.00     0.006 C 
BRANCH   5   6
ATOM      6  C   UNL     1      -1.099  -8.129  -5.108  1.00  0.00     0.053 C 
BRANCH   6   7
ATOM      7  C   UNL     1      -0.047  -7.207  -5.639  1.00  0.00     0.041 C 
ATOM      8  O   UNL     1      -0.377  -6.138  -6.219  1.00  0.00    -0.550 OA
ATOM      9  O   UNL     1       1.295  -7.548  -5.536  1.00  0.00    -0.550 OA
ENDBRANCH   6   7
ENDBRANCH   5   6
ENDBRANCH   4   5
ENDBRANCH   3   4
ENDBRANCH   2   3
ENDBRANCH   1   2
BRANCH   1  10
ATOM     10  C   UNL     1      -3.326  -5.159  -4.593  1.00  0.00     0.027 C 
BRANCH  10  11
ATOM     11  C   UNL     1      -2.758  -4.775  -3.255  1.00  0.00    -0.031 C 
ATOM     12  C   UNL     1      -1.443  -4.567  -3.084  1.00  0.00    -0.031 C 
BRANCH  12  13
ATOM     13  C   UNL     1      -0.873  -4.200  -1.742  1.00  0.00     0.027 C 
BRANCH  13  14
ATOM     14  C   UNL     1       0.033  -5.318  -1.204  1.00  0.00     0.004 C 
BRANCH  14  15
ATOM     15  C   UNL     1      -0.646  -6.166  -0.115  1.00  0.00     0.000 C 
BRANCH  15  16
ATOM     16  C   UNL     1      -2.009  -5.631   0.373  1.00  0.00    -0.000 C 
BRANCH  16  17
ATOM     17  C   UNL     1      -3.090  -6.705   0.584  1.00  0.00    -0.003 C 
ATOM     18  C   UNL     1      -2.529  -8.013   1.141  1.00  0.00     0.004 C 
ENDBRANCH  16  17
ENDBRANCH  15  16
ENDBRANCH  14  15
ENDBRANCH  13  14
ENDBRANCH  12  13
ENDBRANCH  10  11
ENDBRANCH   1  10
TORSDOF 13
ENDMDL
