MODEL 1
REMARK VINA RESULT:    -8.358      0.000      0.000
REMARK INTER + INTRA:          -9.922
REMARK INTER:                 -10.068
REMARK INTRA:                   0.146
REMARK UNBOUND:                 0.146
REMARK SMILES O=c1c(O)c(-c2ccc(O)c(O)c2)oc2cc(O)cc(O)c12
REMARK SMILES IDX 5 1 3 2 2 3 1 4 22 5 20 6 19 7 17 8 16 9 15 10 14 11 6 12
REMARK SMILES IDX 7 13 8 14 9 15 13 16 11 17 10 18 12 20 4 22 21 24 18 26
REMARK H PARENT 10 19 12 21 4 23 21 25 18 27
REMARK Flexibility Score: inf
ROOT
ATOM      1  C   UNL     1      36.605   1.134  -2.691  1.00  0.00     0.180 A 
ATOM      2  C   UNL     1      37.368   1.103  -1.506  1.00  0.00     0.208 A 
ATOM      3  C   UNL     1      37.560   2.296  -0.792  1.00  0.00     0.238 A 
ATOM      4  O   UNL     1      38.231   2.279   0.275  1.00  0.00    -0.285 OA
ATOM      5  C   UNL     1      37.007   3.498  -1.282  1.00  0.00     0.111 A 
ATOM      6  C   UNL     1      37.158   4.743  -0.625  1.00  0.00     0.134 A 
ATOM      7  C   UNL     1      36.584   5.896  -1.181  1.00  0.00     0.093 A 
ATOM      8  C   UNL     1      35.867   5.830  -2.378  1.00  0.00     0.123 A 
ATOM      9  C   UNL     1      35.714   4.602  -3.030  1.00  0.00     0.094 A 
ATOM     10  C   UNL     1      36.276   3.441  -2.491  1.00  0.00     0.146 A 
ATOM     11  O   UNL     1      36.112   2.288  -3.129  1.00  0.00    -0.452 OA
ENDROOT
BRANCH   1  12
ATOM     12  C   UNL     1      36.343  -0.086  -3.488  1.00  0.00     0.025 A 
ATOM     13  C   UNL     1      37.388  -0.993  -3.725  1.00  0.00     0.016 A 
ATOM     14  C   UNL     1      37.168  -2.140  -4.493  1.00  0.00     0.051 A 
ATOM     15  C   UNL     1      35.910  -2.389  -5.048  1.00  0.00     0.157 A 
ATOM     16  C   UNL     1      35.083  -0.328  -4.065  1.00  0.00     0.062 A 
ATOM     17  C   UNL     1      34.862  -1.477  -4.837  1.00  0.00     0.158 A 
BRANCH  15  18
ATOM     18  O   UNL     1      35.721  -3.543  -5.807  1.00  0.00    -0.504 OA
ATOM     19  H   UNL     1      36.121  -4.434  -5.540  1.00  0.00     0.293 HD
ENDBRANCH  15  18
BRANCH  17  20
ATOM     20  O   UNL     1      33.608  -1.713  -5.400  1.00  0.00    -0.504 OA
ATOM     21  H   UNL     1      32.756  -1.406  -4.945  1.00  0.00     0.293 HD
ENDBRANCH  17  20
ENDBRANCH   1  12
BRANCH   2  22
ATOM     22  O   UNL     1      37.946  -0.091  -1.070  1.00  0.00    -0.502 OA
ATOM     23  H   UNL     1      38.043  -0.899  -1.674  1.00  0.00     0.293 HD
ENDBRANCH   2  22
BRANCH   6  24
ATOM     24  O   UNL     1      37.869   4.843   0.571  1.00  0.00    -0.507 OA
ATOM     25  H   UNL     1      37.655   5.555   1.261  1.00  0.00     0.293 HD
ENDBRANCH   6  24
BRANCH   8  26
ATOM     26  O   UNL     1      35.309   6.990  -2.909  1.00  0.00    -0.508 OA
ATOM     27  H   UNL     1      35.888   7.757  -3.232  1.00  0.00     0.293 HD
ENDBRANCH   8  26
TORSDOF 6
ENDMDL
MODEL 2
REMARK VINA RESULT:    -7.850      3.572      7.996
REMARK INTER + INTRA:          -9.310
REMARK INTER:                  -8.992
REMARK INTRA:                  -0.318
REMARK UNBOUND:                 0.146
REMARK SMILES O=c1c(O)c(-c2ccc(O)c(O)c2)oc2cc(O)cc(O)c12
REMARK SMILES IDX 5 1 3 2 2 3 1 4 22 5 20 6 19 7 17 8 16 9 15 10 14 11 6 12
REMARK SMILES IDX 7 13 8 14 9 15 13 16 11 17 10 18 12 20 4 22 21 24 18 26
REMARK H PARENT 10 19 12 21 4 23 21 25 18 27
REMARK Flexibility Score: inf
ROOT
ATOM      1  C   UNL     1      39.597   4.489  -0.917  1.00  0.00     0.180 A 
ATOM      2  C   UNL     1      38.562   5.316  -1.396  1.00  0.00     0.208 A 
ATOM      3  C   UNL     1      37.504   4.734  -2.111  1.00  0.00     0.238 A 
ATOM      4  O   UNL     1      36.567   5.463  -2.536  1.00  0.00    -0.285 OA
ATOM      5  C   UNL     1      37.508   3.345  -2.353  1.00  0.00     0.111 A 
ATOM      6  C   UNL     1      36.483   2.681  -3.069  1.00  0.00     0.134 A 
ATOM      7  C   UNL     1      36.563   1.295  -3.275  1.00  0.00     0.093 A 
ATOM      8  C   UNL     1      37.646   0.564  -2.783  1.00  0.00     0.123 A 
ATOM      9  C   UNL     1      38.662   1.214  -2.074  1.00  0.00     0.094 A 
ATOM     10  C   UNL     1      38.599   2.593  -1.856  1.00  0.00     0.146 A 
ATOM     11  O   UNL     1      39.574   3.185  -1.176  1.00  0.00    -0.452 OA
ENDROOT
BRANCH   1  12
ATOM     12  C   UNL     1      40.736   5.026  -0.138  1.00  0.00     0.025 A 
ATOM     13  C   UNL     1      40.663   5.051   1.263  1.00  0.00     0.016 A 
ATOM     14  C   UNL     1      41.717   5.573   2.017  1.00  0.00     0.051 A 
ATOM     15  C   UNL     1      42.851   6.092   1.385  1.00  0.00     0.157 A 
ATOM     16  C   UNL     1      41.868   5.569  -0.774  1.00  0.00     0.062 A 
ATOM     17  C   UNL     1      42.926   6.095  -0.018  1.00  0.00     0.158 A 
BRANCH  15  18
ATOM     18  O   UNL     1      43.887   6.604   2.164  1.00  0.00    -0.504 OA
ATOM     19  H   UNL     1      44.595   7.219   1.781  1.00  0.00     0.293 HD
ENDBRANCH  15  18
BRANCH  17  20
ATOM     20  O   UNL     1      44.046   6.624  -0.656  1.00  0.00    -0.504 OA
ATOM     21  H   UNL     1      44.052   7.567  -1.026  1.00  0.00     0.293 HD
ENDBRANCH  17  20
ENDBRANCH   1  12
BRANCH   2  22
ATOM     22  O   UNL     1      38.608   6.697  -1.185  1.00  0.00    -0.502 OA
ATOM     23  H   UNL     1      37.867   7.197  -0.707  1.00  0.00     0.293 HD
ENDBRANCH   2  22
BRANCH   6  24
ATOM     24  O   UNL     1      35.388   3.383  -3.574  1.00  0.00    -0.507 OA
ATOM     25  H   UNL     1      34.525   3.475  -3.050  1.00  0.00     0.293 HD
ENDBRANCH   6  24
BRANCH   8  26
ATOM     26  O   UNL     1      37.703  -0.811  -3.003  1.00  0.00    -0.508 OA
ATOM     27  H   UNL     1      36.882  -1.397  -2.907  1.00  0.00     0.293 HD
ENDBRANCH   8  26
TORSDOF 6
ENDMDL
MODEL 3
REMARK VINA RESULT:    -7.763      3.071      7.031
REMARK INTER + INTRA:          -9.205
REMARK INTER:                  -8.875
REMARK INTRA:                  -0.330
REMARK UNBOUND:                 0.146
REMARK SMILES O=c1c(O)c(-c2ccc(O)c(O)c2)oc2cc(O)cc(O)c12
REMARK SMILES IDX 5 1 3 2 2 3 1 4 22 5 20 6 19 7 17 8 16 9 15 10 14 11 6 12
REMARK SMILES IDX 7 13 8 14 9 15 13 16 11 17 10 18 12 20 4 22 21 24 18 26
REMARK H PARENT 10 19 12 21 4 23 21 25 18 27
REMARK Flexibility Score: inf
ROOT
ATOM      1  C   UNL     1      38.846   3.970  -1.488  1.00  0.00     0.180 A 
ATOM      2  C   UNL     1      39.004   2.601  -1.778  1.00  0.00     0.208 A 
ATOM      3  C   UNL     1      37.992   1.938  -2.491  1.00  0.00     0.238 A 
ATOM      4  O   UNL     1      38.127   0.714  -2.766  1.00  0.00    -0.285 OA
ATOM      5  C   UNL     1      36.837   2.646  -2.882  1.00  0.00     0.111 A 
ATOM      6  C   UNL     1      35.771   2.051  -3.599  1.00  0.00     0.134 A 
ATOM      7  C   UNL     1      34.650   2.821  -3.944  1.00  0.00     0.093 A 
ATOM      8  C   UNL     1      34.574   4.169  -3.587  1.00  0.00     0.123 A 
ATOM      9  C   UNL     1      35.625   4.762  -2.880  1.00  0.00     0.094 A 
ATOM     10  C   UNL     1      36.751   4.012  -2.528  1.00  0.00     0.146 A 
ATOM     11  O   UNL     1      37.736   4.601  -1.860  1.00  0.00    -0.452 OA
ENDROOT
BRANCH   1  12
ATOM     12  C   UNL     1      39.877   4.742  -0.757  1.00  0.00     0.025 A 
ATOM     13  C   UNL     1      39.810   4.830   0.643  1.00  0.00     0.016 A 
ATOM     14  C   UNL     1      40.759   5.571   1.351  1.00  0.00     0.051 A 
ATOM     15  C   UNL     1      41.778   6.247   0.674  1.00  0.00     0.157 A 
ATOM     16  C   UNL     1      40.890   5.441  -1.438  1.00  0.00     0.062 A 
ATOM     17  C   UNL     1      41.843   6.186  -0.728  1.00  0.00     0.158 A 
BRANCH  15  18
ATOM     18  O   UNL     1      42.713   6.975   1.408  1.00  0.00    -0.504 OA
ATOM     19  H   UNL     1      43.667   7.100   1.092  1.00  0.00     0.293 HD
ENDBRANCH  15  18
BRANCH  17  20
ATOM     20  O   UNL     1      42.848   6.869  -1.411  1.00  0.00    -0.504 OA
ATOM     21  H   UNL     1      42.826   7.876  -1.518  1.00  0.00     0.293 HD
ENDBRANCH  17  20
ENDBRANCH   1  12
BRANCH   2  22
ATOM     22  O   UNL     1      40.135   1.911  -1.336  1.00  0.00    -0.502 OA
ATOM     23  H   UNL     1      40.918   2.380  -0.895  1.00  0.00     0.293 HD
ENDBRANCH   2  22
BRANCH   6  24
ATOM     24  O   UNL     1      35.816   0.707  -3.971  1.00  0.00    -0.507 OA
ATOM     25  H   UNL     1      35.811   0.422  -4.943  1.00  0.00     0.293 HD
ENDBRANCH   6  24
BRANCH   8  26
ATOM     26  O   UNL     1      33.449   4.910  -3.941  1.00  0.00    -0.508 OA
ATOM     27  H   UNL     1      33.432   5.481  -4.778  1.00  0.00     0.293 HD
ENDBRANCH   8  26
TORSDOF 6
ENDMDL
MODEL 4
REMARK VINA RESULT:    -7.667      1.628      6.666
REMARK INTER + INTRA:          -9.090
REMARK INTER:                  -8.982
REMARK INTRA:                  -0.108
REMARK UNBOUND:                 0.146
REMARK SMILES O=c1c(O)c(-c2ccc(O)c(O)c2)oc2cc(O)cc(O)c12
REMARK SMILES IDX 5 1 3 2 2 3 1 4 22 5 20 6 19 7 17 8 16 9 15 10 14 11 6 12
REMARK SMILES IDX 7 13 8 14 9 15 13 16 11 17 10 18 12 20 4 22 21 24 18 26
REMARK H PARENT 10 19 12 21 4 23 21 25 18 27
REMARK Flexibility Score: inf
ROOT
ATOM      1  C   UNL     1      37.260   1.608  -2.766  1.00  0.00     0.180 A 
ATOM      2  C   UNL     1      38.157   0.528  -2.655  1.00  0.00     0.208 A 
ATOM      3  C   UNL     1      37.799  -0.710  -3.212  1.00  0.00     0.238 A 
ATOM      4  O   UNL     1      38.599  -1.682  -3.129  1.00  0.00    -0.285 OA
ATOM      5  C   UNL     1      36.549  -0.852  -3.850  1.00  0.00     0.111 A 
ATOM      6  C   UNL     1      36.111  -2.066  -4.432  1.00  0.00     0.134 A 
ATOM      7  C   UNL     1      34.849  -2.130  -5.041  1.00  0.00     0.093 A 
ATOM      8  C   UNL     1      34.017  -1.008  -5.076  1.00  0.00     0.123 A 
ATOM      9  C   UNL     1      34.445   0.194  -4.503  1.00  0.00     0.094 A 
ATOM     10  C   UNL     1      35.700   0.278  -3.894  1.00  0.00     0.146 A 
ATOM     11  O   UNL     1      36.084   1.433  -3.361  1.00  0.00    -0.452 OA
ENDROOT
BRANCH   1  12
ATOM     12  C   UNL     1      37.573   2.949  -2.221  1.00  0.00     0.025 A 
ATOM     13  C   UNL     1      38.710   3.632  -2.681  1.00  0.00     0.016 A 
ATOM     14  C   UNL     1      39.037   4.889  -2.165  1.00  0.00     0.051 A 
ATOM     15  C   UNL     1      38.245   5.474  -1.173  1.00  0.00     0.157 A 
ATOM     16  C   UNL     1      36.789   3.530  -1.207  1.00  0.00     0.062 A 
ATOM     17  C   UNL     1      37.118   4.791  -0.687  1.00  0.00     0.158 A 
BRANCH  15  18
ATOM     18  O   UNL     1      38.595   6.730  -0.680  1.00  0.00    -0.504 OA
ATOM     19  H   UNL     1      39.542   6.952  -0.397  1.00  0.00     0.293 HD
ENDBRANCH  15  18
BRANCH  17  20
ATOM     20  O   UNL     1      36.332   5.362   0.312  1.00  0.00    -0.504 OA
ATOM     21  H   UNL     1      36.405   5.067   1.278  1.00  0.00     0.293 HD
ENDBRANCH  17  20
ENDBRANCH   1  12
BRANCH   2  22
ATOM     22  O   UNL     1      39.368   0.682  -1.976  1.00  0.00    -0.502 OA
ATOM     23  H   UNL     1      40.183   0.120  -2.187  1.00  0.00     0.293 HD
ENDBRANCH   2  22
BRANCH   6  24
ATOM     24  O   UNL     1      36.918  -3.205  -4.413  1.00  0.00    -0.507 OA
ATOM     25  H   UNL     1      37.330  -3.552  -3.555  1.00  0.00     0.293 HD
ENDBRANCH   6  24
BRANCH   8  26
ATOM     26  O   UNL     1      32.768  -1.099  -5.685  1.00  0.00    -0.508 OA
ATOM     27  H   UNL     1      32.339  -0.299  -6.138  1.00  0.00     0.293 HD
ENDBRANCH   8  26
TORSDOF 6
ENDMDL
MODEL 5
REMARK VINA RESULT:    -7.598      1.740      7.209
REMARK INTER + INTRA:          -9.006
REMARK INTER:                  -8.778
REMARK INTRA:                  -0.228
REMARK UNBOUND:                 0.146
REMARK SMILES O=c1c(O)c(-c2ccc(O)c(O)c2)oc2cc(O)cc(O)c12
REMARK SMILES IDX 5 1 3 2 2 3 1 4 22 5 20 6 19 7 17 8 16 9 15 10 14 11 6 12
REMARK SMILES IDX 7 13 8 14 9 15 13 16 11 17 10 18 12 20 4 22 21 24 18 26
REMARK H PARENT 10 19 12 21 4 23 21 25 18 27
REMARK Flexibility Score: inf
ROOT
ATOM      1  C   UNL     1      36.773   1.946  -3.047  1.00  0.00     0.180 A 
ATOM      2  C   UNL     1      35.654   1.948  -3.903  1.00  0.00     0.208 A 
ATOM      3  C   UNL     1      35.273   0.748  -4.524  1.00  0.00     0.238 A 
ATOM      4  O   UNL     1      34.267   0.735  -5.283  1.00  0.00    -0.285 OA
ATOM      5  C   UNL     1      36.026  -0.423  -4.297  1.00  0.00     0.111 A 
ATOM      6  C   UNL     1      35.712  -1.671  -4.888  1.00  0.00     0.134 A 
ATOM      7  C   UNL     1      36.515  -2.789  -4.619  1.00  0.00     0.093 A 
ATOM      8  C   UNL     1      37.624  -2.684  -3.776  1.00  0.00     0.123 A 
ATOM      9  C   UNL     1      37.938  -1.454  -3.189  1.00  0.00     0.094 A 
ATOM     10  C   UNL     1      37.149  -0.329  -3.442  1.00  0.00     0.146 A 
ATOM     11  O   UNL     1      37.467   0.826  -2.868  1.00  0.00    -0.452 OA
ENDROOT
BRANCH   1  12
ATOM     12  C   UNL     1      37.225   3.167  -2.342  1.00  0.00     0.025 A 
ATOM     13  C   UNL     1      38.472   3.727  -2.661  1.00  0.00     0.016 A 
ATOM     14  C   UNL     1      38.928   4.867  -1.993  1.00  0.00     0.051 A 
ATOM     15  C   UNL     1      38.154   5.454  -0.987  1.00  0.00     0.157 A 
ATOM     16  C   UNL     1      36.457   3.747  -1.315  1.00  0.00     0.062 A 
ATOM     17  C   UNL     1      36.915   4.889  -0.642  1.00  0.00     0.158 A 
BRANCH  15  18
ATOM     18  O   UNL     1      38.634   6.592  -0.340  1.00  0.00    -0.504 OA
ATOM     19  H   UNL     1      38.507   6.739   0.654  1.00  0.00     0.293 HD
ENDBRANCH  15  18
BRANCH  17  20
ATOM     20  O   UNL     1      36.145   5.461   0.369  1.00  0.00    -0.504 OA
ATOM     21  H   UNL     1      36.009   4.998   1.260  1.00  0.00     0.293 HD
ENDBRANCH  17  20
ENDBRANCH   1  12
BRANCH   2  22
ATOM     22  O   UNL     1      34.956   3.133  -4.149  1.00  0.00    -0.502 OA
ATOM     23  H   UNL     1      35.077   3.666  -5.002  1.00  0.00     0.293 HD
ENDBRANCH   2  22
BRANCH   6  24
ATOM     24  O   UNL     1      34.612  -1.809  -5.735  1.00  0.00    -0.507 OA
ATOM     25  H   UNL     1      34.686  -1.659  -6.734  1.00  0.00     0.293 HD
ENDBRANCH   6  24
BRANCH   8  26
ATOM     26  O   UNL     1      38.406  -3.810  -3.527  1.00  0.00    -0.508 OA
ATOM     27  H   UNL     1      39.378  -3.730  -3.250  1.00  0.00     0.293 HD
ENDBRANCH   8  26
TORSDOF 6
ENDMDL
MODEL 6
REMARK VINA RESULT:    -7.544      1.778      7.308
REMARK INTER + INTRA:          -8.941
REMARK INTER:                  -8.965
REMARK INTRA:                   0.024
REMARK UNBOUND:                 0.146
REMARK SMILES O=c1c(O)c(-c2ccc(O)c(O)c2)oc2cc(O)cc(O)c12
REMARK SMILES IDX 5 1 3 2 2 3 1 4 22 5 20 6 19 7 17 8 16 9 15 10 14 11 6 12
REMARK SMILES IDX 7 13 8 14 9 15 13 16 11 17 10 18 12 20 4 22 21 24 18 26
REMARK H PARENT 10 19 12 21 4 23 21 25 18 27
REMARK Flexibility Score: inf
ROOT
ATOM      1  C   UNL     1      36.773   1.888  -3.120  1.00  0.00     0.180 A 
ATOM      2  C   UNL     1      35.600   1.842  -3.900  1.00  0.00     0.208 A 
ATOM      3  C   UNL     1      35.209   0.617  -4.463  1.00  0.00     0.238 A 
ATOM      4  O   UNL     1      34.155   0.561  -5.154  1.00  0.00    -0.285 OA
ATOM      5  C   UNL     1      36.002  -0.530  -4.255  1.00  0.00     0.111 A 
ATOM      6  C   UNL     1      35.680  -1.801  -4.792  1.00  0.00     0.134 A 
ATOM      7  C   UNL     1      36.526  -2.893  -4.547  1.00  0.00     0.093 A 
ATOM      8  C   UNL     1      37.684  -2.740  -3.782  1.00  0.00     0.123 A 
ATOM      9  C   UNL     1      38.007  -1.488  -3.249  1.00  0.00     0.094 A 
ATOM     10  C   UNL     1      37.176  -0.388  -3.479  1.00  0.00     0.146 A 
ATOM     11  O   UNL     1      37.503   0.789  -2.958  1.00  0.00    -0.452 OA
ENDROOT
BRANCH   1  12
ATOM     12  C   UNL     1      37.240   3.138  -2.478  1.00  0.00     0.025 A 
ATOM     13  C   UNL     1      36.339   3.903  -1.720  1.00  0.00     0.016 A 
ATOM     14  C   UNL     1      36.752   5.097  -1.123  1.00  0.00     0.051 A 
ATOM     15  C   UNL     1      38.064   5.552  -1.286  1.00  0.00     0.157 A 
ATOM     16  C   UNL     1      38.553   3.609  -2.658  1.00  0.00     0.062 A 
ATOM     17  C   UNL     1      38.969   4.808  -2.061  1.00  0.00     0.158 A 
BRANCH  15  18
ATOM     18  O   UNL     1      38.448   6.745  -0.675  1.00  0.00    -0.504 OA
ATOM     19  H   UNL     1      39.283   6.814  -0.106  1.00  0.00     0.293 HD
ENDBRANCH  15  18
BRANCH  17  20
ATOM     20  O   UNL     1      40.274   5.263  -2.239  1.00  0.00    -0.504 OA
ATOM     21  H   UNL     1      40.956   4.728  -2.764  1.00  0.00     0.293 HD
ENDBRANCH  17  20
ENDBRANCH   1  12
BRANCH   2  22
ATOM     22  O   UNL     1      34.859   3.003  -4.130  1.00  0.00    -0.502 OA
ATOM     23  H   UNL     1      34.770   3.416  -5.052  1.00  0.00     0.293 HD
ENDBRANCH   2  22
BRANCH   6  24
ATOM     24  O   UNL     1      34.531  -1.986  -5.561  1.00  0.00    -0.507 OA
ATOM     25  H   UNL     1      34.502  -2.651  -6.325  1.00  0.00     0.293 HD
ENDBRANCH   6  24
BRANCH   8  26
ATOM     26  O   UNL     1      38.508  -3.841  -3.555  1.00  0.00    -0.508 OA
ATOM     27  H   UNL     1      39.499  -3.813  -3.763  1.00  0.00     0.293 HD
ENDBRANCH   8  26
TORSDOF 6
ENDMDL
MODEL 7
REMARK VINA RESULT:    -7.470      1.289      2.892
REMARK INTER + INTRA:          -8.852
REMARK INTER:                  -9.126
REMARK INTRA:                   0.274
REMARK UNBOUND:                 0.146
REMARK SMILES O=c1c(O)c(-c2ccc(O)c(O)c2)oc2cc(O)cc(O)c12
REMARK SMILES IDX 5 1 3 2 2 3 1 4 22 5 20 6 19 7 17 8 16 9 15 10 14 11 6 12
REMARK SMILES IDX 7 13 8 14 9 15 13 16 11 17 10 18 12 20 4 22 21 24 18 26
REMARK H PARENT 10 19 12 21 4 23 21 25 18 27
REMARK Flexibility Score: inf
ROOT
ATOM      1  C   UNL     1      36.422   1.456  -3.268  1.00  0.00     0.180 A 
ATOM      2  C   UNL     1      35.760   2.610  -3.732  1.00  0.00     0.208 A 
ATOM      3  C   UNL     1      36.097   3.854  -3.175  1.00  0.00     0.238 A 
ATOM      4  O   UNL     1      35.519   4.896  -3.590  1.00  0.00    -0.285 OA
ATOM      5  C   UNL     1      37.069   3.921  -2.156  1.00  0.00     0.111 A 
ATOM      6  C   UNL     1      37.461   5.134  -1.540  1.00  0.00     0.134 A 
ATOM      7  C   UNL     1      38.431   5.117  -0.526  1.00  0.00     0.093 A 
ATOM      8  C   UNL     1      39.011   3.916  -0.115  1.00  0.00     0.123 A 
ATOM      9  C   UNL     1      38.628   2.714  -0.721  1.00  0.00     0.094 A 
ATOM     10  C   UNL     1      37.666   2.710  -1.734  1.00  0.00     0.146 A 
ATOM     11  O   UNL     1      37.323   1.556  -2.296  1.00  0.00    -0.452 OA
ENDROOT
BRANCH   1  12
ATOM     12  C   UNL     1      36.136   0.112  -3.819  1.00  0.00     0.025 A 
ATOM     13  C   UNL     1      37.169  -0.835  -3.899  1.00  0.00     0.016 A 
ATOM     14  C   UNL     1      36.927  -2.103  -4.435  1.00  0.00     0.051 A 
ATOM     15  C   UNL     1      35.657  -2.438  -4.913  1.00  0.00     0.157 A 
ATOM     16  C   UNL     1      34.864  -0.220  -4.320  1.00  0.00     0.062 A 
ATOM     17  C   UNL     1      34.620  -1.491  -4.860  1.00  0.00     0.158 A 
BRANCH  15  18
ATOM     18  O   UNL     1      35.445  -3.712  -5.439  1.00  0.00    -0.504 OA
ATOM     19  H   UNL     1      35.959  -4.054  -6.242  1.00  0.00     0.293 HD
ENDBRANCH  15  18
BRANCH  17  20
ATOM     20  O   UNL     1      33.355  -1.814  -5.348  1.00  0.00    -0.504 OA
ATOM     21  H   UNL     1      32.539  -1.814  -4.748  1.00  0.00     0.293 HD
ENDBRANCH  17  20
ENDBRANCH   1  12
BRANCH   2  22
ATOM     22  O   UNL     1      34.766   2.509  -4.708  1.00  0.00    -0.502 OA
ATOM     23  H   UNL     1      34.867   2.920  -5.628  1.00  0.00     0.293 HD
ENDBRANCH   2  22
BRANCH   6  24
ATOM     24  O   UNL     1      36.900   6.352  -1.927  1.00  0.00    -0.507 OA
ATOM     25  H   UNL     1      36.777   6.596  -2.903  1.00  0.00     0.293 HD
ENDBRANCH   6  24
BRANCH   8  26
ATOM     26  O   UNL     1      39.970   3.926   0.895  1.00  0.00    -0.508 OA
ATOM     27  H   UNL     1      40.956   4.043   0.690  1.00  0.00     0.293 HD
ENDBRANCH   8  26
TORSDOF 6
ENDMDL
MODEL 8
REMARK VINA RESULT:    -7.211      1.418      2.958
REMARK INTER + INTRA:          -8.540
REMARK INTER:                  -9.005
REMARK INTRA:                   0.465
REMARK UNBOUND:                 0.146
REMARK SMILES O=c1c(O)c(-c2ccc(O)c(O)c2)oc2cc(O)cc(O)c12
REMARK SMILES IDX 5 1 3 2 2 3 1 4 22 5 20 6 19 7 17 8 16 9 15 10 14 11 6 12
REMARK SMILES IDX 7 13 8 14 9 15 13 16 11 17 10 18 12 20 4 22 21 24 18 26
REMARK H PARENT 10 19 12 21 4 23 21 25 18 27
REMARK Flexibility Score: inf
ROOT
ATOM      1  C   UNL     1      36.770   1.746  -2.822  1.00  0.00     0.180 A 
ATOM      2  C   UNL     1      35.797   2.477  -3.531  1.00  0.00     0.208 A 
ATOM      3  C   UNL     1      35.602   3.831  -3.215  1.00  0.00     0.238 A 
ATOM      4  O   UNL     1      34.741   4.499  -3.850  1.00  0.00    -0.285 OA
ATOM      5  C   UNL     1      36.364   4.423  -2.186  1.00  0.00     0.111 A 
ATOM      6  C   UNL     1      36.225   5.778  -1.803  1.00  0.00     0.134 A 
ATOM      7  C   UNL     1      37.016   6.291  -0.763  1.00  0.00     0.093 A 
ATOM      8  C   UNL     1      37.936   5.477  -0.099  1.00  0.00     0.123 A 
ATOM      9  C   UNL     1      38.078   4.138  -0.475  1.00  0.00     0.094 A 
ATOM     10  C   UNL     1      37.302   3.608  -1.510  1.00  0.00     0.146 A 
ATOM     11  O   UNL     1      37.460   2.334  -1.849  1.00  0.00    -0.452 OA
ENDROOT
BRANCH   1  12
ATOM     12  C   UNL     1      37.047   0.321  -3.111  1.00  0.00     0.025 A 
ATOM     13  C   UNL     1      38.013  -0.362  -2.355  1.00  0.00     0.016 A 
ATOM     14  C   UNL     1      38.306  -1.701  -2.625  1.00  0.00     0.051 A 
ATOM     15  C   UNL     1      37.652  -2.374  -3.661  1.00  0.00     0.157 A 
ATOM     16  C   UNL     1      36.405  -0.351  -4.168  1.00  0.00     0.062 A 
ATOM     17  C   UNL     1      36.700  -1.695  -4.441  1.00  0.00     0.158 A 
BRANCH  15  18
ATOM     18  O   UNL     1      37.963  -3.711  -3.905  1.00  0.00    -0.504 OA
ATOM     19  H   UNL     1      38.649  -3.986  -4.597  1.00  0.00     0.293 HD
ENDBRANCH  15  18
BRANCH  17  20
ATOM     20  O   UNL     1      36.054  -2.355  -5.485  1.00  0.00    -0.504 OA
ATOM     21  H   UNL     1      36.539  -2.597  -6.341  1.00  0.00     0.293 HD
ENDBRANCH  17  20
ENDBRANCH   1  12
BRANCH   2  22
ATOM     22  O   UNL     1      35.021   1.854  -4.512  1.00  0.00    -0.502 OA
ATOM     23  H   UNL     1      35.422   1.482  -5.364  1.00  0.00     0.293 HD
ENDBRANCH   2  22
BRANCH   6  24
ATOM     24  O   UNL     1      35.314   6.618  -2.445  1.00  0.00    -0.507 OA
ATOM     25  H   UNL     1      34.606   6.255  -3.072  1.00  0.00     0.293 HD
ENDBRANCH   6  24
BRANCH   8  26
ATOM     26  O   UNL     1      38.707   6.011   0.931  1.00  0.00    -0.508 OA
ATOM     27  H   UNL     1      38.304   6.235   1.834  1.00  0.00     0.293 HD
ENDBRANCH   8  26
TORSDOF 6
ENDMDL
MODEL 9
REMARK VINA RESULT:    -7.198      2.179      3.001
REMARK INTER + INTRA:          -8.524
REMARK INTER:                  -8.566
REMARK INTRA:                   0.041
REMARK UNBOUND:                 0.146
REMARK SMILES O=c1c(O)c(-c2ccc(O)c(O)c2)oc2cc(O)cc(O)c12
REMARK SMILES IDX 5 1 3 2 2 3 1 4 22 5 20 6 19 7 17 8 16 9 15 10 14 11 6 12
REMARK SMILES IDX 7 13 8 14 9 15 13 16 11 17 10 18 12 20 4 22 21 24 18 26
REMARK H PARENT 10 19 12 21 4 23 21 25 18 27
REMARK Flexibility Score: inf
ROOT
ATOM      1  C   UNL     1      38.443   1.617  -2.094  1.00  0.00     0.180 A 
ATOM      2  C   UNL     1      39.760   2.118  -2.113  1.00  0.00     0.208 A 
ATOM      3  C   UNL     1      40.033   3.331  -1.462  1.00  0.00     0.238 A 
ATOM      4  O   UNL     1      41.210   3.784  -1.462  1.00  0.00    -0.285 OA
ATOM      5  C   UNL     1      38.987   4.031  -0.825  1.00  0.00     0.111 A 
ATOM      6  C   UNL     1      39.177   5.262  -0.152  1.00  0.00     0.134 A 
ATOM      7  C   UNL     1      38.083   5.901   0.451  1.00  0.00     0.093 A 
ATOM      8  C   UNL     1      36.807   5.338   0.391  1.00  0.00     0.123 A 
ATOM      9  C   UNL     1      36.613   4.121  -0.272  1.00  0.00     0.094 A 
ATOM     10  C   UNL     1      37.690   3.468  -0.877  1.00  0.00     0.146 A 
ATOM     11  O   UNL     1      37.480   2.312  -1.496  1.00  0.00    -0.452 OA
ENDROOT
BRANCH   1  12
ATOM     12  C   UNL     1      38.081   0.335  -2.741  1.00  0.00     0.025 A 
ATOM     13  C   UNL     1      36.897   0.251  -3.490  1.00  0.00     0.016 A 
ATOM     14  C   UNL     1      36.524  -0.954  -4.092  1.00  0.00     0.051 A 
ATOM     15  C   UNL     1      37.318  -2.095  -3.942  1.00  0.00     0.157 A 
ATOM     16  C   UNL     1      38.868  -0.819  -2.573  1.00  0.00     0.062 A 
ATOM     17  C   UNL     1      38.494  -2.029  -3.175  1.00  0.00     0.158 A 
BRANCH  15  18
ATOM     18  O   UNL     1      36.922  -3.282  -4.556  1.00  0.00    -0.504 OA
ATOM     19  H   UNL     1      36.030  -3.719  -4.357  1.00  0.00     0.293 HD
ENDBRANCH  15  18
BRANCH  17  20
ATOM     20  O   UNL     1      39.283  -3.166  -3.009  1.00  0.00    -0.504 OA
ATOM     21  H   UNL     1      38.914  -4.097  -3.165  1.00  0.00     0.293 HD
ENDBRANCH  17  20
ENDBRANCH   1  12
BRANCH   2  22
ATOM     22  O   UNL     1      40.767   1.429  -2.793  1.00  0.00    -0.502 OA
ATOM     23  H   UNL     1      40.857   0.421  -2.752  1.00  0.00     0.293 HD
ENDBRANCH   2  22
BRANCH   6  24
ATOM     24  O   UNL     1      40.439   5.852  -0.075  1.00  0.00    -0.507 OA
ATOM     25  H   UNL     1      41.162   5.487   0.535  1.00  0.00     0.293 HD
ENDBRANCH   6  24
BRANCH   8  26
ATOM     26  O   UNL     1      35.737   5.994   0.996  1.00  0.00    -0.508 OA
ATOM     27  H   UNL     1      35.826   6.422   1.910  1.00  0.00     0.293 HD
ENDBRANCH   8  26
TORSDOF 6
ENDMDL
