MODEL 1
REMARK VINA RESULT:    -4.549      0.000      0.000
REMARK INTER + INTRA:          -7.597
REMARK INTER:                  -6.942
REMARK INTRA:                  -0.655
REMARK UNBOUND:                -0.655
REMARK SMILES O=C([O-])CCCCCCCCC(=O)[O-]
REMARK SMILES IDX 7 1 6 2 5 3 4 4 2 5 1 6 3 7 8 8 9 9 10 10 11 11 12 12 13 13
REMARK SMILES IDX 14 14
REMARK H PARENT
REMARK Flexibility Score: inf
ROOT
ATOM      1  C   UNL     1      10.518  14.353  23.693  1.00  0.00     0.000 C 
ENDROOT
BRANCH   1   2
ATOM      2  C   UNL     1      11.367  14.735  22.467  1.00  0.00     0.000 C 
BRANCH   2   3
ATOM      3  C   UNL     1      10.643  15.717  21.532  1.00  0.00     0.006 C 
BRANCH   3   4
ATOM      4  C   UNL     1       9.625  15.022  20.618  1.00  0.00     0.053 C 
BRANCH   4   5
ATOM      5  C   UNL     1      10.287  13.938  19.829  1.00  0.00     0.041 C 
ATOM      6  O   UNL     1      10.978  14.223  18.815  1.00  0.00    -0.550 OA
ATOM      7  O   UNL     1      10.101  12.609  20.182  1.00  0.00    -0.550 OA
ENDBRANCH   4   5
ENDBRANCH   3   4
ENDBRANCH   2   3
ENDBRANCH   1   2
BRANCH   1   8
ATOM      8  C   UNL     1      10.104  12.873  23.686  1.00  0.00     0.000 C 
BRANCH   8   9
ATOM      9  C   UNL     1       8.580  12.683  23.709  1.00  0.00     0.000 C 
BRANCH   9  10
ATOM     10  C   UNL     1       8.183  11.552  24.667  1.00  0.00     0.006 C 
BRANCH  10  11
ATOM     11  C   UNL     1       9.419  10.827  25.206  1.00  0.00     0.053 C 
BRANCH  11  12
ATOM     12  C   UNL     1       9.288   9.350  25.009  1.00  0.00     0.041 C 
ATOM     13  O   UNL     1       9.240   8.868  23.846  1.00  0.00    -0.550 OA
ATOM     14  O   UNL     1       9.268   8.501  26.107  1.00  0.00    -0.550 OA
ENDBRANCH  11  12
ENDBRANCH  10  11
ENDBRANCH   9  10
ENDBRANCH   8   9
ENDBRANCH   1   8
TORSDOF 9
ENDMDL
MODEL 2
REMARK VINA RESULT:    -4.547      0.920      6.187
REMARK INTER + INTRA:          -7.594
REMARK INTER:                  -7.092
REMARK INTRA:                  -0.501
REMARK UNBOUND:                -0.655
REMARK SMILES O=C([O-])CCCCCCCCC(=O)[O-]
REMARK SMILES IDX 7 1 6 2 5 3 4 4 2 5 1 6 3 7 8 8 9 9 10 10 11 11 12 12 13 13
REMARK SMILES IDX 14 14
REMARK H PARENT
REMARK Flexibility Score: inf
ROOT
ATOM      1  C   UNL     1      10.438  13.683  23.623  1.00  0.00     0.000 C 
ENDROOT
BRANCH   1   2
ATOM      2  C   UNL     1       8.951  13.340  23.423  1.00  0.00     0.000 C 
BRANCH   2   3
ATOM      3  C   UNL     1       8.647  11.859  23.698  1.00  0.00     0.006 C 
BRANCH   3   4
ATOM      4  C   UNL     1       9.784  11.149  24.445  1.00  0.00     0.053 C 
BRANCH   4   5
ATOM      5  C   UNL     1       9.374   9.761  24.822  1.00  0.00     0.041 C 
ATOM      6  O   UNL     1       9.326   9.421  26.034  1.00  0.00    -0.550 OA
ATOM      7  O   UNL     1       9.093   8.827  23.835  1.00  0.00    -0.550 OA
ENDBRANCH   4   5
ENDBRANCH   3   4
ENDBRANCH   2   3
ENDBRANCH   1   2
BRANCH   1   8
ATOM      8  C   UNL     1      10.706  15.196  23.573  1.00  0.00     0.000 C 
BRANCH   8   9
ATOM      9  C   UNL     1       9.697  15.949  22.693  1.00  0.00     0.000 C 
BRANCH   9  10
ATOM     10  C   UNL     1      10.254  16.161  21.279  1.00  0.00     0.006 C 
BRANCH  10  11
ATOM     11  C   UNL     1       9.648  15.158  20.293  1.00  0.00     0.053 C 
BRANCH  11  12
ATOM     12  C   UNL     1      10.661  14.751  19.271  1.00  0.00     0.041 C 
ATOM     13  O   UNL     1      10.858  13.532  19.024  1.00  0.00    -0.550 OA
ATOM     14  O   UNL     1      11.354  15.718  18.555  1.00  0.00    -0.550 OA
ENDBRANCH  11  12
ENDBRANCH  10  11
ENDBRANCH   9  10
ENDBRANCH   8   9
ENDBRANCH   1   8
TORSDOF 9
ENDMDL
MODEL 3
REMARK VINA RESULT:    -4.518      1.071      1.559
REMARK INTER + INTRA:          -7.549
REMARK INTER:                  -6.906
REMARK INTRA:                  -0.643
REMARK UNBOUND:                -0.655
REMARK SMILES O=C([O-])CCCCCCCCC(=O)[O-]
REMARK SMILES IDX 7 1 6 2 5 3 4 4 2 5 1 6 3 7 8 8 9 9 10 10 11 11 12 12 13 13
REMARK SMILES IDX 14 14
REMARK H PARENT
REMARK Flexibility Score: inf
ROOT
ATOM      1  C   UNL     1      10.959  15.519  23.427  1.00  0.00     0.000 C 
ENDROOT
BRANCH   1   2
ATOM      2  C   UNL     1       9.965  16.268  22.522  1.00  0.00     0.000 C 
BRANCH   2   3
ATOM      3  C   UNL     1      10.316  16.143  21.031  1.00  0.00     0.006 C 
BRANCH   3   4
ATOM      4  C   UNL     1       9.425  15.133  20.295  1.00  0.00     0.053 C 
BRANCH   4   5
ATOM      5  C   UNL     1      10.240  13.981  19.802  1.00  0.00     0.041 C 
ATOM      6  O   UNL     1      10.989  14.118  18.798  1.00  0.00    -0.550 OA
ATOM      7  O   UNL     1      10.137  12.741  20.419  1.00  0.00    -0.550 OA
ENDBRANCH   4   5
ENDBRANCH   3   4
ENDBRANCH   2   3
ENDBRANCH   1   2
BRANCH   1   8
ATOM      8  C   UNL     1      10.463  14.117  23.814  1.00  0.00     0.000 C 
BRANCH   8   9
ATOM      9  C   UNL     1       9.363  14.151  24.885  1.00  0.00     0.000 C 
BRANCH   9  10
ATOM     10  C   UNL     1       8.508  12.879  24.835  1.00  0.00     0.006 C 
BRANCH  10  11
ATOM     11  C   UNL     1       9.063  11.883  23.813  1.00  0.00     0.053 C 
BRANCH  11  12
ATOM     12  C   UNL     1       9.639  10.688  24.505  1.00  0.00     0.041 C 
ATOM     13  O   UNL     1       9.870  10.723  25.742  1.00  0.00    -0.550 OA
ATOM     14  O   UNL     1       9.875   9.519  23.793  1.00  0.00    -0.550 OA
ENDBRANCH  11  12
ENDBRANCH  10  11
ENDBRANCH   9  10
ENDBRANCH   8   9
ENDBRANCH   1   8
TORSDOF 9
ENDMDL
MODEL 4
REMARK VINA RESULT:    -4.470      3.986      5.924
REMARK INTER + INTRA:          -7.476
REMARK INTER:                  -6.662
REMARK INTRA:                  -0.814
REMARK UNBOUND:                -0.655
REMARK SMILES O=C([O-])CCCCCCCCC(=O)[O-]
REMARK SMILES IDX 7 1 6 2 5 3 4 4 2 5 1 6 3 7 8 8 9 9 10 10 11 11 12 12 13 13
REMARK SMILES IDX 14 14
REMARK H PARENT
REMARK Flexibility Score: inf
ROOT
ATOM      1  C   UNL     1       9.805  16.066  24.704  1.00  0.00     0.000 C 
ENDROOT
BRANCH   1   2
ATOM      2  C   UNL     1       8.746  16.841  23.900  1.00  0.00     0.000 C 
BRANCH   2   3
ATOM      3  C   UNL     1       9.358  17.637  22.735  1.00  0.00     0.006 C 
BRANCH   3   4
ATOM      4  C   UNL     1       9.552  19.122  23.071  1.00  0.00     0.053 C 
BRANCH   4   5
ATOM      5  C   UNL     1      11.007  19.463  23.104  1.00  0.00     0.041 C 
ATOM      6  O   UNL     1      11.869  18.592  22.813  1.00  0.00    -0.550 OA
ATOM      7  O   UNL     1      11.416  20.728  23.504  1.00  0.00    -0.550 OA
ENDBRANCH   4   5
ENDBRANCH   3   4
ENDBRANCH   2   3
ENDBRANCH   1   2
BRANCH   1   8
ATOM      8  C   UNL     1      10.835  15.366  23.804  1.00  0.00     0.000 C 
BRANCH   8   9
ATOM      9  C   UNL     1      10.422  13.933  23.433  1.00  0.00     0.000 C 
BRANCH   9  10
ATOM     10  C   UNL     1      10.288  13.777  21.913  1.00  0.00     0.006 C 
BRANCH  10  11
ATOM     11  C   UNL     1      10.952  14.945  21.179  1.00  0.00     0.053 C 
BRANCH  11  12
ATOM     12  C   UNL     1      10.290  15.179  19.858  1.00  0.00     0.041 C 
ATOM     13  O   UNL     1       9.084  15.539  19.809  1.00  0.00    -0.550 OA
ATOM     14  O   UNL     1      11.017  15.045  18.682  1.00  0.00    -0.550 OA
ENDBRANCH  11  12
ENDBRANCH  10  11
ENDBRANCH   9  10
ENDBRANCH   8   9
ENDBRANCH   1   8
TORSDOF 9
ENDMDL
MODEL 5
REMARK VINA RESULT:    -4.400      3.897      5.902
REMARK INTER + INTRA:          -7.369
REMARK INTER:                  -6.450
REMARK INTRA:                  -0.919
REMARK UNBOUND:                -0.655
REMARK SMILES O=C([O-])CCCCCCCCC(=O)[O-]
REMARK SMILES IDX 7 1 6 2 5 3 4 4 2 5 1 6 3 7 8 8 9 9 10 10 11 11 12 12 13 13
REMARK SMILES IDX 14 14
REMARK H PARENT
REMARK Flexibility Score: inf
ROOT
ATOM      1  C   UNL     1      10.451  14.829  23.914  1.00  0.00     0.000 C 
ENDROOT
BRANCH   1   2
ATOM      2  C   UNL     1       9.753  13.669  23.184  1.00  0.00     0.000 C 
BRANCH   2   3
ATOM      3  C   UNL     1      10.299  13.453  21.763  1.00  0.00     0.006 C 
BRANCH   3   4
ATOM      4  C   UNL     1      10.988  14.702  21.197  1.00  0.00     0.053 C 
BRANCH   4   5
ATOM      5  C   UNL     1      10.368  15.095  19.895  1.00  0.00     0.041 C 
ATOM      6  O   UNL     1      11.033  15.018  18.827  1.00  0.00    -0.550 OA
ATOM      7  O   UNL     1       9.073  15.594  19.863  1.00  0.00    -0.550 OA
ENDBRANCH   4   5
ENDBRANCH   3   4
ENDBRANCH   2   3
ENDBRANCH   1   2
BRANCH   1   8
ATOM      8  C   UNL     1       9.457  15.774  24.608  1.00  0.00     0.000 C 
BRANCH   8   9
ATOM      9  C   UNL     1       8.557  16.522  23.613  1.00  0.00     0.000 C 
BRANCH   9  10
ATOM     10  C   UNL     1       8.945  18.004  23.529  1.00  0.00     0.006 C 
BRANCH  10  11
ATOM     11  C   UNL     1       9.922  18.253  22.377  1.00  0.00     0.053 C 
BRANCH  11  12
ATOM     12  C   UNL     1      11.248  18.704  22.901  1.00  0.00     0.041 C 
ATOM     13  O   UNL     1      12.231  17.917  22.899  1.00  0.00    -0.550 OA
ATOM     14  O   UNL     1      11.411  20.009  23.349  1.00  0.00    -0.550 OA
ENDBRANCH  11  12
ENDBRANCH  10  11
ENDBRANCH   9  10
ENDBRANCH   8   9
ENDBRANCH   1   8
TORSDOF 9
ENDMDL
MODEL 6
REMARK VINA RESULT:    -4.292      1.436      5.526
REMARK INTER + INTRA:          -7.205
REMARK INTER:                  -6.430
REMARK INTRA:                  -0.776
REMARK UNBOUND:                -0.655
REMARK SMILES O=C([O-])CCCCCCCCC(=O)[O-]
REMARK SMILES IDX 7 1 6 2 5 3 4 4 2 5 1 6 3 7 8 8 9 9 10 10 11 11 12 12 13 13
REMARK SMILES IDX 14 14
REMARK H PARENT
REMARK Flexibility Score: inf
ROOT
ATOM      1  C   UNL     1       9.770  16.464  24.358  1.00  0.00     0.000 C 
ENDROOT
BRANCH   1   2
ATOM      2  C   UNL     1      10.522  15.139  24.574  1.00  0.00     0.000 C 
BRANCH   2   3
ATOM      3  C   UNL     1       9.581  13.923  24.594  1.00  0.00     0.006 C 
BRANCH   3   4
ATOM      4  C   UNL     1      10.125  12.739  23.784  1.00  0.00     0.053 C 
BRANCH   4   5
ATOM      5  C   UNL     1       9.645  11.447  24.363  1.00  0.00     0.041 C 
ATOM      6  O   UNL     1       8.953  10.658  23.666  1.00  0.00    -0.550 OA
ATOM      7  O   UNL     1       9.920  11.134  25.687  1.00  0.00    -0.550 OA
ENDBRANCH   4   5
ENDBRANCH   3   4
ENDBRANCH   2   3
ENDBRANCH   1   2
BRANCH   1   8
ATOM      8  C   UNL     1       9.543  16.778  22.871  1.00  0.00     0.000 C 
BRANCH   8   9
ATOM      9  C   UNL     1      10.853  17.044  22.114  1.00  0.00     0.000 C 
BRANCH   9  10
ATOM     10  C   UNL     1      10.941  16.181  20.849  1.00  0.00     0.006 C 
BRANCH  10  11
ATOM     11  C   UNL     1       9.837  15.119  20.829  1.00  0.00     0.053 C 
BRANCH  11  12
ATOM     12  C   UNL     1      10.254  13.946  19.999  1.00  0.00     0.041 C 
ATOM     13  O   UNL     1       9.986  12.775  20.377  1.00  0.00    -0.550 OA
ATOM     14  O   UNL     1      10.896  14.147  18.784  1.00  0.00    -0.550 OA
ENDBRANCH  11  12
ENDBRANCH  10  11
ENDBRANCH   9  10
ENDBRANCH   8   9
ENDBRANCH   1   8
TORSDOF 9
ENDMDL
MODEL 7
REMARK VINA RESULT:    -4.156      3.423      5.834
REMARK INTER + INTRA:          -6.998
REMARK INTER:                  -6.259
REMARK INTRA:                  -0.739
REMARK UNBOUND:                -0.655
REMARK SMILES O=C([O-])CCCCCCCCC(=O)[O-]
REMARK SMILES IDX 7 1 6 2 5 3 4 4 2 5 1 6 3 7 8 8 9 9 10 10 11 11 12 12 13 13
REMARK SMILES IDX 14 14
REMARK H PARENT
REMARK Flexibility Score: inf
ROOT
ATOM      1  C   UNL     1      10.518  15.907  24.948  1.00  0.00     0.000 C 
ENDROOT
BRANCH   1   2
ATOM      2  C   UNL     1       9.355  16.840  25.328  1.00  0.00     0.000 C 
BRANCH   2   3
ATOM      3  C   UNL     1       9.657  18.315  25.018  1.00  0.00     0.006 C 
BRANCH   3   4
ATOM      4  C   UNL     1       9.780  18.591  23.514  1.00  0.00     0.053 C 
BRANCH   4   5
ATOM      5  C   UNL     1      11.053  19.318  23.218  1.00  0.00     0.041 C 
ATOM      6  O   UNL     1      12.083  18.678  22.875  1.00  0.00    -0.550 OA
ATOM      7  O   UNL     1      11.118  20.696  23.371  1.00  0.00    -0.550 OA
ENDBRANCH   4   5
ENDBRANCH   3   4
ENDBRANCH   2   3
ENDBRANCH   1   2
BRANCH   1   8
ATOM      8  C   UNL     1      10.038  14.604  24.288  1.00  0.00     0.000 C 
BRANCH   8   9
ATOM      9  C   UNL     1      10.858  14.232  23.044  1.00  0.00     0.000 C 
BRANCH   9  10
ATOM     10  C   UNL     1      10.849  15.373  22.019  1.00  0.00     0.006 C 
BRANCH  10  11
ATOM     11  C   UNL     1       9.765  15.153  20.960  1.00  0.00     0.053 C 
BRANCH  11  12
ATOM     12  C   UNL     1      10.280  14.285  19.856  1.00  0.00     0.041 C 
ATOM     13  O   UNL     1      10.124  13.036  19.907  1.00  0.00    -0.550 OA
ATOM     14  O   UNL     1      10.889  14.858  18.748  1.00  0.00    -0.550 OA
ENDBRANCH  11  12
ENDBRANCH  10  11
ENDBRANCH   9  10
ENDBRANCH   8   9
ENDBRANCH   1   8
TORSDOF 9
ENDMDL
MODEL 8
REMARK VINA RESULT:    -4.155      1.595      2.059
REMARK INTER + INTRA:          -6.996
REMARK INTER:                  -6.660
REMARK INTRA:                  -0.336
REMARK UNBOUND:                -0.655
REMARK SMILES O=C([O-])CCCCCCCCC(=O)[O-]
REMARK SMILES IDX 7 1 6 2 5 3 4 4 2 5 1 6 3 7 8 8 9 9 10 10 11 11 12 12 13 13
REMARK SMILES IDX 14 14
REMARK H PARENT
REMARK Flexibility Score: inf
ROOT
ATOM      1  C   UNL     1       9.349  13.551  24.442  1.00  0.00     0.000 C 
ENDROOT
BRANCH   1   2
ATOM      2  C   UNL     1      10.451  13.779  23.393  1.00  0.00     0.000 C 
BRANCH   2   3
ATOM      3  C   UNL     1       9.954  14.586  22.182  1.00  0.00     0.006 C 
BRANCH   3   4
ATOM      4  C   UNL     1      10.613  14.147  20.868  1.00  0.00     0.053 C 
BRANCH   4   5
ATOM      5  C   UNL     1      10.187  15.042  19.747  1.00  0.00     0.041 C 
ATOM      6  O   UNL     1       9.095  15.666  19.815  1.00  0.00    -0.550 OA
ATOM      7  O   UNL     1      10.971  15.149  18.607  1.00  0.00    -0.550 OA
ENDBRANCH   4   5
ENDBRANCH   3   4
ENDBRANCH   2   3
ENDBRANCH   1   2
BRANCH   1   8
ATOM      8  C   UNL     1       9.432  12.161  25.092  1.00  0.00     0.000 C 
BRANCH   8   9
ATOM      9  C   UNL     1       8.833  11.056  24.209  1.00  0.00     0.000 C 
BRANCH   9  10
ATOM     10  C   UNL     1       9.663   9.769  24.303  1.00  0.00     0.006 C 
BRANCH  10  11
ATOM     11  C   UNL     1       8.797   8.587  24.747  1.00  0.00     0.053 C 
BRANCH  11  12
ATOM     12  C   UNL     1       9.012   8.296  26.199  1.00  0.00     0.041 C 
ATOM     13  O   UNL     1       8.910   9.218  27.051  1.00  0.00    -0.550 OA
ATOM     14  O   UNL     1       9.277   6.999  26.617  1.00  0.00    -0.550 OA
ENDBRANCH  11  12
ENDBRANCH  10  11
ENDBRANCH   9  10
ENDBRANCH   8   9
ENDBRANCH   1   8
TORSDOF 9
ENDMDL
MODEL 9
REMARK VINA RESULT:    -4.001     11.175     13.525
REMARK INTER + INTRA:          -6.760
REMARK INTER:                  -6.395
REMARK INTRA:                  -0.365
REMARK UNBOUND:                -0.655
REMARK SMILES O=C([O-])CCCCCCCCC(=O)[O-]
REMARK SMILES IDX 7 1 6 2 5 3 4 4 2 5 1 6 3 7 8 8 9 9 10 10 11 11 12 12 13 13
REMARK SMILES IDX 14 14
REMARK H PARENT
REMARK Flexibility Score: inf
ROOT
ATOM      1  C   UNL     1      18.853  19.482  26.936  1.00  0.00     0.000 C 
ENDROOT
BRANCH   1   2
ATOM      2  C   UNL     1      18.498  18.060  27.405  1.00  0.00     0.000 C 
BRANCH   2   3
ATOM      3  C   UNL     1      17.791  18.048  28.770  1.00  0.00     0.006 C 
BRANCH   3   4
ATOM      4  C   UNL     1      16.813  16.875  28.920  1.00  0.00     0.053 C 
BRANCH   4   5
ATOM      5  C   UNL     1      15.624  17.070  28.034  1.00  0.00     0.041 C 
ATOM      6  O   UNL     1      14.626  17.717  28.448  1.00  0.00    -0.550 OA
ATOM      7  O   UNL     1      15.596  16.494  26.771  1.00  0.00    -0.550 OA
ENDBRANCH   4   5
ENDBRANCH   3   4
ENDBRANCH   2   3
ENDBRANCH   1   2
BRANCH   1   8
ATOM      8  C   UNL     1      20.344  19.637  26.597  1.00  0.00     0.000 C 
BRANCH   8   9
ATOM      9  C   UNL     1      21.110  18.307  26.669  1.00  0.00     0.000 C 
BRANCH   9  10
ATOM     10  C   UNL     1      22.046  18.148  25.464  1.00  0.00     0.006 C 
BRANCH  10  11
ATOM     11  C   UNL     1      23.071  19.284  25.409  1.00  0.00     0.053 C 
BRANCH  11  12
ATOM     12  C   UNL     1      23.392  19.632  23.990  1.00  0.00     0.041 C 
ATOM     13  O   UNL     1      22.843  20.623  23.440  1.00  0.00    -0.550 OA
ATOM     14  O   UNL     1      24.334  18.890  23.289  1.00  0.00    -0.550 OA
ENDBRANCH  11  12
ENDBRANCH  10  11
ENDBRANCH   9  10
ENDBRANCH   8   9
ENDBRANCH   1   8
TORSDOF 9
ENDMDL
