MODEL 1
REMARK VINA RESULT:    -6.025      0.000      0.000
REMARK INTER + INTRA:          -7.664
REMARK INTER:                  -7.258
REMARK INTRA:                  -0.406
REMARK UNBOUND:                -0.406
REMARK SMILES O=c1c(O)c(-c2ccc(O)cc2O)oc2cc(O)cc(O)c12
REMARK SMILES IDX 5 1 3 2 2 3 1 4 22 5 20 6 19 7 17 8 16 9 15 10 14 11 6 12
REMARK SMILES IDX 8 13 7 14 9 15 11 16 12 17 10 18 13 20 4 22 21 24 18 26
REMARK H PARENT 10 19 13 21 4 23 21 25 18 27
REMARK Flexibility Score: inf
ROOT
ATOM      1  C   UNL     1      43.667  12.635  22.788  1.00  0.00     0.184 A 
ATOM      2  C   UNL     1      44.431  12.464  23.952  1.00  0.00     0.208 A 
ATOM      3  C   UNL     1      44.945  11.192  24.248  1.00  0.00     0.238 A 
ATOM      4  O   UNL     1      45.578  11.032  25.325  1.00  0.00    -0.285 OA
ATOM      5  C   UNL     1      44.711  10.114  23.359  1.00  0.00     0.111 A 
ATOM      6  C   UNL     1      45.217   8.791  23.539  1.00  0.00     0.134 A 
ATOM      7  C   UNL     1      44.821   7.776  22.660  1.00  0.00     0.093 A 
ATOM      8  C   UNL     1      43.991   8.047  21.573  1.00  0.00     0.123 A 
ATOM      9  C   UNL     1      43.537   9.349  21.354  1.00  0.00     0.094 A 
ATOM     10  C   UNL     1      43.885  10.376  22.235  1.00  0.00     0.146 A 
ATOM     11  O   UNL     1      43.420  11.597  22.000  1.00  0.00    -0.451 OA
ENDROOT
BRANCH   1  12
ATOM     12  C   UNL     1      43.119  13.957  22.413  1.00  0.00     0.063 A 
ATOM     13  C   UNL     1      43.469  16.151  21.420  1.00  0.00     0.047 A 
ATOM     14  C   UNL     1      43.970  14.916  21.833  1.00  0.00     0.020 A 
ATOM     15  C   UNL     1      42.112  16.445  21.570  1.00  0.00     0.119 A 
ATOM     16  C   UNL     1      41.255  15.499  22.144  1.00  0.00     0.093 A 
ATOM     17  C   UNL     1      41.747  14.259  22.574  1.00  0.00     0.130 A 
BRANCH  15  18
ATOM     18  O   UNL     1      41.625  17.680  21.147  1.00  0.00    -0.508 OA
ATOM     19  H   UNL     1      40.631  17.861  21.077  1.00  0.00     0.293 HD
ENDBRANCH  15  18
BRANCH  17  20
ATOM     20  O   UNL     1      40.856  13.367  23.172  1.00  0.00    -0.507 OA
ATOM     21  H   UNL     1      40.772  12.399  22.893  1.00  0.00     0.293 HD
ENDBRANCH  17  20
ENDBRANCH   1  12
BRANCH   2  22
ATOM     22  O   UNL     1      44.649  13.547  24.809  1.00  0.00    -0.502 OA
ATOM     23  H   UNL     1      44.388  14.495  24.563  1.00  0.00     0.293 HD
ENDBRANCH   2  22
BRANCH   6  24
ATOM     24  O   UNL     1      46.124   8.430  24.539  1.00  0.00    -0.507 OA
ATOM     25  H   UNL     1      47.004   7.963  24.377  1.00  0.00     0.293 HD
ENDBRANCH   6  24
BRANCH   8  26
ATOM     26  O   UNL     1      43.629   7.014  20.710  1.00  0.00    -0.508 OA
ATOM     27  H   UNL     1      43.199   6.163  21.053  1.00  0.00     0.293 HD
ENDBRANCH   8  26
TORSDOF 6
ENDMDL
MODEL 2
REMARK VINA RESULT:    -5.588      8.462      9.771
REMARK INTER + INTRA:          -7.137
REMARK INTER:                  -6.845
REMARK INTRA:                  -0.292
REMARK UNBOUND:                -0.406
REMARK SMILES O=c1c(O)c(-c2ccc(O)cc2O)oc2cc(O)cc(O)c12
REMARK SMILES IDX 5 1 3 2 2 3 1 4 22 5 20 6 19 7 17 8 16 9 15 10 14 11 6 12
REMARK SMILES IDX 8 13 7 14 9 15 11 16 12 17 10 18 13 20 4 22 21 24 18 26
REMARK H PARENT 10 19 13 21 4 23 21 25 18 27
REMARK Flexibility Score: inf
ROOT
ATOM      1  C   UNL     1      36.761  13.463  28.971  1.00  0.00     0.184 A 
ATOM      2  C   UNL     1      35.462  13.259  29.456  1.00  0.00     0.208 A 
ATOM      3  C   UNL     1      34.846  12.014  29.249  1.00  0.00     0.238 A 
ATOM      4  O   UNL     1      33.657  11.858  29.633  1.00  0.00    -0.285 OA
ATOM      5  C   UNL     1      35.552  10.982  28.585  1.00  0.00     0.111 A 
ATOM      6  C   UNL     1      35.041   9.668  28.355  1.00  0.00     0.134 A 
ATOM      7  C   UNL     1      35.780   8.766  27.580  1.00  0.00     0.093 A 
ATOM      8  C   UNL     1      37.036   9.105  27.081  1.00  0.00     0.123 A 
ATOM      9  C   UNL     1      37.571  10.367  27.348  1.00  0.00     0.094 A 
ATOM     10  C   UNL     1      36.842  11.302  28.087  1.00  0.00     0.146 A 
ATOM     11  O   UNL     1      37.381  12.495  28.306  1.00  0.00    -0.451 OA
ENDROOT
BRANCH   1  12
ATOM     12  C   UNL     1      37.469  14.745  29.179  1.00  0.00     0.063 A 
ATOM     13  C   UNL     1      39.359  15.953  30.125  1.00  0.00     0.047 A 
ATOM     14  C   UNL     1      38.641  14.767  29.957  1.00  0.00     0.020 A 
ATOM     15  C   UNL     1      38.924  17.130  29.514  1.00  0.00     0.119 A 
ATOM     16  C   UNL     1      37.760  17.121  28.736  1.00  0.00     0.093 A 
ATOM     17  C   UNL     1      37.024  15.941  28.568  1.00  0.00     0.130 A 
BRANCH  15  18
ATOM     18  O   UNL     1      39.654  18.305  29.686  1.00  0.00    -0.508 OA
ATOM     19  H   UNL     1      40.666  18.298  29.728  1.00  0.00     0.293 HD
ENDBRANCH  15  18
BRANCH  17  20
ATOM     20  O   UNL     1      35.852  15.997  27.812  1.00  0.00    -0.507 OA
ATOM     21  H   UNL     1      35.538  15.237  27.223  1.00  0.00     0.293 HD
ENDBRANCH  17  20
ENDBRANCH   1  12
BRANCH   2  22
ATOM     22  O   UNL     1      34.791  14.295  30.112  1.00  0.00    -0.502 OA
ATOM     23  H   UNL     1      35.260  14.929  30.747  1.00  0.00     0.293 HD
ENDBRANCH   2  22
BRANCH   6  24
ATOM     24  O   UNL     1      33.837   9.194  28.884  1.00  0.00    -0.507 OA
ATOM     25  H   UNL     1      32.923   9.404  28.512  1.00  0.00     0.293 HD
ENDBRANCH   6  24
BRANCH   8  26
ATOM     26  O   UNL     1      37.750   8.177  26.326  1.00  0.00    -0.508 OA
ATOM     27  H   UNL     1      38.759   8.224  26.245  1.00  0.00     0.293 HD
ENDBRANCH   8  26
TORSDOF 6
ENDMDL
MODEL 3
REMARK VINA RESULT:    -5.583      3.533      4.170
REMARK INTER + INTRA:          -7.132
REMARK INTER:                  -6.821
REMARK INTRA:                  -0.311
REMARK UNBOUND:                -0.406
REMARK SMILES O=c1c(O)c(-c2ccc(O)cc2O)oc2cc(O)cc(O)c12
REMARK SMILES IDX 5 1 3 2 2 3 1 4 22 5 20 6 19 7 17 8 16 9 15 10 14 11 6 12
REMARK SMILES IDX 8 13 7 14 9 15 11 16 12 17 10 18 13 20 4 22 21 24 18 26
REMARK H PARENT 10 19 13 21 4 23 21 25 18 27
REMARK Flexibility Score: inf
ROOT
ATOM      1  C   UNL     1      42.551  10.575  25.350  1.00  0.00     0.184 A 
ATOM      2  C   UNL     1      43.099   9.507  26.074  1.00  0.00     0.208 A 
ATOM      3  C   UNL     1      44.013   8.651  25.439  1.00  0.00     0.238 A 
ATOM      4  O   UNL     1      44.454   7.658  26.076  1.00  0.00    -0.285 OA
ATOM      5  C   UNL     1      44.386   8.894  24.095  1.00  0.00     0.111 A 
ATOM      6  C   UNL     1      45.333   8.114  23.363  1.00  0.00     0.134 A 
ATOM      7  C   UNL     1      45.534   8.373  22.002  1.00  0.00     0.093 A 
ATOM      8  C   UNL     1      44.873   9.420  21.361  1.00  0.00     0.123 A 
ATOM      9  C   UNL     1      43.989  10.225  22.081  1.00  0.00     0.094 A 
ATOM     10  C   UNL     1      43.739   9.969  23.431  1.00  0.00     0.146 A 
ATOM     11  O   UNL     1      42.880  10.749  24.076  1.00  0.00    -0.451 OA
ENDROOT
BRANCH   1  12
ATOM     12  C   UNL     1      41.602  11.523  25.973  1.00  0.00     0.063 A 
ATOM     13  C   UNL     1      41.081  13.797  26.665  1.00  0.00     0.047 A 
ATOM     14  C   UNL     1      41.976  12.870  26.130  1.00  0.00     0.020 A 
ATOM     15  C   UNL     1      39.798  13.398  27.044  1.00  0.00     0.119 A 
ATOM     16  C   UNL     1      39.413  12.060  26.892  1.00  0.00     0.093 A 
ATOM     17  C   UNL     1      40.305  11.117  26.367  1.00  0.00     0.130 A 
BRANCH  15  18
ATOM     18  O   UNL     1      38.913  14.336  27.572  1.00  0.00    -0.508 OA
ATOM     19  H   UNL     1      37.943  14.370  27.282  1.00  0.00     0.293 HD
ENDBRANCH  15  18
BRANCH  17  20
ATOM     20  O   UNL     1      39.882   9.790  26.271  1.00  0.00    -0.507 OA
ATOM     21  H   UNL     1      39.427   9.299  27.030  1.00  0.00     0.293 HD
ENDBRANCH  17  20
ENDBRANCH   1  12
BRANCH   2  22
ATOM     22  O   UNL     1      42.715   9.294  27.401  1.00  0.00    -0.502 OA
ATOM     23  H   UNL     1      43.223   9.688  28.184  1.00  0.00     0.293 HD
ENDBRANCH   2  22
BRANCH   6  24
ATOM     24  O   UNL     1      46.115   7.102  23.927  1.00  0.00    -0.507 OA
ATOM     25  H   UNL     1      46.162   6.154  23.588  1.00  0.00     0.293 HD
ENDBRANCH   6  24
BRANCH   8  26
ATOM     26  O   UNL     1      45.109   9.657  20.009  1.00  0.00    -0.508 OA
ATOM     27  H   UNL     1      46.035   9.563  19.608  1.00  0.00     0.293 HD
ENDBRANCH   8  26
TORSDOF 6
ENDMDL
MODEL 4
REMARK VINA RESULT:    -5.571      4.974      7.346
REMARK INTER + INTRA:          -7.117
REMARK INTER:                  -6.731
REMARK INTRA:                  -0.387
REMARK UNBOUND:                -0.406
REMARK SMILES O=c1c(O)c(-c2ccc(O)cc2O)oc2cc(O)cc(O)c12
REMARK SMILES IDX 5 1 3 2 2 3 1 4 22 5 20 6 19 7 17 8 16 9 15 10 14 11 6 12
REMARK SMILES IDX 8 13 7 14 9 15 11 16 12 17 10 18 13 20 4 22 21 24 18 26
REMARK H PARENT 10 19 13 21 4 23 21 25 18 27
REMARK Flexibility Score: inf
ROOT
ATOM      1  C   UNL     1      39.636  12.301  25.980  1.00  0.00     0.184 A 
ATOM      2  C   UNL     1      39.636  13.433  26.807  1.00  0.00     0.208 A 
ATOM      3  C   UNL     1      40.534  14.476  26.533  1.00  0.00     0.238 A 
ATOM      4  O   UNL     1      40.571  15.462  27.315  1.00  0.00    -0.285 OA
ATOM      5  C   UNL     1      41.401  14.383  25.417  1.00  0.00     0.111 A 
ATOM      6  C   UNL     1      42.325  15.398  25.022  1.00  0.00     0.134 A 
ATOM      7  C   UNL     1      43.218  15.146  23.974  1.00  0.00     0.093 A 
ATOM      8  C   UNL     1      43.179  13.946  23.265  1.00  0.00     0.123 A 
ATOM      9  C   UNL     1      42.241  12.970  23.606  1.00  0.00     0.094 A 
ATOM     10  C   UNL     1      41.361  13.176  24.671  1.00  0.00     0.146 A 
ATOM     11  O   UNL     1      40.494  12.217  24.972  1.00  0.00    -0.451 OA
ENDROOT
BRANCH   1  12
ATOM     12  C   UNL     1      38.695  11.181  26.206  1.00  0.00     0.063 A 
ATOM     13  C   UNL     1      36.418  10.326  26.135  1.00  0.00     0.047 A 
ATOM     14  C   UNL     1      37.321  11.380  25.982  1.00  0.00     0.020 A 
ATOM     15  C   UNL     1      36.873   9.059  26.505  1.00  0.00     0.119 A 
ATOM     16  C   UNL     1      38.239   8.848  26.729  1.00  0.00     0.093 A 
ATOM     17  C   UNL     1      39.154   9.899  26.590  1.00  0.00     0.130 A 
BRANCH  15  18
ATOM     18  O   UNL     1      35.960   8.016  26.648  1.00  0.00    -0.508 OA
ATOM     19  H   UNL     1      36.236   7.050  26.517  1.00  0.00     0.293 HD
ENDBRANCH  15  18
BRANCH  17  20
ATOM     20  O   UNL     1      40.499   9.642  26.861  1.00  0.00    -0.507 OA
ATOM     21  H   UNL     1      41.099  10.294  27.351  1.00  0.00     0.293 HD
ENDBRANCH  17  20
ENDBRANCH   1  12
BRANCH   2  22
ATOM     22  O   UNL     1      38.766  13.500  27.900  1.00  0.00    -0.502 OA
ATOM     23  H   UNL     1      38.632  14.348  28.436  1.00  0.00     0.293 HD
ENDBRANCH   2  22
BRANCH   6  24
ATOM     24  O   UNL     1      42.388  16.667  25.602  1.00  0.00    -0.507 OA
ATOM     25  H   UNL     1      42.965  17.425  25.270  1.00  0.00     0.293 HD
ENDBRANCH   6  24
BRANCH   8  26
ATOM     26  O   UNL     1      44.074  13.736  22.218  1.00  0.00    -0.508 OA
ATOM     27  H   UNL     1      44.127  12.846  21.737  1.00  0.00     0.293 HD
ENDBRANCH   8  26
TORSDOF 6
ENDMDL
MODEL 5
REMARK VINA RESULT:    -5.570      3.261      7.037
REMARK INTER + INTRA:          -7.115
REMARK INTER:                  -6.718
REMARK INTRA:                  -0.397
REMARK UNBOUND:                -0.406
REMARK SMILES O=c1c(O)c(-c2ccc(O)cc2O)oc2cc(O)cc(O)c12
REMARK SMILES IDX 5 1 3 2 2 3 1 4 22 5 20 6 19 7 17 8 16 9 15 10 14 11 6 12
REMARK SMILES IDX 8 13 7 14 9 15 11 16 12 17 10 18 13 20 4 22 21 24 18 26
REMARK H PARENT 10 19 13 21 4 23 21 25 18 27
REMARK Flexibility Score: inf
ROOT
ATOM      1  C   UNL     1      45.031  14.228  22.887  1.00  0.00     0.184 A 
ATOM      2  C   UNL     1      45.246  15.306  22.016  1.00  0.00     0.208 A 
ATOM      3  C   UNL     1      45.460  16.584  22.555  1.00  0.00     0.238 A 
ATOM      4  O   UNL     1      45.592  17.557  21.767  1.00  0.00    -0.285 OA
ATOM      5  C   UNL     1      45.484  16.760  23.960  1.00  0.00     0.111 A 
ATOM      6  C   UNL     1      45.732  18.004  24.617  1.00  0.00     0.134 A 
ATOM      7  C   UNL     1      45.611  18.085  26.009  1.00  0.00     0.093 A 
ATOM      8  C   UNL     1      45.315  16.957  26.774  1.00  0.00     0.123 A 
ATOM      9  C   UNL     1      45.128  15.724  26.147  1.00  0.00     0.094 A 
ATOM     10  C   UNL     1      45.206  15.618  24.756  1.00  0.00     0.146 A 
ATOM     11  O   UNL     1      45.007  14.431  24.198  1.00  0.00    -0.451 OA
ENDROOT
BRANCH   1  12
ATOM     12  C   UNL     1      44.823  12.855  22.378  1.00  0.00     0.063 A 
ATOM     13  C   UNL     1      45.750  10.846  21.363  1.00  0.00     0.047 A 
ATOM     14  C   UNL     1      45.904  12.162  21.803  1.00  0.00     0.020 A 
ATOM     15  C   UNL     1      44.520  10.199  21.498  1.00  0.00     0.119 A 
ATOM     16  C   UNL     1      43.437  10.877  22.071  1.00  0.00     0.093 A 
ATOM     17  C   UNL     1      43.575  12.202  22.505  1.00  0.00     0.130 A 
BRANCH  15  18
ATOM     18  O   UNL     1      44.383   8.884  21.060  1.00  0.00    -0.508 OA
ATOM     19  H   UNL     1      45.139   8.402  20.589  1.00  0.00     0.293 HD
ENDBRANCH  15  18
BRANCH  17  20
ATOM     20  O   UNL     1      42.453  12.842  23.035  1.00  0.00    -0.507 OA
ATOM     21  H   UNL     1      42.373  13.848  23.106  1.00  0.00     0.293 HD
ENDBRANCH  17  20
ENDBRANCH   1  12
BRANCH   2  22
ATOM     22  O   UNL     1      45.221  15.101  20.633  1.00  0.00    -0.502 OA
ATOM     23  H   UNL     1      45.870  15.560  20.005  1.00  0.00     0.293 HD
ENDBRANCH   2  22
BRANCH   6  24
ATOM     24  O   UNL     1      46.123  19.172  23.957  1.00  0.00    -0.507 OA
ATOM     25  H   UNL     1      46.215  20.077  24.394  1.00  0.00     0.293 HD
ENDBRANCH   6  24
BRANCH   8  26
ATOM     26  O   UNL     1      45.217  17.072  28.159  1.00  0.00    -0.508 OA
ATOM     27  H   UNL     1      45.323  17.965  28.625  1.00  0.00     0.293 HD
ENDBRANCH   8  26
TORSDOF 6
ENDMDL
MODEL 6
REMARK VINA RESULT:    -5.546      3.932      5.433
REMARK INTER + INTRA:          -7.087
REMARK INTER:                  -6.723
REMARK INTRA:                  -0.365
REMARK UNBOUND:                -0.406
REMARK SMILES O=c1c(O)c(-c2ccc(O)cc2O)oc2cc(O)cc(O)c12
REMARK SMILES IDX 5 1 3 2 2 3 1 4 22 5 20 6 19 7 17 8 16 9 15 10 14 11 6 12
REMARK SMILES IDX 8 13 7 14 9 15 11 16 12 17 10 18 13 20 4 22 21 24 18 26
REMARK H PARENT 10 19 13 21 4 23 21 25 18 27
REMARK Flexibility Score: inf
ROOT
ATOM      1  C   UNL     1      41.700  14.475  24.443  1.00  0.00     0.184 A 
ATOM      2  C   UNL     1      41.205  15.367  25.406  1.00  0.00     0.208 A 
ATOM      3  C   UNL     1      40.458  14.862  26.481  1.00  0.00     0.238 A 
ATOM      4  O   UNL     1      39.964  15.674  27.307  1.00  0.00    -0.285 OA
ATOM      5  C   UNL     1      40.240  13.467  26.593  1.00  0.00     0.111 A 
ATOM      6  C   UNL     1      39.529  12.841  27.662  1.00  0.00     0.134 A 
ATOM      7  C   UNL     1      39.271  11.466  27.606  1.00  0.00     0.093 A 
ATOM      8  C   UNL     1      39.749  10.685  26.556  1.00  0.00     0.123 A 
ATOM      9  C   UNL     1      40.494  11.276  25.534  1.00  0.00     0.094 A 
ATOM     10  C   UNL     1      40.738  12.652  25.543  1.00  0.00     0.146 A 
ATOM     11  O   UNL     1      41.438  13.178  24.545  1.00  0.00    -0.451 OA
ENDROOT
BRANCH   1  12
ATOM     12  C   UNL     1      42.515  14.946  23.302  1.00  0.00     0.063 A 
ATOM     13  C   UNL     1      42.654  16.188  21.214  1.00  0.00     0.047 A 
ATOM     14  C   UNL     1      41.900  15.684  22.275  1.00  0.00     0.020 A 
ATOM     15  C   UNL     1      44.032  15.969  21.165  1.00  0.00     0.119 A 
ATOM     16  C   UNL     1      44.656  15.237  22.182  1.00  0.00     0.093 A 
ATOM     17  C   UNL     1      43.909  14.717  23.247  1.00  0.00     0.130 A 
BRANCH  15  18
ATOM     18  O   UNL     1      44.772  16.483  20.102  1.00  0.00    -0.508 OA
ATOM     19  H   UNL     1      45.513  17.158  20.250  1.00  0.00     0.293 HD
ENDBRANCH  15  18
BRANCH  17  20
ATOM     20  O   UNL     1      44.577  13.963  24.214  1.00  0.00    -0.507 OA
ATOM     21  H   UNL     1      45.321  13.315  23.993  1.00  0.00     0.293 HD
ENDBRANCH  17  20
ENDBRANCH   1  12
BRANCH   2  22
ATOM     22  O   UNL     1      41.440  16.738  25.272  1.00  0.00    -0.502 OA
ATOM     23  H   UNL     1      41.143  17.263  24.457  1.00  0.00     0.293 HD
ENDBRANCH   2  22
BRANCH   6  24
ATOM     24  O   UNL     1      39.085  13.513  28.804  1.00  0.00    -0.507 OA
ATOM     25  H   UNL     1      39.056  14.516  28.908  1.00  0.00     0.293 HD
ENDBRANCH   6  24
BRANCH   8  26
ATOM     26  O   UNL     1      39.485   9.316  26.540  1.00  0.00    -0.508 OA
ATOM     27  H   UNL     1      40.228   8.634  26.449  1.00  0.00     0.293 HD
ENDBRANCH   8  26
TORSDOF 6
ENDMDL
MODEL 7
REMARK VINA RESULT:    -5.524      8.457      9.833
REMARK INTER + INTRA:          -7.060
REMARK INTER:                  -6.836
REMARK INTRA:                  -0.224
REMARK UNBOUND:                -0.406
REMARK SMILES O=c1c(O)c(-c2ccc(O)cc2O)oc2cc(O)cc(O)c12
REMARK SMILES IDX 5 1 3 2 2 3 1 4 22 5 20 6 19 7 17 8 16 9 15 10 14 11 6 12
REMARK SMILES IDX 8 13 7 14 9 15 11 16 12 17 10 18 13 20 4 22 21 24 18 26
REMARK H PARENT 10 19 13 21 4 23 21 25 18 27
REMARK Flexibility Score: inf
ROOT
ATOM      1  C   UNL     1      37.530  13.463  29.020  1.00  0.00     0.184 A 
ATOM      2  C   UNL     1      38.289  12.478  28.372  1.00  0.00     0.208 A 
ATOM      3  C   UNL     1      37.719  11.214  28.151  1.00  0.00     0.238 A 
ATOM      4  O   UNL     1      38.427  10.316  27.625  1.00  0.00    -0.285 OA
ATOM      5  C   UNL     1      36.386  10.963  28.558  1.00  0.00     0.111 A 
ATOM      6  C   UNL     1      35.693   9.732  28.351  1.00  0.00     0.134 A 
ATOM      7  C   UNL     1      34.419   9.556  28.903  1.00  0.00     0.093 A 
ATOM      8  C   UNL     1      33.786  10.584  29.599  1.00  0.00     0.123 A 
ATOM      9  C   UNL     1      34.430  11.812  29.759  1.00  0.00     0.094 A 
ATOM     10  C   UNL     1      35.717  12.007  29.251  1.00  0.00     0.146 A 
ATOM     11  O   UNL     1      36.301  13.184  29.436  1.00  0.00    -0.451 OA
ENDROOT
BRANCH   1  12
ATOM     12  C   UNL     1      38.069  14.820  29.258  1.00  0.00     0.063 A 
ATOM     13  C   UNL     1      39.853  16.230  30.125  1.00  0.00     0.047 A 
ATOM     14  C   UNL     1      39.293  14.965  29.934  1.00  0.00     0.020 A 
ATOM     15  C   UNL     1      39.203  17.366  29.637  1.00  0.00     0.119 A 
ATOM     16  C   UNL     1      37.985  17.234  28.961  1.00  0.00     0.093 A 
ATOM     17  C   UNL     1      37.407  15.972  28.773  1.00  0.00     0.130 A 
BRANCH  15  18
ATOM     18  O   UNL     1      39.776  18.622  29.830  1.00  0.00    -0.508 OA
ATOM     19  H   UNL     1      39.522  19.204  30.619  1.00  0.00     0.293 HD
ENDBRANCH  15  18
BRANCH  17  20
ATOM     20  O   UNL     1      36.173  15.901  28.124  1.00  0.00    -0.507 OA
ATOM     21  H   UNL     1      35.366  15.437  28.520  1.00  0.00     0.293 HD
ENDBRANCH  17  20
ENDBRANCH   1  12
BRANCH   2  22
ATOM     22  O   UNL     1      39.601  12.755  27.977  1.00  0.00    -0.502 OA
ATOM     23  H   UNL     1      39.840  13.565  27.418  1.00  0.00     0.293 HD
ENDBRANCH   2  22
BRANCH   6  24
ATOM     24  O   UNL     1      36.196   8.670  27.593  1.00  0.00    -0.507 OA
ATOM     25  H   UNL     1      37.174   8.503  27.414  1.00  0.00     0.293 HD
ENDBRANCH   6  24
BRANCH   8  26
ATOM     26  O   UNL     1      32.511  10.378  30.123  1.00  0.00    -0.508 OA
ATOM     27  H   UNL     1      32.218   9.469  30.460  1.00  0.00     0.293 HD
ENDBRANCH   8  26
TORSDOF 6
ENDMDL
MODEL 8
REMARK VINA RESULT:    -5.504      2.543      6.437
REMARK INTER + INTRA:          -7.036
REMARK INTER:                  -6.748
REMARK INTRA:                  -0.288
REMARK UNBOUND:                -0.406
REMARK SMILES O=c1c(O)c(-c2ccc(O)cc2O)oc2cc(O)cc(O)c12
REMARK SMILES IDX 5 1 3 2 2 3 1 4 22 5 20 6 19 7 17 8 16 9 15 10 14 11 6 12
REMARK SMILES IDX 8 13 7 14 9 15 11 16 12 17 10 18 13 20 4 22 21 24 18 26
REMARK H PARENT 10 19 13 21 4 23 21 25 18 27
REMARK Flexibility Score: inf
ROOT
ATOM      1  C   UNL     1      43.514  12.788  24.032  1.00  0.00     0.184 A 
ATOM      2  C   UNL     1      44.732  12.637  23.354  1.00  0.00     0.208 A 
ATOM      3  C   UNL     1      45.059  13.544  22.333  1.00  0.00     0.238 A 
ATOM      4  O   UNL     1      46.125  13.367  21.687  1.00  0.00    -0.285 OA
ATOM      5  C   UNL     1      44.174  14.606  22.026  1.00  0.00     0.111 A 
ATOM      6  C   UNL     1      44.422  15.607  21.038  1.00  0.00     0.134 A 
ATOM      7  C   UNL     1      43.422  16.539  20.735  1.00  0.00     0.093 A 
ATOM      8  C   UNL     1      42.211  16.548  21.425  1.00  0.00     0.123 A 
ATOM      9  C   UNL     1      41.981  15.610  22.433  1.00  0.00     0.094 A 
ATOM     10  C   UNL     1      42.944  14.644  22.734  1.00  0.00     0.146 A 
ATOM     11  O   UNL     1      42.681  13.761  23.690  1.00  0.00    -0.451 OA
ENDROOT
BRANCH   1  12
ATOM     12  C   UNL     1      43.127  11.877  25.132  1.00  0.00     0.063 A 
ATOM     13  C   UNL     1      42.695   9.610  25.906  1.00  0.00     0.047 A 
ATOM     14  C   UNL     1      43.006  10.499  24.876  1.00  0.00     0.020 A 
ATOM     15  C   UNL     1      42.509  10.081  27.208  1.00  0.00     0.119 A 
ATOM     16  C   UNL     1      42.629  11.450  27.476  1.00  0.00     0.093 A 
ATOM     17  C   UNL     1      42.929  12.354  26.449  1.00  0.00     0.130 A 
BRANCH  15  18
ATOM     18  O   UNL     1      42.205   9.181  28.227  1.00  0.00    -0.508 OA
ATOM     19  H   UNL     1      42.636   9.251  29.141  1.00  0.00     0.293 HD
ENDBRANCH  15  18
BRANCH  17  20
ATOM     20  O   UNL     1      43.001  13.711  26.766  1.00  0.00    -0.507 OA
ATOM     21  H   UNL     1      42.704  14.087  27.657  1.00  0.00     0.293 HD
ENDBRANCH  17  20
ENDBRANCH   1  12
BRANCH   2  22
ATOM     22  O   UNL     1      45.588  11.582  23.681  1.00  0.00    -0.502 OA
ATOM     23  H   UNL     1      46.573  11.588  23.445  1.00  0.00     0.293 HD
ENDBRANCH   2  22
BRANCH   6  24
ATOM     24  O   UNL     1      45.631  15.746  20.351  1.00  0.00    -0.507 OA
ATOM     25  H   UNL     1      45.938  15.148  19.599  1.00  0.00     0.293 HD
ENDBRANCH   6  24
BRANCH   8  26
ATOM     26  O   UNL     1      41.244  17.499  21.107  1.00  0.00    -0.508 OA
ATOM     27  H   UNL     1      40.881  17.591  20.166  1.00  0.00     0.293 HD
ENDBRANCH   8  26
TORSDOF 6
ENDMDL
MODEL 9
REMARK VINA RESULT:    -5.486      6.910      9.197
REMARK INTER + INTRA:          -7.014
REMARK INTER:                  -7.000
REMARK INTRA:                  -0.014
REMARK UNBOUND:                -0.406
REMARK SMILES O=c1c(O)c(-c2ccc(O)cc2O)oc2cc(O)cc(O)c12
REMARK SMILES IDX 5 1 3 2 2 3 1 4 22 5 20 6 19 7 17 8 16 9 15 10 14 11 6 12
REMARK SMILES IDX 8 13 7 14 9 15 11 16 12 17 10 18 13 20 4 22 21 24 18 26
REMARK H PARENT 10 19 13 21 4 23 21 25 18 27
REMARK Flexibility Score: inf
ROOT
ATOM      1  C   UNL     1      38.692  11.297  26.987  1.00  0.00     0.184 A 
ATOM      2  C   UNL     1      38.025  10.079  27.184  1.00  0.00     0.208 A 
ATOM      3  C   UNL     1      36.793  10.078  27.858  1.00  0.00     0.238 A 
ATOM      4  O   UNL     1      36.230   8.976  28.086  1.00  0.00    -0.285 OA
ATOM      5  C   UNL     1      36.234  11.301  28.302  1.00  0.00     0.111 A 
ATOM      6  C   UNL     1      34.973  11.423  28.962  1.00  0.00     0.134 A 
ATOM      7  C   UNL     1      34.576  12.668  29.464  1.00  0.00     0.093 A 
ATOM      8  C   UNL     1      35.359  13.806  29.276  1.00  0.00     0.123 A 
ATOM      9  C   UNL     1      36.567  13.709  28.582  1.00  0.00     0.094 A 
ATOM     10  C   UNL     1      37.008  12.474  28.100  1.00  0.00     0.146 A 
ATOM     11  O   UNL     1      38.169  12.422  27.458  1.00  0.00    -0.451 OA
ENDROOT
BRANCH   1  12
ATOM     12  C   UNL     1      39.980  11.362  26.263  1.00  0.00     0.063 A 
ATOM     13  C   UNL     1      41.335  12.367  24.509  1.00  0.00     0.047 A 
ATOM     14  C   UNL     1      40.116  12.245  25.176  1.00  0.00     0.020 A 
ATOM     15  C   UNL     1      42.439  11.617  24.921  1.00  0.00     0.119 A 
ATOM     16  C   UNL     1      42.318  10.736  26.002  1.00  0.00     0.093 A 
ATOM     17  C   UNL     1      41.096  10.596  26.673  1.00  0.00     0.130 A 
BRANCH  15  18
ATOM     18  O   UNL     1      43.652  11.753  24.249  1.00  0.00    -0.508 OA
ATOM     19  H   UNL     1      43.696  12.109  23.301  1.00  0.00     0.293 HD
ENDBRANCH  15  18
BRANCH  17  20
ATOM     20  O   UNL     1      41.021   9.677  27.721  1.00  0.00    -0.507 OA
ATOM     21  H   UNL     1      40.283   9.687  28.413  1.00  0.00     0.293 HD
ENDBRANCH  17  20
ENDBRANCH   1  12
BRANCH   2  22
ATOM     22  O   UNL     1      38.599   8.888  26.731  1.00  0.00    -0.502 OA
ATOM     23  H   UNL     1      38.070   8.028  26.645  1.00  0.00     0.293 HD
ENDBRANCH   2  22
BRANCH   6  24
ATOM     24  O   UNL     1      34.070  10.369  29.124  1.00  0.00    -0.507 OA
ATOM     25  H   UNL     1      33.922   9.865  29.985  1.00  0.00     0.293 HD
ENDBRANCH   6  24
BRANCH   8  26
ATOM     26  O   UNL     1      34.925  15.031  29.777  1.00  0.00    -0.508 OA
ATOM     27  H   UNL     1      34.236  15.086  30.517  1.00  0.00     0.293 HD
ENDBRANCH   8  26
TORSDOF 6
ENDMDL
