MODEL 1
REMARK VINA RESULT:    -4.838      0.000      0.000
REMARK INTER + INTRA:          -4.756
REMARK INTER:                  -6.817
REMARK INTRA:                   2.061
REMARK UNBOUND:                 2.061
REMARK SMILES CC1=CCC(=C(C)C)C(=O)CC(C)=CCC1
REMARK SMILES IDX 12 1 14 2 13 3 15 4 16 5 2 6 1 7 3 8 11 10 9 11 10 12 5 13
REMARK SMILES IDX 6 14 7 15 8 16 4 17
REMARK H PARENT
REMARK Flexibility Score: 60.00
ROOT
ATOM      1  C   UNL     1      10.659  20.436  -3.651  1.00  0.00    -0.070 C 
ATOM      2  C   UNL     1      10.133  20.283  -2.414  1.00  0.00    -0.027 C 
ATOM      3  C   UNL     1       9.839  19.949  -4.820  1.00  0.00     0.039 C 
ENDROOT
BRANCH   2   4
ATOM      4  C   UNL     1      10.818  20.599  -1.106  1.00  0.00     0.032 C 
BRANCH   4   5
ATOM      5  C   UNL     1      10.709  22.088  -0.725  1.00  0.00     0.034 C 
BRANCH   5   6
ATOM      6  C   UNL     1      11.886  22.553   0.110  1.00  0.00    -0.077 C 
ATOM      7  C   UNL     1      11.656  22.849   1.571  1.00  0.00     0.039 C 
ATOM      8  C   UNL     1      13.141  22.692  -0.375  1.00  0.00    -0.023 CG0
ATOM      9  G   UNL     1      13.576  22.411  -1.793  1.00  0.00     0.000 G0
ENDBRANCH   5   6
ENDBRANCH   4   5
ENDBRANCH   2   4
BRANCH   1  10
ATOM     10  C   UNL     1      12.044  21.003  -3.917  1.00  0.00     0.111 C 
BRANCH  10  11
ATOM     11  C   UNL     1      12.048  22.510  -3.848  1.00  0.00     0.163 C 
ATOM     12  O   UNL     1      11.367  23.145  -4.699  1.00  0.00    -0.294 OA
BRANCH  11  13
ATOM     13  C   UNL     1      12.787  23.252  -2.779  1.00  0.00    -0.002 C 
ATOM     14  C   UNL     1      12.799  24.619  -2.729  1.00  0.00    -0.069 C 
ATOM     15  C   UNL     1      12.126  25.457  -3.794  1.00  0.00     0.039 C 
ATOM     16  C   UNL     1      13.517  25.361  -1.622  1.00  0.00     0.039 C 
BRANCH  13  17
ATOM     17  C   UNL     1      13.588  22.423  -1.792  1.00  0.00     0.066 CG0
ATOM     18  G   UNL     1      13.122  22.711  -0.385  1.00  0.00     0.000 G0
ENDBRANCH  13  17
ENDBRANCH  11  13
ENDBRANCH  10  11
ENDBRANCH   1  10
TORSDOF 0
ENDMDL
MODEL 2
REMARK VINA RESULT:    -4.561      1.719      4.269
REMARK INTER + INTRA:          -4.366
REMARK INTER:                  -5.390
REMARK INTRA:                   1.024
REMARK UNBOUND:                 2.061
REMARK SMILES CC1=CCC(=C(C)C)C(=O)CC(C)=CCC1
REMARK SMILES IDX 12 1 14 2 13 3 15 4 16 5 2 6 1 7 3 8 11 10 9 11 10 12 5 13
REMARK SMILES IDX 6 14 7 15 8 16 4 17
REMARK H PARENT
REMARK Flexibility Score: 60.00
ROOT
ATOM      1  C   UNL     1      10.650  23.928  -0.247  1.00  0.00    -0.070 C 
ATOM      2  C   UNL     1      11.540  24.834  -0.716  1.00  0.00    -0.027 C 
ATOM      3  C   UNL     1      10.315  23.980   1.223  1.00  0.00     0.039 C 
ENDROOT
BRANCH   2   4
ATOM      4  C   UNL     1      12.096  24.897  -2.118  1.00  0.00     0.032 C 
BRANCH   4   5
ATOM      5  C   UNL     1      13.616  24.653  -2.165  1.00  0.00     0.034 C 
BRANCH   5   6
ATOM      6  C   UNL     1      14.016  23.389  -1.429  1.00  0.00    -0.077 C 
ATOM      7  C   UNL     1      14.807  23.524  -0.153  1.00  0.00     0.039 C 
ATOM      8  C   UNL     1      13.680  22.145  -1.838  1.00  0.00    -0.023 CG0
ATOM      9  G   UNL     1      12.864  21.808  -3.063  1.00  0.00     0.000 G0
ENDBRANCH   5   6
ENDBRANCH   4   5
ENDBRANCH   2   4
BRANCH   1  10
ATOM     10  C   UNL     1      10.032  22.832  -1.099  1.00  0.00     0.111 C 
BRANCH  10  11
ATOM     11  C   UNL     1      10.992  21.690  -1.316  1.00  0.00     0.163 C 
ATOM     12  O   UNL     1      11.347  21.013  -0.313  1.00  0.00    -0.294 OA
BRANCH  11  13
ATOM     13  C   UNL     1      11.483  21.315  -2.680  1.00  0.00    -0.002 C 
ATOM     14  C   UNL     1      10.753  20.511  -3.511  1.00  0.00    -0.069 C 
ATOM     15  C   UNL     1       9.444  19.895  -3.069  1.00  0.00     0.039 C 
ATOM     16  C   UNL     1      11.239  20.168  -4.903  1.00  0.00     0.039 C 
BRANCH  13  17
ATOM     17  C   UNL     1      12.864  21.807  -3.075  1.00  0.00     0.066 CG0
ATOM     18  G   UNL     1      13.660  22.148  -1.838  1.00  0.00     0.000 G0
ENDBRANCH  13  17
ENDBRANCH  11  13
ENDBRANCH  10  11
ENDBRANCH   1  10
TORSDOF 0
ENDMDL
MODEL 3
REMARK VINA RESULT:    -4.088      1.378      3.537
REMARK INTER + INTRA:          -3.699
REMARK INTER:                  -4.469
REMARK INTRA:                   0.770
REMARK UNBOUND:                 2.061
REMARK SMILES CC1=CCC(=C(C)C)C(=O)CC(C)=CCC1
REMARK SMILES IDX 12 1 14 2 13 3 15 4 16 5 2 6 1 7 3 8 11 10 9 11 10 12 5 13
REMARK SMILES IDX 6 14 7 15 8 16 4 17
REMARK H PARENT
REMARK Flexibility Score: 60.00
ROOT
ATOM      1  C   UNL     1      10.624  23.008  -0.635  1.00  0.00    -0.070 C 
ATOM      2  C   UNL     1      10.230  21.715  -0.707  1.00  0.00    -0.027 C 
ATOM      3  C   UNL     1      10.938  23.565   0.732  1.00  0.00     0.039 C 
ENDROOT
BRANCH   2   4
ATOM      4  C   UNL     1       9.769  20.989  -1.948  1.00  0.00     0.032 C 
BRANCH   4   5
ATOM      5  C   UNL     1      10.897  20.180  -2.615  1.00  0.00     0.034 C 
BRANCH   5   6
ATOM      6  C   UNL     1      11.540  20.932  -3.763  1.00  0.00    -0.077 C 
ATOM      7  C   UNL     1      10.867  20.889  -5.112  1.00  0.00     0.039 C 
ATOM      8  C   UNL     1      12.670  21.664  -3.642  1.00  0.00    -0.023 CG0
ATOM      9  G   UNL     1      13.465  21.858  -2.373  1.00  0.00     0.000 G0
ENDBRANCH   5   6
ENDBRANCH   4   5
ENDBRANCH   2   4
BRANCH   1  10
ATOM     10  C   UNL     1      10.700  23.936  -1.836  1.00  0.00     0.111 C 
BRANCH  10  11
ATOM     11  C   UNL     1      12.109  24.040  -2.368  1.00  0.00     0.163 C 
ATOM     12  O   UNL     1      12.333  24.861  -3.298  1.00  0.00    -0.294 OA
BRANCH  11  13
ATOM     13  C   UNL     1      13.234  23.242  -1.790  1.00  0.00    -0.002 C 
ATOM     14  C   UNL     1      14.055  23.752  -0.821  1.00  0.00    -0.069 C 
ATOM     15  C   UNL     1      13.915  25.177  -0.335  1.00  0.00     0.039 C 
ATOM     16  C   UNL     1      15.167  22.924  -0.214  1.00  0.00     0.039 C 
BRANCH  13  17
ATOM     17  C   UNL     1      13.476  21.863  -2.377  1.00  0.00     0.066 CG0
ATOM     18  G   UNL     1      12.656  21.691  -3.634  1.00  0.00     0.000 G0
ENDBRANCH  13  17
ENDBRANCH  11  13
ENDBRANCH  10  11
ENDBRANCH   1  10
TORSDOF 0
ENDMDL
MODEL 4
REMARK VINA RESULT:    -3.711      1.760      4.696
REMARK INTER + INTRA:          -3.168
REMARK INTER:                  -6.282
REMARK INTRA:                   3.114
REMARK UNBOUND:                 2.061
REMARK SMILES CC1=CCC(=C(C)C)C(=O)CC(C)=CCC1
REMARK SMILES IDX 12 1 14 2 13 3 15 4 16 5 2 6 1 7 3 8 11 10 9 11 10 12 5 13
REMARK SMILES IDX 6 14 7 15 8 16 4 17
REMARK H PARENT
REMARK Flexibility Score: 60.00
ROOT
ATOM      1  C   UNL     1      13.702  23.148  -0.500  1.00  0.00    -0.070 C 
ATOM      2  C   UNL     1      14.082  24.300  -1.099  1.00  0.00    -0.027 C 
ATOM      3  C   UNL     1      14.763  22.100  -0.273  1.00  0.00     0.039 C 
ENDROOT
BRANCH   2   4
ATOM      4  C   UNL     1      13.173  25.432  -1.516  1.00  0.00     0.032 C 
BRANCH   4   5
ATOM      5  C   UNL     1      11.802  24.938  -2.015  1.00  0.00     0.034 C 
BRANCH   5   6
ATOM      6  C   UNL     1      11.830  24.553  -3.481  1.00  0.00    -0.077 C 
ATOM      7  C   UNL     1      11.375  25.570  -4.497  1.00  0.00     0.039 C 
ATOM      8  C   UNL     1      12.266  23.356  -3.934  1.00  0.00    -0.023 CG0
ATOM      9  G   UNL     1      12.792  22.227  -3.080  1.00  0.00     0.000 G0
ENDBRANCH   5   6
ENDBRANCH   4   5
ENDBRANCH   2   4
BRANCH   1  10
ATOM     10  C   UNL     1      12.267  22.830  -0.111  1.00  0.00     0.111 C 
BRANCH  10  11
ATOM     11  C   UNL     1      11.757  21.605  -0.828  1.00  0.00     0.163 C 
ATOM     12  O   UNL     1      11.322  20.648  -0.131  1.00  0.00    -0.294 OA
BRANCH  11  13
ATOM     13  C   UNL     1      11.706  21.524  -2.321  1.00  0.00    -0.002 C 
ATOM     14  C   UNL     1      10.745  20.799  -2.971  1.00  0.00    -0.069 C 
ATOM     15  C   UNL     1       9.724  19.980  -2.213  1.00  0.00     0.039 C 
ATOM     16  C   UNL     1      10.678  20.754  -4.482  1.00  0.00     0.039 C 
BRANCH  13  17
ATOM     17  C   UNL     1      12.815  22.222  -3.088  1.00  0.00     0.066 CG0
ATOM     18  G   UNL     1      12.236  23.337  -3.924  1.00  0.00     0.000 G0
ENDBRANCH  13  17
ENDBRANCH  11  13
ENDBRANCH  10  11
ENDBRANCH   1  10
TORSDOF 0
ENDMDL
MODEL 5
REMARK VINA RESULT:    -3.217      1.654      3.869
REMARK INTER + INTRA:          -2.472
REMARK INTER:                  -6.413
REMARK INTRA:                   3.940
REMARK UNBOUND:                 2.061
REMARK SMILES CC1=CCC(=C(C)C)C(=O)CC(C)=CCC1
REMARK SMILES IDX 12 1 14 2 13 3 15 4 16 5 2 6 1 7 3 8 11 10 9 11 10 12 5 13
REMARK SMILES IDX 6 14 7 15 8 16 4 17
REMARK H PARENT
REMARK Flexibility Score: 60.00
ROOT
ATOM      1  C   UNL     1      11.221  22.764  -0.336  1.00  0.00    -0.070 C 
ATOM      2  C   UNL     1      10.419  21.802  -0.851  1.00  0.00    -0.027 C 
ATOM      3  C   UNL     1      10.577  24.076   0.039  1.00  0.00     0.039 C 
ENDROOT
BRANCH   2   4
ATOM      4  C   UNL     1      10.864  20.462  -1.388  1.00  0.00     0.032 C 
BRANCH   4   5
ATOM      5  C   UNL     1       9.929  19.926  -2.489  1.00  0.00     0.034 C 
BRANCH   5   6
ATOM      6  C   UNL     1      10.436  20.251  -3.880  1.00  0.00    -0.077 C 
ATOM      7  C   UNL     1       9.498  20.062  -5.046  1.00  0.00     0.039 C 
ATOM      8  C   UNL     1      11.675  20.727  -4.134  1.00  0.00    -0.023 CG0
ATOM      9  G   UNL     1      12.740  21.015  -3.103  1.00  0.00     0.000 G0
ENDBRANCH   5   6
ENDBRANCH   4   5
ENDBRANCH   2   4
BRANCH   1  10
ATOM     10  C   UNL     1      12.725  22.618  -0.184  1.00  0.00     0.111 C 
BRANCH  10  11
ATOM     11  C   UNL     1      13.441  22.859  -1.490  1.00  0.00     0.163 C 
ATOM     12  O   UNL     1      14.598  23.359  -1.449  1.00  0.00    -0.294 OA
BRANCH  11  13
ATOM     13  C   UNL     1      12.840  22.476  -2.805  1.00  0.00    -0.002 C 
ATOM     14  C   UNL     1      12.336  23.411  -3.666  1.00  0.00    -0.069 C 
ATOM     15  C   UNL     1      12.291  24.879  -3.303  1.00  0.00     0.039 C 
ATOM     16  C   UNL     1      11.764  23.018  -5.011  1.00  0.00     0.039 C 
BRANCH  13  17
ATOM     17  C   UNL     1      12.744  20.992  -3.114  1.00  0.00     0.066 CG0
ATOM     18  G   UNL     1      11.674  20.753  -4.152  1.00  0.00     0.000 G0
ENDBRANCH  13  17
ENDBRANCH  11  13
ENDBRANCH  10  11
ENDBRANCH   1  10
TORSDOF 0
ENDMDL
MODEL 6
REMARK VINA RESULT:    -3.205      1.608      3.774
REMARK INTER + INTRA:          -2.455
REMARK INTER:                  -5.008
REMARK INTRA:                   2.553
REMARK UNBOUND:                 2.061
REMARK SMILES CC1=CCC(=C(C)C)C(=O)CC(C)=CCC1
REMARK SMILES IDX 12 1 14 2 13 3 15 4 16 5 2 6 1 7 3 8 11 10 9 11 10 12 5 13
REMARK SMILES IDX 6 14 7 15 8 16 4 17
REMARK H PARENT
REMARK Flexibility Score: 60.00
ROOT
ATOM      1  C   UNL     1      12.293  24.494  -2.976  1.00  0.00    -0.070 C 
ATOM      2  C   UNL     1      12.674  24.714  -1.696  1.00  0.00    -0.027 C 
ATOM      3  C   UNL     1      11.329  25.477  -3.593  1.00  0.00     0.039 C 
ENDROOT
BRANCH   2   4
ATOM      4  C   UNL     1      13.540  23.809  -0.853  1.00  0.00     0.032 C 
BRANCH   4   5
ATOM      5  C   UNL     1      12.758  23.139   0.293  1.00  0.00     0.034 C 
BRANCH   5   6
ATOM      6  C   UNL     1      11.261  23.158   0.053  1.00  0.00    -0.077 C 
ATOM      7  C   UNL     1      10.471  24.343   0.548  1.00  0.00     0.039 C 
ATOM      8  C   UNL     1      10.595  22.183  -0.605  1.00  0.00    -0.023 CG0
ATOM      9  G   UNL     1      11.211  20.941  -1.204  1.00  0.00     0.000 G0
ENDBRANCH   5   6
ENDBRANCH   4   5
ENDBRANCH   2   4
BRANCH   1  10
ATOM     10  C   UNL     1      12.727  23.286  -3.791  1.00  0.00     0.111 C 
BRANCH  10  11
ATOM     11  C   UNL     1      12.781  22.037  -2.946  1.00  0.00     0.163 C 
ATOM     12  O   UNL     1      13.884  21.720  -2.426  1.00  0.00    -0.294 OA
BRANCH  11  13
ATOM     13  C   UNL     1      11.562  21.213  -2.672  1.00  0.00    -0.002 C 
ATOM     14  C   UNL     1      10.749  20.774  -3.681  1.00  0.00    -0.069 C 
ATOM     15  C   UNL     1      10.997  21.160  -5.123  1.00  0.00     0.039 C 
ATOM     16  C   UNL     1       9.540  19.908  -3.399  1.00  0.00     0.039 C 
BRANCH  13  17
ATOM     17  C   UNL     1      11.222  20.945  -1.217  1.00  0.00     0.066 CG0
ATOM     18  G   UNL     1      10.587  22.171  -0.605  1.00  0.00     0.000 G0
ENDBRANCH  13  17
ENDBRANCH  11  13
ENDBRANCH  10  11
ENDBRANCH   1  10
TORSDOF 0
ENDMDL
MODEL 7
REMARK VINA RESULT:    -2.933      1.814      3.779
REMARK INTER + INTRA:          -2.073
REMARK INTER:                  -4.364
REMARK INTRA:                   2.291
REMARK UNBOUND:                 2.061
REMARK SMILES CC1=CCC(=C(C)C)C(=O)CC(C)=CCC1
REMARK SMILES IDX 12 1 14 2 13 3 15 4 16 5 2 6 1 7 3 8 11 10 9 11 10 12 5 13
REMARK SMILES IDX 6 14 7 15 8 16 4 17
REMARK H PARENT
REMARK Flexibility Score: 60.00
ROOT
ATOM      1  C   UNL     1      11.627  23.962  -3.115  1.00  0.00    -0.070 C 
ATOM      2  C   UNL     1      12.067  23.176  -4.126  1.00  0.00    -0.027 C 
ATOM      3  C   UNL     1      12.253  25.328  -2.974  1.00  0.00     0.039 C 
ENDROOT
BRANCH   2   4
ATOM      4  C   UNL     1      11.659  21.746  -4.387  1.00  0.00     0.032 C 
BRANCH   4   5
ATOM      5  C   UNL     1      12.077  20.793  -3.250  1.00  0.00     0.034 C 
BRANCH   5   6
ATOM      6  C   UNL     1      10.914  20.435  -2.347  1.00  0.00    -0.077 C 
ATOM      7  C   UNL     1       9.657  19.892  -2.979  1.00  0.00     0.039 C 
ATOM      8  C   UNL     1      10.947  20.547  -1.000  1.00  0.00    -0.023 CG0
ATOM      9  G   UNL     1      12.121  21.033  -0.183  1.00  0.00     0.000 G0
ENDBRANCH   5   6
ENDBRANCH   4   5
ENDBRANCH   2   4
BRANCH   1  10
ATOM     10  C   UNL     1      10.597  23.521  -2.088  1.00  0.00     0.111 C 
BRANCH  10  11
ATOM     11  C   UNL     1      11.209  23.381  -0.716  1.00  0.00     0.163 C 
ATOM     12  O   UNL     1      10.665  23.995   0.242  1.00  0.00    -0.294 OA
BRANCH  11  13
ATOM     13  C   UNL     1      12.393  22.502  -0.462  1.00  0.00    -0.002 C 
ATOM     14  C   UNL     1      13.673  22.976  -0.553  1.00  0.00    -0.069 C 
ATOM     15  C   UNL     1      13.963  24.396  -0.986  1.00  0.00     0.039 C 
ATOM     16  C   UNL     1      14.865  22.091  -0.257  1.00  0.00     0.039 C 
BRANCH  13  17
ATOM     17  C   UNL     1      12.117  21.038  -0.172  1.00  0.00     0.066 CG0
ATOM     18  G   UNL     1      10.944  20.565  -0.997  1.00  0.00     0.000 G0
ENDBRANCH  13  17
ENDBRANCH  11  13
ENDBRANCH  10  11
ENDBRANCH   1  10
TORSDOF 0
ENDMDL
MODEL 8
REMARK VINA RESULT:    -2.814      1.615      3.891
REMARK INTER + INTRA:          -1.904
REMARK INTER:                  -3.389
REMARK INTRA:                   1.485
REMARK UNBOUND:                 2.061
REMARK SMILES CC1=CCC(=C(C)C)C(=O)CC(C)=CCC1
REMARK SMILES IDX 12 1 14 2 13 3 15 4 16 5 2 6 1 7 3 8 11 10 9 11 10 12 5 13
REMARK SMILES IDX 6 14 7 15 8 16 4 17
REMARK H PARENT
REMARK Flexibility Score: 60.00
ROOT
ATOM      1  C   UNL     1      13.877  24.250  -1.341  1.00  0.00    -0.070 C 
ATOM      2  C   UNL     1      14.189  23.361  -0.369  1.00  0.00    -0.027 C 
ATOM      3  C   UNL     1      14.025  25.716  -1.015  1.00  0.00     0.039 C 
ENDROOT
BRANCH   2   4
ATOM      4  C   UNL     1      14.017  21.863  -0.439  1.00  0.00     0.032 C 
BRANCH   4   5
ATOM      5  C   UNL     1      12.593  21.412  -0.062  1.00  0.00     0.034 C 
BRANCH   5   6
ATOM      6  C   UNL     1      11.764  22.547   0.507  1.00  0.00    -0.077 C 
ATOM      7  C   UNL     1      12.230  23.204   1.782  1.00  0.00     0.039 C 
ATOM      8  C   UNL     1      10.643  23.024  -0.079  1.00  0.00    -0.023 CG0
ATOM      9  G   UNL     1      10.041  22.525  -1.370  1.00  0.00     0.000 G0
ENDBRANCH   5   6
ENDBRANCH   4   5
ENDBRANCH   2   4
BRANCH   1  10
ATOM     10  C   UNL     1      13.326  23.855  -2.701  1.00  0.00     0.111 C 
BRANCH  10  11
ATOM     11  C   UNL     1      11.818  23.816  -2.699  1.00  0.00     0.163 C 
ATOM     12  O   UNL     1      11.196  24.888  -2.927  1.00  0.00    -0.294 OA
BRANCH  11  13
ATOM     13  C   UNL     1      11.060  22.543  -2.489  1.00  0.00    -0.002 C 
ATOM     14  C   UNL     1      11.237  21.457  -3.302  1.00  0.00    -0.069 C 
ATOM     15  C   UNL     1      12.155  21.508  -4.503  1.00  0.00     0.039 C 
ATOM     16  C   UNL     1      10.494  20.161  -3.059  1.00  0.00     0.039 C 
BRANCH  13  17
ATOM     17  C   UNL     1      10.027  22.531  -1.376  1.00  0.00     0.066 CG0
ATOM     18  G   UNL     1      10.647  23.038  -0.096  1.00  0.00     0.000 G0
ENDBRANCH  13  17
ENDBRANCH  11  13
ENDBRANCH  10  11
ENDBRANCH   1  10
TORSDOF 0
ENDMDL
MODEL 9
REMARK VINA RESULT:    -2.421      1.962      4.609
REMARK INTER + INTRA:          -1.351
REMARK INTER:                  -3.531
REMARK INTRA:                   2.180
REMARK UNBOUND:                 2.061
REMARK SMILES CC1=CCC(=C(C)C)C(=O)CC(C)=CCC1
REMARK SMILES IDX 12 1 14 2 13 3 15 4 16 5 2 6 1 7 3 8 11 10 9 11 10 12 5 13
REMARK SMILES IDX 6 14 7 15 8 16 4 17
REMARK H PARENT
REMARK Flexibility Score: 60.00
ROOT
ATOM      1  C   UNL     1      13.422  24.398  -2.053  1.00  0.00    -0.070 C 
ATOM      2  C   UNL     1      12.593  24.671  -3.088  1.00  0.00    -0.027 C 
ATOM      3  C   UNL     1      14.020  25.570  -1.314  1.00  0.00     0.039 C 
ENDROOT
BRANCH   2   4
ATOM      4  C   UNL     1      11.972  23.663  -4.025  1.00  0.00     0.032 C 
BRANCH   4   5
ATOM      5  C   UNL     1      12.392  22.216  -3.701  1.00  0.00     0.034 C 
BRANCH   5   6
ATOM      6  C   UNL     1      11.225  21.251  -3.779  1.00  0.00    -0.077 C 
ATOM      7  C   UNL     1      10.551  21.048  -5.112  1.00  0.00     0.039 C 
ATOM      8  C   UNL     1      10.770  20.538  -2.724  1.00  0.00    -0.023 CG0
ATOM      9  G   UNL     1      11.333  20.575  -1.324  1.00  0.00     0.000 G0
ENDBRANCH   5   6
ENDBRANCH   4   5
ENDBRANCH   2   4
BRANCH   1  10
ATOM     10  C   UNL     1      13.830  22.992  -1.645  1.00  0.00     0.111 C 
BRANCH  10  11
ATOM     11  C   UNL     1      12.927  22.443  -0.569  1.00  0.00     0.163 C 
ATOM     12  O   UNL     1      13.366  22.403   0.612  1.00  0.00    -0.294 OA
BRANCH  11  13
ATOM     13  C   UNL     1      11.526  22.002  -0.859  1.00  0.00    -0.002 C 
ATOM     14  C   UNL     1      10.456  22.831  -0.663  1.00  0.00    -0.069 C 
ATOM     15  C   UNL     1      10.623  24.213  -0.071  1.00  0.00     0.039 C 
ATOM     16  C   UNL     1       9.046  22.391  -0.995  1.00  0.00     0.039 C 
BRANCH  13  17
ATOM     17  C   UNL     1      11.335  20.566  -1.313  1.00  0.00     0.066 CG0
ATOM     18  G   UNL     1      10.759  20.543  -2.709  1.00  0.00     0.000 G0
ENDBRANCH  13  17
ENDBRANCH  11  13
ENDBRANCH  10  11
ENDBRANCH   1  10
TORSDOF 0
ENDMDL
