MODEL 1
REMARK VINA RESULT:    -4.362      0.000      0.000
REMARK INTER + INTRA:         -13.684
REMARK INTER:                  -9.463
REMARK INTRA:                  -4.221
REMARK UNBOUND:                -4.221
REMARK SMILES CCCCCCCCCCCCCCCCCCCCCC(=O)[O-]
REMARK SMILES IDX 12 1 11 2 10 3 9 4 8 5 7 6 6 7 5 8 4 9 3 10 2 11 1 12 13 13
REMARK SMILES IDX 14 14 15 15 16 16 17 17 18 18 19 19 20 20 21 21 22 22 23 23
REMARK SMILES IDX 24 24
REMARK H PARENT
REMARK Flexibility Score: inf
ROOT
ATOM      1  C   UNL     1      39.353  63.431   7.256  1.00  0.00     0.000 C 
ENDROOT
BRANCH   1   2
ATOM      2  C   UNL     1      40.402  64.510   6.931  1.00  0.00     0.000 C 
BRANCH   2   3
ATOM      3  C   UNL     1      40.885  64.450   5.474  1.00  0.00     0.000 C 
BRANCH   3   4
ATOM      4  C   UNL     1      42.420  64.381   5.414  1.00  0.00    -0.000 C 
BRANCH   4   5
ATOM      5  C   UNL     1      42.935  62.990   5.014  1.00  0.00    -0.000 C 
BRANCH   5   6
ATOM      6  C   UNL     1      41.831  62.091   4.438  1.00  0.00    -0.000 C 
BRANCH   6   7
ATOM      7  C   UNL     1      42.276  60.623   4.410  1.00  0.00    -0.000 C 
BRANCH   7   8
ATOM      8  C   UNL     1      41.078  59.680   4.562  1.00  0.00    -0.000 C 
BRANCH   8   9
ATOM      9  C   UNL     1      39.784  60.466   4.817  1.00  0.00    -0.000 C 
BRANCH   9  10
ATOM     10  C   UNL     1      38.671  59.595   5.423  1.00  0.00    -0.000 C 
BRANCH  10  11
ATOM     11  C   UNL     1      39.009  58.098   5.394  1.00  0.00    -0.003 C 
ATOM     12  C   UNL     1      37.791  57.252   5.754  1.00  0.00     0.004 C 
ENDBRANCH  10  11
ENDBRANCH   9  10
ENDBRANCH   8   9
ENDBRANCH   7   8
ENDBRANCH   6   7
ENDBRANCH   5   6
ENDBRANCH   4   5
ENDBRANCH   3   4
ENDBRANCH   2   3
ENDBRANCH   1   2
BRANCH   1  13
ATOM     13  C   UNL     1      39.812  62.359   8.264  1.00  0.00     0.000 C 
BRANCH  13  14
ATOM     14  C   UNL     1      41.316  62.019   8.223  1.00  0.00     0.000 C 
BRANCH  14  15
ATOM     15  C   UNL     1      41.637  60.519   8.098  1.00  0.00     0.000 C 
BRANCH  15  16
ATOM     16  C   UNL     1      40.476  59.621   8.561  1.00  0.00     0.000 C 
BRANCH  16  17
ATOM     17  C   UNL     1      40.885  58.143   8.661  1.00  0.00     0.000 C 
BRANCH  17  18
ATOM     18  C   UNL     1      41.951  57.757   7.620  1.00  0.00     0.000 C 
BRANCH  18  19
ATOM     19  C   UNL     1      41.943  56.255   7.295  1.00  0.00     0.000 C 
BRANCH  19  20
ATOM     20  C   UNL     1      41.789  55.978   5.789  1.00  0.00     0.006 C 
BRANCH  20  21
ATOM     21  C   UNL     1      43.135  55.682   5.113  1.00  0.00     0.053 C 
BRANCH  21  22
ATOM     22  C   UNL     1      43.658  56.871   4.368  1.00  0.00     0.041 C 
ATOM     23  O   UNL     1      44.420  57.693   4.945  1.00  0.00    -0.550 OA
ATOM     24  O   UNL     1      43.284  57.089   3.052  1.00  0.00    -0.550 OA
ENDBRANCH  21  22
ENDBRANCH  20  21
ENDBRANCH  19  20
ENDBRANCH  18  19
ENDBRANCH  17  18
ENDBRANCH  16  17
ENDBRANCH  15  16
ENDBRANCH  14  15
ENDBRANCH  13  14
ENDBRANCH   1  13
TORSDOF 20
ENDMDL
MODEL 2
REMARK VINA RESULT:    -4.355      3.581      6.542
REMARK INTER + INTRA:         -13.668
REMARK INTER:                 -11.438
REMARK INTRA:                  -2.231
REMARK UNBOUND:                -4.221
REMARK SMILES CCCCCCCCCCCCCCCCCCCCCC(=O)[O-]
REMARK SMILES IDX 12 1 11 2 10 3 9 4 8 5 7 6 6 7 5 8 4 9 3 10 2 11 1 12 13 13
REMARK SMILES IDX 14 14 15 15 16 16 17 17 18 18 19 19 20 20 21 21 22 22 23 23
REMARK SMILES IDX 24 24
REMARK H PARENT
REMARK Flexibility Score: inf
ROOT
ATOM      1  C   UNL     1      40.097  65.121   5.850  1.00  0.00     0.000 C 
ENDROOT
BRANCH   1   2
ATOM      2  C   UNL     1      41.038  64.174   5.084  1.00  0.00     0.000 C 
BRANCH   2   3
ATOM      3  C   UNL     1      42.522  64.441   5.380  1.00  0.00     0.000 C 
BRANCH   3   4
ATOM      4  C   UNL     1      42.690  65.740   6.183  1.00  0.00    -0.000 C 
BRANCH   4   5
ATOM      5  C   UNL     1      43.863  66.598   5.685  1.00  0.00    -0.000 C 
BRANCH   5   6
ATOM      6  C   UNL     1      44.608  65.956   4.505  1.00  0.00    -0.000 C 
BRANCH   6   7
ATOM      7  C   UNL     1      45.738  66.867   4.008  1.00  0.00    -0.000 C 
BRANCH   7   8
ATOM      8  C   UNL     1      45.963  68.041   4.968  1.00  0.00    -0.000 C 
BRANCH   8   9
ATOM      9  C   UNL     1      45.949  69.381   4.216  1.00  0.00    -0.000 C 
BRANCH   9  10
ATOM     10  C   UNL     1      45.675  69.213   2.712  1.00  0.00    -0.000 C 
BRANCH  10  11
ATOM     11  C   UNL     1      44.490  70.062   2.230  1.00  0.00    -0.003 C 
ATOM     12  C   UNL     1      43.587  69.263   1.293  1.00  0.00     0.004 C 
ENDBRANCH  10  11
ENDBRANCH   9  10
ENDBRANCH   8   9
ENDBRANCH   7   8
ENDBRANCH   6   7
ENDBRANCH   5   6
ENDBRANCH   4   5
ENDBRANCH   3   4
ENDBRANCH   2   3
ENDBRANCH   1   2
BRANCH   1  13
ATOM     13  C   UNL     1      39.141  64.427   6.841  1.00  0.00     0.000 C 
BRANCH  13  14
ATOM     14  C   UNL     1      39.612  64.415   8.310  1.00  0.00     0.000 C 
BRANCH  14  15
ATOM     15  C   UNL     1      40.851  63.545   8.586  1.00  0.00     0.000 C 
BRANCH  15  16
ATOM     16  C   UNL     1      40.579  62.043   8.385  1.00  0.00     0.000 C 
BRANCH  16  17
ATOM     17  C   UNL     1      41.532  61.409   7.359  1.00  0.00     0.000 C 
BRANCH  17  18
ATOM     18  C   UNL     1      42.434  60.331   7.984  1.00  0.00     0.000 C 
BRANCH  18  19
ATOM     19  C   UNL     1      42.226  58.946   7.350  1.00  0.00     0.000 C 
BRANCH  19  20
ATOM     20  C   UNL     1      41.628  57.929   8.338  1.00  0.00     0.006 C 
BRANCH  20  21
ATOM     21  C   UNL     1      40.096  57.999   8.386  1.00  0.00     0.053 C 
BRANCH  21  22
ATOM     22  C   UNL     1      39.503  58.178   7.022  1.00  0.00     0.041 C 
ATOM     23  O   UNL     1      39.676  57.298   6.137  1.00  0.00    -0.550 OA
ATOM     24  O   UNL     1      38.788  59.326   6.717  1.00  0.00    -0.550 OA
ENDBRANCH  21  22
ENDBRANCH  20  21
ENDBRANCH  19  20
ENDBRANCH  18  19
ENDBRANCH  17  18
ENDBRANCH  16  17
ENDBRANCH  15  16
ENDBRANCH  14  15
ENDBRANCH  13  14
ENDBRANCH   1  13
TORSDOF 20
ENDMDL
MODEL 3
REMARK VINA RESULT:    -4.300      2.225      4.367
REMARK INTER + INTRA:         -13.549
REMARK INTER:                 -10.058
REMARK INTRA:                  -3.491
REMARK UNBOUND:                -4.221
REMARK SMILES CCCCCCCCCCCCCCCCCCCCCC(=O)[O-]
REMARK SMILES IDX 12 1 11 2 10 3 9 4 8 5 7 6 6 7 5 8 4 9 3 10 2 11 1 12 13 13
REMARK SMILES IDX 14 14 15 15 16 16 17 17 18 18 19 19 20 20 21 21 22 22 23 23
REMARK SMILES IDX 24 24
REMARK H PARENT
REMARK Flexibility Score: inf
ROOT
ATOM      1  C   UNL     1      40.129  65.262   5.782  1.00  0.00     0.000 C 
ENDROOT
BRANCH   1   2
ATOM      2  C   UNL     1      38.902  64.799   6.588  1.00  0.00     0.000 C 
BRANCH   2   3
ATOM      3  C   UNL     1      39.025  65.104   8.089  1.00  0.00     0.000 C 
BRANCH   3   4
ATOM      4  C   UNL     1      39.365  63.828   8.875  1.00  0.00    -0.000 C 
BRANCH   4   5
ATOM      5  C   UNL     1      40.836  63.412   8.725  1.00  0.00    -0.000 C 
BRANCH   5   6
ATOM      6  C   UNL     1      41.003  61.907   8.464  1.00  0.00    -0.000 C 
BRANCH   6   7
ATOM      7  C   UNL     1      39.716  61.304   7.887  1.00  0.00    -0.000 C 
BRANCH   7   8
ATOM      8  C   UNL     1      39.858  59.791   7.685  1.00  0.00    -0.000 C 
BRANCH   8   9
ATOM      9  C   UNL     1      41.232  59.296   8.159  1.00  0.00    -0.000 C 
BRANCH   9  10
ATOM     10  C   UNL     1      41.199  57.841   8.655  1.00  0.00    -0.000 C 
BRANCH  10  11
ATOM     11  C   UNL     1      41.554  56.833   7.553  1.00  0.00    -0.003 C 
ATOM     12  C   UNL     1      42.892  57.176   6.903  1.00  0.00     0.004 C 
ENDBRANCH  10  11
ENDBRANCH   9  10
ENDBRANCH   8   9
ENDBRANCH   7   8
ENDBRANCH   6   7
ENDBRANCH   5   6
ENDBRANCH   4   5
ENDBRANCH   3   4
ENDBRANCH   2   3
ENDBRANCH   1   2
BRANCH   1  13
ATOM     13  C   UNL     1      40.891  64.136   5.054  1.00  0.00     0.000 C 
BRANCH  13  14
ATOM     14  C   UNL     1      42.398  64.050   5.374  1.00  0.00     0.000 C 
BRANCH  14  15
ATOM     15  C   UNL     1      43.112  62.813   4.799  1.00  0.00     0.000 C 
BRANCH  15  16
ATOM     16  C   UNL     1      42.763  61.519   5.555  1.00  0.00     0.000 C 
BRANCH  16  17
ATOM     17  C   UNL     1      42.132  60.459   4.639  1.00  0.00     0.000 C 
BRANCH  17  18
ATOM     18  C   UNL     1      40.703  60.831   4.208  1.00  0.00     0.000 C 
BRANCH  18  19
ATOM     19  C   UNL     1      39.881  59.610   3.766  1.00  0.00     0.000 C 
BRANCH  19  20
ATOM     20  C   UNL     1      40.408  58.295   4.368  1.00  0.00     0.006 C 
BRANCH  20  21
ATOM     21  C   UNL     1      39.509  57.099   4.026  1.00  0.00     0.053 C 
BRANCH  21  22
ATOM     22  C   UNL     1      38.127  57.265   4.581  1.00  0.00     0.041 C 
ATOM     23  O   UNL     1      37.964  57.545   5.799  1.00  0.00    -0.550 OA
ATOM     24  O   UNL     1      37.022  57.082   3.765  1.00  0.00    -0.550 OA
ENDBRANCH  21  22
ENDBRANCH  20  21
ENDBRANCH  19  20
ENDBRANCH  18  19
ENDBRANCH  17  18
ENDBRANCH  16  17
ENDBRANCH  15  16
ENDBRANCH  14  15
ENDBRANCH  13  14
ENDBRANCH   1  13
TORSDOF 20
ENDMDL
MODEL 4
REMARK VINA RESULT:    -4.289      2.342      5.482
REMARK INTER + INTRA:         -13.524
REMARK INTER:                  -9.594
REMARK INTRA:                  -3.930
REMARK UNBOUND:                -4.221
REMARK SMILES CCCCCCCCCCCCCCCCCCCCCC(=O)[O-]
REMARK SMILES IDX 12 1 11 2 10 3 9 4 8 5 7 6 6 7 5 8 4 9 3 10 2 11 1 12 13 13
REMARK SMILES IDX 14 14 15 15 16 16 17 17 18 18 19 19 20 20 21 21 22 22 23 23
REMARK SMILES IDX 24 24
REMARK H PARENT
REMARK Flexibility Score: inf
ROOT
ATOM      1  C   UNL     1      40.328  58.067   6.787  1.00  0.00     0.000 C 
ENDROOT
BRANCH   1   2
ATOM      2  C   UNL     1      40.588  59.553   6.480  1.00  0.00     0.000 C 
BRANCH   2   3
ATOM      3  C   UNL     1      41.848  60.093   7.174  1.00  0.00     0.000 C 
BRANCH   3   4
ATOM      4  C   UNL     1      41.479  61.172   8.204  1.00  0.00    -0.000 C 
BRANCH   4   5
ATOM      5  C   UNL     1      39.977  61.497   8.211  1.00  0.00    -0.000 C 
BRANCH   5   6
ATOM      6  C   UNL     1      39.693  62.984   8.470  1.00  0.00    -0.000 C 
BRANCH   6   7
ATOM      7  C   UNL     1      40.998  63.766   8.667  1.00  0.00    -0.000 C 
BRANCH   7   8
ATOM      8  C   UNL     1      41.109  64.917   7.661  1.00  0.00    -0.000 C 
BRANCH   8   9
ATOM      9  C   UNL     1      41.970  64.516   6.454  1.00  0.00    -0.000 C 
BRANCH   9  10
ATOM     10  C   UNL     1      41.129  64.050   5.255  1.00  0.00    -0.000 C 
BRANCH  10  11
ATOM     11  C   UNL     1      41.661  62.754   4.627  1.00  0.00    -0.003 C 
ATOM     12  C   UNL     1      43.156  62.592   4.883  1.00  0.00     0.004 C 
ENDBRANCH  10  11
ENDBRANCH   9  10
ENDBRANCH   8   9
ENDBRANCH   7   8
ENDBRANCH   6   7
ENDBRANCH   5   6
ENDBRANCH   4   5
ENDBRANCH   3   4
ENDBRANCH   2   3
ENDBRANCH   1   2
BRANCH   1  13
ATOM     13  C   UNL     1      41.346  57.412   7.742  1.00  0.00     0.000 C 
BRANCH  13  14
ATOM     14  C   UNL     1      42.014  56.127   7.211  1.00  0.00     0.000 C 
BRANCH  14  15
ATOM     15  C   UNL     1      42.593  56.238   5.790  1.00  0.00     0.000 C 
BRANCH  15  16
ATOM     16  C   UNL     1      43.872  57.092   5.733  1.00  0.00     0.000 C 
BRANCH  16  17
ATOM     17  C   UNL     1      43.740  58.279   4.765  1.00  0.00     0.000 C 
BRANCH  17  18
ATOM     18  C   UNL     1      42.656  58.048   3.698  1.00  0.00     0.000 C 
BRANCH  18  19
ATOM     19  C   UNL     1      42.133  59.360   3.092  1.00  0.00     0.000 C 
BRANCH  19  20
ATOM     20  C   UNL     1      40.761  59.192   2.415  1.00  0.00     0.006 C 
BRANCH  20  21
ATOM     21  C   UNL     1      39.801  60.339   2.757  1.00  0.00     0.053 C 
BRANCH  21  22
ATOM     22  C   UNL     1      38.378  59.874   2.820  1.00  0.00     0.041 C 
ATOM     23  O   UNL     1      37.735  59.661   1.758  1.00  0.00    -0.550 OA
ATOM     24  O   UNL     1      37.753  59.706   4.046  1.00  0.00    -0.550 OA
ENDBRANCH  21  22
ENDBRANCH  20  21
ENDBRANCH  19  20
ENDBRANCH  18  19
ENDBRANCH  17  18
ENDBRANCH  16  17
ENDBRANCH  15  16
ENDBRANCH  14  15
ENDBRANCH  13  14
ENDBRANCH   1  13
TORSDOF 20
ENDMDL
MODEL 5
REMARK VINA RESULT:    -4.259      2.122      4.854
REMARK INTER + INTRA:         -13.460
REMARK INTER:                  -9.770
REMARK INTRA:                  -3.690
REMARK UNBOUND:                -4.221
REMARK SMILES CCCCCCCCCCCCCCCCCCCCCC(=O)[O-]
REMARK SMILES IDX 12 1 11 2 10 3 9 4 8 5 7 6 6 7 5 8 4 9 3 10 2 11 1 12 13 13
REMARK SMILES IDX 14 14 15 15 16 16 17 17 18 18 19 19 20 20 21 21 22 22 23 23
REMARK SMILES IDX 24 24
REMARK H PARENT
REMARK Flexibility Score: inf
ROOT
ATOM      1  C   UNL     1      39.175  58.787   5.494  1.00  0.00     0.000 C 
ENDROOT
BRANCH   1   2
ATOM      2  C   UNL     1      40.349  59.724   5.160  1.00  0.00     0.000 C 
BRANCH   2   3
ATOM      3  C   UNL     1      40.285  61.055   5.926  1.00  0.00     0.000 C 
BRANCH   3   4
ATOM      4  C   UNL     1      41.580  61.286   6.720  1.00  0.00    -0.000 C 
BRANCH   4   5
ATOM      5  C   UNL     1      41.328  61.929   8.093  1.00  0.00    -0.000 C 
BRANCH   5   6
ATOM      6  C   UNL     1      39.838  61.964   8.466  1.00  0.00    -0.000 C 
BRANCH   6   7
ATOM      7  C   UNL     1      39.383  63.396   8.776  1.00  0.00    -0.000 C 
BRANCH   7   8
ATOM      8  C   UNL     1      40.281  64.423   8.077  1.00  0.00    -0.000 C 
BRANCH   8   9
ATOM      9  C   UNL     1      39.625  64.947   6.791  1.00  0.00    -0.000 C 
BRANCH   9  10
ATOM     10  C   UNL     1      40.652  65.280   5.696  1.00  0.00    -0.000 C 
BRANCH  10  11
ATOM     11  C   UNL     1      42.092  64.955   6.117  1.00  0.00    -0.003 C 
ATOM     12  C   UNL     1      42.935  66.223   6.221  1.00  0.00     0.004 C 
ENDBRANCH  10  11
ENDBRANCH   9  10
ENDBRANCH   8   9
ENDBRANCH   7   8
ENDBRANCH   6   7
ENDBRANCH   5   6
ENDBRANCH   4   5
ENDBRANCH   3   4
ENDBRANCH   2   3
ENDBRANCH   1   2
BRANCH   1  13
ATOM     13  C   UNL     1      38.481  59.067   6.843  1.00  0.00     0.000 C 
BRANCH  13  14
ATOM     14  C   UNL     1      38.850  58.099   7.986  1.00  0.00     0.000 C 
BRANCH  14  15
ATOM     15  C   UNL     1      40.208  58.376   8.655  1.00  0.00     0.000 C 
BRANCH  15  16
ATOM     16  C   UNL     1      41.253  57.287   8.354  1.00  0.00     0.000 C 
BRANCH  16  17
ATOM     17  C   UNL     1      42.475  57.841   7.604  1.00  0.00     0.000 C 
BRANCH  17  18
ATOM     18  C   UNL     1      42.840  56.997   6.371  1.00  0.00     0.000 C 
BRANCH  18  19
ATOM     19  C   UNL     1      41.886  55.809   6.164  1.00  0.00     0.000 C 
BRANCH  19  20
ATOM     20  C   UNL     1      41.315  55.754   4.736  1.00  0.00     0.006 C 
BRANCH  20  21
ATOM     21  C   UNL     1      40.197  54.712   4.598  1.00  0.00     0.053 C 
BRANCH  21  22
ATOM     22  C   UNL     1      38.916  55.328   4.125  1.00  0.00     0.041 C 
ATOM     23  O   UNL     1      38.009  55.614   4.952  1.00  0.00    -0.550 OA
ATOM     24  O   UNL     1      38.710  55.558   2.774  1.00  0.00    -0.550 OA
ENDBRANCH  21  22
ENDBRANCH  20  21
ENDBRANCH  19  20
ENDBRANCH  18  19
ENDBRANCH  17  18
ENDBRANCH  16  17
ENDBRANCH  15  16
ENDBRANCH  14  15
ENDBRANCH  13  14
ENDBRANCH   1  13
TORSDOF 20
ENDMDL
MODEL 6
REMARK VINA RESULT:    -4.224      2.752      6.173
REMARK INTER + INTRA:         -13.383
REMARK INTER:                  -9.923
REMARK INTRA:                  -3.461
REMARK UNBOUND:                -4.221
REMARK SMILES CCCCCCCCCCCCCCCCCCCCCC(=O)[O-]
REMARK SMILES IDX 12 1 11 2 10 3 9 4 8 5 7 6 6 7 5 8 4 9 3 10 2 11 1 12 13 13
REMARK SMILES IDX 14 14 15 15 16 16 17 17 18 18 19 19 20 20 21 21 22 22 23 23
REMARK SMILES IDX 24 24
REMARK H PARENT
REMARK Flexibility Score: inf
ROOT
ATOM      1  C   UNL     1      42.096  61.482   6.034  1.00  0.00     0.000 C 
ENDROOT
BRANCH   1   2
ATOM      2  C   UNL     1      41.553  60.554   4.933  1.00  0.00     0.000 C 
BRANCH   2   3
ATOM      3  C   UNL     1      40.117  60.903   4.513  1.00  0.00     0.000 C 
BRANCH   3   4
ATOM      4  C   UNL     1      39.211  59.665   4.596  1.00  0.00    -0.000 C 
BRANCH   4   5
ATOM      5  C   UNL     1      38.523  59.522   5.963  1.00  0.00    -0.000 C 
BRANCH   5   6
ATOM      6  C   UNL     1      38.812  58.171   6.634  1.00  0.00    -0.000 C 
BRANCH   6   7
ATOM      7  C   UNL     1      39.241  58.364   8.094  1.00  0.00    -0.000 C 
BRANCH   7   8
ATOM      8  C   UNL     1      40.615  57.735   8.354  1.00  0.00    -0.000 C 
BRANCH   8   9
ATOM      9  C   UNL     1      41.325  57.396   7.035  1.00  0.00    -0.000 C 
BRANCH   9  10
ATOM     10  C   UNL     1      42.857  57.461   7.154  1.00  0.00    -0.000 C 
BRANCH  10  11
ATOM     11  C   UNL     1      43.571  56.682   6.040  1.00  0.00    -0.003 C 
ATOM     12  C   UNL     1      42.826  55.392   5.707  1.00  0.00     0.004 C 
ENDBRANCH  10  11
ENDBRANCH   9  10
ENDBRANCH   8   9
ENDBRANCH   7   8
ENDBRANCH   6   7
ENDBRANCH   5   6
ENDBRANCH   4   5
ENDBRANCH   3   4
ENDBRANCH   2   3
ENDBRANCH   1   2
BRANCH   1  13
ATOM     13  C   UNL     1      42.043  60.899   7.461  1.00  0.00     0.000 C 
BRANCH  13  14
ATOM     14  C   UNL     1      41.267  61.747   8.489  1.00  0.00     0.000 C 
BRANCH  14  15
ATOM     15  C   UNL     1      39.909  62.279   7.997  1.00  0.00     0.000 C 
BRANCH  15  16
ATOM     16  C   UNL     1      39.431  63.512   8.784  1.00  0.00     0.000 C 
BRANCH  16  17
ATOM     17  C   UNL     1      39.692  64.824   8.027  1.00  0.00     0.000 C 
BRANCH  17  18
ATOM     18  C   UNL     1      39.340  64.721   6.533  1.00  0.00     0.000 C 
BRANCH  18  19
ATOM     19  C   UNL     1      40.473  65.220   5.623  1.00  0.00     0.000 C 
BRANCH  19  20
ATOM     20  C   UNL     1      41.852  65.146   6.302  1.00  0.00     0.006 C 
BRANCH  20  21
ATOM     21  C   UNL     1      42.962  64.744   5.320  1.00  0.00     0.053 C 
BRANCH  21  22
ATOM     22  C   UNL     1      43.891  65.884   5.033  1.00  0.00     0.041 C 
ATOM     23  O   UNL     1      44.022  66.818   5.868  1.00  0.00    -0.550 OA
ATOM     24  O   UNL     1      44.587  65.930   3.835  1.00  0.00    -0.550 OA
ENDBRANCH  21  22
ENDBRANCH  20  21
ENDBRANCH  19  20
ENDBRANCH  18  19
ENDBRANCH  17  18
ENDBRANCH  16  17
ENDBRANCH  15  16
ENDBRANCH  14  15
ENDBRANCH  13  14
ENDBRANCH   1  13
TORSDOF 20
ENDMDL
MODEL 7
REMARK VINA RESULT:    -4.195      3.070      6.199
REMARK INTER + INTRA:         -13.321
REMARK INTER:                  -9.415
REMARK INTRA:                  -3.906
REMARK UNBOUND:                -4.221
REMARK SMILES CCCCCCCCCCCCCCCCCCCCCC(=O)[O-]
REMARK SMILES IDX 12 1 11 2 10 3 9 4 8 5 7 6 6 7 5 8 4 9 3 10 2 11 1 12 13 13
REMARK SMILES IDX 14 14 15 15 16 16 17 17 18 18 19 19 20 20 21 21 22 22 23 23
REMARK SMILES IDX 24 24
REMARK H PARENT
REMARK Flexibility Score: inf
ROOT
ATOM      1  C   UNL     1      38.936  59.821   4.008  1.00  0.00     0.000 C 
ENDROOT
BRANCH   1   2
ATOM      2  C   UNL     1      38.798  60.254   5.478  1.00  0.00     0.000 C 
BRANCH   2   3
ATOM      3  C   UNL     1      37.986  59.258   6.319  1.00  0.00     0.000 C 
BRANCH   3   4
ATOM      4  C   UNL     1      38.842  58.683   7.458  1.00  0.00    -0.000 C 
BRANCH   4   5
ATOM      5  C   UNL     1      40.137  58.027   6.954  1.00  0.00    -0.000 C 
BRANCH   5   6
ATOM      6  C   UNL     1      41.065  57.591   8.098  1.00  0.00    -0.000 C 
BRANCH   6   7
ATOM      7  C   UNL     1      41.952  56.415   7.668  1.00  0.00    -0.000 C 
BRANCH   7   8
ATOM      8  C   UNL     1      42.942  56.841   6.577  1.00  0.00    -0.000 C 
BRANCH   8   9
ATOM      9  C   UNL     1      42.975  55.820   5.431  1.00  0.00    -0.000 C 
BRANCH   9  10
ATOM     10  C   UNL     1      41.571  55.345   5.020  1.00  0.00    -0.000 C 
BRANCH  10  11
ATOM     11  C   UNL     1      40.978  56.175   3.872  1.00  0.00    -0.003 C 
ATOM     12  C   UNL     1      39.453  56.120   3.884  1.00  0.00     0.004 C 
ENDBRANCH  10  11
ENDBRANCH   9  10
ENDBRANCH   8   9
ENDBRANCH   7   8
ENDBRANCH   6   7
ENDBRANCH   5   6
ENDBRANCH   4   5
ENDBRANCH   3   4
ENDBRANCH   2   3
ENDBRANCH   1   2
BRANCH   1  13
ATOM     13  C   UNL     1      40.371  59.873   3.446  1.00  0.00     0.000 C 
BRANCH  13  14
ATOM     14  C   UNL     1      41.355  60.759   4.236  1.00  0.00     0.000 C 
BRANCH  14  15
ATOM     15  C   UNL     1      42.550  60.010   4.852  1.00  0.00     0.000 C 
BRANCH  15  16
ATOM     16  C   UNL     1      42.918  60.526   6.254  1.00  0.00     0.000 C 
BRANCH  16  17
ATOM     17  C   UNL     1      41.948  61.610   6.750  1.00  0.00     0.000 C 
BRANCH  17  18
ATOM     18  C   UNL     1      41.383  61.297   8.146  1.00  0.00     0.000 C 
BRANCH  18  19
ATOM     19  C   UNL     1      40.089  62.070   8.448  1.00  0.00     0.000 C 
BRANCH  19  20
ATOM     20  C   UNL     1      40.338  63.571   8.675  1.00  0.00     0.006 C 
BRANCH  20  21
ATOM     21  C   UNL     1      39.060  64.404   8.506  1.00  0.00     0.053 C 
BRANCH  21  22
ATOM     22  C   UNL     1      38.991  65.052   7.157  1.00  0.00     0.041 C 
ATOM     23  O   UNL     1      37.976  65.724   6.830  1.00  0.00    -0.550 OA
ATOM     24  O   UNL     1      40.028  64.890   6.252  1.00  0.00    -0.550 OA
ENDBRANCH  21  22
ENDBRANCH  20  21
ENDBRANCH  19  20
ENDBRANCH  18  19
ENDBRANCH  17  18
ENDBRANCH  16  17
ENDBRANCH  15  16
ENDBRANCH  14  15
ENDBRANCH  13  14
ENDBRANCH   1  13
TORSDOF 20
ENDMDL
MODEL 8
REMARK VINA RESULT:    -4.178      1.504      4.468
REMARK INTER + INTRA:         -13.285
REMARK INTER:                  -9.649
REMARK INTRA:                  -3.636
REMARK UNBOUND:                -4.221
REMARK SMILES CCCCCCCCCCCCCCCCCCCCCC(=O)[O-]
REMARK SMILES IDX 12 1 11 2 10 3 9 4 8 5 7 6 6 7 5 8 4 9 3 10 2 11 1 12 13 13
REMARK SMILES IDX 14 14 15 15 16 16 17 17 18 18 19 19 20 20 21 21 22 22 23 23
REMARK SMILES IDX 24 24
REMARK H PARENT
REMARK Flexibility Score: inf
ROOT
ATOM      1  C   UNL     1      39.366  62.261   7.840  1.00  0.00     0.000 C 
ENDROOT
BRANCH   1   2
ATOM      2  C   UNL     1      40.143  60.981   8.196  1.00  0.00     0.000 C 
BRANCH   2   3
ATOM      3  C   UNL     1      41.664  61.198   8.235  1.00  0.00     0.000 C 
BRANCH   3   4
ATOM      4  C   UNL     1      42.390  60.096   7.447  1.00  0.00    -0.000 C 
BRANCH   4   5
ATOM      5  C   UNL     1      42.116  58.691   8.003  1.00  0.00    -0.000 C 
BRANCH   5   6
ATOM      6  C   UNL     1      42.802  57.585   7.186  1.00  0.00    -0.000 C 
BRANCH   6   7
ATOM      7  C   UNL     1      42.001  56.279   7.248  1.00  0.00    -0.000 C 
BRANCH   7   8
ATOM      8  C   UNL     1      41.701  55.748   5.842  1.00  0.00    -0.000 C 
BRANCH   8   9
ATOM      9  C   UNL     1      41.455  56.900   4.856  1.00  0.00    -0.000 C 
BRANCH   9  10
ATOM     10  C   UNL     1      39.959  57.183   4.639  1.00  0.00    -0.000 C 
BRANCH  10  11
ATOM     11  C   UNL     1      39.477  58.429   5.396  1.00  0.00    -0.003 C 
ATOM     12  C   UNL     1      38.646  58.044   6.616  1.00  0.00     0.004 C 
ENDBRANCH  10  11
ENDBRANCH   9  10
ENDBRANCH   8   9
ENDBRANCH   7   8
ENDBRANCH   6   7
ENDBRANCH   5   6
ENDBRANCH   4   5
ENDBRANCH   3   4
ENDBRANCH   2   3
ENDBRANCH   1   2
BRANCH   1  13
ATOM     13  C   UNL     1      39.665  63.476   8.741  1.00  0.00     0.000 C 
BRANCH  13  14
ATOM     14  C   UNL     1      40.134  64.745   8.000  1.00  0.00     0.000 C 
BRANCH  14  15
ATOM     15  C   UNL     1      41.628  64.763   7.630  1.00  0.00     0.000 C 
BRANCH  15  16
ATOM     16  C   UNL     1      41.869  65.078   6.143  1.00  0.00     0.000 C 
BRANCH  16  17
ATOM     17  C   UNL     1      42.168  63.815   5.320  1.00  0.00     0.000 C 
BRANCH  17  18
ATOM     18  C   UNL     1      40.892  63.165   4.757  1.00  0.00     0.000 C 
BRANCH  18  19
ATOM     19  C   UNL     1      41.087  61.680   4.411  1.00  0.00     0.000 C 
BRANCH  19  20
ATOM     20  C   UNL     1      40.875  61.390   2.915  1.00  0.00     0.006 C 
BRANCH  20  21
ATOM     21  C   UNL     1      41.447  60.027   2.501  1.00  0.00     0.053 C 
BRANCH  21  22
ATOM     22  C   UNL     1      42.945  60.026   2.507  1.00  0.00     0.041 C 
ATOM     23  O   UNL     1      43.581  60.709   1.661  1.00  0.00    -0.550 OA
ATOM     24  O   UNL     1      43.638  59.250   3.423  1.00  0.00    -0.550 OA
ENDBRANCH  21  22
ENDBRANCH  20  21
ENDBRANCH  19  20
ENDBRANCH  18  19
ENDBRANCH  17  18
ENDBRANCH  16  17
ENDBRANCH  15  16
ENDBRANCH  14  15
ENDBRANCH  13  14
ENDBRANCH   1  13
TORSDOF 20
ENDMDL
MODEL 9
REMARK VINA RESULT:    -4.160      2.156      3.862
REMARK INTER + INTRA:         -13.246
REMARK INTER:                  -9.747
REMARK INTRA:                  -3.499
REMARK UNBOUND:                -4.221
REMARK SMILES CCCCCCCCCCCCCCCCCCCCCC(=O)[O-]
REMARK SMILES IDX 12 1 11 2 10 3 9 4 8 5 7 6 6 7 5 8 4 9 3 10 2 11 1 12 13 13
REMARK SMILES IDX 14 14 15 15 16 16 17 17 18 18 19 19 20 20 21 21 22 22 23 23
REMARK SMILES IDX 24 24
REMARK H PARENT
REMARK Flexibility Score: inf
ROOT
ATOM      1  C   UNL     1      40.318  60.992   8.398  1.00  0.00     0.000 C 
ENDROOT
BRANCH   1   2
ATOM      2  C   UNL     1      39.591  62.228   7.838  1.00  0.00     0.000 C 
BRANCH   2   3
ATOM      3  C   UNL     1      39.761  63.472   8.724  1.00  0.00     0.000 C 
BRANCH   3   4
ATOM      4  C   UNL     1      39.385  64.745   7.949  1.00  0.00    -0.000 C 
BRANCH   4   5
ATOM      5  C   UNL     1      40.161  64.888   6.631  1.00  0.00    -0.000 C 
BRANCH   5   6
ATOM      6  C   UNL     1      41.668  65.092   6.848  1.00  0.00    -0.000 C 
BRANCH   6   7
ATOM      7  C   UNL     1      42.471  64.577   5.646  1.00  0.00    -0.000 C 
BRANCH   7   8
ATOM      8  C   UNL     1      41.850  63.298   5.075  1.00  0.00    -0.000 C 
BRANCH   8   9
ATOM      9  C   UNL     1      42.498  62.047   5.687  1.00  0.00    -0.000 C 
BRANCH   9  10
ATOM     10  C   UNL     1      42.059  60.750   4.987  1.00  0.00    -0.000 C 
BRANCH  10  11
ATOM     11  C   UNL     1      40.862  60.960   4.049  1.00  0.00    -0.003 C 
ATOM     12  C   UNL     1      39.635  60.200   4.544  1.00  0.00     0.004 C 
ENDBRANCH  10  11
ENDBRANCH   9  10
ENDBRANCH   8   9
ENDBRANCH   7   8
ENDBRANCH   6   7
ENDBRANCH   5   6
ENDBRANCH   4   5
ENDBRANCH   3   4
ENDBRANCH   2   3
ENDBRANCH   1   2
BRANCH   1  13
ATOM     13  C   UNL     1      39.662  59.640   8.055  1.00  0.00     0.000 C 
BRANCH  13  14
ATOM     14  C   UNL     1      40.560  58.402   8.260  1.00  0.00     0.000 C 
BRANCH  14  15
ATOM     15  C   UNL     1      42.066  58.657   8.073  1.00  0.00     0.000 C 
BRANCH  15  16
ATOM     16  C   UNL     1      42.753  57.573   7.224  1.00  0.00     0.000 C 
BRANCH  16  17
ATOM     17  C   UNL     1      41.990  56.239   7.252  1.00  0.00     0.000 C 
BRANCH  17  18
ATOM     18  C   UNL     1      41.587  55.763   5.846  1.00  0.00     0.000 C 
BRANCH  18  19
ATOM     19  C   UNL     1      41.319  56.929   4.881  1.00  0.00     0.000 C 
BRANCH  19  20
ATOM     20  C   UNL     1      40.314  56.559   3.775  1.00  0.00     0.006 C 
BRANCH  20  21
ATOM     21  C   UNL     1      39.076  55.844   4.331  1.00  0.00     0.053 C 
BRANCH  21  22
ATOM     22  C   UNL     1      37.998  56.811   4.714  1.00  0.00     0.041 C 
ATOM     23  O   UNL     1      37.130  57.157   3.869  1.00  0.00    -0.550 OA
ATOM     24  O   UNL     1      37.968  57.352   5.990  1.00  0.00    -0.550 OA
ENDBRANCH  21  22
ENDBRANCH  20  21
ENDBRANCH  19  20
ENDBRANCH  18  19
ENDBRANCH  17  18
ENDBRANCH  16  17
ENDBRANCH  15  16
ENDBRANCH  14  15
ENDBRANCH  13  14
ENDBRANCH   1  13
TORSDOF 20
ENDMDL
