MODEL 1
REMARK VINA RESULT:    -3.570      0.000      0.000
REMARK INTER + INTRA:          -4.317
REMARK INTER:                  -4.197
REMARK INTRA:                  -0.121
REMARK UNBOUND:                -0.121
REMARK SMILES O=C([O-])CCC(=O)[O-]
REMARK SMILES IDX 4 1 2 2 1 3 3 4 5 5 6 6 7 7 8 8
REMARK H PARENT
REMARK Flexibility Score: inf
ROOT
ATOM      1  C   UNL     1      -4.744 -24.858   0.707  1.00  0.00     0.059 C 
ENDROOT
BRANCH   1   2
ATOM      2  C   UNL     1      -4.531 -23.618   1.520  1.00  0.00     0.042 C 
ATOM      3  O   UNL     1      -3.526 -22.888   1.313  1.00  0.00    -0.550 OA
ATOM      4  O   UNL     1      -5.464 -23.247   2.480  1.00  0.00    -0.550 OA
ENDBRANCH   1   2
BRANCH   1   5
ATOM      5  C   UNL     1      -3.779 -25.975   1.117  1.00  0.00     0.059 C 
BRANCH   5   6
ATOM      6  C   UNL     1      -2.662 -26.131   0.130  1.00  0.00     0.042 C 
ATOM      7  O   UNL     1      -1.724 -26.938   0.359  1.00  0.00    -0.550 OA
ATOM      8  O   UNL     1      -2.638 -25.355  -1.021  1.00  0.00    -0.550 OA
ENDBRANCH   5   6
ENDBRANCH   1   5
TORSDOF 3
ENDMDL
MODEL 2
REMARK VINA RESULT:    -3.569      0.081      3.872
REMARK INTER + INTRA:          -4.316
REMARK INTER:                  -4.196
REMARK INTRA:                  -0.120
REMARK UNBOUND:                -0.121
REMARK SMILES O=C([O-])CCC(=O)[O-]
REMARK SMILES IDX 4 1 2 2 1 3 3 4 5 5 6 6 7 7 8 8
REMARK H PARENT
REMARK Flexibility Score: inf
ROOT
ATOM      1  C   UNL     1      -3.704 -25.921   1.125  1.00  0.00     0.059 C 
ENDROOT
BRANCH   1   2
ATOM      2  C   UNL     1      -2.624 -26.107   0.103  1.00  0.00     0.042 C 
ATOM      3  O   UNL     1      -2.642 -25.444  -0.967  1.00  0.00    -0.550 OA
ATOM      4  O   UNL     1      -1.576 -26.984   0.351  1.00  0.00    -0.550 OA
ENDBRANCH   1   2
BRANCH   1   5
ATOM      5  C   UNL     1      -4.702 -24.840   0.701  1.00  0.00     0.059 C 
BRANCH   5   6
ATOM      6  C   UNL     1      -4.530 -23.584   1.500  1.00  0.00     0.042 C 
ATOM      7  O   UNL     1      -3.513 -22.861   1.331  1.00  0.00    -0.550 OA
ATOM      8  O   UNL     1      -5.472 -23.235   2.459  1.00  0.00    -0.550 OA
ENDBRANCH   5   6
ENDBRANCH   1   5
TORSDOF 3
ENDMDL
MODEL 3
REMARK VINA RESULT:    -3.494     11.941     12.731
REMARK INTER + INTRA:          -4.228
REMARK INTER:                  -4.197
REMARK INTRA:                  -0.030
REMARK UNBOUND:                -0.121
REMARK SMILES O=C([O-])CCC(=O)[O-]
REMARK SMILES IDX 4 1 2 2 1 3 3 4 5 5 6 6 7 7 8 8
REMARK H PARENT
REMARK Flexibility Score: inf
ROOT
ATOM      1  C   UNL     1       1.750 -19.101  -8.202  1.00  0.00     0.059 C 
ENDROOT
BRANCH   1   2
ATOM      2  C   UNL     1       0.731 -18.904  -9.283  1.00  0.00     0.042 C 
ATOM      3  O   UNL     1       0.451 -19.846 -10.070  1.00  0.00    -0.550 OA
ATOM      4  O   UNL     1       0.062 -17.692  -9.394  1.00  0.00    -0.550 OA
ENDBRANCH   1   2
BRANCH   1   5
ATOM      5  C   UNL     1       3.118 -19.477  -8.778  1.00  0.00     0.059 C 
BRANCH   5   6
ATOM      6  C   UNL     1       4.170 -19.537  -7.712  1.00  0.00     0.042 C 
ATOM      7  O   UNL     1       5.385 -19.407  -8.014  1.00  0.00    -0.550 OA
ATOM      8  O   UNL     1       3.810 -19.776  -6.392  1.00  0.00    -0.550 OA
ENDBRANCH   5   6
ENDBRANCH   1   5
TORSDOF 3
ENDMDL
MODEL 4
REMARK VINA RESULT:    -3.475      1.701      2.015
REMARK INTER + INTRA:          -4.205
REMARK INTER:                  -4.103
REMARK INTRA:                  -0.103
REMARK UNBOUND:                -0.121
REMARK SMILES O=C([O-])CCC(=O)[O-]
REMARK SMILES IDX 4 1 2 2 1 3 3 4 5 5 6 6 7 7 8 8
REMARK H PARENT
REMARK Flexibility Score: inf
ROOT
ATOM      1  C   UNL     1      -2.944 -23.599   0.601  1.00  0.00     0.059 C 
ENDROOT
BRANCH   1   2
ATOM      2  C   UNL     1      -4.374 -23.661   1.040  1.00  0.00     0.042 C 
ATOM      3  O   UNL     1      -4.863 -22.739   1.744  1.00  0.00    -0.550 OA
ATOM      4  O   UNL     1      -5.180 -24.720   0.637  1.00  0.00    -0.550 OA
ENDBRANCH   1   2
BRANCH   1   5
ATOM      5  C   UNL     1      -2.474 -24.934   0.016  1.00  0.00     0.059 C 
BRANCH   5   6
ATOM      6  C   UNL     1      -2.068 -24.798  -1.420  1.00  0.00     0.042 C 
ATOM      7  O   UNL     1      -1.021 -25.358  -1.837  1.00  0.00    -0.550 OA
ATOM      8  O   UNL     1      -2.824 -24.018  -2.286  1.00  0.00    -0.550 OA
ENDBRANCH   5   6
ENDBRANCH   1   5
TORSDOF 3
ENDMDL
MODEL 5
REMARK VINA RESULT:    -3.472      1.697      4.021
REMARK INTER + INTRA:          -4.201
REMARK INTER:                  -4.095
REMARK INTRA:                  -0.107
REMARK UNBOUND:                -0.121
REMARK SMILES O=C([O-])CCC(=O)[O-]
REMARK SMILES IDX 4 1 2 2 1 3 3 4 5 5 6 6 7 7 8 8
REMARK H PARENT
REMARK Flexibility Score: inf
ROOT
ATOM      1  C   UNL     1      -2.446 -24.890   0.041  1.00  0.00     0.059 C 
ENDROOT
BRANCH   1   2
ATOM      2  C   UNL     1      -2.062 -24.762  -1.402  1.00  0.00     0.042 C 
ATOM      3  O   UNL     1      -1.039 -25.350  -1.841  1.00  0.00    -0.550 OA
ATOM      4  O   UNL     1      -2.859 -24.027  -2.270  1.00  0.00    -0.550 OA
ENDBRANCH   1   2
BRANCH   1   5
ATOM      5  C   UNL     1      -2.943 -23.559   0.613  1.00  0.00     0.059 C 
BRANCH   5   6
ATOM      6  C   UNL     1      -4.374 -23.644   1.048  1.00  0.00     0.042 C 
ATOM      7  O   UNL     1      -4.852 -22.775   1.824  1.00  0.00    -0.550 OA
ATOM      8  O   UNL     1      -5.167 -24.705   0.631  1.00  0.00    -0.550 OA
ENDBRANCH   5   6
ENDBRANCH   1   5
TORSDOF 3
ENDMDL
MODEL 6
REMARK VINA RESULT:    -3.468      1.682      4.066
REMARK INTER + INTRA:          -4.197
REMARK INTER:                  -4.087
REMARK INTRA:                  -0.109
REMARK UNBOUND:                -0.121
REMARK SMILES O=C([O-])CCC(=O)[O-]
REMARK SMILES IDX 4 1 2 2 1 3 3 4 5 5 6 6 7 7 8 8
REMARK H PARENT
REMARK Flexibility Score: inf
ROOT
ATOM      1  C   UNL     1      -2.468 -24.910   0.067  1.00  0.00     0.059 C 
ENDROOT
BRANCH   1   2
ATOM      2  C   UNL     1      -2.076 -24.763  -1.372  1.00  0.00     0.042 C 
ATOM      3  O   UNL     1      -2.779 -24.071  -2.154  1.00  0.00    -0.550 OA
ATOM      4  O   UNL     1      -0.909 -25.356  -1.838  1.00  0.00    -0.550 OA
ENDBRANCH   1   2
BRANCH   1   5
ATOM      5  C   UNL     1      -3.080 -23.620   0.620  1.00  0.00     0.059 C 
BRANCH   5   6
ATOM      6  C   UNL     1      -4.488 -23.831   1.086  1.00  0.00     0.042 C 
ATOM      7  O   UNL     1      -4.960 -23.123   2.015  1.00  0.00    -0.550 OA
ATOM      8  O   UNL     1      -5.265 -24.836   0.524  1.00  0.00    -0.550 OA
ENDBRANCH   5   6
ENDBRANCH   1   5
TORSDOF 3
ENDMDL
MODEL 7
REMARK VINA RESULT:    -3.416      8.747      9.815
REMARK INTER + INTRA:          -4.136
REMARK INTER:                  -4.003
REMARK INTRA:                  -0.134
REMARK UNBOUND:                -0.121
REMARK SMILES O=C([O-])CCC(=O)[O-]
REMARK SMILES IDX 4 1 2 2 1 3 3 4 5 5 6 6 7 7 8 8
REMARK H PARENT
REMARK Flexibility Score: inf
ROOT
ATOM      1  C   UNL     1       4.021 -29.920   4.619  1.00  0.00     0.059 C 
ENDROOT
BRANCH   1   2
ATOM      2  C   UNL     1       3.340 -29.847   3.286  1.00  0.00     0.042 C 
ATOM      3  O   UNL     1       3.241 -28.747   2.683  1.00  0.00    -0.550 OA
ATOM      4  O   UNL     1       2.852 -31.004   2.691  1.00  0.00    -0.550 OA
ENDBRANCH   1   2
BRANCH   1   5
ATOM      5  C   UNL     1       3.064 -29.564   5.761  1.00  0.00     0.059 C 
BRANCH   5   6
ATOM      6  C   UNL     1       2.231 -30.739   6.172  1.00  0.00     0.042 C 
ATOM      7  O   UNL     1       2.711 -31.902   6.127  1.00  0.00    -0.550 OA
ATOM      8  O   UNL     1       0.912 -30.554   6.564  1.00  0.00    -0.550 OA
ENDBRANCH   5   6
ENDBRANCH   1   5
TORSDOF 3
ENDMDL
MODEL 8
REMARK VINA RESULT:    -3.389      8.881      9.468
REMARK INTER + INTRA:          -4.104
REMARK INTER:                  -3.950
REMARK INTRA:                  -0.154
REMARK UNBOUND:                -0.121
REMARK SMILES O=C([O-])CCC(=O)[O-]
REMARK SMILES IDX 4 1 2 2 1 3 3 4 5 5 6 6 7 7 8 8
REMARK H PARENT
REMARK Flexibility Score: inf
ROOT
ATOM      1  C   UNL     1       3.330 -30.846   5.844  1.00  0.00     0.059 C 
ENDROOT
BRANCH   1   2
ATOM      2  C   UNL     1       2.195 -30.040   6.399  1.00  0.00     0.042 C 
ATOM      3  O   UNL     1       2.392 -28.867   6.813  1.00  0.00    -0.550 OA
ATOM      4  O   UNL     1       0.912 -30.571   6.422  1.00  0.00    -0.550 OA
ENDBRANCH   1   2
BRANCH   1   5
ATOM      5  C   UNL     1       4.131 -30.052   4.808  1.00  0.00     0.059 C 
BRANCH   5   6
ATOM      6  C   UNL     1       3.394 -29.939   3.508  1.00  0.00     0.042 C 
ATOM      7  O   UNL     1       3.261 -28.817   2.952  1.00  0.00    -0.550 OA
ATOM      8  O   UNL     1       2.821 -31.065   2.932  1.00  0.00    -0.550 OA
ENDBRANCH   5   6
ENDBRANCH   1   5
TORSDOF 3
ENDMDL
MODEL 9
REMARK VINA RESULT:    -3.373      2.081      4.269
REMARK INTER + INTRA:          -4.085
REMARK INTER:                  -3.979
REMARK INTRA:                  -0.105
REMARK UNBOUND:                -0.121
REMARK SMILES O=C([O-])CCC(=O)[O-]
REMARK SMILES IDX 4 1 2 2 1 3 3 4 5 5 6 6 7 7 8 8
REMARK H PARENT
REMARK Flexibility Score: inf
ROOT
ATOM      1  C   UNL     1      -1.267 -25.054  -1.205  1.00  0.00     0.059 C 
ENDROOT
BRANCH   1   2
ATOM      2  C   UNL     1      -0.736 -26.145  -0.326  1.00  0.00     0.042 C 
ATOM      3  O   UNL     1       0.506 -26.295  -0.181  1.00  0.00    -0.550 OA
ATOM      4  O   UNL     1      -1.614 -26.970   0.364  1.00  0.00    -0.550 OA
ENDBRANCH   1   2
BRANCH   1   5
ATOM      5  C   UNL     1      -2.607 -24.517  -0.692  1.00  0.00     0.059 C 
BRANCH   5   6
ATOM      6  C   UNL     1      -2.416 -23.444   0.337  1.00  0.00     0.042 C 
ATOM      7  O   UNL     1      -3.355 -23.142   1.118  1.00  0.00    -0.550 OA
ATOM      8  O   UNL     1      -1.214 -22.751   0.404  1.00  0.00    -0.550 OA
ENDBRANCH   5   6
ENDBRANCH   1   5
TORSDOF 3
ENDMDL
