MODEL 1
REMARK VINA RESULT:    -5.488      0.000      0.000
REMARK INTER + INTRA:          -6.130
REMARK INTER:                  -6.130
REMARK INTRA:                   0.000
REMARK UNBOUND:                 0.000
REMARK SMILES Oc1cc(O)c2c(ccc3ccc(O)c(O)c32)c1
REMARK SMILES IDX 9 1 8 2 7 3 18 4 2 5 3 6 4 7 6 8 17 9 10 10 11 11 12 12
REMARK SMILES IDX 13 13 15 14 16 15 1 17 5 19 14 21
REMARK H PARENT 16 16 1 18 5 20 14 22
REMARK Flexibility Score: inf
ROOT
ATOM      1  C   UNL     1     158.018 155.766 169.903  1.00  0.00     0.009 A 
ATOM      2  C   UNL     1     156.699 156.201 169.909  1.00  0.00     0.009 A 
ATOM      3  C   UNL     1     156.332 157.362 169.222  1.00  0.00    -0.010 A 
ATOM      4  C   UNL     1     155.009 157.820 169.307  1.00  0.00     0.055 A 
ATOM      5  C   UNL     1     154.646 159.043 168.741  1.00  0.00     0.119 A 
ATOM      6  C   UNL     1     155.618 159.840 168.140  1.00  0.00     0.093 A 
ATOM      7  C   UNL     1     156.951 159.411 168.064  1.00  0.00     0.127 A 
ATOM      8  C   UNL     1     157.304 158.098 168.483  1.00  0.00     0.035 A 
ATOM      9  C   UNL     1     158.602 157.519 168.295  1.00  0.00     0.039 A 
ATOM     10  C   UNL     1     158.970 156.405 169.101  1.00  0.00    -0.014 A 
ATOM     11  C   UNL     1     160.278 155.907 169.064  1.00  0.00     0.013 A 
ATOM     12  C   UNL     1     161.216 156.460 168.199  1.00  0.00     0.051 A 
ATOM     13  C   UNL     1     160.843 157.453 167.294  1.00  0.00     0.158 A 
ATOM     14  C   UNL     1     159.509 157.922 167.274  1.00  0.00     0.166 A 
ENDROOT
BRANCH  14  15
ATOM     15  O   UNL     1     159.047 158.675 166.191  1.00  0.00    -0.504 OA
ATOM     16  H   UNL     1     159.358 159.615 165.986  1.00  0.00     0.293 HD
ENDBRANCH  14  15
BRANCH   5  17
ATOM     17  O   UNL     1     153.329 159.493 168.803  1.00  0.00    -0.508 OA
ATOM     18  H   UNL     1     153.105 160.482 168.763  1.00  0.00     0.293 HD
ENDBRANCH   5  17
BRANCH   7  19
ATOM     19  O   UNL     1     157.919 160.331 167.665  1.00  0.00    -0.507 OA
ATOM     20  H   UNL     1     158.304 160.332 166.727  1.00  0.00     0.293 HD
ENDBRANCH   7  19
BRANCH  13  21
ATOM     21  O   UNL     1     161.820 157.942 166.424  1.00  0.00    -0.504 OA
ATOM     22  H   UNL     1     161.655 158.691 165.766  1.00  0.00     0.293 HD
ENDBRANCH  13  21
TORSDOF 4
ENDMDL
MODEL 2
REMARK VINA RESULT:    -5.460      2.685      4.318
REMARK INTER + INTRA:          -6.099
REMARK INTER:                  -6.099
REMARK INTRA:                   0.000
REMARK UNBOUND:                 0.000
REMARK SMILES Oc1cc(O)c2c(ccc3ccc(O)c(O)c32)c1
REMARK SMILES IDX 9 1 8 2 7 3 18 4 2 5 3 6 4 7 6 8 17 9 10 10 11 11 12 12
REMARK SMILES IDX 13 13 15 14 16 15 1 17 5 19 14 21
REMARK H PARENT 16 16 1 18 5 20 14 22
REMARK Flexibility Score: inf
ROOT
ATOM      1  C   UNL     1     159.803 156.526 166.238  1.00  0.00     0.009 A 
ATOM      2  C   UNL     1     160.223 157.792 166.625  1.00  0.00     0.009 A 
ATOM      3  C   UNL     1     159.479 158.534 167.548  1.00  0.00    -0.010 A 
ATOM      4  C   UNL     1     159.885 159.838 167.865  1.00  0.00     0.055 A 
ATOM      5  C   UNL     1     159.091 160.647 168.680  1.00  0.00     0.119 A 
ATOM      6  C   UNL     1     157.861 160.175 169.132  1.00  0.00     0.093 A 
ATOM      7  C   UNL     1     157.426 158.881 168.808  1.00  0.00     0.127 A 
ATOM      8  C   UNL     1     158.295 157.987 168.123  1.00  0.00     0.035 A 
ATOM      9  C   UNL     1     157.999 156.603 167.892  1.00  0.00     0.039 A 
ATOM     10  C   UNL     1     158.708 155.921 166.863  1.00  0.00    -0.014 A 
ATOM     11  C   UNL     1     158.345 154.619 166.497  1.00  0.00     0.013 A 
ATOM     12  C   UNL     1     157.325 153.958 167.174  1.00  0.00     0.051 A 
ATOM     13  C   UNL     1     156.716 154.546 168.281  1.00  0.00     0.158 A 
ATOM     14  C   UNL     1     157.115 155.835 168.703  1.00  0.00     0.166 A 
ENDROOT
BRANCH  14  15
ATOM     15  O   UNL     1     156.747 156.304 169.968  1.00  0.00    -0.504 OA
ATOM     16  H   UNL     1     156.267 155.743 170.657  1.00  0.00     0.293 HD
ENDBRANCH  14  15
BRANCH   5  17
ATOM     17  O   UNL     1     159.498 161.936 169.016  1.00  0.00    -0.508 OA
ATOM     18  H   UNL     1     158.972 162.504 169.673  1.00  0.00     0.293 HD
ENDBRANCH   5  17
BRANCH   7  19
ATOM     19  O   UNL     1     156.103 158.539 169.086  1.00  0.00    -0.507 OA
ATOM     20  H   UNL     1     155.451 158.282 168.355  1.00  0.00     0.293 HD
ENDBRANCH   7  19
BRANCH  13  21
ATOM     21  O   UNL     1     155.725 153.817 168.943  1.00  0.00    -0.504 OA
ATOM     22  H   UNL     1     154.870 154.228 169.291  1.00  0.00     0.293 HD
ENDBRANCH  13  21
TORSDOF 4
ENDMDL
MODEL 3
REMARK VINA RESULT:    -5.457      2.070      5.389
REMARK INTER + INTRA:          -6.095
REMARK INTER:                  -6.095
REMARK INTRA:                   0.000
REMARK UNBOUND:                 0.000
REMARK SMILES Oc1cc(O)c2c(ccc3ccc(O)c(O)c32)c1
REMARK SMILES IDX 9 1 8 2 7 3 18 4 2 5 3 6 4 7 6 8 17 9 10 10 11 11 12 12
REMARK SMILES IDX 13 13 15 14 16 15 1 17 5 19 14 21
REMARK H PARENT 16 16 1 18 5 20 14 22
REMARK Flexibility Score: inf
ROOT
ATOM      1  C   UNL     1     157.120 159.567 170.062  1.00  0.00     0.009 A 
ATOM      2  C   UNL     1     158.440 159.134 170.058  1.00  0.00     0.009 A 
ATOM      3  C   UNL     1     158.815 158.012 169.312  1.00  0.00    -0.010 A 
ATOM      4  C   UNL     1     160.138 157.552 169.384  1.00  0.00     0.055 A 
ATOM      5  C   UNL     1     160.507 156.361 168.757  1.00  0.00     0.119 A 
ATOM      6  C   UNL     1     159.542 155.597 168.104  1.00  0.00     0.093 A 
ATOM      7  C   UNL     1     158.209 156.028 168.039  1.00  0.00     0.127 A 
ATOM      8  C   UNL     1     157.851 157.317 168.525  1.00  0.00     0.035 A 
ATOM      9  C   UNL     1     156.554 157.904 168.357  1.00  0.00     0.039 A 
ATOM     10  C   UNL     1     156.177 158.972 169.218  1.00  0.00    -0.014 A 
ATOM     11  C   UNL     1     154.868 159.471 169.196  1.00  0.00     0.013 A 
ATOM     12  C   UNL     1     153.939 158.964 168.294  1.00  0.00     0.051 A 
ATOM     13  C   UNL     1     154.322 158.023 167.339  1.00  0.00     0.158 A 
ATOM     14  C   UNL     1     155.657 157.556 167.307  1.00  0.00     0.166 A 
ENDROOT
BRANCH  14  15
ATOM     15  O   UNL     1     156.130 156.863 166.188  1.00  0.00    -0.504 OA
ATOM     16  H   UNL     1     155.531 156.478 165.471  1.00  0.00     0.293 HD
ENDBRANCH  14  15
BRANCH   5  17
ATOM     17  O   UNL     1     161.824 155.909 168.806  1.00  0.00    -0.508 OA
ATOM     18  H   UNL     1     162.065 155.025 169.241  1.00  0.00     0.293 HD
ENDBRANCH   5  17
BRANCH   7  19
ATOM     19  O   UNL     1     157.246 155.131 167.581  1.00  0.00    -0.507 OA
ATOM     20  H   UNL     1     156.889 154.383 168.164  1.00  0.00     0.293 HD
ENDBRANCH   7  19
BRANCH  13  21
ATOM     21  O   UNL     1     153.354 157.581 166.435  1.00  0.00    -0.504 OA
ATOM     22  H   UNL     1     153.378 157.790 165.447  1.00  0.00     0.293 HD
ENDBRANCH  13  21
TORSDOF 4
ENDMDL
MODEL 4
REMARK VINA RESULT:    -5.448      2.589      4.341
REMARK INTER + INTRA:          -6.085
REMARK INTER:                  -6.085
REMARK INTRA:                   0.000
REMARK UNBOUND:                 0.000
REMARK SMILES Oc1cc(O)c2c(ccc3ccc(O)c(O)c32)c1
REMARK SMILES IDX 9 1 8 2 7 3 18 4 2 5 3 6 4 7 6 8 17 9 10 10 11 11 12 12
REMARK SMILES IDX 13 13 15 14 16 15 1 17 5 19 14 21
REMARK H PARENT 16 16 1 18 5 20 14 22
REMARK Flexibility Score: inf
ROOT
ATOM      1  C   UNL     1     155.503 159.002 166.179  1.00  0.00     0.009 A 
ATOM      2  C   UNL     1     155.078 157.736 166.559  1.00  0.00     0.009 A 
ATOM      3  C   UNL     1     155.797 157.001 167.507  1.00  0.00    -0.010 A 
ATOM      4  C   UNL     1     155.387 155.696 167.818  1.00  0.00     0.055 A 
ATOM      5  C   UNL     1     156.160 154.894 168.659  1.00  0.00     0.119 A 
ATOM      6  C   UNL     1     157.374 155.374 169.145  1.00  0.00     0.093 A 
ATOM      7  C   UNL     1     157.813 156.668 168.829  1.00  0.00     0.127 A 
ATOM      8  C   UNL     1     156.961 157.556 168.114  1.00  0.00     0.035 A 
ATOM      9  C   UNL     1     157.258 158.940 167.886  1.00  0.00     0.039 A 
ATOM     10  C   UNL     1     156.578 159.614 166.834  1.00  0.00    -0.014 A 
ATOM     11  C   UNL     1     156.945 160.917 166.474  1.00  0.00     0.013 A 
ATOM     12  C   UNL     1     157.942 161.584 167.177  1.00  0.00     0.051 A 
ATOM     13  C   UNL     1     158.521 161.004 168.305  1.00  0.00     0.158 A 
ATOM     14  C   UNL     1     158.114 159.715 168.720  1.00  0.00     0.166 A 
ENDROOT
BRANCH  14  15
ATOM     15  O   UNL     1     158.447 159.252 169.997  1.00  0.00    -0.504 OA
ATOM     16  H   UNL     1     158.131 158.370 170.375  1.00  0.00     0.293 HD
ENDBRANCH  14  15
BRANCH   5  17
ATOM     17  O   UNL     1     155.749 153.605 168.989  1.00  0.00    -0.508 OA
ATOM     18  H   UNL     1     155.279 153.406 169.865  1.00  0.00     0.293 HD
ENDBRANCH   5  17
BRANCH   7  19
ATOM     19  O   UNL     1     159.126 157.016 169.144  1.00  0.00    -0.507 OA
ATOM     20  H   UNL     1     159.392 157.972 169.351  1.00  0.00     0.293 HD
ENDBRANCH   7  19
BRANCH  13  21
ATOM     21  O   UNL     1     159.488 161.739 168.992  1.00  0.00    -0.504 OA
ATOM     22  H   UNL     1     160.476 161.528 168.961  1.00  0.00     0.293 HD
ENDBRANCH  13  21
TORSDOF 4
ENDMDL
MODEL 5
REMARK VINA RESULT:    -5.355      2.119      5.357
REMARK INTER + INTRA:          -5.981
REMARK INTER:                  -5.981
REMARK INTRA:                   0.000
REMARK UNBOUND:                 0.000
REMARK SMILES Oc1cc(O)c2c(ccc3ccc(O)c(O)c32)c1
REMARK SMILES IDX 9 1 8 2 7 3 18 4 2 5 3 6 4 7 6 8 17 9 10 10 11 11 12 12
REMARK SMILES IDX 13 13 15 14 16 15 1 17 5 19 14 21
REMARK H PARENT 16 16 1 18 5 20 14 22
REMARK Flexibility Score: inf
ROOT
ATOM      1  C   UNL     1     156.469 155.648 166.031  1.00  0.00     0.009 A 
ATOM      2  C   UNL     1     157.736 155.228 166.418  1.00  0.00     0.009 A 
ATOM      3  C   UNL     1     158.440 155.919 167.409  1.00  0.00    -0.010 A 
ATOM      4  C   UNL     1     159.746 155.518 167.727  1.00  0.00     0.055 A 
ATOM      5  C   UNL     1     160.518 156.268 168.616  1.00  0.00     0.119 A 
ATOM      6  C   UNL     1     160.008 157.452 169.143  1.00  0.00     0.093 A 
ATOM      7  C   UNL     1     158.713 157.883 168.820  1.00  0.00     0.127 A 
ATOM      8  C   UNL     1     157.854 157.047 168.054  1.00  0.00     0.035 A 
ATOM      9  C   UNL     1     156.469 157.330 167.811  1.00  0.00     0.039 A 
ATOM     10  C   UNL     1     155.827 156.683 166.718  1.00  0.00    -0.014 A 
ATOM     11  C   UNL     1     154.525 157.045 166.349  1.00  0.00     0.013 A 
ATOM     12  C   UNL     1     153.827 157.999 167.080  1.00  0.00     0.051 A 
ATOM     13  C   UNL     1     154.376 158.539 168.242  1.00  0.00     0.158 A 
ATOM     14  C   UNL     1     155.664 158.137 168.665  1.00  0.00     0.166 A 
ENDROOT
BRANCH  14  15
ATOM     15  O   UNL     1     156.096 158.423 169.963  1.00  0.00    -0.504 OA
ATOM     16  H   UNL     1     156.033 157.771 170.733  1.00  0.00     0.293 HD
ENDBRANCH  14  15
BRANCH   5  17
ATOM     17  O   UNL     1     161.808 155.864 168.953  1.00  0.00    -0.508 OA
ATOM     18  H   UNL     1     162.379 155.325 168.312  1.00  0.00     0.293 HD
ENDBRANCH   5  17
BRANCH   7  19
ATOM     19  O   UNL     1     158.336 159.174 169.184  1.00  0.00    -0.507 OA
ATOM     20  H   UNL     1     158.699 159.993 168.710  1.00  0.00     0.293 HD
ENDBRANCH   7  19
BRANCH  13  21
ATOM     21  O   UNL     1     153.611 159.464 168.955  1.00  0.00    -0.504 OA
ATOM     22  H   UNL     1     152.761 159.224 169.447  1.00  0.00     0.293 HD
ENDBRANCH  13  21
TORSDOF 4
ENDMDL
MODEL 6
REMARK VINA RESULT:    -5.352      2.333      3.863
REMARK INTER + INTRA:          -5.978
REMARK INTER:                  -5.978
REMARK INTRA:                   0.000
REMARK UNBOUND:                 0.000
REMARK SMILES Oc1cc(O)c2c(ccc3ccc(O)c(O)c32)c1
REMARK SMILES IDX 9 1 8 2 7 3 18 4 2 5 3 6 4 7 6 8 17 9 10 10 11 11 12 12
REMARK SMILES IDX 13 13 15 14 16 15 1 17 5 19 14 21
REMARK H PARENT 16 16 1 18 5 20 14 22
REMARK Flexibility Score: inf
ROOT
ATOM      1  C   UNL     1     155.587 157.264 169.658  1.00  0.00     0.009 A 
ATOM      2  C   UNL     1     156.048 158.574 169.686  1.00  0.00     0.009 A 
ATOM      3  C   UNL     1     157.272 158.907 169.098  1.00  0.00    -0.010 A 
ATOM      4  C   UNL     1     157.749 160.222 169.206  1.00  0.00     0.055 A 
ATOM      5  C   UNL     1     159.025 160.552 168.746  1.00  0.00     0.119 A 
ATOM      6  C   UNL     1     159.850 159.555 168.229  1.00  0.00     0.093 A 
ATOM      7  C   UNL     1     159.401 158.230 168.133  1.00  0.00     0.127 A 
ATOM      8  C   UNL     1     158.049 157.910 168.439  1.00  0.00     0.035 A 
ATOM      9  C   UNL     1     157.461 156.621 168.218  1.00  0.00     0.039 A 
ATOM     10  C   UNL     1     156.274 156.288 168.927  1.00  0.00    -0.014 A 
ATOM     11  C   UNL     1     155.752 154.989 168.864  1.00  0.00     0.013 A 
ATOM     12  C   UNL     1     156.359 154.028 168.063  1.00  0.00     0.051 A 
ATOM     13  C   UNL     1     157.435 154.367 167.243  1.00  0.00     0.158 A 
ATOM     14  C   UNL     1     157.933 155.691 167.248  1.00  0.00     0.166 A 
ENDROOT
BRANCH  14  15
ATOM     15  O   UNL     1     158.787 156.122 166.229  1.00  0.00    -0.504 OA
ATOM     16  H   UNL     1     158.547 156.841 165.561  1.00  0.00     0.293 HD
ENDBRANCH  14  15
BRANCH   5  17
ATOM     17  O   UNL     1     159.496 161.860 168.830  1.00  0.00    -0.508 OA
ATOM     18  H   UNL     1     159.848 162.241 169.702  1.00  0.00     0.293 HD
ENDBRANCH   5  17
BRANCH   7  19
ATOM     19  O   UNL     1     160.332 157.237 167.828  1.00  0.00    -0.507 OA
ATOM     20  H   UNL     1     160.301 156.323 168.263  1.00  0.00     0.293 HD
ENDBRANCH   7  19
BRANCH  13  21
ATOM     21  O   UNL     1     157.977 153.369 166.432  1.00  0.00    -0.504 OA
ATOM     22  H   UNL     1     157.466 152.917 165.687  1.00  0.00     0.293 HD
ENDBRANCH  13  21
TORSDOF 4
ENDMDL
MODEL 7
REMARK VINA RESULT:    -5.324      1.878      3.004
REMARK INTER + INTRA:          -5.946
REMARK INTER:                  -5.946
REMARK INTRA:                   0.000
REMARK UNBOUND:                 0.000
REMARK SMILES Oc1cc(O)c2c(ccc3ccc(O)c(O)c32)c1
REMARK SMILES IDX 9 1 8 2 7 3 18 4 2 5 3 6 4 7 6 8 17 9 10 10 11 11 12 12
REMARK SMILES IDX 13 13 15 14 16 15 1 17 5 19 14 21
REMARK H PARENT 16 16 1 18 5 20 14 22
REMARK Flexibility Score: inf
ROOT
ATOM      1  C   UNL     1     158.713 159.786 166.186  1.00  0.00     0.009 A 
ATOM      2  C   UNL     1     157.443 160.205 166.561  1.00  0.00     0.009 A 
ATOM      3  C   UNL     1     156.712 159.487 167.513  1.00  0.00    -0.010 A 
ATOM      4  C   UNL     1     155.403 159.890 167.818  1.00  0.00     0.055 A 
ATOM      5  C   UNL     1     154.605 159.117 168.663  1.00  0.00     0.119 A 
ATOM      6  C   UNL     1     155.093 157.911 169.159  1.00  0.00     0.093 A 
ATOM      7  C   UNL     1     156.390 157.479 168.849  1.00  0.00     0.127 A 
ATOM      8  C   UNL     1     157.274 158.332 168.130  1.00  0.00     0.035 A 
ATOM      9  C   UNL     1     158.660 158.044 167.907  1.00  0.00     0.039 A 
ATOM     10  C   UNL     1     159.331 158.721 166.851  1.00  0.00    -0.014 A 
ATOM     11  C   UNL     1     160.638 158.360 166.496  1.00  0.00     0.013 A 
ATOM     12  C   UNL     1     161.311 157.374 167.208  1.00  0.00     0.051 A 
ATOM     13  C   UNL     1     160.733 156.799 168.339  1.00  0.00     0.158 A 
ATOM     14  C   UNL     1     159.440 157.200 168.749  1.00  0.00     0.166 A 
ENDROOT
BRANCH  14  15
ATOM     15  O   UNL     1     158.978 156.874 170.027  1.00  0.00    -0.504 OA
ATOM     16  H   UNL     1     159.307 157.317 170.874  1.00  0.00     0.293 HD
ENDBRANCH  14  15
BRANCH   5  17
ATOM     17  O   UNL     1     153.312 159.522 168.987  1.00  0.00    -0.508 OA
ATOM     18  H   UNL     1     152.557 159.476 168.311  1.00  0.00     0.293 HD
ENDBRANCH   5  17
BRANCH   7  19
ATOM     19  O   UNL     1     156.748 156.171 169.175  1.00  0.00    -0.507 OA
ATOM     20  H   UNL     1     156.057 155.443 169.305  1.00  0.00     0.293 HD
ENDBRANCH   7  19
BRANCH  13  21
ATOM     21  O   UNL     1     161.474 155.843 169.035  1.00  0.00    -0.504 OA
ATOM     22  H   UNL     1     161.782 154.971 168.628  1.00  0.00     0.293 HD
ENDBRANCH  13  21
TORSDOF 4
ENDMDL
MODEL 8
REMARK VINA RESULT:    -5.295      2.140      5.540
REMARK INTER + INTRA:          -5.914
REMARK INTER:                  -5.914
REMARK INTRA:                   0.000
REMARK UNBOUND:                 0.000
REMARK SMILES Oc1cc(O)c2c(ccc3ccc(O)c(O)c32)c1
REMARK SMILES IDX 9 1 8 2 7 3 18 4 2 5 3 6 4 7 6 8 17 9 10 10 11 11 12 12
REMARK SMILES IDX 13 13 15 14 16 15 1 17 5 19 14 21
REMARK H PARENT 16 16 1 18 5 20 14 22
REMARK Flexibility Score: inf
ROOT
ATOM      1  C   UNL     1     157.726 160.216 168.325  1.00  0.00     0.009 A 
ATOM      2  C   UNL     1     158.900 160.226 167.583  1.00  0.00     0.009 A 
ATOM      3  C   UNL     1     159.677 159.069 167.469  1.00  0.00    -0.010 A 
ATOM      4  C   UNL     1     160.896 159.127 166.777  1.00  0.00     0.055 A 
ATOM      5  C   UNL     1     161.752 158.025 166.760  1.00  0.00     0.119 A 
ATOM      6  C   UNL     1     161.419 156.882 167.483  1.00  0.00     0.093 A 
ATOM      7  C   UNL     1     160.216 156.811 168.200  1.00  0.00     0.127 A 
ATOM      8  C   UNL     1     159.257 157.857 168.091  1.00  0.00     0.035 A 
ATOM      9  C   UNL     1     157.941 157.799 168.655  1.00  0.00     0.039 A 
ATOM     10  C   UNL     1     157.235 159.018 168.855  1.00  0.00    -0.014 A 
ATOM     11  C   UNL     1     156.015 159.025 169.544  1.00  0.00     0.013 A 
ATOM     12  C   UNL     1     155.455 157.834 169.992  1.00  0.00     0.051 A 
ATOM     13  C   UNL     1     156.051 156.612 169.680  1.00  0.00     0.158 A 
ATOM     14  C   UNL     1     157.249 156.584 168.929  1.00  0.00     0.166 A 
ENDROOT
BRANCH  14  15
ATOM     15  O   UNL     1     157.686 155.389 168.351  1.00  0.00    -0.504 OA
ATOM     16  H   UNL     1     157.360 155.044 167.459  1.00  0.00     0.293 HD
ENDBRANCH  14  15
BRANCH   5  17
ATOM     17  O   UNL     1     162.954 158.068 166.057  1.00  0.00    -0.508 OA
ATOM     18  H   UNL     1     163.847 157.985 166.529  1.00  0.00     0.293 HD
ENDBRANCH   5  17
BRANCH   7  19
ATOM     19  O   UNL     1     160.035 155.750 169.085  1.00  0.00    -0.507 OA
ATOM     20  H   UNL     1     160.209 154.789 168.814  1.00  0.00     0.293 HD
ENDBRANCH   7  19
BRANCH  13  21
ATOM     21  O   UNL     1     155.421 155.448 170.124  1.00  0.00    -0.504 OA
ATOM     22  H   UNL     1     155.603 154.533 169.736  1.00  0.00     0.293 HD
ENDBRANCH  13  21
TORSDOF 4
ENDMDL
MODEL 9
REMARK VINA RESULT:    -5.206      2.098      2.728
REMARK INTER + INTRA:          -5.815
REMARK INTER:                  -5.815
REMARK INTRA:                   0.000
REMARK UNBOUND:                 0.000
REMARK SMILES Oc1cc(O)c2c(ccc3ccc(O)c(O)c32)c1
REMARK SMILES IDX 9 1 8 2 7 3 18 4 2 5 3 6 4 7 6 8 17 9 10 10 11 11 12 12
REMARK SMILES IDX 13 13 15 14 16 15 1 17 5 19 14 21
REMARK H PARENT 16 16 1 18 5 20 14 22
REMARK Flexibility Score: inf
ROOT
ATOM      1  C   UNL     1     157.826 155.925 169.472  1.00  0.00     0.009 A 
ATOM      2  C   UNL     1     156.763 155.426 168.731  1.00  0.00     0.009 A 
ATOM      3  C   UNL     1     155.918 156.292 168.030  1.00  0.00    -0.010 A 
ATOM      4  C   UNL     1     154.809 155.767 167.352  1.00  0.00     0.055 A 
ATOM      5  C   UNL     1     153.877 156.619 166.755  1.00  0.00     0.119 A 
ATOM      6  C   UNL     1     154.022 157.998 166.886  1.00  0.00     0.093 A 
ATOM      7  C   UNL     1     155.112 158.544 167.579  1.00  0.00     0.127 A 
ATOM      8  C   UNL     1     156.157 157.697 168.045  1.00  0.00     0.035 A 
ATOM      9  C   UNL     1     157.380 158.177 168.619  1.00  0.00     0.039 A 
ATOM     10  C   UNL     1     158.148 157.286 169.419  1.00  0.00    -0.014 A 
ATOM     11  C   UNL     1     159.265 157.752 170.125  1.00  0.00     0.013 A 
ATOM     12  C   UNL     1     159.666 159.078 170.008  1.00  0.00     0.051 A 
ATOM     13  C   UNL     1     159.021 159.935 169.116  1.00  0.00     0.158 A 
ATOM     14  C   UNL     1     157.932 159.462 168.348  1.00  0.00     0.166 A 
ENDROOT
BRANCH  14  15
ATOM     15  O   UNL     1     157.481 160.195 167.247  1.00  0.00    -0.504 OA
ATOM     16  H   UNL     1     157.623 161.190 167.137  1.00  0.00     0.293 HD
ENDBRANCH  14  15
BRANCH   5  17
ATOM     17  O   UNL     1     152.784 156.105 166.062  1.00  0.00    -0.508 OA
ATOM     18  H   UNL     1     152.898 155.403 165.338  1.00  0.00     0.293 HD
ENDBRANCH   5  17
BRANCH   7  19
ATOM     19  O   UNL     1     155.092 159.905 167.877  1.00  0.00    -0.507 OA
ATOM     20  H   UNL     1     155.740 160.557 167.451  1.00  0.00     0.293 HD
ENDBRANCH   7  19
BRANCH  13  21
ATOM     21  O   UNL     1     159.494 161.245 169.014  1.00  0.00    -0.504 OA
ATOM     22  H   UNL     1     160.427 161.478 168.704  1.00  0.00     0.293 HD
ENDBRANCH  13  21
TORSDOF 4
ENDMDL
