MODEL 1
REMARK VINA RESULT:    -5.505      0.000      0.000
REMARK INTER + INTRA:          -7.180
REMARK INTER:                  -7.758
REMARK INTRA:                   0.578
REMARK UNBOUND:                 0.578
REMARK SMILES CC1=CCC(=C(C)C)C(=O)CC(C)=CCC1
REMARK SMILES IDX 12 1 14 2 13 3 15 4 16 5 2 6 1 7 3 8 11 10 9 11 10 12 5 13
REMARK SMILES IDX 6 14 7 15 8 16 4 17
REMARK H PARENT
REMARK Flexibility Score: 60.00
ROOT
ATOM      1  C   UNL     1      -3.295 -11.171  28.304  1.00  0.00    -0.070 C 
ATOM      2  C   UNL     1      -2.588 -10.426  29.186  1.00  0.00    -0.027 C 
ATOM      3  C   UNL     1      -2.825 -11.207  26.872  1.00  0.00     0.039 C 
ENDROOT
BRANCH   2   4
ATOM      4  C   UNL     1      -2.931 -10.201  30.640  1.00  0.00     0.032 C 
BRANCH   4   5
ATOM      5  C   UNL     1      -1.855 -10.735  31.600  1.00  0.00     0.034 C 
BRANCH   5   6
ATOM      6  C   UNL     1      -1.380 -12.128  31.232  1.00  0.00    -0.077 C 
ATOM      7  C   UNL     1       0.062 -12.308  30.829  1.00  0.00     0.039 C 
ATOM      8  C   UNL     1      -2.169 -13.226  31.264  1.00  0.00    -0.023 CG0
ATOM      9  G   UNL     1      -3.617 -13.264  31.694  1.00  0.00     0.000 G0
ENDBRANCH   5   6
ENDBRANCH   4   5
ENDBRANCH   2   4
BRANCH   1  10
ATOM     10  C   UNL     1      -4.544 -11.951  28.670  1.00  0.00     0.111 C 
BRANCH  10  11
ATOM     11  C   UNL     1      -4.227 -13.339  29.172  1.00  0.00     0.163 C 
ATOM     12  O   UNL     1      -3.760 -14.175  28.353  1.00  0.00    -0.294 OA
BRANCH  11  13
ATOM     13  C   UNL     1      -4.523 -13.772  30.572  1.00  0.00    -0.002 C 
ATOM     14  C   UNL     1      -5.503 -14.689  30.819  1.00  0.00    -0.069 C 
ATOM     15  C   UNL     1      -5.750 -15.221  32.213  1.00  0.00     0.039 C 
ATOM     16  C   UNL     1      -6.355 -15.252  29.702  1.00  0.00     0.039 C 
BRANCH  13  17
ATOM     17  C   UNL     1      -3.609 -13.284  31.689  1.00  0.00     0.066 CG0
ATOM     18  G   UNL     1      -2.166 -13.226  31.245  1.00  0.00     0.000 G0
ENDBRANCH  13  17
ENDBRANCH  11  13
ENDBRANCH  10  11
ENDBRANCH   1  10
TORSDOF 0
ENDMDL
MODEL 2
REMARK VINA RESULT:    -5.441      1.253      1.755
REMARK INTER + INTRA:          -7.089
REMARK INTER:                  -7.625
REMARK INTRA:                   0.535
REMARK UNBOUND:                 0.578
REMARK SMILES CC1=CCC(=C(C)C)C(=O)CC(C)=CCC1
REMARK SMILES IDX 12 1 14 2 13 3 15 4 16 5 2 6 1 7 3 8 11 10 9 11 10 12 5 13
REMARK SMILES IDX 6 14 7 15 8 16 4 17
REMARK H PARENT
REMARK Flexibility Score: 60.00
ROOT
ATOM      1  C   UNL     1      -2.472 -12.687  27.793  1.00  0.00    -0.070 C 
ATOM      2  C   UNL     1      -1.267 -12.627  28.408  1.00  0.00    -0.027 C 
ATOM      3  C   UNL     1      -2.732 -11.736  26.652  1.00  0.00     0.039 C 
ENDROOT
BRANCH   2   4
ATOM      4  C   UNL     1      -0.838 -13.437  29.608  1.00  0.00     0.032 C 
BRANCH   4   5
ATOM      5  C   UNL     1      -0.546 -12.569  30.844  1.00  0.00     0.034 C 
BRANCH   5   6
ATOM      6  C   UNL     1      -1.673 -11.603  31.161  1.00  0.00    -0.077 C 
ATOM      7  C   UNL     1      -1.408 -10.126  31.021  1.00  0.00     0.039 C 
ATOM      8  C   UNL     1      -2.912 -11.989  31.542  1.00  0.00    -0.023 CG0
ATOM      9  G   UNL     1      -3.392 -13.415  31.682  1.00  0.00     0.000 G0
ENDBRANCH   5   6
ENDBRANCH   4   5
ENDBRANCH   2   4
BRANCH   1  10
ATOM     10  C   UNL     1      -3.580 -13.640  28.200  1.00  0.00     0.111 C 
BRANCH  10  11
ATOM     11  C   UNL     1      -4.429 -13.089  29.320  1.00  0.00     0.163 C 
ATOM     12  O   UNL     1      -5.046 -12.009  29.121  1.00  0.00    -0.294 OA
BRANCH  11  13
ATOM     13  C   UNL     1      -4.493 -13.732  30.668  1.00  0.00    -0.002 C 
ATOM     14  C   UNL     1      -5.429 -14.689  30.933  1.00  0.00    -0.069 C 
ATOM     15  C   UNL     1      -5.447 -15.428  32.252  1.00  0.00     0.039 C 
ATOM     16  C   UNL     1      -6.461 -15.088  29.901  1.00  0.00     0.039 C 
BRANCH  13  17
ATOM     17  C   UNL     1      -3.401 -13.405  31.679  1.00  0.00     0.066 CG0
ATOM     18  G   UNL     1      -2.903 -11.986  31.525  1.00  0.00     0.000 G0
ENDBRANCH  13  17
ENDBRANCH  11  13
ENDBRANCH  10  11
ENDBRANCH   1  10
TORSDOF 0
ENDMDL
MODEL 3
REMARK VINA RESULT:    -5.206      1.764      3.505
REMARK INTER + INTRA:          -6.758
REMARK INTER:                  -7.578
REMARK INTRA:                   0.820
REMARK UNBOUND:                 0.578
REMARK SMILES CC1=CCC(=C(C)C)C(=O)CC(C)=CCC1
REMARK SMILES IDX 12 1 14 2 13 3 15 4 16 5 2 6 1 7 3 8 11 10 9 11 10 12 5 13
REMARK SMILES IDX 6 14 7 15 8 16 4 17
REMARK H PARENT
REMARK Flexibility Score: 60.00
ROOT
ATOM      1  C   UNL     1      -1.002 -12.860  30.812  1.00  0.00    -0.070 C 
ATOM      2  C   UNL     1      -0.818 -12.680  29.483  1.00  0.00    -0.027 C 
ATOM      3  C   UNL     1      -0.070 -12.147  31.759  1.00  0.00     0.039 C 
ENDROOT
BRANCH   2   4
ATOM      4  C   UNL     1      -1.592 -13.355  28.376  1.00  0.00     0.032 C 
BRANCH   4   5
ATOM      5  C   UNL     1      -2.291 -12.358  27.437  1.00  0.00     0.034 C 
BRANCH   5   6
ATOM      6  C   UNL     1      -3.238 -11.427  28.172  1.00  0.00    -0.077 C 
ATOM      7  C   UNL     1      -2.983  -9.943  28.095  1.00  0.00     0.039 C 
ATOM      8  C   UNL     1      -4.313 -11.847  28.877  1.00  0.00    -0.023 CG0
ATOM      9  G   UNL     1      -4.770 -13.280  29.024  1.00  0.00     0.000 G0
ENDBRANCH   5   6
ENDBRANCH   4   5
ENDBRANCH   2   4
BRANCH   1  10
ATOM     10  C   UNL     1      -2.078 -13.753  31.402  1.00  0.00     0.111 C 
BRANCH  10  11
ATOM     11  C   UNL     1      -3.458 -13.155  31.269  1.00  0.00     0.163 C 
ATOM     12  O   UNL     1      -3.720 -12.115  31.931  1.00  0.00    -0.294 OA
BRANCH  11  13
ATOM     13  C   UNL     1      -4.534 -13.795  30.453  1.00  0.00    -0.002 C 
ATOM     14  C   UNL     1      -5.371 -14.717  31.013  1.00  0.00    -0.069 C 
ATOM     15  C   UNL     1      -6.531 -15.299  30.239  1.00  0.00     0.039 C 
ATOM     16  C   UNL     1      -5.204 -15.160  32.450  1.00  0.00     0.039 C 
BRANCH  13  17
ATOM     17  C   UNL     1      -4.769 -13.285  29.037  1.00  0.00     0.066 CG0
ATOM     18  G   UNL     1      -4.302 -11.857  28.873  1.00  0.00     0.000 G0
ENDBRANCH  13  17
ENDBRANCH  11  13
ENDBRANCH  10  11
ENDBRANCH   1  10
TORSDOF 0
ENDMDL
MODEL 4
REMARK VINA RESULT:    -5.054      2.058      3.552
REMARK INTER + INTRA:          -6.543
REMARK INTER:                  -7.462
REMARK INTRA:                   0.919
REMARK UNBOUND:                 0.578
REMARK SMILES CC1=CCC(=C(C)C)C(=O)CC(C)=CCC1
REMARK SMILES IDX 12 1 14 2 13 3 15 4 16 5 2 6 1 7 3 8 11 10 9 11 10 12 5 13
REMARK SMILES IDX 6 14 7 15 8 16 4 17
REMARK H PARENT
REMARK Flexibility Score: 60.00
ROOT
ATOM      1  C   UNL     1      -3.413 -13.017  31.446  1.00  0.00    -0.070 C 
ATOM      2  C   UNL     1      -2.167 -13.483  31.696  1.00  0.00    -0.027 C 
ATOM      3  C   UNL     1      -4.556 -14.000  31.479  1.00  0.00     0.039 C 
ENDROOT
BRANCH   2   4
ATOM      4  C   UNL     1      -0.888 -12.682  31.642  1.00  0.00     0.032 C 
BRANCH   4   5
ATOM      5  C   UNL     1      -0.674 -11.986  30.287  1.00  0.00     0.034 C 
BRANCH   5   6
ATOM      6  C   UNL     1      -0.648 -12.960  29.125  1.00  0.00    -0.077 C 
ATOM      7  C   UNL     1       0.331 -14.106  29.174  1.00  0.00     0.039 C 
ATOM      8  C   UNL     1      -1.469 -12.877  28.052  1.00  0.00    -0.023 CG0
ATOM      9  G   UNL     1      -2.552 -11.843  27.844  1.00  0.00     0.000 G0
ENDBRANCH   5   6
ENDBRANCH   4   5
ENDBRANCH   2   4
BRANCH   1  10
ATOM     10  C   UNL     1      -3.721 -11.569  31.114  1.00  0.00     0.111 C 
BRANCH  10  11
ATOM     11  C   UNL     1      -4.294 -11.408  29.726  1.00  0.00     0.163 C 
ATOM     12  O   UNL     1      -5.233 -10.585  29.563  1.00  0.00    -0.294 OA
BRANCH  11  13
ATOM     13  C   UNL     1      -3.842 -12.242  28.571  1.00  0.00    -0.002 C 
ATOM     14  C   UNL     1      -4.632 -13.248  28.094  1.00  0.00    -0.069 C 
ATOM     15  C   UNL     1      -4.246 -14.036  26.863  1.00  0.00     0.039 C 
ATOM     16  C   UNL     1      -5.955 -13.587  28.747  1.00  0.00     0.039 C 
BRANCH  13  17
ATOM     17  C   UNL     1      -2.559 -11.847  27.850  1.00  0.00     0.066 CG0
ATOM     18  G   UNL     1      -1.471 -12.878  28.039  1.00  0.00     0.000 G0
ENDBRANCH  13  17
ENDBRANCH  11  13
ENDBRANCH  10  11
ENDBRANCH   1  10
TORSDOF 0
ENDMDL
MODEL 5
REMARK VINA RESULT:    -4.914      1.889      4.337
REMARK INTER + INTRA:          -6.346
REMARK INTER:                  -6.810
REMARK INTRA:                   0.464
REMARK UNBOUND:                 0.578
REMARK SMILES CC1=CCC(=C(C)C)C(=O)CC(C)=CCC1
REMARK SMILES IDX 12 1 14 2 13 3 15 4 16 5 2 6 1 7 3 8 11 10 9 11 10 12 5 13
REMARK SMILES IDX 6 14 7 15 8 16 4 17
REMARK H PARENT
REMARK Flexibility Score: 60.00
ROOT
ATOM      1  C   UNL     1      -5.657 -14.274  28.789  1.00  0.00    -0.070 C 
ATOM      2  C   UNL     1      -5.155 -14.730  27.618  1.00  0.00    -0.027 C 
ATOM      3  C   UNL     1      -6.580 -15.180  29.564  1.00  0.00     0.039 C 
ENDROOT
BRANCH   2   4
ATOM      4  C   UNL     1      -4.277 -13.958  26.662  1.00  0.00     0.032 C 
BRANCH   4   5
ATOM      5  C   UNL     1      -2.896 -13.625  27.251  1.00  0.00     0.034 C 
BRANCH   5   6
ATOM      6  C   UNL     1      -2.595 -12.138  27.235  1.00  0.00    -0.077 C 
ATOM      7  C   UNL     1      -2.785 -11.385  25.943  1.00  0.00     0.039 C 
ATOM      8  C   UNL     1      -2.185 -11.440  28.319  1.00  0.00    -0.023 CG0
ATOM      9  G   UNL     1      -1.993 -11.997  29.711  1.00  0.00     0.000 G0
ENDBRANCH   5   6
ENDBRANCH   4   5
ENDBRANCH   2   4
BRANCH   1  10
ATOM     10  C   UNL     1      -5.361 -12.897  29.355  1.00  0.00     0.111 C 
BRANCH  10  11
ATOM     11  C   UNL     1      -4.306 -12.934  30.434  1.00  0.00     0.163 C 
ATOM     12  O   UNL     1      -4.365 -13.857  31.290  1.00  0.00    -0.294 OA
BRANCH  11  13
ATOM     13  C   UNL     1      -3.258 -11.877  30.567  1.00  0.00    -0.002 C 
ATOM     14  C   UNL     1      -3.373 -10.905  31.519  1.00  0.00    -0.069 C 
ATOM     15  C   UNL     1      -2.276  -9.889  31.742  1.00  0.00     0.039 C 
ATOM     16  C   UNL     1      -4.582 -10.831  32.425  1.00  0.00     0.039 C 
BRANCH  13  17
ATOM     17  C   UNL     1      -1.994 -12.001  29.725  1.00  0.00     0.066 CG0
ATOM     18  G   UNL     1      -2.197 -11.455  28.330  1.00  0.00     0.000 G0
ENDBRANCH  13  17
ENDBRANCH  11  13
ENDBRANCH  10  11
ENDBRANCH   1  10
TORSDOF 0
ENDMDL
MODEL 6
REMARK VINA RESULT:    -4.807      2.107      4.895
REMARK INTER + INTRA:          -6.196
REMARK INTER:                  -6.741
REMARK INTRA:                   0.545
REMARK UNBOUND:                 0.578
REMARK SMILES CC1=CCC(=C(C)C)C(=O)CC(C)=CCC1
REMARK SMILES IDX 12 1 14 2 13 3 15 4 16 5 2 6 1 7 3 8 11 10 9 11 10 12 5 13
REMARK SMILES IDX 6 14 7 15 8 16 4 17
REMARK H PARENT
REMARK Flexibility Score: 60.00
ROOT
ATOM      1  C   UNL     1      -5.030 -14.093  30.771  1.00  0.00    -0.070 C 
ATOM      2  C   UNL     1      -5.664 -14.290  29.592  1.00  0.00    -0.027 C 
ATOM      3  C   UNL     1      -5.373 -15.006  31.921  1.00  0.00     0.039 C 
ENDROOT
BRANCH   2   4
ATOM      4  C   UNL     1      -5.517 -13.446  28.348  1.00  0.00     0.032 C 
BRANCH   4   5
ATOM      5  C   UNL     1      -4.487 -14.012  27.356  1.00  0.00     0.034 C 
BRANCH   5   6
ATOM      6  C   UNL     1      -3.323 -13.068  27.119  1.00  0.00    -0.077 C 
ATOM      7  C   UNL     1      -3.496 -11.960  26.110  1.00  0.00     0.039 C 
ATOM      8  C   UNL     1      -2.142 -13.146  27.775  1.00  0.00    -0.023 CG0
ATOM      9  G   UNL     1      -1.795 -14.141  28.858  1.00  0.00     0.000 G0
ENDBRANCH   5   6
ENDBRANCH   4   5
ENDBRANCH   2   4
BRANCH   1  10
ATOM     10  C   UNL     1      -4.011 -12.993  31.008  1.00  0.00     0.111 C 
BRANCH  10  11
ATOM     11  C   UNL     1      -2.621 -13.536  31.233  1.00  0.00     0.163 C 
ATOM     12  O   UNL     1      -2.346 -14.015  32.365  1.00  0.00    -0.294 OA
BRANCH  11  13
ATOM     13  C   UNL     1      -1.550 -13.450  30.194  1.00  0.00    -0.002 C 
ATOM     14  C   UNL     1      -0.342 -12.888  30.492  1.00  0.00    -0.069 C 
ATOM     15  C   UNL     1       0.792 -12.884  29.492  1.00  0.00     0.039 C 
ATOM     16  C   UNL     1      -0.068 -12.286  31.853  1.00  0.00     0.039 C 
BRANCH  13  17
ATOM     17  C   UNL     1      -1.783 -14.138  28.855  1.00  0.00     0.066 CG0
ATOM     18  G   UNL     1      -2.139 -13.146  27.772  1.00  0.00     0.000 G0
ENDBRANCH  13  17
ENDBRANCH  11  13
ENDBRANCH  10  11
ENDBRANCH   1  10
TORSDOF 0
ENDMDL
MODEL 7
REMARK VINA RESULT:    -4.732      1.863      3.822
REMARK INTER + INTRA:          -6.090
REMARK INTER:                  -7.296
REMARK INTRA:                   1.206
REMARK UNBOUND:                 0.578
REMARK SMILES CC1=CCC(=C(C)C)C(=O)CC(C)=CCC1
REMARK SMILES IDX 12 1 14 2 13 3 15 4 16 5 2 6 1 7 3 8 11 10 9 11 10 12 5 13
REMARK SMILES IDX 6 14 7 15 8 16 4 17
REMARK H PARENT
REMARK Flexibility Score: 60.00
ROOT
ATOM      1  C   UNL     1      -4.747 -13.428  28.896  1.00  0.00    -0.070 C 
ATOM      2  C   UNL     1      -4.891 -14.070  30.080  1.00  0.00    -0.027 C 
ATOM      3  C   UNL     1      -4.833 -14.247  27.633  1.00  0.00     0.039 C 
ENDROOT
BRANCH   2   4
ATOM      4  C   UNL     1      -4.767 -13.449  31.451  1.00  0.00     0.032 C 
BRANCH   4   5
ATOM      5  C   UNL     1      -3.417 -12.747  31.673  1.00  0.00     0.034 C 
BRANCH   5   6
ATOM      6  C   UNL     1      -3.562 -11.251  31.883  1.00  0.00    -0.077 C 
ATOM      7  C   UNL     1      -4.614 -10.764  32.847  1.00  0.00     0.039 C 
ATOM      8  C   UNL     1      -2.788 -10.325  31.273  1.00  0.00    -0.023 CG0
ATOM      9  G   UNL     1      -1.647 -10.611  30.324  1.00  0.00     0.000 G0
ENDBRANCH   5   6
ENDBRANCH   4   5
ENDBRANCH   2   4
BRANCH   1  10
ATOM     10  C   UNL     1      -4.484 -11.939  28.770  1.00  0.00     0.111 C 
BRANCH  10  11
ATOM     11  C   UNL     1      -3.049 -11.638  28.409  1.00  0.00     0.163 C 
ATOM     12  O   UNL     1      -2.789 -11.331  27.215  1.00  0.00    -0.294 OA
BRANCH  11  13
ATOM     13  C   UNL     1      -1.930 -11.773  29.391  1.00  0.00    -0.002 C 
ATOM     14  C   UNL     1      -1.113 -12.865  29.362  1.00  0.00    -0.069 C 
ATOM     15  C   UNL     1       0.088 -12.974  30.274  1.00  0.00     0.039 C 
ATOM     16  C   UNL     1      -1.342 -13.995  28.381  1.00  0.00     0.039 C 
BRANCH  13  17
ATOM     17  C   UNL     1      -1.634 -10.599  30.316  1.00  0.00     0.066 CG0
ATOM     18  G   UNL     1      -2.782 -10.330  31.262  1.00  0.00     0.000 G0
ENDBRANCH  13  17
ENDBRANCH  11  13
ENDBRANCH  10  11
ENDBRANCH   1  10
TORSDOF 0
ENDMDL
MODEL 8
REMARK VINA RESULT:    -4.660      1.851      4.086
REMARK INTER + INTRA:          -5.988
REMARK INTER:                  -6.134
REMARK INTRA:                   0.146
REMARK UNBOUND:                 0.578
REMARK SMILES CC1=CCC(=C(C)C)C(=O)CC(C)=CCC1
REMARK SMILES IDX 12 1 14 2 13 3 15 4 16 5 2 6 1 7 3 8 11 10 9 11 10 12 5 13
REMARK SMILES IDX 6 14 7 15 8 16 4 17
REMARK H PARENT
REMARK Flexibility Score: 60.00
ROOT
ATOM      1  C   UNL     1      -4.728 -14.060  31.189  1.00  0.00    -0.070 C 
ATOM      2  C   UNL     1      -4.516 -13.214  32.224  1.00  0.00    -0.027 C 
ATOM      3  C   UNL     1      -5.769 -15.138  31.358  1.00  0.00     0.039 C 
ENDROOT
BRANCH   2   4
ATOM      4  C   UNL     1      -3.475 -12.120  32.283  1.00  0.00     0.032 C 
BRANCH   4   5
ATOM      5  C   UNL     1      -3.905 -10.843  31.542  1.00  0.00     0.034 C 
BRANCH   5   6
ATOM      6  C   UNL     1      -2.844 -10.337  30.582  1.00  0.00    -0.077 C 
ATOM      7  C   UNL     1      -1.521  -9.892  31.150  1.00  0.00     0.039 C 
ATOM      8  C   UNL     1      -3.006 -10.282  29.240  1.00  0.00    -0.023 CG0
ATOM      9  G   UNL     1      -4.229 -10.735  28.476  1.00  0.00     0.000 G0
ENDBRANCH   5   6
ENDBRANCH   4   5
ENDBRANCH   2   4
BRANCH   1  10
ATOM     10  C   UNL     1      -3.963 -14.000  29.879  1.00  0.00     0.111 C 
BRANCH  10  11
ATOM     11  C   UNL     1      -4.722 -13.257  28.806  1.00  0.00     0.163 C 
ATOM     12  O   UNL     1      -5.901 -13.619  28.553  1.00  0.00    -0.294 OA
BRANCH  11  13
ATOM     13  C   UNL     1      -4.097 -12.173  27.988  1.00  0.00    -0.002 C 
ATOM     14  C   UNL     1      -3.547 -12.456  26.771  1.00  0.00    -0.069 C 
ATOM     15  C   UNL     1      -3.004 -11.362  25.879  1.00  0.00     0.039 C 
ATOM     16  C   UNL     1      -3.500 -13.871  26.238  1.00  0.00     0.039 C 
BRANCH  13  17
ATOM     17  C   UNL     1      -4.225 -10.735  28.473  1.00  0.00     0.066 CG0
ATOM     18  G   UNL     1      -2.992 -10.286  29.222  1.00  0.00     0.000 G0
ENDBRANCH  13  17
ENDBRANCH  11  13
ENDBRANCH  10  11
ENDBRANCH   1  10
TORSDOF 0
ENDMDL
MODEL 9
REMARK VINA RESULT:    -4.565      1.520      4.141
REMARK INTER + INTRA:          -5.855
REMARK INTER:                  -6.630
REMARK INTRA:                   0.776
REMARK UNBOUND:                 0.578
REMARK SMILES CC1=CCC(=C(C)C)C(=O)CC(C)=CCC1
REMARK SMILES IDX 12 1 14 2 13 3 15 4 16 5 2 6 1 7 3 8 11 10 9 11 10 12 5 13
REMARK SMILES IDX 6 14 7 15 8 16 4 17
REMARK H PARENT
REMARK Flexibility Score: 60.00
ROOT
ATOM      1  C   UNL     1      -4.200 -12.501  28.173  1.00  0.00    -0.070 C 
ATOM      2  C   UNL     1      -4.823 -13.682  28.399  1.00  0.00    -0.027 C 
ATOM      3  C   UNL     1      -3.174 -12.443  27.070  1.00  0.00     0.039 C 
ENDROOT
BRANCH   2   4
ATOM      4  C   UNL     1      -5.822 -13.967  29.495  1.00  0.00     0.032 C 
BRANCH   4   5
ATOM      5  C   UNL     1      -5.356 -15.070  30.460  1.00  0.00     0.034 C 
BRANCH   5   6
ATOM      6  C   UNL     1      -4.890 -14.522  31.796  1.00  0.00    -0.077 C 
ATOM      7  C   UNL     1      -5.759 -14.752  33.006  1.00  0.00     0.039 C 
ATOM      8  C   UNL     1      -3.725 -13.856  31.972  1.00  0.00    -0.023 CG0
ATOM      9  G   UNL     1      -2.694 -13.576  30.904  1.00  0.00     0.000 G0
ENDBRANCH   5   6
ENDBRANCH   4   5
ENDBRANCH   2   4
BRANCH   1  10
ATOM     10  C   UNL     1      -4.460 -11.242  28.978  1.00  0.00     0.111 C 
BRANCH  10  11
ATOM     11  C   UNL     1      -3.841 -11.302  30.354  1.00  0.00     0.163 C 
ATOM     12  O   UNL     1      -4.372 -10.626  31.275  1.00  0.00    -0.294 OA
BRANCH  11  13
ATOM     13  C   UNL     1      -2.586 -12.063  30.635  1.00  0.00    -0.002 C 
ATOM     14  C   UNL     1      -1.398 -11.406  30.781  1.00  0.00    -0.069 C 
ATOM     15  C   UNL     1      -0.135 -12.142  31.170  1.00  0.00     0.039 C 
ATOM     16  C   UNL     1      -1.301  -9.906  30.610  1.00  0.00     0.039 C 
BRANCH  13  17
ATOM     17  C   UNL     1      -2.691 -13.559  30.903  1.00  0.00     0.066 CG0
ATOM     18  G   UNL     1      -3.721 -13.865  31.965  1.00  0.00     0.000 G0
ENDBRANCH  13  17
ENDBRANCH  11  13
ENDBRANCH  10  11
ENDBRANCH   1  10
TORSDOF 0
ENDMDL
