MODEL 1
REMARK VINA RESULT:    -3.109      0.000      0.000
REMARK INTER + INTRA:          -3.694
REMARK INTER:                  -3.654
REMARK INTRA:                  -0.039
REMARK UNBOUND:                -0.039
REMARK SMILES CCCCC(=O)[O-]
REMARK SMILES IDX 4 1 5 2 6 3 7 4 3 5 2 6 1 7
REMARK H PARENT
REMARK Flexibility Score: inf
ROOT
ATOM      1  C   UNL     1      27.311  30.190 -12.951  1.00  0.00     0.053 C 
ENDROOT
BRANCH   1   2
ATOM      2  C   UNL     1      26.815  30.636 -14.290  1.00  0.00     0.041 C 
ATOM      3  O   UNL     1      27.274  30.115 -15.341  1.00  0.00    -0.550 OA
ATOM      4  O   UNL     1      25.882  31.660 -14.381  1.00  0.00    -0.550 OA
ENDBRANCH   1   2
BRANCH   1   5
ATOM      5  C   UNL     1      28.841  30.220 -12.909  1.00  0.00     0.006 C 
BRANCH   5   6
ATOM      6  C   UNL     1      29.351  30.211 -11.464  1.00  0.00    -0.003 C 
ATOM      7  C   UNL     1      28.258  30.644 -10.491  1.00  0.00     0.004 C 
ENDBRANCH   5   6
ENDBRANCH   1   5
TORSDOF 3
ENDMDL
MODEL 2
REMARK VINA RESULT:    -3.068      3.244      3.938
REMARK INTER + INTRA:          -3.646
REMARK INTER:                  -3.555
REMARK INTRA:                  -0.091
REMARK UNBOUND:                -0.039
REMARK SMILES CCCCC(=O)[O-]
REMARK SMILES IDX 4 1 5 2 6 3 7 4 3 5 2 6 1 7
REMARK H PARENT
REMARK Flexibility Score: inf
ROOT
ATOM      1  C   UNL     1      27.791  30.294 -10.766  1.00  0.00     0.053 C 
ENDROOT
BRANCH   1   2
ATOM      2  C   UNL     1      27.416  29.057 -10.012  1.00  0.00     0.041 C 
ATOM      3  O   UNL     1      27.000  28.041 -10.630  1.00  0.00    -0.550 OA
ATOM      4  O   UNL     1      27.480  29.041  -8.625  1.00  0.00    -0.550 OA
ENDBRANCH   1   2
BRANCH   1   5
ATOM      5  C   UNL     1      29.208  30.169 -11.331  1.00  0.00     0.006 C 
BRANCH   5   6
ATOM      6  C   UNL     1      29.196  30.225 -12.863  1.00  0.00    -0.003 C 
ATOM      7  C   UNL     1      27.789  30.486 -13.393  1.00  0.00     0.004 C 
ENDBRANCH   5   6
ENDBRANCH   1   5
TORSDOF 3
ENDMDL
MODEL 3
REMARK VINA RESULT:    -3.065      1.046      1.345
REMARK INTER + INTRA:          -3.642
REMARK INTER:                  -3.535
REMARK INTRA:                  -0.108
REMARK UNBOUND:                -0.039
REMARK SMILES CCCCC(=O)[O-]
REMARK SMILES IDX 4 1 5 2 6 3 7 4 3 5 2 6 1 7
REMARK H PARENT
REMARK Flexibility Score: inf
ROOT
ATOM      1  C   UNL     1      27.906  30.469 -13.558  1.00  0.00     0.053 C 
ENDROOT
BRANCH   1   2
ATOM      2  C   UNL     1      26.448  30.799 -13.537  1.00  0.00     0.041 C 
ATOM      3  O   UNL     1      25.705  30.333 -12.632  1.00  0.00    -0.550 OA
ATOM      4  O   UNL     1      25.897  31.584 -14.541  1.00  0.00    -0.550 OA
ENDBRANCH   1   2
BRANCH   1   5
ATOM      5  C   UNL     1      28.245  29.466 -12.451  1.00  0.00     0.006 C 
BRANCH   5   6
ATOM      6  C   UNL     1      29.155  30.102 -11.394  1.00  0.00    -0.003 C 
ATOM      7  C   UNL     1      28.336  30.772 -10.295  1.00  0.00     0.004 C 
ENDBRANCH   5   6
ENDBRANCH   1   5
TORSDOF 3
ENDMDL
MODEL 4
REMARK VINA RESULT:    -3.032      2.919      3.806
REMARK INTER + INTRA:          -3.603
REMARK INTER:                  -3.527
REMARK INTRA:                  -0.077
REMARK UNBOUND:                -0.039
REMARK SMILES CCCCC(=O)[O-]
REMARK SMILES IDX 4 1 5 2 6 3 7 4 3 5 2 6 1 7
REMARK H PARENT
REMARK Flexibility Score: inf
ROOT
ATOM      1  C   UNL     1      28.147  29.311 -12.099  1.00  0.00     0.053 C 
ENDROOT
BRANCH   1   2
ATOM      2  C   UNL     1      28.187  29.876 -10.714  1.00  0.00     0.041 C 
ATOM      3  O   UNL     1      28.717  30.999 -10.504  1.00  0.00    -0.550 OA
ATOM      4  O   UNL     1      27.684  29.143  -9.648  1.00  0.00    -0.550 OA
ENDBRANCH   1   2
BRANCH   1   5
ATOM      5  C   UNL     1      28.590  30.362 -13.120  1.00  0.00     0.006 C 
BRANCH   5   6
ATOM      6  C   UNL     1      27.552  30.512 -14.239  1.00  0.00    -0.003 C 
ATOM      7  C   UNL     1      26.209  30.980 -13.685  1.00  0.00     0.004 C 
ENDBRANCH   5   6
ENDBRANCH   1   5
TORSDOF 3
ENDMDL
MODEL 5
REMARK VINA RESULT:    -2.887      2.266      3.569
REMARK INTER + INTRA:          -3.433
REMARK INTER:                  -3.334
REMARK INTRA:                  -0.099
REMARK UNBOUND:                -0.039
REMARK SMILES CCCCC(=O)[O-]
REMARK SMILES IDX 4 1 5 2 6 3 7 4 3 5 2 6 1 7
REMARK H PARENT
REMARK Flexibility Score: inf
ROOT
ATOM      1  C   UNL     1      27.215  30.519 -14.383  1.00  0.00     0.053 C 
ENDROOT
BRANCH   1   2
ATOM      2  C   UNL     1      27.975  30.461 -13.096  1.00  0.00     0.041 C 
ATOM      3  O   UNL     1      29.234  30.403 -13.106  1.00  0.00    -0.550 OA
ATOM      4  O   UNL     1      27.295  30.422 -11.886  1.00  0.00    -0.550 OA
ENDBRANCH   1   2
BRANCH   1   5
ATOM      5  C   UNL     1      25.710  30.609 -14.113  1.00  0.00     0.006 C 
BRANCH   5   6
ATOM      6  C   UNL     1      25.195  32.034 -14.343  1.00  0.00    -0.003 C 
ATOM      7  C   UNL     1      24.427  32.546 -13.128  1.00  0.00     0.004 C 
ENDBRANCH   5   6
ENDBRANCH   1   5
TORSDOF 3
ENDMDL
MODEL 6
REMARK VINA RESULT:    -2.791      1.830      2.403
REMARK INTER + INTRA:          -3.320
REMARK INTER:                  -3.246
REMARK INTRA:                  -0.074
REMARK UNBOUND:                -0.039
REMARK SMILES CCCCC(=O)[O-]
REMARK SMILES IDX 4 1 5 2 6 3 7 4 3 5 2 6 1 7
REMARK H PARENT
REMARK Flexibility Score: inf
ROOT
ATOM      1  C   UNL     1      27.025  30.281 -12.082  1.00  0.00     0.053 C 
ENDROOT
BRANCH   1   2
ATOM      2  C   UNL     1      27.933  30.444 -13.260  1.00  0.00     0.041 C 
ATOM      3  O   UNL     1      27.451  30.617 -14.411  1.00  0.00    -0.550 OA
ATOM      4  O   UNL     1      29.309  30.358 -13.096  1.00  0.00    -0.550 OA
ENDBRANCH   1   2
BRANCH   1   5
ATOM      5  C   UNL     1      27.810  30.436 -10.776  1.00  0.00     0.006 C 
BRANCH   5   6
ATOM      6  C   UNL     1      27.539  29.260  -9.830  1.00  0.00    -0.003 C 
ATOM      7  C   UNL     1      26.725  28.172 -10.524  1.00  0.00     0.004 C 
ENDBRANCH   5   6
ENDBRANCH   1   5
TORSDOF 3
ENDMDL
MODEL 7
REMARK VINA RESULT:    -2.781      2.720      3.892
REMARK INTER + INTRA:          -3.308
REMARK INTER:                  -3.166
REMARK INTRA:                  -0.142
REMARK UNBOUND:                -0.039
REMARK SMILES CCCCC(=O)[O-]
REMARK SMILES IDX 4 1 5 2 6 3 7 4 3 5 2 6 1 7
REMARK H PARENT
REMARK Flexibility Score: inf
ROOT
ATOM      1  C   UNL     1      27.522  28.948 -11.127  1.00  0.00     0.053 C 
ENDROOT
BRANCH   1   2
ATOM      2  C   UNL     1      28.534  30.029 -10.915  1.00  0.00     0.041 C 
ATOM      3  O   UNL     1      28.282  30.990 -10.141  1.00  0.00    -0.550 OA
ATOM      4  O   UNL     1      29.737  30.002 -11.609  1.00  0.00    -0.550 OA
ENDBRANCH   1   2
BRANCH   1   5
ATOM      5  C   UNL     1      27.251  28.753 -12.621  1.00  0.00     0.006 C 
BRANCH   5   6
ATOM      6  C   UNL     1      26.553  29.981 -13.217  1.00  0.00    -0.003 C 
ATOM      7  C   UNL     1      27.300  30.499 -14.442  1.00  0.00     0.004 C 
ENDBRANCH   5   6
ENDBRANCH   1   5
TORSDOF 3
ENDMDL
MODEL 8
REMARK VINA RESULT:    -2.725      2.551      4.435
REMARK INTER + INTRA:          -3.242
REMARK INTER:                  -3.148
REMARK INTRA:                  -0.095
REMARK UNBOUND:                -0.039
REMARK SMILES CCCCC(=O)[O-]
REMARK SMILES IDX 4 1 5 2 6 3 7 4 3 5 2 6 1 7
REMARK H PARENT
REMARK Flexibility Score: inf
ROOT
ATOM      1  C   UNL     1      25.633  31.277 -13.549  1.00  0.00     0.053 C 
ENDROOT
BRANCH   1   2
ATOM      2  C   UNL     1      26.723  30.559 -14.280  1.00  0.00     0.041 C 
ATOM      3  O   UNL     1      26.450  29.836 -15.274  1.00  0.00    -0.550 OA
ATOM      4  O   UNL     1      28.036  30.649 -13.836  1.00  0.00    -0.550 OA
ENDBRANCH   1   2
BRANCH   1   5
ATOM      5  C   UNL     1      25.070  32.413 -14.408  1.00  0.00     0.006 C 
BRANCH   5   6
ATOM      6  C   UNL     1      23.572  32.213 -14.669  1.00  0.00    -0.003 C 
ATOM      7  C   UNL     1      23.311  31.840 -16.125  1.00  0.00     0.004 C 
ENDBRANCH   5   6
ENDBRANCH   1   5
TORSDOF 3
ENDMDL
MODEL 9
REMARK VINA RESULT:    -2.643      2.910      3.393
REMARK INTER + INTRA:          -3.146
REMARK INTER:                  -3.060
REMARK INTRA:                  -0.087
REMARK UNBOUND:                -0.039
REMARK SMILES CCCCC(=O)[O-]
REMARK SMILES IDX 4 1 5 2 6 3 7 4 3 5 2 6 1 7
REMARK H PARENT
REMARK Flexibility Score: inf
ROOT
ATOM      1  C   UNL     1      26.989  29.088 -11.953  1.00  0.00     0.053 C 
ENDROOT
BRANCH   1   2
ATOM      2  C   UNL     1      26.872  27.597 -11.923  1.00  0.00     0.041 C 
ATOM      3  O   UNL     1      27.286  26.910 -12.893  1.00  0.00    -0.550 OA
ATOM      4  O   UNL     1      26.262  26.968 -10.845  1.00  0.00    -0.550 OA
ENDBRANCH   1   2
BRANCH   1   5
ATOM      5  C   UNL     1      28.036  29.564 -10.942  1.00  0.00     0.006 C 
BRANCH   5   6
ATOM      6  C   UNL     1      29.303  30.053 -11.654  1.00  0.00    -0.003 C 
ATOM      7  C   UNL     1      29.016  30.402 -13.111  1.00  0.00     0.004 C 
ENDBRANCH   5   6
ENDBRANCH   1   5
TORSDOF 3
ENDMDL
