MODEL 1
REMARK VINA RESULT:    -4.792      0.000      0.000
REMARK INTER + INTRA:          -7.082
REMARK INTER:                  -6.473
REMARK INTRA:                  -0.610
REMARK UNBOUND:                -0.610
REMARK SMILES COc1ccc(-c2cc(=O)c3c(OC)c(OC)c(OC)cc3o2)cc1OC
REMARK SMILES IDX 7 1 8 2 9 3 10 4 11 5 12 6 15 7 18 8 21 9 22 10 23 11 6 12
REMARK SMILES IDX 3 13 25 14 4 15 24 16 5 17 2 18 1 19 26 20 27 21 13 22 14 23
REMARK SMILES IDX 19 24 20 25 16 26 17 27
REMARK H PARENT
REMARK Flexibility Score: inf
ROOT
ATOM      1  C   UNL     1      -0.484   0.695  -7.263  1.00  0.00     0.138 A 
ATOM      2  C   UNL     1       0.631  -0.150  -7.173  1.00  0.00     0.100 A 
ATOM      3  C   UNL     1       1.914   0.399  -7.213  1.00  0.00     0.197 A 
ATOM      4  O   UNL     1       2.903  -0.377  -7.131  1.00  0.00    -0.289 OA
ATOM      5  C   UNL     1       2.075   1.798  -7.348  1.00  0.00     0.111 A 
ATOM      6  C   UNL     1       3.344   2.432  -7.397  1.00  0.00     0.179 A 
ATOM      7  C   UNL     1       3.420   3.848  -7.540  1.00  0.00     0.204 A 
ATOM      8  C   UNL     1       2.223   4.608  -7.637  1.00  0.00     0.168 A 
ATOM      9  C   UNL     1       0.982   3.954  -7.588  1.00  0.00     0.098 A 
ATOM     10  C   UNL     1       0.902   2.575  -7.444  1.00  0.00     0.146 A 
ATOM     11  O   UNL     1      -0.299   2.005  -7.401  1.00  0.00    -0.456 OA
ENDROOT
BRANCH   1  12
ATOM     12  C   UNL     1      -1.873   0.170  -7.226  1.00  0.00     0.021 A 
ATOM     13  C   UNL     1      -4.496  -0.868  -7.114  1.00  0.00     0.160 A 
ATOM     14  C   UNL     1      -4.070  -0.168  -8.251  1.00  0.00     0.161 A 
ATOM     15  C   UNL     1      -3.606  -1.055  -6.040  1.00  0.00     0.051 A 
ATOM     16  C   UNL     1      -2.758   0.344  -8.306  1.00  0.00     0.062 A 
ATOM     17  C   UNL     1      -2.309  -0.544  -6.101  1.00  0.00     0.016 A 
BRANCH  13  18
ATOM     18  O   UNL     1      -5.808  -1.366  -7.088  1.00  0.00    -0.493 OA
ATOM     19  C   UNL     1      -6.169  -2.708  -7.398  1.00  0.00     0.278 C 
ENDBRANCH  13  18
BRANCH  14  20
ATOM     20  O   UNL     1      -4.978  -0.005  -9.309  1.00  0.00    -0.493 OA
ATOM     21  C   UNL     1      -5.029  -0.833 -10.467  1.00  0.00     0.278 C 
ENDBRANCH  14  20
ENDBRANCH   1  12
BRANCH   6  22
ATOM     22  O   UNL     1       4.488   1.612  -7.296  1.00  0.00    -0.492 OA
ATOM     23  C   UNL     1       5.425   1.551  -6.226  1.00  0.00     0.278 C 
ENDBRANCH   6  22
BRANCH   8  24
ATOM     24  O   UNL     1       2.285   6.003  -7.781  1.00  0.00    -0.493 OA
ATOM     25  C   UNL     1       2.416   6.696  -9.019  1.00  0.00     0.278 C 
ENDBRANCH   8  24
BRANCH   7  26
ATOM     26  O   UNL     1       4.693   4.447  -7.575  1.00  0.00    -0.490 OA
ATOM     27  C   UNL     1       5.538   4.624  -8.707  1.00  0.00     0.278 C 
ENDBRANCH   7  26
TORSDOF 6
ENDMDL
MODEL 2
REMARK VINA RESULT:    -4.787      2.779      9.107
REMARK INTER + INTRA:          -7.075
REMARK INTER:                  -6.455
REMARK INTRA:                  -0.621
REMARK UNBOUND:                -0.610
REMARK SMILES COc1ccc(-c2cc(=O)c3c(OC)c(OC)c(OC)cc3o2)cc1OC
REMARK SMILES IDX 7 1 8 2 9 3 10 4 11 5 12 6 15 7 18 8 21 9 22 10 23 11 6 12
REMARK SMILES IDX 3 13 25 14 4 15 24 16 5 17 2 18 1 19 26 20 27 21 13 22 14 23
REMARK SMILES IDX 19 24 20 25 16 26 17 27
REMARK H PARENT
REMARK Flexibility Score: inf
ROOT
ATOM      1  C   UNL     1       0.561  -0.681  -7.247  1.00  0.00     0.138 A 
ATOM      2  C   UNL     1      -0.549   0.174  -7.189  1.00  0.00     0.100 A 
ATOM      3  C   UNL     1      -1.834  -0.368  -7.225  1.00  0.00     0.197 A 
ATOM      4  O   UNL     1      -2.819   0.416  -7.172  1.00  0.00    -0.289 OA
ATOM      5  C   UNL     1      -2.004  -1.768  -7.325  1.00  0.00     0.111 A 
ATOM      6  C   UNL     1      -3.277  -2.395  -7.369  1.00  0.00     0.179 A 
ATOM      7  C   UNL     1      -3.362  -3.813  -7.476  1.00  0.00     0.204 A 
ATOM      8  C   UNL     1      -2.169  -4.584  -7.543  1.00  0.00     0.168 A 
ATOM      9  C   UNL     1      -0.924  -3.937  -7.500  1.00  0.00     0.098 A 
ATOM     10  C   UNL     1      -0.836  -2.555  -7.392  1.00  0.00     0.146 A 
ATOM     11  O   UNL     1       0.368  -1.992  -7.353  1.00  0.00    -0.456 OA
ENDROOT
BRANCH   1  12
ATOM     12  C   UNL     1       1.953  -0.164  -7.212  1.00  0.00     0.021 A 
ATOM     13  C   UNL     1       4.582   0.860  -7.105  1.00  0.00     0.160 A 
ATOM     14  C   UNL     1       4.168   0.115  -8.217  1.00  0.00     0.161 A 
ATOM     15  C   UNL     1       3.678   1.100  -6.054  1.00  0.00     0.051 A 
ATOM     16  C   UNL     1       2.853  -0.391  -8.269  1.00  0.00     0.062 A 
ATOM     17  C   UNL     1       2.378   0.595  -6.112  1.00  0.00     0.016 A 
BRANCH  13  18
ATOM     18  O   UNL     1       5.898   1.349  -7.081  1.00  0.00    -0.493 OA
ATOM     19  C   UNL     1       6.266   2.691  -7.385  1.00  0.00     0.278 C 
ENDBRANCH  13  18
BRANCH  14  20
ATOM     20  O   UNL     1       5.091  -0.101  -9.253  1.00  0.00    -0.493 OA
ATOM     21  C   UNL     1       5.205   0.712 -10.417  1.00  0.00     0.278 C 
ENDBRANCH  14  20
ENDBRANCH   1  12
BRANCH   6  22
ATOM     22  O   UNL     1      -4.417  -1.565  -7.300  1.00  0.00    -0.492 OA
ATOM     23  C   UNL     1      -5.338  -1.439  -6.222  1.00  0.00     0.278 C 
ENDBRANCH   6  22
BRANCH   8  24
ATOM     24  O   UNL     1      -2.240  -5.982  -7.652  1.00  0.00    -0.493 OA
ATOM     25  C   UNL     1      -2.294  -6.709  -8.876  1.00  0.00     0.278 C 
ENDBRANCH   8  24
BRANCH   7  26
ATOM     26  O   UNL     1      -4.638  -4.405  -7.507  1.00  0.00    -0.490 OA
ATOM     27  C   UNL     1      -5.456  -4.648  -8.647  1.00  0.00     0.278 C 
ENDBRANCH   7  26
TORSDOF 6
ENDMDL
MODEL 3
REMARK VINA RESULT:    -4.782      2.039      8.171
REMARK INTER + INTRA:          -7.069
REMARK INTER:                  -6.447
REMARK INTRA:                  -0.622
REMARK UNBOUND:                -0.610
REMARK SMILES COc1ccc(-c2cc(=O)c3c(OC)c(OC)c(OC)cc3o2)cc1OC
REMARK SMILES IDX 7 1 8 2 9 3 10 4 11 5 12 6 15 7 18 8 21 9 22 10 23 11 6 12
REMARK SMILES IDX 3 13 25 14 4 15 24 16 5 17 2 18 1 19 26 20 27 21 13 22 14 23
REMARK SMILES IDX 19 24 20 25 16 26 17 27
REMARK H PARENT
REMARK Flexibility Score: inf
ROOT
ATOM      1  C   UNL     1      -0.364   1.120  -7.324  1.00  0.00     0.138 A 
ATOM      2  C   UNL     1       0.072  -0.117  -6.828  1.00  0.00     0.100 A 
ATOM      3  C   UNL     1      -0.760  -1.232  -6.939  1.00  0.00     0.197 A 
ATOM      4  O   UNL     1      -0.350  -2.335  -6.486  1.00  0.00    -0.289 OA
ATOM      5  C   UNL     1      -2.031  -1.104  -7.544  1.00  0.00     0.111 A 
ATOM      6  C   UNL     1      -2.934  -2.189  -7.692  1.00  0.00     0.179 A 
ATOM      7  C   UNL     1      -4.200  -1.973  -8.310  1.00  0.00     0.204 A 
ATOM      8  C   UNL     1      -4.546  -0.671  -8.764  1.00  0.00     0.168 A 
ATOM      9  C   UNL     1      -3.635   0.383  -8.602  1.00  0.00     0.098 A 
ATOM     10  C   UNL     1      -2.398   0.178  -8.005  1.00  0.00     0.146 A 
ATOM     11  O   UNL     1      -1.570   1.211  -7.878  1.00  0.00    -0.456 OA
ENDROOT
BRANCH   1  12
ATOM     12  C   UNL     1       0.476   2.342  -7.236  1.00  0.00     0.021 A 
ATOM     13  C   UNL     1       2.063   4.666  -7.011  1.00  0.00     0.160 A 
ATOM     14  C   UNL     1       1.474   4.339  -8.240  1.00  0.00     0.161 A 
ATOM     15  C   UNL     1       1.848   3.836  -5.896  1.00  0.00     0.051 A 
ATOM     16  C   UNL     1       0.678   3.180  -8.348  1.00  0.00     0.062 A 
ATOM     17  C   UNL     1       1.060   2.690  -6.009  1.00  0.00     0.016 A 
BRANCH  13  18
ATOM     18  O   UNL     1       2.851   5.825  -6.935  1.00  0.00    -0.493 OA
ATOM     19  C   UNL     1       4.265   5.830  -6.767  1.00  0.00     0.278 C 
ENDBRANCH  13  18
BRANCH  14  20
ATOM     20  O   UNL     1       1.701   5.191  -9.333  1.00  0.00    -0.493 OA
ATOM     21  C   UNL     1       2.597   4.911 -10.404  1.00  0.00     0.278 C 
ENDBRANCH  14  20
ENDBRANCH   1  12
BRANCH   6  22
ATOM     22  O   UNL     1      -2.522  -3.451  -7.215  1.00  0.00    -0.492 OA
ATOM     23  C   UNL     1      -2.218  -4.614  -7.978  1.00  0.00     0.278 C 
ENDBRANCH   6  22
BRANCH   8  24
ATOM     24  O   UNL     1      -5.792  -0.447  -9.371  1.00  0.00    -0.493 OA
ATOM     25  C   UNL     1      -6.071  -0.604 -10.759  1.00  0.00     0.278 C 
ENDBRANCH   8  24
BRANCH   7  26
ATOM     26  O   UNL     1      -5.068  -3.072  -8.451  1.00  0.00    -0.490 OA
ATOM     27  C   UNL     1      -6.092  -3.491  -7.554  1.00  0.00     0.278 C 
ENDBRANCH   7  26
TORSDOF 6
ENDMDL
MODEL 4
REMARK VINA RESULT:    -4.738      3.012      4.020
REMARK INTER + INTRA:          -7.010
REMARK INTER:                  -6.383
REMARK INTRA:                  -0.626
REMARK UNBOUND:                -0.610
REMARK SMILES COc1ccc(-c2cc(=O)c3c(OC)c(OC)c(OC)cc3o2)cc1OC
REMARK SMILES IDX 7 1 8 2 9 3 10 4 11 5 12 6 15 7 18 8 21 9 22 10 23 11 6 12
REMARK SMILES IDX 3 13 25 14 4 15 24 16 5 17 2 18 1 19 26 20 27 21 13 22 14 23
REMARK SMILES IDX 19 24 20 25 16 26 17 27
REMARK H PARENT
REMARK Flexibility Score: inf
ROOT
ATOM      1  C   UNL     1       0.466  -1.211  -7.235  1.00  0.00     0.138 A 
ATOM      2  C   UNL     1       0.195  -0.064  -6.476  1.00  0.00     0.100 A 
ATOM      3  C   UNL     1       1.050   1.036  -6.565  1.00  0.00     0.197 A 
ATOM      4  O   UNL     1       0.790   2.058  -5.875  1.00  0.00    -0.289 OA
ATOM      5  C   UNL     1       2.181   0.980  -7.413  1.00  0.00     0.111 A 
ATOM      6  C   UNL     1       3.097   2.054  -7.557  1.00  0.00     0.179 A 
ATOM      7  C   UNL     1       4.216   1.915  -8.429  1.00  0.00     0.204 A 
ATOM      8  C   UNL     1       4.403   0.698  -9.141  1.00  0.00     0.168 A 
ATOM      9  C   UNL     1       3.482  -0.347  -8.977  1.00  0.00     0.098 A 
ATOM     10  C   UNL     1       2.388  -0.216  -8.131  1.00  0.00     0.146 A 
ATOM     11  O   UNL     1       1.544  -1.237  -8.014  1.00  0.00    -0.456 OA
ENDROOT
BRANCH   1  12
ATOM     12  C   UNL     1      -0.407  -2.411  -7.184  1.00  0.00     0.021 A 
ATOM     13  C   UNL     1      -2.063  -4.693  -7.026  1.00  0.00     0.160 A 
ATOM     14  C   UNL     1      -1.366  -4.416  -8.211  1.00  0.00     0.161 A 
ATOM     15  C   UNL     1      -1.921  -3.834  -5.921  1.00  0.00     0.051 A 
ATOM     16  C   UNL     1      -0.536  -3.279  -8.284  1.00  0.00     0.062 A 
ATOM     17  C   UNL     1      -1.099  -2.709  -6.001  1.00  0.00     0.016 A 
BRANCH  13  18
ATOM     18  O   UNL     1      -2.882  -5.832  -6.984  1.00  0.00    -0.493 OA
ATOM     19  C   UNL     1      -4.124  -5.908  -6.291  1.00  0.00     0.278 C 
ENDBRANCH  13  18
BRANCH  14  20
ATOM     20  O   UNL     1      -1.521  -5.296  -9.294  1.00  0.00    -0.493 OA
ATOM     21  C   UNL     1      -2.310  -5.026 -10.449  1.00  0.00     0.278 C 
ENDBRANCH  14  20
ENDBRANCH   1  12
BRANCH   6  22
ATOM     22  O   UNL     1       2.848   3.229  -6.817  1.00  0.00    -0.492 OA
ATOM     23  C   UNL     1       2.452   4.503  -7.313  1.00  0.00     0.278 C 
ENDBRANCH   6  22
BRANCH   8  24
ATOM     24  O   UNL     1       5.503   0.549 -10.000  1.00  0.00    -0.493 OA
ATOM     25  C   UNL     1       6.785   0.060  -9.617  1.00  0.00     0.278 C 
ENDBRANCH   8  24
BRANCH   7  26
ATOM     26  O   UNL     1       5.101   3.002  -8.557  1.00  0.00    -0.490 OA
ATOM     27  C   UNL     1       6.251   3.283  -7.766  1.00  0.00     0.278 C 
ENDBRANCH   7  26
TORSDOF 6
ENDMDL
MODEL 5
REMARK VINA RESULT:    -4.716      2.725      8.575
REMARK INTER + INTRA:          -6.979
REMARK INTER:                  -6.353
REMARK INTRA:                  -0.626
REMARK UNBOUND:                -0.610
REMARK SMILES COc1ccc(-c2cc(=O)c3c(OC)c(OC)c(OC)cc3o2)cc1OC
REMARK SMILES IDX 7 1 8 2 9 3 10 4 11 5 12 6 15 7 18 8 21 9 22 10 23 11 6 12
REMARK SMILES IDX 3 13 25 14 4 15 24 16 5 17 2 18 1 19 26 20 27 21 13 22 14 23
REMARK SMILES IDX 19 24 20 25 16 26 17 27
REMARK H PARENT
REMARK Flexibility Score: inf
ROOT
ATOM      1  C   UNL     1       1.240  -0.958  -8.311  1.00  0.00     0.138 A 
ATOM      2  C   UNL     1       1.101  -2.226  -8.893  1.00  0.00     0.100 A 
ATOM      3  C   UNL     1      -0.176  -2.730  -9.143  1.00  0.00     0.197 A 
ATOM      4  O   UNL     1      -0.281  -3.871  -9.667  1.00  0.00    -0.289 OA
ATOM      5  C   UNL     1      -1.314  -1.962  -8.803  1.00  0.00     0.111 A 
ATOM      6  C   UNL     1      -2.644  -2.405  -9.023  1.00  0.00     0.179 A 
ATOM      7  C   UNL     1      -3.736  -1.570  -8.646  1.00  0.00     0.204 A 
ATOM      8  C   UNL     1      -3.480  -0.307  -8.048  1.00  0.00     0.168 A 
ATOM      9  C   UNL     1      -2.154   0.104  -7.840  1.00  0.00     0.098 A 
ATOM     10  C   UNL     1      -1.086  -0.703  -8.209  1.00  0.00     0.146 A 
ATOM     11  O   UNL     1       0.151  -0.265  -7.992  1.00  0.00    -0.456 OA
ENDROOT
BRANCH   1  12
ATOM     12  C   UNL     1       2.572  -0.368  -8.022  1.00  0.00     0.021 A 
ATOM     13  C   UNL     1       5.078   0.798  -7.442  1.00  0.00     0.160 A 
ATOM     14  C   UNL     1       4.936  -0.033  -8.562  1.00  0.00     0.161 A 
ATOM     15  C   UNL     1       3.963   1.051  -6.621  1.00  0.00     0.051 A 
ATOM     16  C   UNL     1       3.683  -0.608  -8.852  1.00  0.00     0.062 A 
ATOM     17  C   UNL     1       2.726   0.476  -6.913  1.00  0.00     0.016 A 
BRANCH  13  18
ATOM     18  O   UNL     1       6.338   1.356  -7.178  1.00  0.00    -0.493 OA
ATOM     19  C   UNL     1       6.771   2.630  -7.645  1.00  0.00     0.278 C 
ENDBRANCH  13  18
BRANCH  14  20
ATOM     20  O   UNL     1       6.065  -0.260  -9.367  1.00  0.00    -0.493 OA
ATOM     21  C   UNL     1       6.329   0.409 -10.596  1.00  0.00     0.278 C 
ENDBRANCH  14  20
ENDBRANCH   1  12
BRANCH   6  22
ATOM     22  O   UNL     1      -2.820  -3.671  -9.620  1.00  0.00    -0.492 OA
ATOM     23  C   UNL     1      -3.339  -3.960 -10.914  1.00  0.00     0.278 C 
ENDBRANCH   6  22
BRANCH   8  24
ATOM     24  O   UNL     1      -4.548   0.522  -7.669  1.00  0.00    -0.493 OA
ATOM     25  C   UNL     1      -5.147   0.552  -6.377  1.00  0.00     0.278 C 
ENDBRANCH   8  24
BRANCH   7  26
ATOM     26  O   UNL     1      -5.043  -2.034  -8.887  1.00  0.00    -0.490 OA
ATOM     27  C   UNL     1      -5.868  -2.800  -8.015  1.00  0.00     0.278 C 
ENDBRANCH   7  26
TORSDOF 6
ENDMDL
MODEL 6
REMARK VINA RESULT:    -4.698      1.821      8.411
REMARK INTER + INTRA:          -6.956
REMARK INTER:                  -6.345
REMARK INTRA:                  -0.611
REMARK UNBOUND:                -0.610
REMARK SMILES COc1ccc(-c2cc(=O)c3c(OC)c(OC)c(OC)cc3o2)cc1OC
REMARK SMILES IDX 7 1 8 2 9 3 10 4 11 5 12 6 15 7 18 8 21 9 22 10 23 11 6 12
REMARK SMILES IDX 3 13 25 14 4 15 24 16 5 17 2 18 1 19 26 20 27 21 13 22 14 23
REMARK SMILES IDX 19 24 20 25 16 26 17 27
REMARK H PARENT
REMARK Flexibility Score: inf
ROOT
ATOM      1  C   UNL     1      -0.092   0.469  -7.012  1.00  0.00     0.138 A 
ATOM      2  C   UNL     1       0.253  -0.859  -6.726  1.00  0.00     0.100 A 
ATOM      3  C   UNL     1      -0.720  -1.856  -6.816  1.00  0.00     0.197 A 
ATOM      4  O   UNL     1      -0.391  -3.044  -6.554  1.00  0.00    -0.289 OA
ATOM      5  C   UNL     1      -2.042  -1.516  -7.188  1.00  0.00     0.111 A 
ATOM      6  C   UNL     1      -3.087  -2.470  -7.300  1.00  0.00     0.179 A 
ATOM      7  C   UNL     1      -4.394  -2.044  -7.676  1.00  0.00     0.204 A 
ATOM      8  C   UNL     1      -4.636  -0.666  -7.929  1.00  0.00     0.168 A 
ATOM      9  C   UNL     1      -3.584   0.255  -7.808  1.00  0.00     0.098 A 
ATOM     10  C   UNL     1      -2.308  -0.155  -7.446  1.00  0.00     0.146 A 
ATOM     11  O   UNL     1      -1.346   0.758  -7.348  1.00  0.00    -0.456 OA
ENDROOT
BRANCH   1  12
ATOM     12  C   UNL     1       0.899   1.572  -6.935  1.00  0.00     0.021 A 
ATOM     13  C   UNL     1       2.754   3.699  -6.833  1.00  0.00     0.160 A 
ATOM     14  C   UNL     1       3.124   2.426  -6.377  1.00  0.00     0.161 A 
ATOM     15  C   UNL     1       1.461   3.902  -7.348  1.00  0.00     0.051 A 
ATOM     16  C   UNL     1       2.197   1.366  -6.435  1.00  0.00     0.062 A 
ATOM     17  C   UNL     1       0.547   2.848  -7.401  1.00  0.00     0.016 A 
BRANCH  13  18
ATOM     18  O   UNL     1       3.698   4.735  -6.762  1.00  0.00    -0.493 OA
ATOM     19  C   UNL     1       3.560   5.998  -7.406  1.00  0.00     0.278 C 
ENDBRANCH  13  18
BRANCH  14  20
ATOM     20  O   UNL     1       4.425   2.253  -5.876  1.00  0.00    -0.493 OA
ATOM     21  C   UNL     1       5.247   1.119  -6.135  1.00  0.00     0.278 C 
ENDBRANCH  14  20
ENDBRANCH   1  12
BRANCH   6  22
ATOM     22  O   UNL     1      -2.771  -3.819  -7.031  1.00  0.00    -0.492 OA
ATOM     23  C   UNL     1      -3.225  -4.620  -5.945  1.00  0.00     0.278 C 
ENDBRANCH   6  22
BRANCH   8  24
ATOM     24  O   UNL     1      -5.920  -0.234  -8.296  1.00  0.00    -0.493 OA
ATOM     25  C   UNL     1      -6.360  -0.009  -9.633  1.00  0.00     0.278 C 
ENDBRANCH   8  24
BRANCH   7  26
ATOM     26  O   UNL     1      -5.405  -3.015  -7.787  1.00  0.00    -0.490 OA
ATOM     27  C   UNL     1      -5.761  -3.771  -8.941  1.00  0.00     0.278 C 
ENDBRANCH   7  26
TORSDOF 6
ENDMDL
MODEL 7
REMARK VINA RESULT:    -4.696      2.735      9.190
REMARK INTER + INTRA:          -6.952
REMARK INTER:                  -6.316
REMARK INTRA:                  -0.636
REMARK UNBOUND:                -0.610
REMARK SMILES COc1ccc(-c2cc(=O)c3c(OC)c(OC)c(OC)cc3o2)cc1OC
REMARK SMILES IDX 7 1 8 2 9 3 10 4 11 5 12 6 15 7 18 8 21 9 22 10 23 11 6 12
REMARK SMILES IDX 3 13 25 14 4 15 24 16 5 17 2 18 1 19 26 20 27 21 13 22 14 23
REMARK SMILES IDX 19 24 20 25 16 26 17 27
REMARK H PARENT
REMARK Flexibility Score: inf
ROOT
ATOM      1  C   UNL     1       0.633  -0.748  -7.531  1.00  0.00     0.138 A 
ATOM      2  C   UNL     1      -0.463   0.116  -7.401  1.00  0.00     0.100 A 
ATOM      3  C   UNL     1      -1.753  -0.414  -7.347  1.00  0.00     0.197 A 
ATOM      4  O   UNL     1      -2.725   0.379  -7.231  1.00  0.00    -0.289 OA
ATOM      5  C   UNL     1      -1.941  -1.813  -7.427  1.00  0.00     0.111 A 
ATOM      6  C   UNL     1      -3.219  -2.429  -7.380  1.00  0.00     0.179 A 
ATOM      7  C   UNL     1      -3.323  -3.847  -7.473  1.00  0.00     0.204 A 
ATOM      8  C   UNL     1      -2.144  -4.628  -7.617  1.00  0.00     0.168 A 
ATOM      9  C   UNL     1      -0.894  -3.992  -7.663  1.00  0.00     0.098 A 
ATOM     10  C   UNL     1      -0.786  -2.611  -7.568  1.00  0.00     0.146 A 
ATOM     11  O   UNL     1       0.422  -2.059  -7.615  1.00  0.00    -0.456 OA
ENDROOT
BRANCH   1  12
ATOM     12  C   UNL     1       2.029  -0.244  -7.593  1.00  0.00     0.021 A 
ATOM     13  C   UNL     1       4.698   0.664  -7.739  1.00  0.00     0.160 A 
ATOM     14  C   UNL     1       3.830   1.199  -6.776  1.00  0.00     0.161 A 
ATOM     15  C   UNL     1       4.231  -0.329  -8.619  1.00  0.00     0.051 A 
ATOM     16  C   UNL     1       2.500   0.739  -6.703  1.00  0.00     0.062 A 
ATOM     17  C   UNL     1       2.913  -0.779  -8.542  1.00  0.00     0.016 A 
BRANCH  13  18
ATOM     18  O   UNL     1       6.017   1.143  -7.788  1.00  0.00    -0.493 OA
ATOM     19  C   UNL     1       6.548   1.938  -8.843  1.00  0.00     0.278 C 
ENDBRANCH  13  18
BRANCH  14  20
ATOM     20  O   UNL     1       4.327   2.183  -5.907  1.00  0.00    -0.493 OA
ATOM     21  C   UNL     1       4.076   3.579  -6.039  1.00  0.00     0.278 C 
ENDBRANCH  14  20
ENDBRANCH   1  12
BRANCH   6  22
ATOM     22  O   UNL     1      -4.344  -1.589  -7.238  1.00  0.00    -0.492 OA
ATOM     23  C   UNL     1      -5.190  -1.451  -6.101  1.00  0.00     0.278 C 
ENDBRANCH   6  22
BRANCH   8  24
ATOM     24  O   UNL     1      -2.234  -6.026  -7.712  1.00  0.00    -0.493 OA
ATOM     25  C   UNL     1      -2.312  -6.764  -8.929  1.00  0.00     0.278 C 
ENDBRANCH   8  24
BRANCH   7  26
ATOM     26  O   UNL     1      -4.603  -4.427  -7.413  1.00  0.00    -0.490 OA
ATOM     27  C   UNL     1      -5.490  -4.688  -8.496  1.00  0.00     0.278 C 
ENDBRANCH   7  26
TORSDOF 6
ENDMDL
MODEL 8
REMARK VINA RESULT:    -4.643      0.902      1.720
REMARK INTER + INTRA:          -6.881
REMARK INTER:                  -6.284
REMARK INTRA:                  -0.597
REMARK UNBOUND:                -0.610
REMARK SMILES COc1ccc(-c2cc(=O)c3c(OC)c(OC)c(OC)cc3o2)cc1OC
REMARK SMILES IDX 7 1 8 2 9 3 10 4 11 5 12 6 15 7 18 8 21 9 22 10 23 11 6 12
REMARK SMILES IDX 3 13 25 14 4 15 24 16 5 17 2 18 1 19 26 20 27 21 13 22 14 23
REMARK SMILES IDX 19 24 20 25 16 26 17 27
REMARK H PARENT
REMARK Flexibility Score: inf
ROOT
ATOM      1  C   UNL     1      -0.216   0.701  -7.489  1.00  0.00     0.138 A 
ATOM      2  C   UNL     1       0.912  -0.127  -7.405  1.00  0.00     0.100 A 
ATOM      3  C   UNL     1       2.183   0.448  -7.365  1.00  0.00     0.197 A 
ATOM      4  O   UNL     1       3.185  -0.313  -7.291  1.00  0.00    -0.289 OA
ATOM      5  C   UNL     1       2.321   1.855  -7.414  1.00  0.00     0.111 A 
ATOM      6  C   UNL     1       3.577   2.514  -7.379  1.00  0.00     0.179 A 
ATOM      7  C   UNL     1       3.629   3.937  -7.439  1.00  0.00     0.204 A 
ATOM      8  C   UNL     1       2.420   4.679  -7.537  1.00  0.00     0.168 A 
ATOM      9  C   UNL     1       1.193   4.000  -7.572  1.00  0.00     0.098 A 
ATOM     10  C   UNL     1       1.136   2.614  -7.510  1.00  0.00     0.146 A 
ATOM     11  O   UNL     1      -0.054   2.020  -7.544  1.00  0.00    -0.456 OA
ENDROOT
BRANCH   1  12
ATOM     12  C   UNL     1      -1.594   0.149  -7.533  1.00  0.00     0.021 A 
ATOM     13  C   UNL     1      -4.234  -0.849  -7.643  1.00  0.00     0.160 A 
ATOM     14  C   UNL     1      -3.322  -1.384  -6.722  1.00  0.00     0.161 A 
ATOM     15  C   UNL     1      -3.825   0.190  -8.499  1.00  0.00     0.051 A 
ATOM     16  C   UNL     1      -2.007  -0.879  -6.666  1.00  0.00     0.062 A 
ATOM     17  C   UNL     1      -2.521   0.684  -8.440  1.00  0.00     0.016 A 
BRANCH  13  18
ATOM     18  O   UNL     1      -5.535  -1.373  -7.676  1.00  0.00    -0.493 OA
ATOM     19  C   UNL     1      -6.356  -1.425  -8.839  1.00  0.00     0.278 C 
ENDBRANCH  13  18
BRANCH  14  20
ATOM     20  O   UNL     1      -3.761  -2.414  -5.875  1.00  0.00    -0.493 OA
ATOM     21  C   UNL     1      -3.428  -3.790  -6.036  1.00  0.00     0.278 C 
ENDBRANCH  14  20
ENDBRANCH   1  12
BRANCH   6  22
ATOM     22  O   UNL     1       4.734   1.711  -7.283  1.00  0.00    -0.492 OA
ATOM     23  C   UNL     1       5.601   1.564  -6.164  1.00  0.00     0.278 C 
ENDBRANCH   6  22
BRANCH   8  24
ATOM     24  O   UNL     1       2.459   6.081  -7.599  1.00  0.00    -0.493 OA
ATOM     25  C   UNL     1       2.528   6.849  -8.797  1.00  0.00     0.278 C 
ENDBRANCH   8  24
BRANCH   7  26
ATOM     26  O   UNL     1       4.889   4.561  -7.392  1.00  0.00    -0.490 OA
ATOM     27  C   UNL     1       5.740   4.883  -8.488  1.00  0.00     0.278 C 
ENDBRANCH   7  26
TORSDOF 6
ENDMDL
MODEL 9
REMARK VINA RESULT:    -4.636      1.783      3.431
REMARK INTER + INTRA:          -6.872
REMARK INTER:                  -6.273
REMARK INTRA:                  -0.599
REMARK UNBOUND:                -0.610
REMARK SMILES COc1ccc(-c2cc(=O)c3c(OC)c(OC)c(OC)cc3o2)cc1OC
REMARK SMILES IDX 7 1 8 2 9 3 10 4 11 5 12 6 15 7 18 8 21 9 22 10 23 11 6 12
REMARK SMILES IDX 3 13 25 14 4 15 24 16 5 17 2 18 1 19 26 20 27 21 13 22 14 23
REMARK SMILES IDX 19 24 20 25 16 26 17 27
REMARK H PARENT
REMARK Flexibility Score: inf
ROOT
ATOM      1  C   UNL     1      -0.182   0.075  -7.085  1.00  0.00     0.138 A 
ATOM      2  C   UNL     1      -0.636   1.262  -7.677  1.00  0.00     0.100 A 
ATOM      3  C   UNL     1       0.274   2.284  -7.952  1.00  0.00     0.197 A 
ATOM      4  O   UNL     1      -0.153   3.344  -8.483  1.00  0.00    -0.289 OA
ATOM      5  C   UNL     1       1.640   2.115  -7.627  1.00  0.00     0.111 A 
ATOM      6  C   UNL     1       2.625   3.106  -7.873  1.00  0.00     0.179 A 
ATOM      7  C   UNL     1       3.981   2.858  -7.511  1.00  0.00     0.204 A 
ATOM      8  C   UNL     1       4.329   1.622  -6.901  1.00  0.00     0.168 A 
ATOM      9  C   UNL     1       3.333   0.661  -6.667  1.00  0.00     0.098 A 
ATOM     10  C   UNL     1       2.011   0.895  -7.022  1.00  0.00     0.146 A 
ATOM     11  O   UNL     1       1.107  -0.049  -6.781  1.00  0.00    -0.456 OA
ENDROOT
BRANCH   1  12
ATOM     12  C   UNL     1      -1.102  -1.048  -6.770  1.00  0.00     0.021 A 
ATOM     13  C   UNL     1      -2.814  -3.220  -6.200  1.00  0.00     0.160 A 
ATOM     14  C   UNL     1      -3.316  -1.911  -6.183  1.00  0.00     0.161 A 
ATOM     15  C   UNL     1      -1.459  -3.439  -6.512  1.00  0.00     0.051 A 
ATOM     16  C   UNL     1      -2.459  -0.830  -6.473  1.00  0.00     0.062 A 
ATOM     17  C   UNL     1      -0.617  -2.363  -6.797  1.00  0.00     0.016 A 
BRANCH  13  18
ATOM     18  O   UNL     1      -3.690  -4.276  -5.906  1.00  0.00    -0.493 OA
ATOM     19  C   UNL     1      -3.460  -5.637  -6.256  1.00  0.00     0.278 C 
ENDBRANCH  13  18
BRANCH  14  20
ATOM     20  O   UNL     1      -4.673  -1.725  -5.875  1.00  0.00    -0.493 OA
ATOM     21  C   UNL     1      -5.592  -0.992  -6.681  1.00  0.00     0.278 C 
ENDBRANCH  14  20
ENDBRANCH   1  12
BRANCH   6  22
ATOM     22  O   UNL     1       2.205   4.309  -8.480  1.00  0.00    -0.492 OA
ATOM     23  C   UNL     1       2.224   5.618  -7.922  1.00  0.00     0.278 C 
ENDBRANCH   6  22
BRANCH   8  24
ATOM     24  O   UNL     1       5.661   1.368  -6.536  1.00  0.00    -0.493 OA
ATOM     25  C   UNL     1       6.644   0.773  -7.378  1.00  0.00     0.278 C 
ENDBRANCH   8  24
BRANCH   7  26
ATOM     26  O   UNL     1       4.936   3.857  -7.777  1.00  0.00    -0.490 OA
ATOM     27  C   UNL     1       5.708   4.027  -8.961  1.00  0.00     0.278 C 
ENDBRANCH   7  26
TORSDOF 6
ENDMDL
