MODEL 1
REMARK VINA RESULT:    -3.431      0.000      0.000
REMARK INTER + INTRA:          -5.437
REMARK INTER:                  -4.734
REMARK INTRA:                  -0.703
REMARK UNBOUND:                -0.703
REMARK SMILES OC[C@H](O)C(O)[C@@H](O)CO
REMARK SMILES IDX 5 1 7 2 9 3 10 4 8 6 3 8 2 9 1 10 4 12 6 14
REMARK H PARENT 10 5 8 7 1 11 4 13 6 15
REMARK Flexibility Score: inf
ROOT
ATOM      1  C   UNL     1     175.566 161.088 181.688  1.00  0.00     0.176 C 
ENDROOT
BRANCH   1   2
ATOM      2  C   UNL     1     174.425 161.497 180.716  1.00  0.00     0.171 C 
BRANCH   2   3
ATOM      3  C   UNL     1     173.135 160.700 180.980  1.00  0.00     0.190 C 
BRANCH   3   4
ATOM      4  O   UNL     1     173.144 159.479 180.287  1.00  0.00    -0.394 OA
ATOM      5  H   UNL     1     174.088 159.287 180.051  1.00  0.00     0.210 HD
ENDBRANCH   3   4
ENDBRANCH   2   3
BRANCH   2   6
ATOM      6  O   UNL     1     174.829 161.316 179.381  1.00  0.00    -0.388 OA
ATOM      7  H   UNL     1     175.670 161.830 179.261  1.00  0.00     0.211 HD
ENDBRANCH   2   6
ENDBRANCH   1   2
BRANCH   1   8
ATOM      8  C   UNL     1     176.748 162.103 181.778  1.00  0.00     0.171 C 
BRANCH   8   9
ATOM      9  C   UNL     1     177.992 161.694 180.960  1.00  0.00     0.190 C 
BRANCH   9  10
ATOM     10  O   UNL     1     177.672 161.463 179.617  1.00  0.00    -0.394 OA
ATOM     11  H   UNL     1     177.587 160.479 179.518  1.00  0.00     0.210 HD
ENDBRANCH   9  10
ENDBRANCH   8   9
BRANCH   8  12
ATOM     12  O   UNL     1     177.075 162.423 183.108  1.00  0.00    -0.388 OA
ATOM     13  H   UNL     1     178.018 162.164 183.266  1.00  0.00     0.211 HD
ENDBRANCH   8  12
ENDBRANCH   1   8
BRANCH   1  14
ATOM     14  O   UNL     1     176.055 159.808 181.365  1.00  0.00    -0.388 OA
ATOM     15  H   UNL     1     175.397 159.374 180.761  1.00  0.00     0.211 HD
ENDBRANCH   1  14
TORSDOF 9
ENDMDL
MODEL 2
REMARK VINA RESULT:    -3.418     13.446     14.483
REMARK INTER + INTRA:          -5.419
REMARK INTER:                  -4.716
REMARK INTRA:                  -0.703
REMARK UNBOUND:                -0.703
REMARK SMILES OC[C@H](O)C(O)[C@@H](O)CO
REMARK SMILES IDX 5 1 7 2 9 3 10 4 8 6 3 8 2 9 1 10 4 12 6 14
REMARK H PARENT 10 5 8 7 1 11 4 13 6 15
REMARK Flexibility Score: inf
ROOT
ATOM      1  C   UNL     1     176.584 175.308 181.020  1.00  0.00     0.176 C 
ENDROOT
BRANCH   1   2
ATOM      2  C   UNL     1     176.141 174.955 179.573  1.00  0.00     0.171 C 
BRANCH   2   3
ATOM      3  C   UNL     1     175.527 173.546 179.490  1.00  0.00     0.190 C 
BRANCH   3   4
ATOM      4  O   UNL     1     176.526 172.566 179.383  1.00  0.00    -0.394 OA
ATOM      5  H   UNL     1     176.724 172.457 178.417  1.00  0.00     0.210 HD
ENDBRANCH   3   4
ENDBRANCH   2   3
BRANCH   2   6
ATOM      6  O   UNL     1     177.230 175.052 178.689  1.00  0.00    -0.388 OA
ATOM      7  H   UNL     1     177.128 175.907 178.195  1.00  0.00     0.211 HD
ENDBRANCH   2   6
ENDBRANCH   1   2
BRANCH   1   8
ATOM      8  C   UNL     1     177.120 176.761 181.207  1.00  0.00     0.171 C 
BRANCH   8   9
ATOM      9  C   UNL     1     176.854 177.355 182.607  1.00  0.00     0.190 C 
BRANCH   9  10
ATOM     10  O   UNL     1     176.708 176.352 183.573  1.00  0.00    -0.394 OA
ATOM     11  H   UNL     1     175.740 176.312 183.786  1.00  0.00     0.210 HD
ENDBRANCH   9  10
ENDBRANCH   8   9
BRANCH   8  12
ATOM     12  O   UNL     1     176.694 177.623 180.180  1.00  0.00    -0.388 OA
ATOM     13  H   UNL     1     175.744 177.423 179.983  1.00  0.00     0.211 HD
ENDBRANCH   8  12
ENDBRANCH   1   8
BRANCH   1  14
ATOM     14  O   UNL     1     177.535 174.380 181.485  1.00  0.00    -0.388 OA
ATOM     15  H   UNL     1     178.365 174.878 181.704  1.00  0.00     0.211 HD
ENDBRANCH   1  14
TORSDOF 9
ENDMDL
MODEL 3
REMARK VINA RESULT:    -3.374     13.371     14.593
REMARK INTER + INTRA:          -5.359
REMARK INTER:                  -4.687
REMARK INTRA:                  -0.672
REMARK UNBOUND:                -0.703
REMARK SMILES OC[C@H](O)C(O)[C@@H](O)CO
REMARK SMILES IDX 5 1 7 2 9 3 10 4 8 6 3 8 2 9 1 10 4 12 6 14
REMARK H PARENT 10 5 8 7 1 11 4 13 6 15
REMARK Flexibility Score: inf
ROOT
ATOM      1  C   UNL     1     177.121 175.193 180.974  1.00  0.00     0.176 C 
ENDROOT
BRANCH   1   2
ATOM      2  C   UNL     1     177.045 176.652 181.505  1.00  0.00     0.171 C 
BRANCH   2   3
ATOM      3  C   UNL     1     175.968 176.809 182.594  1.00  0.00     0.190 C 
BRANCH   3   4
ATOM      4  O   UNL     1     176.497 176.551 183.868  1.00  0.00    -0.394 OA
ATOM      5  H   UNL     1     176.962 175.675 183.818  1.00  0.00     0.210 HD
ENDBRANCH   3   4
ENDBRANCH   2   3
BRANCH   2   6
ATOM      6  O   UNL     1     176.787 177.545 180.450  1.00  0.00    -0.388 OA
ATOM      7  H   UNL     1     175.979 177.210 179.978  1.00  0.00     0.211 HD
ENDBRANCH   2   6
ENDBRANCH   1   2
BRANCH   1   8
ATOM      8  C   UNL     1     176.404 174.952 179.610  1.00  0.00     0.171 C 
BRANCH   8   9
ATOM      9  C   UNL     1     175.657 173.604 179.521  1.00  0.00     0.190 C 
BRANCH   9  10
ATOM     10  O   UNL     1     176.546 172.527 179.425  1.00  0.00    -0.394 OA
ATOM     11  H   UNL     1     177.119 172.568 180.235  1.00  0.00     0.210 HD
ENDBRANCH   9  10
ENDBRANCH   8   9
BRANCH   8  12
ATOM     12  O   UNL     1     177.264 175.149 178.514  1.00  0.00    -0.388 OA
ATOM     13  H   UNL     1     178.094 174.632 178.675  1.00  0.00     0.211 HD
ENDBRANCH   8  12
ENDBRANCH   1   8
BRANCH   1  14
ATOM     14  O   UNL     1     176.635 174.291 181.940  1.00  0.00    -0.388 OA
ATOM     15  H   UNL     1     176.771 174.699 182.835  1.00  0.00     0.211 HD
ENDBRANCH   1  14
TORSDOF 9
ENDMDL
MODEL 4
REMARK VINA RESULT:    -3.372     19.976     21.263
REMARK INTER + INTRA:          -5.356
REMARK INTER:                  -4.769
REMARK INTRA:                  -0.588
REMARK UNBOUND:                -0.703
REMARK SMILES OC[C@H](O)C(O)[C@@H](O)CO
REMARK SMILES IDX 5 1 7 2 9 3 10 4 8 6 3 8 2 9 1 10 4 12 6 14
REMARK H PARENT 10 5 8 7 1 11 4 13 6 15
REMARK Flexibility Score: inf
ROOT
ATOM      1  C   UNL     1     160.373 174.678 178.940  1.00  0.00     0.176 C 
ENDROOT
BRANCH   1   2
ATOM      2  C   UNL     1     159.308 174.362 177.853  1.00  0.00     0.171 C 
BRANCH   2   3
ATOM      3  C   UNL     1     159.220 175.477 176.797  1.00  0.00     0.190 C 
BRANCH   3   4
ATOM      4  O   UNL     1     158.159 176.353 177.075  1.00  0.00    -0.394 OA
ATOM      5  H   UNL     1     158.011 176.328 178.056  1.00  0.00     0.210 HD
ENDBRANCH   3   4
ENDBRANCH   2   3
BRANCH   2   6
ATOM      6  O   UNL     1     158.047 174.166 178.444  1.00  0.00    -0.388 OA
ATOM      7  H   UNL     1     158.172 174.248 179.426  1.00  0.00     0.211 HD
ENDBRANCH   2   6
ENDBRANCH   1   2
BRANCH   1   8
ATOM      8  C   UNL     1     160.157 173.951 180.303  1.00  0.00     0.171 C 
BRANCH   8   9
ATOM      9  C   UNL     1     160.175 172.411 180.205  1.00  0.00     0.190 C 
BRANCH   9  10
ATOM     10  O   UNL     1     158.884 171.875 180.285  1.00  0.00    -0.394 OA
ATOM     11  H   UNL     1     158.288 172.517 179.819  1.00  0.00     0.210 HD
ENDBRANCH   9  10
ENDBRANCH   8   9
BRANCH   8  12
ATOM     12  O   UNL     1     159.019 174.422 180.983  1.00  0.00    -0.388 OA
ATOM     13  H   UNL     1     159.195 174.369 181.956  1.00  0.00     0.211 HD
ENDBRANCH   8  12
ENDBRANCH   1   8
BRANCH   1  14
ATOM     14  O   UNL     1     160.470 176.068 179.146  1.00  0.00    -0.388 OA
ATOM     15  H   UNL     1     161.148 176.423 178.514  1.00  0.00     0.211 HD
ENDBRANCH   1  14
TORSDOF 9
ENDMDL
MODEL 5
REMARK VINA RESULT:    -3.326     19.759     21.136
REMARK INTER + INTRA:          -5.292
REMARK INTER:                  -4.687
REMARK INTRA:                  -0.605
REMARK UNBOUND:                -0.703
REMARK SMILES OC[C@H](O)C(O)[C@@H](O)CO
REMARK SMILES IDX 5 1 7 2 9 3 10 4 8 6 3 8 2 9 1 10 4 12 6 14
REMARK H PARENT 10 5 8 7 1 11 4 13 6 15
REMARK Flexibility Score: inf
ROOT
ATOM      1  C   UNL     1     160.120 173.462 178.065  1.00  0.00     0.176 C 
ENDROOT
BRANCH   1   2
ATOM      2  C   UNL     1     159.447 173.787 179.428  1.00  0.00     0.171 C 
BRANCH   2   3
ATOM      3  C   UNL     1     159.728 172.697 180.479  1.00  0.00     0.190 C 
BRANCH   3   4
ATOM      4  O   UNL     1     158.839 171.620 180.338  1.00  0.00    -0.394 OA
ATOM      5  H   UNL     1     158.168 171.700 181.065  1.00  0.00     0.210 HD
ENDBRANCH   3   4
ENDBRANCH   2   3
BRANCH   2   6
ATOM      6  O   UNL     1     158.059 173.944 179.266  1.00  0.00    -0.388 OA
ATOM      7  H   UNL     1     157.679 173.036 179.131  1.00  0.00     0.211 HD
ENDBRANCH   2   6
ENDBRANCH   1   2
BRANCH   1   8
ATOM      8  C   UNL     1     159.507 174.204 176.837  1.00  0.00     0.171 C 
BRANCH   8   9
ATOM      9  C   UNL     1     159.503 175.742 176.969  1.00  0.00     0.190 C 
BRANCH   9  10
ATOM     10  O   UNL     1     158.208 176.239 177.160  1.00  0.00    -0.394 OA
ATOM     11  H   UNL     1     158.188 176.617 178.077  1.00  0.00     0.210 HD
ENDBRANCH   9  10
ENDBRANCH   8   9
BRANCH   8  12
ATOM     12  O   UNL     1     158.239 173.702 176.490  1.00  0.00    -0.388 OA
ATOM     13  H   UNL     1     157.978 174.098 175.620  1.00  0.00     0.211 HD
ENDBRANCH   8  12
ENDBRANCH   1   8
BRANCH   1  14
ATOM     14  O   UNL     1     160.123 172.073 177.836  1.00  0.00    -0.388 OA
ATOM     15  H   UNL     1     160.179 171.925 176.856  1.00  0.00     0.211 HD
ENDBRANCH   1  14
TORSDOF 9
ENDMDL
MODEL 6
REMARK VINA RESULT:    -3.326     20.572     21.565
REMARK INTER + INTRA:          -5.292
REMARK INTER:                  -4.321
REMARK INTRA:                  -0.972
REMARK UNBOUND:                -0.703
REMARK SMILES OC[C@H](O)C(O)[C@@H](O)CO
REMARK SMILES IDX 5 1 7 2 9 3 10 4 8 6 3 8 2 9 1 10 4 12 6 14
REMARK H PARENT 10 5 8 7 1 11 4 13 6 15
REMARK Flexibility Score: inf
ROOT
ATOM      1  C   UNL     1     160.371 174.207 177.352  1.00  0.00     0.176 C 
ENDROOT
BRANCH   1   2
ATOM      2  C   UNL     1     160.475 174.388 178.892  1.00  0.00     0.171 C 
BRANCH   2   3
ATOM      3  C   UNL     1     159.449 173.518 179.641  1.00  0.00     0.190 C 
BRANCH   3   4
ATOM      4  O   UNL     1     158.138 173.948 179.383  1.00  0.00    -0.394 OA
ATOM      5  H   UNL     1     158.171 174.502 178.560  1.00  0.00     0.210 HD
ENDBRANCH   3   4
ENDBRANCH   2   3
BRANCH   2   6
ATOM      6  O   UNL     1     160.296 175.739 179.240  1.00  0.00    -0.388 OA
ATOM      7  H   UNL     1     161.153 176.054 179.630  1.00  0.00     0.211 HD
ENDBRANCH   2   6
ENDBRANCH   1   2
BRANCH   1   8
ATOM      8  C   UNL     1     160.153 175.526 176.548  1.00  0.00     0.171 C 
BRANCH   8   9
ATOM      9  C   UNL     1     158.685 175.779 176.140  1.00  0.00     0.190 C 
BRANCH   9  10
ATOM     10  O   UNL     1     157.877 176.034 177.254  1.00  0.00    -0.394 OA
ATOM     11  H   UNL     1     158.160 176.919 177.604  1.00  0.00     0.210 HD
ENDBRANCH   9  10
ENDBRANCH   8   9
BRANCH   8  12
ATOM     12  O   UNL     1     161.029 175.634 175.453  1.00  0.00    -0.388 OA
ATOM     13  H   UNL     1     161.192 174.724 175.096  1.00  0.00     0.211 HD
ENDBRANCH   8  12
ENDBRANCH   1   8
BRANCH   1  14
ATOM     14  O   UNL     1     159.365 173.276 177.031  1.00  0.00    -0.388 OA
ATOM     15  H   UNL     1     158.517 173.589 177.442  1.00  0.00     0.211 HD
ENDBRANCH   1  14
TORSDOF 9
ENDMDL
MODEL 7
REMARK VINA RESULT:    -3.256      1.200      3.902
REMARK INTER + INTRA:          -5.196
REMARK INTER:                  -4.497
REMARK INTRA:                  -0.699
REMARK UNBOUND:                -0.703
REMARK SMILES OC[C@H](O)C(O)[C@@H](O)CO
REMARK SMILES IDX 5 1 7 2 9 3 10 4 8 6 3 8 2 9 1 10 4 12 6 14
REMARK H PARENT 10 5 8 7 1 11 4 13 6 15
REMARK Flexibility Score: inf
ROOT
ATOM      1  C   UNL     1     174.828 161.802 180.663  1.00  0.00     0.176 C 
ENDROOT
BRANCH   1   2
ATOM      2  C   UNL     1     176.052 161.186 181.396  1.00  0.00     0.171 C 
BRANCH   2   3
ATOM      3  C   UNL     1     177.383 161.726 180.841  1.00  0.00     0.190 C 
BRANCH   3   4
ATOM      4  O   UNL     1     177.538 161.389 179.487  1.00  0.00    -0.394 OA
ATOM      5  H   UNL     1     177.170 162.142 178.956  1.00  0.00     0.210 HD
ENDBRANCH   3   4
ENDBRANCH   2   3
BRANCH   2   6
ATOM      6  O   UNL     1     176.030 159.784 181.297  1.00  0.00    -0.388 OA
ATOM      7  H   UNL     1     176.650 159.434 181.989  1.00  0.00     0.211 HD
ENDBRANCH   2   6
ENDBRANCH   1   2
BRANCH   1   8
ATOM      8  C   UNL     1     173.451 161.536 181.346  1.00  0.00     0.171 C 
BRANCH   8   9
ATOM      9  C   UNL     1     172.518 160.607 180.540  1.00  0.00     0.190 C 
BRANCH   9  10
ATOM     10  O   UNL     1     173.116 159.366 180.291  1.00  0.00    -0.394 OA
ATOM     11  H   UNL     1     173.662 159.482 179.471  1.00  0.00     0.210 HD
ENDBRANCH   9  10
ENDBRANCH   8   9
BRANCH   8  12
ATOM     12  O   UNL     1     172.806 162.727 181.727  1.00  0.00    -0.388 OA
ATOM     13  H   UNL     1     171.832 162.550 181.774  1.00  0.00     0.211 HD
ENDBRANCH   8  12
ENDBRANCH   1   8
BRANCH   1  14
ATOM     14  O   UNL     1     174.791 161.375 179.322  1.00  0.00    -0.388 OA
ATOM     15  H   UNL     1     175.283 162.042 178.776  1.00  0.00     0.211 HD
ENDBRANCH   1  14
TORSDOF 9
ENDMDL
MODEL 8
REMARK VINA RESULT:    -3.252     10.907     11.854
REMARK INTER + INTRA:          -5.191
REMARK INTER:                  -4.458
REMARK INTRA:                  -0.733
REMARK UNBOUND:                -0.703
REMARK SMILES OC[C@H](O)C(O)[C@@H](O)CO
REMARK SMILES IDX 5 1 7 2 9 3 10 4 8 6 3 8 2 9 1 10 4 12 6 14
REMARK H PARENT 10 5 8 7 1 11 4 13 6 15
REMARK Flexibility Score: inf
ROOT
ATOM      1  C   UNL     1     176.438 172.613 181.133  1.00  0.00     0.176 C 
ENDROOT
BRANCH   1   2
ATOM      2  C   UNL     1     175.852 171.550 180.163  1.00  0.00     0.171 C 
BRANCH   2   3
ATOM      3  C   UNL     1     176.424 170.147 180.438  1.00  0.00     0.190 C 
BRANCH   3   4
ATOM      4  O   UNL     1     177.780 170.077 180.085  1.00  0.00    -0.394 OA
ATOM      5  H   UNL     1     178.136 171.003 180.112  1.00  0.00     0.210 HD
ENDBRANCH   3   4
ENDBRANCH   2   3
BRANCH   2   6
ATOM      6  O   UNL     1     176.104 171.912 178.828  1.00  0.00    -0.388 OA
ATOM      7  H   UNL     1     175.227 171.925 178.361  1.00  0.00     0.211 HD
ENDBRANCH   2   6
ENDBRANCH   1   2
BRANCH   1   8
ATOM      8  C   UNL     1     175.861 174.052 180.957  1.00  0.00     0.171 C 
BRANCH   8   9
ATOM      9  C   UNL     1     176.854 175.056 180.333  1.00  0.00     0.190 C 
BRANCH   9  10
ATOM     10  O   UNL     1     177.194 174.697 179.023  1.00  0.00    -0.394 OA
ATOM     11  H   UNL     1     177.617 173.802 179.082  1.00  0.00     0.210 HD
ENDBRANCH   9  10
ENDBRANCH   8   9
BRANCH   8  12
ATOM     12  O   UNL     1     175.291 174.546 182.145  1.00  0.00    -0.388 OA
ATOM     13  H   UNL     1     174.439 174.997 181.915  1.00  0.00     0.211 HD
ENDBRANCH   8  12
ENDBRANCH   1   8
BRANCH   1  14
ATOM     14  O   UNL     1     177.843 172.643 181.041  1.00  0.00    -0.388 OA
ATOM     15  H   UNL     1     178.085 172.664 180.079  1.00  0.00     0.211 HD
ENDBRANCH   1  14
TORSDOF 9
ENDMDL
MODEL 9
REMARK VINA RESULT:    -3.207     13.996     15.037
REMARK INTER + INTRA:          -5.128
REMARK INTER:                  -4.246
REMARK INTRA:                  -0.882
REMARK UNBOUND:                -0.703
REMARK SMILES OC[C@H](O)C(O)[C@@H](O)CO
REMARK SMILES IDX 5 1 7 2 9 3 10 4 8 6 3 8 2 9 1 10 4 12 6 14
REMARK H PARENT 10 5 8 7 1 11 4 13 6 15
REMARK Flexibility Score: inf
ROOT
ATOM      1  C   UNL     1     175.835 176.498 180.698  1.00  0.00     0.176 C 
ENDROOT
BRANCH   1   2
ATOM      2  C   UNL     1     176.349 177.139 179.379  1.00  0.00     0.171 C 
BRANCH   2   3
ATOM      3  C   UNL     1     176.303 176.145 178.204  1.00  0.00     0.190 C 
BRANCH   3   4
ATOM      4  O   UNL     1     177.255 175.126 178.368  1.00  0.00    -0.394 OA
ATOM      5  H   UNL     1     177.045 174.422 177.700  1.00  0.00     0.210 HD
ENDBRANCH   3   4
ENDBRANCH   2   3
BRANCH   2   6
ATOM      6  O   UNL     1     177.660 177.619 179.544  1.00  0.00    -0.388 OA
ATOM      7  H   UNL     1     177.603 178.422 180.125  1.00  0.00     0.211 HD
ENDBRANCH   2   6
ENDBRANCH   1   2
BRANCH   1   8
ATOM      8  C   UNL     1     176.949 176.134 181.729  1.00  0.00     0.171 C 
BRANCH   8   9
ATOM      9  C   UNL     1     177.057 174.624 182.031  1.00  0.00     0.190 C 
BRANCH   9  10
ATOM     10  O   UNL     1     177.614 173.922 180.956  1.00  0.00    -0.394 OA
ATOM     11  H   UNL     1     178.560 173.746 181.200  1.00  0.00     0.210 HD
ENDBRANCH   9  10
ENDBRANCH   8   9
BRANCH   8  12
ATOM     12  O   UNL     1     176.857 176.901 182.905  1.00  0.00    -0.388 OA
ATOM     13  H   UNL     1     176.173 176.489 183.490  1.00  0.00     0.211 HD
ENDBRANCH   8  12
ENDBRANCH   1   8
BRANCH   1  14
ATOM     14  O   UNL     1     175.047 175.364 180.422  1.00  0.00    -0.388 OA
ATOM     15  H   UNL     1     174.204 175.675 179.999  1.00  0.00     0.211 HD
ENDBRANCH   1  14
TORSDOF 9
ENDMDL
