MODEL 1
REMARK VINA RESULT:    -4.948      0.000      0.000
REMARK INTER + INTRA:          -5.412
REMARK INTER:                  -5.382
REMARK INTRA:                  -0.030
REMARK UNBOUND:                -0.030
REMARK SMILES O=C([O-])c1ccc(O)cc1
REMARK SMILES IDX 4 1 5 2 10 3 6 4 9 5 7 6 2 7 1 8 3 9 8 10
REMARK H PARENT 8 11
REMARK Flexibility Score: inf
ROOT
ATOM      1  C   UNL     1     -22.741  17.924  19.636  1.00  0.00    -0.003 A 
ATOM      2  C   UNL     1     -21.923  16.918  19.090  1.00  0.00     0.014 A 
ATOM      3  C   UNL     1     -24.025  17.584  20.096  1.00  0.00     0.014 A 
ATOM      4  C   UNL     1     -22.382  15.599  19.008  1.00  0.00     0.047 A 
ATOM      5  C   UNL     1     -24.481  16.265  20.014  1.00  0.00     0.047 A 
ATOM      6  C   UNL     1     -23.663  15.270  19.471  1.00  0.00     0.115 A 
ENDROOT
BRANCH   1   7
ATOM      7  C   UNL     1     -22.261  19.321  19.725  1.00  0.00     0.071 C 
ATOM      8  O   UNL     1     -21.824  19.915  18.703  1.00  0.00    -0.545 OA
ATOM      9  O   UNL     1     -22.286  19.999  20.938  1.00  0.00    -0.545 OA
ENDBRANCH   1   7
BRANCH   6  10
ATOM     10  O   UNL     1     -24.131  13.960  19.394  1.00  0.00    -0.508 OA
ATOM     11  H   UNL     1     -25.030  13.695  19.778  1.00  0.00     0.293 HD
ENDBRANCH   6  10
TORSDOF 2
ENDMDL
MODEL 2
REMARK VINA RESULT:    -4.874      1.492      3.955
REMARK INTER + INTRA:          -5.331
REMARK INTER:                  -5.304
REMARK INTRA:                  -0.027
REMARK UNBOUND:                -0.030
REMARK SMILES O=C([O-])c1ccc(O)cc1
REMARK SMILES IDX 4 1 5 2 10 3 6 4 9 5 7 6 2 7 1 8 3 9 8 10
REMARK H PARENT 8 11
REMARK Flexibility Score: inf
ROOT
ATOM      1  C   UNL     1     -23.115  16.517  19.350  1.00  0.00    -0.003 A 
ATOM      2  C   UNL     1     -22.189  17.573  19.268  1.00  0.00     0.014 A 
ATOM      3  C   UNL     1     -24.264  16.678  20.145  1.00  0.00     0.014 A 
ATOM      4  C   UNL     1     -22.409  18.764  19.968  1.00  0.00     0.047 A 
ATOM      5  C   UNL     1     -24.481  17.870  20.842  1.00  0.00     0.047 A 
ATOM      6  C   UNL     1     -23.557  18.915  20.756  1.00  0.00     0.115 A 
ENDROOT
BRANCH   1   7
ATOM      7  C   UNL     1     -22.888  15.255  18.613  1.00  0.00     0.071 C 
ATOM      8  O   UNL     1     -23.314  15.114  17.435  1.00  0.00    -0.545 OA
ATOM      9  O   UNL     1     -22.200  14.204  19.210  1.00  0.00    -0.545 OA
ENDBRANCH   1   7
BRANCH   6  10
ATOM     10  O   UNL     1     -23.786  20.097  21.457  1.00  0.00    -0.508 OA
ATOM     11  H   UNL     1     -23.932  20.099  22.460  1.00  0.00     0.293 HD
ENDBRANCH   6  10
TORSDOF 2
ENDMDL
MODEL 3
REMARK VINA RESULT:    -4.863      1.683      4.192
REMARK INTER + INTRA:          -5.319
REMARK INTER:                  -5.290
REMARK INTRA:                  -0.028
REMARK UNBOUND:                -0.030
REMARK SMILES O=C([O-])c1ccc(O)cc1
REMARK SMILES IDX 4 1 5 2 10 3 6 4 9 5 7 6 2 7 1 8 3 9 8 10
REMARK H PARENT 8 11
REMARK Flexibility Score: inf
ROOT
ATOM      1  C   UNL     1     -23.380  16.617  19.149  1.00  0.00    -0.003 A 
ATOM      2  C   UNL     1     -24.483  16.694  20.019  1.00  0.00     0.014 A 
ATOM      3  C   UNL     1     -22.379  17.602  19.227  1.00  0.00     0.014 A 
ATOM      4  C   UNL     1     -24.580  17.736  20.947  1.00  0.00     0.047 A 
ATOM      5  C   UNL     1     -22.480  18.641  20.157  1.00  0.00     0.047 A 
ATOM      6  C   UNL     1     -23.578  18.712  21.018  1.00  0.00     0.115 A 
ENDROOT
BRANCH   1   7
ATOM      7  C   UNL     1     -23.271  15.518  18.164  1.00  0.00     0.071 C 
ATOM      8  O   UNL     1     -22.337  14.676  18.244  1.00  0.00    -0.545 OA
ATOM      9  O   UNL     1     -24.199  15.399  17.135  1.00  0.00    -0.545 OA
ENDBRANCH   1   7
BRANCH   6  10
ATOM     10  O   UNL     1     -23.665  19.754  21.939  1.00  0.00    -0.508 OA
ATOM     11  H   UNL     1     -24.386  19.773  22.652  1.00  0.00     0.293 HD
ENDBRANCH   6  10
TORSDOF 2
ENDMDL
MODEL 4
REMARK VINA RESULT:    -4.790      2.235      2.890
REMARK INTER + INTRA:          -5.240
REMARK INTER:                  -5.213
REMARK INTRA:                  -0.027
REMARK UNBOUND:                -0.030
REMARK SMILES O=C([O-])c1ccc(O)cc1
REMARK SMILES IDX 4 1 5 2 10 3 6 4 9 5 7 6 2 7 1 8 3 9 8 10
REMARK H PARENT 8 11
REMARK Flexibility Score: inf
ROOT
ATOM      1  C   UNL     1     -23.792  17.001  19.139  1.00  0.00    -0.003 A 
ATOM      2  C   UNL     1     -24.587  16.969  20.299  1.00  0.00     0.014 A 
ATOM      3  C   UNL     1     -24.356  16.600  17.914  1.00  0.00     0.014 A 
ATOM      4  C   UNL     1     -25.919  16.546  20.234  1.00  0.00     0.047 A 
ATOM      5  C   UNL     1     -25.687  16.178  17.853  1.00  0.00     0.047 A 
ATOM      6  C   UNL     1     -26.471  16.149  19.009  1.00  0.00     0.115 A 
ENDROOT
BRANCH   1   7
ATOM      7  C   UNL     1     -22.383  17.448  19.201  1.00  0.00     0.071 C 
ATOM      8  O   UNL     1     -21.453  16.614  19.373  1.00  0.00    -0.545 OA
ATOM      9  O   UNL     1     -22.064  18.795  19.072  1.00  0.00    -0.545 OA
ENDBRANCH   1   7
BRANCH   6  10
ATOM     10  O   UNL     1     -27.797  15.725  18.932  1.00  0.00    -0.508 OA
ATOM     11  H   UNL     1     -28.231  15.206  19.686  1.00  0.00     0.293 HD
ENDBRANCH   6  10
TORSDOF 2
ENDMDL
MODEL 5
REMARK VINA RESULT:    -4.781      1.819      2.514
REMARK INTER + INTRA:          -5.230
REMARK INTER:                  -5.194
REMARK INTRA:                  -0.036
REMARK UNBOUND:                -0.030
REMARK SMILES O=C([O-])c1ccc(O)cc1
REMARK SMILES IDX 4 1 5 2 10 3 6 4 9 5 7 6 2 7 1 8 3 9 8 10
REMARK H PARENT 8 11
REMARK Flexibility Score: inf
ROOT
ATOM      1  C   UNL     1     -23.868  18.240  20.222  1.00  0.00    -0.003 A 
ATOM      2  C   UNL     1     -24.889  17.524  20.875  1.00  0.00     0.014 A 
ATOM      3  C   UNL     1     -23.643  18.010  18.853  1.00  0.00     0.014 A 
ATOM      4  C   UNL     1     -25.667  16.599  20.170  1.00  0.00     0.047 A 
ATOM      5  C   UNL     1     -24.422  17.086  18.152  1.00  0.00     0.047 A 
ATOM      6  C   UNL     1     -25.435  16.378  18.806  1.00  0.00     0.115 A 
ENDROOT
BRANCH   1   7
ATOM      7  C   UNL     1     -23.042  19.219  20.961  1.00  0.00     0.071 C 
ATOM      8  O   UNL     1     -23.071  19.261  22.220  1.00  0.00    -0.545 OA
ATOM      9  O   UNL     1     -22.220  20.108  20.277  1.00  0.00    -0.545 OA
ENDBRANCH   1   7
BRANCH   6  10
ATOM     10  O   UNL     1     -26.203  15.459  18.095  1.00  0.00    -0.508 OA
ATOM     11  H   UNL     1     -27.027  15.030  18.501  1.00  0.00     0.293 HD
ENDBRANCH   6  10
TORSDOF 2
ENDMDL
MODEL 6
REMARK VINA RESULT:    -4.761      1.548      4.564
REMARK INTER + INTRA:          -5.208
REMARK INTER:                  -5.181
REMARK INTRA:                  -0.028
REMARK UNBOUND:                -0.030
REMARK SMILES O=C([O-])c1ccc(O)cc1
REMARK SMILES IDX 4 1 5 2 10 3 6 4 9 5 7 6 2 7 1 8 3 9 8 10
REMARK H PARENT 8 11
REMARK Flexibility Score: inf
ROOT
ATOM      1  C   UNL     1     -24.484  17.148  19.918  1.00  0.00    -0.003 A 
ATOM      2  C   UNL     1     -24.315  17.929  21.075  1.00  0.00     0.014 A 
ATOM      3  C   UNL     1     -23.897  17.576  18.714  1.00  0.00     0.014 A 
ATOM      4  C   UNL     1     -23.572  19.113  21.028  1.00  0.00     0.047 A 
ATOM      5  C   UNL     1     -23.154  18.759  18.670  1.00  0.00     0.047 A 
ATOM      6  C   UNL     1     -22.989  19.530  19.824  1.00  0.00     0.115 A 
ENDROOT
BRANCH   1   7
ATOM      7  C   UNL     1     -25.270  15.895  19.961  1.00  0.00     0.071 C 
ATOM      8  O   UNL     1     -24.810  14.870  20.532  1.00  0.00    -0.545 OA
ATOM      9  O   UNL     1     -26.528  15.830  19.373  1.00  0.00    -0.545 OA
ENDBRANCH   1   7
BRANCH   6  10
ATOM     10  O   UNL     1     -22.247  20.709  19.765  1.00  0.00    -0.508 OA
ATOM     11  H   UNL     1     -22.633  21.559  19.371  1.00  0.00     0.293 HD
ENDBRANCH   6  10
TORSDOF 2
ENDMDL
MODEL 7
REMARK VINA RESULT:    -4.751      1.544      4.372
REMARK INTER + INTRA:          -5.197
REMARK INTER:                  -5.170
REMARK INTRA:                  -0.027
REMARK UNBOUND:                -0.030
REMARK SMILES O=C([O-])c1ccc(O)cc1
REMARK SMILES IDX 4 1 5 2 10 3 6 4 9 5 7 6 2 7 1 8 3 9 8 10
REMARK H PARENT 8 11
REMARK Flexibility Score: inf
ROOT
ATOM      1  C   UNL     1     -24.483  17.174  19.914  1.00  0.00    -0.003 A 
ATOM      2  C   UNL     1     -23.893  17.585  18.705  1.00  0.00     0.014 A 
ATOM      3  C   UNL     1     -24.309  17.968  21.062  1.00  0.00     0.014 A 
ATOM      4  C   UNL     1     -23.147  18.767  18.647  1.00  0.00     0.047 A 
ATOM      5  C   UNL     1     -23.564  19.148  21.000  1.00  0.00     0.047 A 
ATOM      6  C   UNL     1     -22.981  19.551  19.795  1.00  0.00     0.115 A 
ENDROOT
BRANCH   1   7
ATOM      7  C   UNL     1     -25.273  15.925  19.983  1.00  0.00     0.071 C 
ATOM      8  O   UNL     1     -26.458  15.892  19.553  1.00  0.00    -0.545 OA
ATOM      9  O   UNL     1     -24.721  14.769  20.523  1.00  0.00    -0.545 OA
ENDBRANCH   1   7
BRANCH   6  10
ATOM     10  O   UNL     1     -22.239  20.730  19.749  1.00  0.00    -0.508 OA
ATOM     11  H   UNL     1     -21.247  20.724  19.539  1.00  0.00     0.293 HD
ENDBRANCH   6  10
TORSDOF 2
ENDMDL
MODEL 8
REMARK VINA RESULT:    -4.065      2.439      3.648
REMARK INTER + INTRA:          -4.451
REMARK INTER:                  -4.422
REMARK INTRA:                  -0.029
REMARK UNBOUND:                -0.030
REMARK SMILES O=C([O-])c1ccc(O)cc1
REMARK SMILES IDX 4 1 5 2 10 3 6 4 9 5 7 6 2 7 1 8 3 9 8 10
REMARK H PARENT 8 11
REMARK Flexibility Score: inf
ROOT
ATOM      1  C   UNL     1     -24.062  15.587  18.953  1.00  0.00    -0.003 A 
ATOM      2  C   UNL     1     -24.724  14.840  17.961  1.00  0.00     0.014 A 
ATOM      3  C   UNL     1     -24.824  16.363  19.845  1.00  0.00     0.014 A 
ATOM      4  C   UNL     1     -26.119  14.869  17.866  1.00  0.00     0.047 A 
ATOM      5  C   UNL     1     -26.218  16.390  19.747  1.00  0.00     0.047 A 
ATOM      6  C   UNL     1     -26.869  15.645  18.760  1.00  0.00     0.115 A 
ENDROOT
BRANCH   1   7
ATOM      7  C   UNL     1     -22.586  15.561  19.059  1.00  0.00     0.071 C 
ATOM      8  O   UNL     1     -21.977  14.476  19.257  1.00  0.00    -0.545 OA
ATOM      9  O   UNL     1     -21.850  16.734  18.940  1.00  0.00    -0.545 OA
ENDBRANCH   1   7
BRANCH   6  10
ATOM     10  O   UNL     1     -28.260  15.681  18.674  1.00  0.00    -0.508 OA
ATOM     11  H   UNL     1     -28.736  16.344  18.073  1.00  0.00     0.293 HD
ENDBRANCH   6  10
TORSDOF 2
ENDMDL
MODEL 9
REMARK VINA RESULT:    -4.005      2.175      4.883
REMARK INTER + INTRA:          -4.386
REMARK INTER:                  -4.355
REMARK INTRA:                  -0.032
REMARK UNBOUND:                -0.030
REMARK SMILES O=C([O-])c1ccc(O)cc1
REMARK SMILES IDX 4 1 5 2 10 3 6 4 9 5 7 6 2 7 1 8 3 9 8 10
REMARK H PARENT 8 11
REMARK Flexibility Score: inf
ROOT
ATOM      1  C   UNL     1     -25.121  15.058  19.095  1.00  0.00    -0.003 A 
ATOM      2  C   UNL     1     -24.892  16.246  19.814  1.00  0.00     0.014 A 
ATOM      3  C   UNL     1     -24.071  14.506  18.339  1.00  0.00     0.014 A 
ATOM      4  C   UNL     1     -23.639  16.865  19.777  1.00  0.00     0.047 A 
ATOM      5  C   UNL     1     -22.820  15.127  18.305  1.00  0.00     0.047 A 
ATOM      6  C   UNL     1     -22.599  16.307  19.022  1.00  0.00     0.115 A 
ENDROOT
BRANCH   1   7
ATOM      7  C   UNL     1     -26.444  14.398  19.129  1.00  0.00     0.071 C 
ATOM      8  O   UNL     1     -27.085  14.301  20.210  1.00  0.00    -0.545 OA
ATOM      9  O   UNL     1     -27.002  13.875  17.968  1.00  0.00    -0.545 OA
ENDBRANCH   1   7
BRANCH   6  10
ATOM     10  O   UNL     1     -21.347  16.916  18.978  1.00  0.00    -0.508 OA
ATOM     11  H   UNL     1     -20.628  16.604  18.335  1.00  0.00     0.293 HD
ENDBRANCH   6  10
TORSDOF 2
ENDMDL
