MODEL 1
REMARK VINA RESULT:    -4.158      0.000      0.000
REMARK INTER + INTRA:          -5.228
REMARK INTER:                  -5.008
REMARK INTRA:                  -0.220
REMARK UNBOUND:                -0.220
REMARK SMILES OCC(O)CO
REMARK SMILES IDX 3 1 5 2 6 3 2 5 1 6 4 8
REMARK H PARENT 6 4 1 7 4 9
REMARK Flexibility Score: inf
ROOT
ATOM      1  C   UNL     1     168.568 170.256 171.632  1.00  0.00     0.165 C 
ENDROOT
BRANCH   1   2
ATOM      2  C   UNL     1     167.439 170.978 170.883  1.00  0.00     0.190 C 
BRANCH   2   3
ATOM      3  O   UNL     1     167.941 171.699 169.789  1.00  0.00    -0.394 OA
ATOM      4  H   UNL     1     168.929 171.598 169.805  1.00  0.00     0.210 HD
ENDBRANCH   2   3
ENDBRANCH   1   2
BRANCH   1   5
ATOM      5  C   UNL     1     168.756 168.820 171.114  1.00  0.00     0.190 C 
BRANCH   5   6
ATOM      6  O   UNL     1     168.361 168.728 169.772  1.00  0.00    -0.394 OA
ATOM      7  H   UNL     1     169.180 168.851 169.223  1.00  0.00     0.210 HD
ENDBRANCH   5   6
ENDBRANCH   1   5
BRANCH   1   8
ATOM      8  O   UNL     1     169.760 170.985 171.482  1.00  0.00    -0.388 OA
ATOM      9  H   UNL     1     170.179 170.683 170.634  1.00  0.00     0.211 HD
ENDBRANCH   1   8
TORSDOF 5
ENDMDL
MODEL 2
REMARK VINA RESULT:    -4.088      1.151      1.975
REMARK INTER + INTRA:          -5.145
REMARK INTER:                  -4.922
REMARK INTRA:                  -0.222
REMARK UNBOUND:                -0.220
REMARK SMILES OCC(O)CO
REMARK SMILES IDX 3 1 5 2 6 3 2 5 1 6 4 8
REMARK H PARENT 6 4 1 7 4 9
REMARK Flexibility Score: inf
ROOT
ATOM      1  C   UNL     1     167.745 169.432 170.607  1.00  0.00     0.165 C 
ENDROOT
BRANCH   1   2
ATOM      2  C   UNL     1     167.226 170.855 170.859  1.00  0.00     0.190 C 
BRANCH   2   3
ATOM      3  O   UNL     1     167.836 171.774 169.991  1.00  0.00    -0.394 OA
ATOM      4  H   UNL     1     168.803 171.785 170.216  1.00  0.00     0.210 HD
ENDBRANCH   2   3
ENDBRANCH   1   2
BRANCH   1   5
ATOM      5  C   UNL     1     169.093 169.194 171.308  1.00  0.00     0.190 C 
BRANCH   5   6
ATOM      6  O   UNL     1     170.095 169.979 170.719  1.00  0.00    -0.394 OA
ATOM      7  H   UNL     1     169.708 170.883 170.581  1.00  0.00     0.210 HD
ENDBRANCH   5   6
ENDBRANCH   1   5
BRANCH   1   8
ATOM      8  O   UNL     1     166.791 168.507 171.064  1.00  0.00    -0.388 OA
ATOM      9  H   UNL     1     166.113 168.413 170.344  1.00  0.00     0.211 HD
ENDBRANCH   1   8
TORSDOF 5
ENDMDL
MODEL 3
REMARK VINA RESULT:    -4.021      0.872      2.619
REMARK INTER + INTRA:          -5.064
REMARK INTER:                  -4.878
REMARK INTRA:                  -0.185
REMARK UNBOUND:                -0.220
REMARK SMILES OCC(O)CO
REMARK SMILES IDX 3 1 5 2 6 3 2 5 1 6 4 8
REMARK H PARENT 6 4 1 7 4 9
REMARK Flexibility Score: inf
ROOT
ATOM      1  C   UNL     1     167.894 169.787 171.430  1.00  0.00     0.165 C 
ENDROOT
BRANCH   1   2
ATOM      2  C   UNL     1     169.397 169.861 171.125  1.00  0.00     0.190 C 
BRANCH   2   3
ATOM      3  O   UNL     1     169.940 171.080 171.559  1.00  0.00    -0.394 OA
ATOM      4  H   UNL     1     170.509 171.422 170.820  1.00  0.00     0.210 HD
ENDBRANCH   2   3
ENDBRANCH   1   2
BRANCH   1   5
ATOM      5  C   UNL     1     167.149 171.014 170.880  1.00  0.00     0.190 C 
BRANCH   5   6
ATOM      6  O   UNL     1     167.895 171.624 169.861  1.00  0.00    -0.394 OA
ATOM      7  H   UNL     1     167.323 171.627 169.049  1.00  0.00     0.210 HD
ENDBRANCH   5   6
ENDBRANCH   1   5
BRANCH   1   8
ATOM      8  O   UNL     1     167.369 168.609 170.872  1.00  0.00    -0.388 OA
ATOM      9  H   UNL     1     168.142 168.039 170.620  1.00  0.00     0.211 HD
ENDBRANCH   1   8
TORSDOF 5
ENDMDL
MODEL 4
REMARK VINA RESULT:    -4.005      1.252      2.061
REMARK INTER + INTRA:          -5.044
REMARK INTER:                  -4.853
REMARK INTRA:                  -0.191
REMARK UNBOUND:                -0.220
REMARK SMILES OCC(O)CO
REMARK SMILES IDX 3 1 5 2 6 3 2 5 1 6 4 8
REMARK H PARENT 6 4 1 7 4 9
REMARK Flexibility Score: inf
ROOT
ATOM      1  C   UNL     1     167.758 170.531 170.633  1.00  0.00     0.165 C 
ENDROOT
BRANCH   1   2
ATOM      2  C   UNL     1     169.095 170.625 171.381  1.00  0.00     0.190 C 
BRANCH   2   3
ATOM      3  O   UNL     1     170.134 170.055 170.630  1.00  0.00    -0.394 OA
ATOM      4  H   UNL     1     169.955 170.273 169.678  1.00  0.00     0.210 HD
ENDBRANCH   2   3
ENDBRANCH   1   2
BRANCH   1   5
ATOM      5  C   UNL     1     167.172 169.112 170.707  1.00  0.00     0.190 C 
BRANCH   5   6
ATOM      6  O   UNL     1     168.178 168.156 170.507  1.00  0.00    -0.394 OA
ATOM      7  H   UNL     1     168.455 168.225 169.556  1.00  0.00     0.210 HD
ENDBRANCH   5   6
ENDBRANCH   1   5
BRANCH   1   8
ATOM      8  O   UNL     1     166.856 171.458 171.182  1.00  0.00    -0.388 OA
ATOM      9  H   UNL     1     166.510 171.060 172.024  1.00  0.00     0.211 HD
ENDBRANCH   1   8
TORSDOF 5
ENDMDL
MODEL 5
REMARK VINA RESULT:    -4.003      1.495      2.633
REMARK INTER + INTRA:          -5.042
REMARK INTER:                  -4.828
REMARK INTRA:                  -0.214
REMARK UNBOUND:                -0.220
REMARK SMILES OCC(O)CO
REMARK SMILES IDX 3 1 5 2 6 3 2 5 1 6 4 8
REMARK H PARENT 6 4 1 7 4 9
REMARK Flexibility Score: inf
ROOT
ATOM      1  C   UNL     1     168.459 169.798 170.324  1.00  0.00     0.165 C 
ENDROOT
BRANCH   1   2
ATOM      2  C   UNL     1     167.862 169.048 171.523  1.00  0.00     0.190 C 
BRANCH   2   3
ATOM      3  O   UNL     1     166.701 168.352 171.154  1.00  0.00    -0.394 OA
ATOM      4  H   UNL     1     166.648 167.550 171.737  1.00  0.00     0.210 HD
ENDBRANCH   2   3
ENDBRANCH   1   2
BRANCH   1   5
ATOM      5  C   UNL     1     167.815 171.183 170.150  1.00  0.00     0.190 C 
BRANCH   5   6
ATOM      6  O   UNL     1     166.836 171.394 171.132  1.00  0.00    -0.394 OA
ATOM      7  H   UNL     1     165.962 171.166 170.720  1.00  0.00     0.210 HD
ENDBRANCH   5   6
ENDBRANCH   1   5
BRANCH   1   8
ATOM      8  O   UNL     1     169.846 169.928 170.506  1.00  0.00    -0.388 OA
ATOM      9  H   UNL     1     170.066 170.889 170.383  1.00  0.00     0.211 HD
ENDBRANCH   1   8
TORSDOF 5
ENDMDL
MODEL 6
REMARK VINA RESULT:    -3.996      1.059      2.237
REMARK INTER + INTRA:          -5.034
REMARK INTER:                  -4.848
REMARK INTRA:                  -0.185
REMARK UNBOUND:                -0.220
REMARK SMILES OCC(O)CO
REMARK SMILES IDX 3 1 5 2 6 3 2 5 1 6 4 8
REMARK H PARENT 6 4 1 7 4 9
REMARK Flexibility Score: inf
ROOT
ATOM      1  C   UNL     1     167.856 170.658 171.142  1.00  0.00     0.165 C 
ENDROOT
BRANCH   1   2
ATOM      2  C   UNL     1     167.216 169.408 170.522  1.00  0.00     0.190 C 
BRANCH   2   3
ATOM      3  O   UNL     1     168.082 168.306 170.602  1.00  0.00    -0.394 OA
ATOM      4  H   UNL     1     168.507 168.338 171.499  1.00  0.00     0.210 HD
ENDBRANCH   2   3
ENDBRANCH   1   2
BRANCH   1   5
ATOM      5  C   UNL     1     169.282 170.371 171.640  1.00  0.00     0.190 C 
BRANCH   5   6
ATOM      6  O   UNL     1     170.130 170.089 170.559  1.00  0.00    -0.394 OA
ATOM      7  H   UNL     1     170.890 170.724 170.618  1.00  0.00     0.210 HD
ENDBRANCH   5   6
ENDBRANCH   1   5
BRANCH   1   8
ATOM      8  O   UNL     1     167.873 171.688 170.187  1.00  0.00    -0.388 OA
ATOM      9  H   UNL     1     167.254 172.394 170.512  1.00  0.00     0.211 HD
ENDBRANCH   1   8
TORSDOF 5
ENDMDL
MODEL 7
REMARK VINA RESULT:    -3.176      9.587      9.958
REMARK INTER + INTRA:          -4.046
REMARK INTER:                  -3.830
REMARK INTRA:                  -0.217
REMARK UNBOUND:                -0.220
REMARK SMILES OCC(O)CO
REMARK SMILES IDX 3 1 5 2 6 3 2 5 1 6 4 8
REMARK H PARENT 6 4 1 7 4 9
REMARK Flexibility Score: inf
ROOT
ATOM      1  C   UNL     1     159.323 165.723 168.503  1.00  0.00     0.165 C 
ENDROOT
BRANCH   1   2
ATOM      2  C   UNL     1     159.830 166.675 167.411  1.00  0.00     0.190 C 
BRANCH   2   3
ATOM      3  O   UNL     1     161.179 166.428 167.115  1.00  0.00    -0.394 OA
ATOM      4  H   UNL     1     161.704 166.694 167.915  1.00  0.00     0.210 HD
ENDBRANCH   2   3
ENDBRANCH   1   2
BRANCH   1   5
ATOM      5  C   UNL     1     159.855 164.296 168.296  1.00  0.00     0.190 C 
BRANCH   5   6
ATOM      6  O   UNL     1     161.026 164.097 169.042  1.00  0.00    -0.394 OA
ATOM      7  H   UNL     1     161.228 164.958 169.494  1.00  0.00     0.210 HD
ENDBRANCH   5   6
ENDBRANCH   1   5
BRANCH   1   8
ATOM      8  O   UNL     1     159.718 166.211 169.760  1.00  0.00    -0.388 OA
ATOM      9  H   UNL     1     158.964 166.048 170.385  1.00  0.00     0.211 HD
ENDBRANCH   1   8
TORSDOF 5
ENDMDL
MODEL 8
REMARK VINA RESULT:    -3.099      9.819     10.303
REMARK INTER + INTRA:          -3.953
REMARK INTER:                  -3.731
REMARK INTRA:                  -0.222
REMARK UNBOUND:                -0.220
REMARK SMILES OCC(O)CO
REMARK SMILES IDX 3 1 5 2 6 3 2 5 1 6 4 8
REMARK H PARENT 6 4 1 7 4 9
REMARK Flexibility Score: inf
ROOT
ATOM      1  C   UNL     1     160.110 165.045 167.573  1.00  0.00     0.165 C 
ENDROOT
BRANCH   1   2
ATOM      2  C   UNL     1     160.116 163.734 168.372  1.00  0.00     0.190 C 
BRANCH   2   3
ATOM      3  O   UNL     1     161.208 163.686 169.252  1.00  0.00    -0.394 OA
ATOM      4  H   UNL     1     160.944 163.099 170.008  1.00  0.00     0.210 HD
ENDBRANCH   2   3
ENDBRANCH   1   2
BRANCH   1   5
ATOM      5  C   UNL     1     159.404 166.171 168.346  1.00  0.00     0.190 C 
BRANCH   5   6
ATOM      6  O   UNL     1     159.823 166.182 169.684  1.00  0.00    -0.394 OA
ATOM      7  H   UNL     1     159.017 166.011 170.238  1.00  0.00     0.210 HD
ENDBRANCH   5   6
ENDBRANCH   1   5
BRANCH   1   8
ATOM      8  O   UNL     1     161.434 165.413 167.281  1.00  0.00    -0.388 OA
ATOM      9  H   UNL     1     161.395 166.068 166.536  1.00  0.00     0.211 HD
ENDBRANCH   1   8
TORSDOF 5
ENDMDL
MODEL 9
REMARK VINA RESULT:    -3.051      9.631     10.076
REMARK INTER + INTRA:          -3.895
REMARK INTER:                  -3.674
REMARK INTRA:                  -0.221
REMARK UNBOUND:                -0.220
REMARK SMILES OCC(O)CO
REMARK SMILES IDX 3 1 5 2 6 3 2 5 1 6 4 8
REMARK H PARENT 6 4 1 7 4 9
REMARK Flexibility Score: inf
ROOT
ATOM      1  C   UNL     1     160.024 164.576 168.093  1.00  0.00     0.165 C 
ENDROOT
BRANCH   1   2
ATOM      2  C   UNL     1     159.077 165.610 168.718  1.00  0.00     0.190 C 
BRANCH   2   3
ATOM      3  O   UNL     1     159.695 166.278 169.786  1.00  0.00    -0.394 OA
ATOM      4  H   UNL     1     159.660 165.666 170.568  1.00  0.00     0.210 HD
ENDBRANCH   2   3
ENDBRANCH   1   2
BRANCH   1   5
ATOM      5  C   UNL     1     160.804 165.172 166.910  1.00  0.00     0.190 C 
BRANCH   5   6
ATOM      6  O   UNL     1     161.066 166.532 167.132  1.00  0.00    -0.394 OA
ATOM      7  H   UNL     1     162.051 166.645 167.085  1.00  0.00     0.210 HD
ENDBRANCH   5   6
ENDBRANCH   1   5
BRANCH   1   8
ATOM      8  O   UNL     1     160.913 164.111 169.076  1.00  0.00    -0.388 OA
ATOM      9  H   UNL     1     160.676 164.575 169.922  1.00  0.00     0.211 HD
ENDBRANCH   1   8
TORSDOF 5
ENDMDL
