MODEL 1
REMARK VINA RESULT:    -3.518      0.000      0.000
REMARK INTER + INTRA:          -8.381
REMARK INTER:                  -6.191
REMARK INTRA:                  -2.189
REMARK UNBOUND:                -2.189
REMARK SMILES CCCCCCCCCCCCCCC(=O)[O-]
REMARK SMILES IDX 9 1 10 2 11 3 12 4 13 5 14 6 15 7 16 8 17 9 8 10 7 11 6 12
REMARK SMILES IDX 5 13 4 14 3 15 2 16 1 17
REMARK H PARENT
REMARK Flexibility Score: inf
ROOT
ATOM      1  C   UNL     1      11.499  62.019   7.979  1.00  0.00     0.000 C 
ENDROOT
BRANCH   1   2
ATOM      2  C   UNL     1      12.708  62.485   7.156  1.00  0.00     0.000 C 
BRANCH   2   3
ATOM      3  C   UNL     1      13.288  63.823   7.648  1.00  0.00     0.000 C 
BRANCH   3   4
ATOM      4  C   UNL     1      13.567  64.830   6.512  1.00  0.00     0.000 C 
BRANCH   4   5
ATOM      5  C   UNL     1      12.610  64.646   5.325  1.00  0.00     0.006 C 
BRANCH   5   6
ATOM      6  C   UNL     1      12.236  65.997   4.707  1.00  0.00     0.053 C 
BRANCH   6   7
ATOM      7  C   UNL     1      11.804  65.821   3.286  1.00  0.00     0.041 C 
ATOM      8  O   UNL     1      10.663  65.358   3.022  1.00  0.00    -0.550 OA
ATOM      9  O   UNL     1      12.642  66.215   2.250  1.00  0.00    -0.550 OA
ENDBRANCH   6   7
ENDBRANCH   5   6
ENDBRANCH   4   5
ENDBRANCH   3   4
ENDBRANCH   2   3
ENDBRANCH   1   2
BRANCH   1  10
ATOM     10  C   UNL     1      11.016  63.125   8.924  1.00  0.00     0.000 C 
BRANCH  10  11
ATOM     11  C   UNL     1       9.538  63.459   8.672  1.00  0.00    -0.000 C 
BRANCH  11  12
ATOM     12  C   UNL     1       9.254  64.968   8.734  1.00  0.00    -0.000 C 
BRANCH  12  13
ATOM     13  C   UNL     1      10.060  65.764   7.693  1.00  0.00    -0.000 C 
BRANCH  13  14
ATOM     14  C   UNL     1      10.490  67.145   8.210  1.00  0.00    -0.000 C 
BRANCH  14  15
ATOM     15  C   UNL     1      11.919  67.148   8.770  1.00  0.00    -0.000 C 
BRANCH  15  16
ATOM     16  C   UNL     1      11.907  67.095  10.303  1.00  0.00    -0.003 C 
ATOM     17  C   UNL     1      12.548  65.808  10.815  1.00  0.00     0.004 C 
ENDBRANCH  15  16
ENDBRANCH  14  15
ENDBRANCH  13  14
ENDBRANCH  12  13
ENDBRANCH  11  12
ENDBRANCH  10  11
ENDBRANCH   1  10
TORSDOF 13
ENDMDL
MODEL 2
REMARK VINA RESULT:    -3.472      2.127      3.542
REMARK INTER + INTRA:          -8.300
REMARK INTER:                  -6.964
REMARK INTRA:                  -1.336
REMARK UNBOUND:                -2.189
REMARK SMILES CCCCCCCCCCCCCCC(=O)[O-]
REMARK SMILES IDX 9 1 10 2 11 3 12 4 13 5 14 6 15 7 16 8 17 9 8 10 7 11 6 12
REMARK SMILES IDX 5 13 4 14 3 15 2 16 1 17
REMARK H PARENT
REMARK Flexibility Score: inf
ROOT
ATOM      1  C   UNL     1      11.819  62.183   7.638  1.00  0.00     0.000 C 
ENDROOT
BRANCH   1   2
ATOM      2  C   UNL     1      12.972  62.873   6.895  1.00  0.00     0.000 C 
BRANCH   2   3
ATOM      3  C   UNL     1      13.496  64.120   7.627  1.00  0.00     0.000 C 
BRANCH   3   4
ATOM      4  C   UNL     1      13.712  65.336   6.701  1.00  0.00     0.000 C 
BRANCH   4   5
ATOM      5  C   UNL     1      12.468  66.235   6.625  1.00  0.00     0.006 C 
BRANCH   5   6
ATOM      6  C   UNL     1      11.471  65.707   5.590  1.00  0.00     0.053 C 
BRANCH   6   7
ATOM      7  C   UNL     1      12.062  65.763   4.217  1.00  0.00     0.041 C 
ATOM      8  O   UNL     1      12.194  64.710   3.539  1.00  0.00    -0.550 OA
ATOM      9  O   UNL     1      12.423  66.985   3.664  1.00  0.00    -0.550 OA
ENDBRANCH   6   7
ENDBRANCH   5   6
ENDBRANCH   4   5
ENDBRANCH   3   4
ENDBRANCH   2   3
ENDBRANCH   1   2
BRANCH   1  10
ATOM     10  C   UNL     1      11.235  63.099   8.719  1.00  0.00     0.000 C 
BRANCH  10  11
ATOM     11  C   UNL     1       9.770  63.446   8.414  1.00  0.00    -0.000 C 
BRANCH  11  12
ATOM     12  C   UNL     1       9.459  64.936   8.626  1.00  0.00    -0.000 C 
BRANCH  12  13
ATOM     13  C   UNL     1       7.957  65.203   8.830  1.00  0.00    -0.000 C 
BRANCH  13  14
ATOM     14  C   UNL     1       7.117  63.919   8.771  1.00  0.00    -0.000 C 
BRANCH  14  15
ATOM     15  C   UNL     1       5.662  64.183   8.360  1.00  0.00    -0.000 C 
BRANCH  15  16
ATOM     16  C   UNL     1       4.955  65.078   9.386  1.00  0.00    -0.003 C 
ATOM     17  C   UNL     1       4.447  66.364   8.741  1.00  0.00     0.004 C 
ENDBRANCH  15  16
ENDBRANCH  14  15
ENDBRANCH  13  14
ENDBRANCH  12  13
ENDBRANCH  11  12
ENDBRANCH  10  11
ENDBRANCH   1  10
TORSDOF 13
ENDMDL
MODEL 3
REMARK VINA RESULT:    -3.464      1.693      3.898
REMARK INTER + INTRA:          -8.285
REMARK INTER:                  -6.613
REMARK INTRA:                  -1.672
REMARK UNBOUND:                -2.189
REMARK SMILES CCCCCCCCCCCCCCC(=O)[O-]
REMARK SMILES IDX 9 1 10 2 11 3 12 4 13 5 14 6 15 7 16 8 17 9 8 10 7 11 6 12
REMARK SMILES IDX 5 13 4 14 3 15 2 16 1 17
REMARK H PARENT
REMARK Flexibility Score: inf
ROOT
ATOM      1  C   UNL     1      12.600  64.944   5.721  1.00  0.00     0.000 C 
ENDROOT
BRANCH   1   2
ATOM      2  C   UNL     1      11.693  66.179   5.620  1.00  0.00     0.000 C 
BRANCH   2   3
ATOM      3  C   UNL     1      10.826  66.183   4.348  1.00  0.00     0.000 C 
BRANCH   3   4
ATOM      4  C   UNL     1      11.462  65.424   3.164  1.00  0.00     0.000 C 
BRANCH   4   5
ATOM      5  C   UNL     1      12.362  66.329   2.310  1.00  0.00     0.006 C 
BRANCH   5   6
ATOM      6  C   UNL     1      11.625  67.607   1.899  1.00  0.00     0.053 C 
BRANCH   6   7
ATOM      7  C   UNL     1      11.361  67.608   0.427  1.00  0.00     0.041 C 
ATOM      8  O   UNL     1      12.150  67.022  -0.360  1.00  0.00    -0.550 OA
ATOM      9  O   UNL     1      10.217  68.216  -0.074  1.00  0.00    -0.550 OA
ENDBRANCH   6   7
ENDBRANCH   5   6
ENDBRANCH   4   5
ENDBRANCH   3   4
ENDBRANCH   2   3
ENDBRANCH   1   2
BRANCH   1  10
ATOM     10  C   UNL     1      13.498  65.021   6.961  1.00  0.00     0.000 C 
BRANCH  10  11
ATOM     11  C   UNL     1      13.452  63.708   7.756  1.00  0.00    -0.000 C 
BRANCH  11  12
ATOM     12  C   UNL     1      12.677  62.601   7.025  1.00  0.00    -0.000 C 
BRANCH  12  13
ATOM     13  C   UNL     1      11.587  61.963   7.905  1.00  0.00    -0.000 C 
BRANCH  13  14
ATOM     14  C   UNL     1      11.007  62.948   8.932  1.00  0.00    -0.000 C 
BRANCH  14  15
ATOM     15  C   UNL     1       9.640  63.505   8.510  1.00  0.00    -0.000 C 
BRANCH  15  16
ATOM     16  C   UNL     1       9.659  65.038   8.478  1.00  0.00    -0.003 C 
ATOM     17  C   UNL     1      10.732  65.596   9.408  1.00  0.00     0.004 C 
ENDBRANCH  15  16
ENDBRANCH  14  15
ENDBRANCH  13  14
ENDBRANCH  12  13
ENDBRANCH  11  12
ENDBRANCH  10  11
ENDBRANCH   1  10
TORSDOF 13
ENDMDL
MODEL 4
REMARK VINA RESULT:    -3.452      3.325      5.782
REMARK INTER + INTRA:          -8.265
REMARK INTER:                  -6.751
REMARK INTRA:                  -1.514
REMARK UNBOUND:                -2.189
REMARK SMILES CCCCCCCCCCCCCCC(=O)[O-]
REMARK SMILES IDX 9 1 10 2 11 3 12 4 13 5 14 6 15 7 16 8 17 9 8 10 7 11 6 12
REMARK SMILES IDX 5 13 4 14 3 15 2 16 1 17
REMARK H PARENT
REMARK Flexibility Score: inf
ROOT
ATOM      1  C   UNL     1      11.632  62.265   7.737  1.00  0.00     0.000 C 
ENDROOT
BRANCH   1   2
ATOM      2  C   UNL     1      11.120  63.284   8.765  1.00  0.00     0.000 C 
BRANCH   2   3
ATOM      3  C   UNL     1       9.623  63.601   8.600  1.00  0.00     0.000 C 
BRANCH   3   4
ATOM      4  C   UNL     1       9.322  65.108   8.465  1.00  0.00     0.000 C 
BRANCH   4   5
ATOM      5  C   UNL     1       8.083  65.527   9.272  1.00  0.00     0.006 C 
BRANCH   5   6
ATOM      6  C   UNL     1       6.855  65.653   8.367  1.00  0.00     0.053 C 
BRANCH   6   7
ATOM      7  C   UNL     1       5.837  64.615   8.719  1.00  0.00     0.041 C 
ATOM      8  O   UNL     1       6.076  63.396   8.511  1.00  0.00    -0.550 OA
ATOM      9  O   UNL     1       4.642  64.988   9.321  1.00  0.00    -0.550 OA
ENDBRANCH   6   7
ENDBRANCH   5   6
ENDBRANCH   4   5
ENDBRANCH   3   4
ENDBRANCH   2   3
ENDBRANCH   1   2
BRANCH   1  10
ATOM     10  C   UNL     1      13.004  62.676   7.191  1.00  0.00     0.000 C 
BRANCH  10  11
ATOM     11  C   UNL     1      13.474  63.996   7.820  1.00  0.00    -0.000 C 
BRANCH  11  12
ATOM     12  C   UNL     1      13.724  65.094   6.774  1.00  0.00    -0.000 C 
BRANCH  12  13
ATOM     13  C   UNL     1      12.566  66.104   6.689  1.00  0.00    -0.000 C 
BRANCH  13  14
ATOM     14  C   UNL     1      11.560  65.755   5.582  1.00  0.00    -0.000 C 
BRANCH  14  15
ATOM     15  C   UNL     1      12.196  64.959   4.434  1.00  0.00    -0.000 C 
BRANCH  15  16
ATOM     16  C   UNL     1      11.916  65.626   3.082  1.00  0.00    -0.003 C 
ATOM     17  C   UNL     1      10.431  65.938   2.917  1.00  0.00     0.004 C 
ENDBRANCH  15  16
ENDBRANCH  14  15
ENDBRANCH  13  14
ENDBRANCH  12  13
ENDBRANCH  11  12
ENDBRANCH  10  11
ENDBRANCH   1  10
TORSDOF 13
ENDMDL
MODEL 5
REMARK VINA RESULT:    -3.431      3.154      5.435
REMARK INTER + INTRA:          -8.228
REMARK INTER:                  -6.586
REMARK INTRA:                  -1.642
REMARK UNBOUND:                -2.189
REMARK SMILES CCCCCCCCCCCCCCC(=O)[O-]
REMARK SMILES IDX 9 1 10 2 11 3 12 4 13 5 14 6 15 7 16 8 17 9 8 10 7 11 6 12
REMARK SMILES IDX 5 13 4 14 3 15 2 16 1 17
REMARK H PARENT
REMARK Flexibility Score: inf
ROOT
ATOM      1  C   UNL     1      13.421  63.797   7.644  1.00  0.00     0.000 C 
ENDROOT
BRANCH   1   2
ATOM      2  C   UNL     1      12.627  62.561   7.201  1.00  0.00     0.000 C 
BRANCH   2   3
ATOM      3  C   UNL     1      11.438  62.248   8.125  1.00  0.00     0.000 C 
BRANCH   3   4
ATOM      4  C   UNL     1      10.887  63.487   8.863  1.00  0.00     0.000 C 
BRANCH   4   5
ATOM      5  C   UNL     1       9.395  63.717   8.579  1.00  0.00     0.006 C 
BRANCH   5   6
ATOM      6  C   UNL     1       9.040  65.203   8.676  1.00  0.00     0.053 C 
BRANCH   6   7
ATOM      7  C   UNL     1       7.618  65.374   9.110  1.00  0.00     0.041 C 
ATOM      8  O   UNL     1       6.731  64.576   8.708  1.00  0.00    -0.550 OA
ATOM      9  O   UNL     1       7.280  66.387   9.999  1.00  0.00    -0.550 OA
ENDBRANCH   6   7
ENDBRANCH   5   6
ENDBRANCH   4   5
ENDBRANCH   3   4
ENDBRANCH   2   3
ENDBRANCH   1   2
BRANCH   1  10
ATOM     10  C   UNL     1      13.571  64.798   6.492  1.00  0.00     0.000 C 
BRANCH  10  11
ATOM     11  C   UNL     1      13.349  66.237   6.981  1.00  0.00    -0.000 C 
BRANCH  11  12
ATOM     12  C   UNL     1      11.916  66.732   6.730  1.00  0.00    -0.000 C 
BRANCH  12  13
ATOM     13  C   UNL     1      11.117  65.789   5.813  1.00  0.00    -0.000 C 
BRANCH  13  14
ATOM     14  C   UNL     1      10.417  66.536   4.667  1.00  0.00    -0.000 C 
BRANCH  14  15
ATOM     15  C   UNL     1      10.603  65.842   3.310  1.00  0.00    -0.000 C 
BRANCH  15  16
ATOM     16  C   UNL     1      12.084  65.541   3.046  1.00  0.00    -0.003 C 
ATOM     17  C   UNL     1      12.691  66.560   2.086  1.00  0.00     0.004 C 
ENDBRANCH  15  16
ENDBRANCH  14  15
ENDBRANCH  13  14
ENDBRANCH  12  13
ENDBRANCH  11  12
ENDBRANCH  10  11
ENDBRANCH   1  10
TORSDOF 13
ENDMDL
MODEL 6
REMARK VINA RESULT:    -3.430      3.130      5.784
REMARK INTER + INTRA:          -8.226
REMARK INTER:                  -6.806
REMARK INTRA:                  -1.420
REMARK UNBOUND:                -2.189
REMARK SMILES CCCCCCCCCCCCCCC(=O)[O-]
REMARK SMILES IDX 9 1 10 2 11 3 12 4 13 5 14 6 15 7 16 8 17 9 8 10 7 11 6 12
REMARK SMILES IDX 5 13 4 14 3 15 2 16 1 17
REMARK H PARENT
REMARK Flexibility Score: inf
ROOT
ATOM      1  C   UNL     1       9.987  64.998   8.909  1.00  0.00     0.000 C 
ENDROOT
BRANCH   1   2
ATOM      2  C   UNL     1       8.641  65.688   8.648  1.00  0.00     0.000 C 
BRANCH   2   3
ATOM      3  C   UNL     1       7.451  64.714   8.683  1.00  0.00     0.000 C 
BRANCH   3   4
ATOM      4  C   UNL     1       6.144  65.353   9.199  1.00  0.00     0.000 C 
BRANCH   4   5
ATOM      5  C   UNL     1       4.960  65.096   8.254  1.00  0.00     0.006 C 
BRANCH   5   6
ATOM      6  C   UNL     1       4.425  66.408   7.674  1.00  0.00     0.053 C 
BRANCH   6   7
ATOM      7  C   UNL     1       5.101  66.722   6.378  1.00  0.00     0.041 C 
ATOM      8  O   UNL     1       6.118  67.465   6.356  1.00  0.00    -0.550 OA
ATOM      9  O   UNL     1       4.640  66.154   5.197  1.00  0.00    -0.550 OA
ENDBRANCH   6   7
ENDBRANCH   5   6
ENDBRANCH   4   5
ENDBRANCH   3   4
ENDBRANCH   2   3
ENDBRANCH   1   2
BRANCH   1  10
ATOM     10  C   UNL     1       9.920  63.508   8.556  1.00  0.00     0.000 C 
BRANCH  10  11
ATOM     11  C   UNL     1      11.273  62.824   8.799  1.00  0.00    -0.000 C 
BRANCH  11  12
ATOM     12  C   UNL     1      11.722  61.962   7.608  1.00  0.00    -0.000 C 
BRANCH  12  13
ATOM     13  C   UNL     1      12.760  62.672   6.722  1.00  0.00    -0.000 C 
BRANCH  13  14
ATOM     14  C   UNL     1      13.418  63.868   7.427  1.00  0.00    -0.000 C 
BRANCH  14  15
ATOM     15  C   UNL     1      13.446  65.128   6.552  1.00  0.00    -0.000 C 
BRANCH  15  16
ATOM     16  C   UNL     1      12.425  65.027   5.411  1.00  0.00    -0.003 C 
ATOM     17  C   UNL     1      11.289  66.029   5.597  1.00  0.00     0.004 C 
ENDBRANCH  15  16
ENDBRANCH  14  15
ENDBRANCH  13  14
ENDBRANCH  12  13
ENDBRANCH  11  12
ENDBRANCH  10  11
ENDBRANCH   1  10
TORSDOF 13
ENDMDL
MODEL 7
REMARK VINA RESULT:    -3.383      1.044      2.343
REMARK INTER + INTRA:          -8.144
REMARK INTER:                  -5.965
REMARK INTRA:                  -2.179
REMARK UNBOUND:                -2.189
REMARK SMILES CCCCCCCCCCCCCCC(=O)[O-]
REMARK SMILES IDX 9 1 10 2 11 3 12 4 13 5 14 6 15 7 16 8 17 9 8 10 7 11 6 12
REMARK SMILES IDX 5 13 4 14 3 15 2 16 1 17
REMARK H PARENT
REMARK Flexibility Score: inf
ROOT
ATOM      1  C   UNL     1      13.463  63.609   7.664  1.00  0.00     0.000 C 
ENDROOT
BRANCH   1   2
ATOM      2  C   UNL     1      13.539  64.900   6.837  1.00  0.00     0.000 C 
BRANCH   2   3
ATOM      3  C   UNL     1      12.622  64.876   5.602  1.00  0.00     0.000 C 
BRANCH   3   4
ATOM      4  C   UNL     1      12.049  66.260   5.230  1.00  0.00     0.000 C 
BRANCH   4   5
ATOM      5  C   UNL     1      10.657  66.159   4.589  1.00  0.00     0.006 C 
BRANCH   5   6
ATOM      6  C   UNL     1      10.760  65.784   3.108  1.00  0.00     0.053 C 
BRANCH   6   7
ATOM      7  C   UNL     1      11.541  66.817   2.359  1.00  0.00     0.041 C 
ATOM      8  O   UNL     1      12.587  66.494   1.736  1.00  0.00    -0.550 OA
ATOM      9  O   UNL     1      11.088  68.129   2.307  1.00  0.00    -0.550 OA
ENDBRANCH   6   7
ENDBRANCH   5   6
ENDBRANCH   4   5
ENDBRANCH   3   4
ENDBRANCH   2   3
ENDBRANCH   1   2
BRANCH   1  10
ATOM     10  C   UNL     1      12.543  62.580   6.996  1.00  0.00     0.000 C 
BRANCH  10  11
ATOM     11  C   UNL     1      11.538  62.004   8.005  1.00  0.00    -0.000 C 
BRANCH  11  12
ATOM     12  C   UNL     1      11.013  63.063   8.987  1.00  0.00    -0.000 C 
BRANCH  12  13
ATOM     13  C   UNL     1       9.919  63.952   8.370  1.00  0.00    -0.000 C 
BRANCH  13  14
ATOM     14  C   UNL     1      10.136  65.444   8.663  1.00  0.00    -0.000 C 
BRANCH  14  15
ATOM     15  C   UNL     1      11.190  65.684   9.753  1.00  0.00    -0.000 C 
BRANCH  15  16
ATOM     16  C   UNL     1      11.986  66.966   9.474  1.00  0.00    -0.003 C 
ATOM     17  C   UNL     1      11.319  67.803   8.386  1.00  0.00     0.004 C 
ENDBRANCH  15  16
ENDBRANCH  14  15
ENDBRANCH  13  14
ENDBRANCH  12  13
ENDBRANCH  11  12
ENDBRANCH  10  11
ENDBRANCH   1  10
TORSDOF 13
ENDMDL
MODEL 8
REMARK VINA RESULT:    -3.368      2.541      5.049
REMARK INTER + INTRA:          -8.116
REMARK INTER:                  -6.104
REMARK INTRA:                  -2.012
REMARK UNBOUND:                -2.189
REMARK SMILES CCCCCCCCCCCCCCC(=O)[O-]
REMARK SMILES IDX 9 1 10 2 11 3 12 4 13 5 14 6 15 7 16 8 17 9 8 10 7 11 6 12
REMARK SMILES IDX 5 13 4 14 3 15 2 16 1 17
REMARK H PARENT
REMARK Flexibility Score: inf
ROOT
ATOM      1  C   UNL     1      11.651  61.968   7.805  1.00  0.00     0.000 C 
ENDROOT
BRANCH   1   2
ATOM      2  C   UNL     1      11.116  62.974   8.833  1.00  0.00     0.000 C 
BRANCH   2   3
ATOM      3  C   UNL     1       9.739  63.545   8.452  1.00  0.00     0.000 C 
BRANCH   3   4
ATOM      4  C   UNL     1       9.644  65.079   8.596  1.00  0.00     0.000 C 
BRANCH   4   5
ATOM      5  C   UNL     1      10.776  65.651   9.463  1.00  0.00     0.006 C 
BRANCH   5   6
ATOM      6  C   UNL     1      10.866  67.173   9.315  1.00  0.00     0.053 C 
BRANCH   6   7
ATOM      7  C   UNL     1      12.293  67.603   9.183  1.00  0.00     0.041 C 
ATOM      8  O   UNL     1      13.146  67.238  10.034  1.00  0.00    -0.550 OA
ATOM      9  O   UNL     1      12.692  68.366   8.093  1.00  0.00    -0.550 OA
ENDBRANCH   6   7
ENDBRANCH   5   6
ENDBRANCH   4   5
ENDBRANCH   3   4
ENDBRANCH   2   3
ENDBRANCH   1   2
BRANCH   1  10
ATOM     10  C   UNL     1      12.710  62.612   6.903  1.00  0.00     0.000 C 
BRANCH  10  11
ATOM     11  C   UNL     1      13.414  63.772   7.623  1.00  0.00    -0.000 C 
BRANCH  11  12
ATOM     12  C   UNL     1      13.446  65.058   6.783  1.00  0.00    -0.000 C 
BRANCH  12  13
ATOM     13  C   UNL     1      12.468  65.012   5.595  1.00  0.00    -0.000 C 
BRANCH  13  14
ATOM     14  C   UNL     1      11.446  66.158   5.628  1.00  0.00    -0.000 C 
BRANCH  14  15
ATOM     15  C   UNL     1      10.629  66.259   4.332  1.00  0.00    -0.000 C 
BRANCH  15  16
ATOM     16  C   UNL     1      11.353  65.564   3.172  1.00  0.00    -0.003 C 
ATOM     17  C   UNL     1      12.113  66.572   2.314  1.00  0.00     0.004 C 
ENDBRANCH  15  16
ENDBRANCH  14  15
ENDBRANCH  13  14
ENDBRANCH  12  13
ENDBRANCH  11  12
ENDBRANCH  10  11
ENDBRANCH   1  10
TORSDOF 13
ENDMDL
MODEL 9
REMARK VINA RESULT:    -3.255      1.209      2.331
REMARK INTER + INTRA:          -7.918
REMARK INTER:                  -5.979
REMARK INTRA:                  -1.939
REMARK UNBOUND:                -2.189
REMARK SMILES CCCCCCCCCCCCCCC(=O)[O-]
REMARK SMILES IDX 9 1 10 2 11 3 12 4 13 5 14 6 15 7 16 8 17 9 8 10 7 11 6 12
REMARK SMILES IDX 5 13 4 14 3 15 2 16 1 17
REMARK H PARENT
REMARK Flexibility Score: inf
ROOT
ATOM      1  C   UNL     1      12.633  62.430   7.028  1.00  0.00     0.000 C 
ENDROOT
BRANCH   1   2
ATOM      2  C   UNL     1      13.349  63.689   7.539  1.00  0.00     0.000 C 
BRANCH   2   3
ATOM      3  C   UNL     1      13.379  64.824   6.501  1.00  0.00     0.000 C 
BRANCH   3   4
ATOM      4  C   UNL     1      12.320  64.674   5.389  1.00  0.00     0.000 C 
BRANCH   4   5
ATOM      5  C   UNL     1      12.347  65.848   4.399  1.00  0.00     0.006 C 
BRANCH   5   6
ATOM      6  C   UNL     1      11.180  65.761   3.411  1.00  0.00     0.053 C 
BRANCH   6   7
ATOM      7  C   UNL     1      11.413  66.667   2.244  1.00  0.00     0.041 C 
ATOM      8  O   UNL     1      10.457  67.317   1.744  1.00  0.00    -0.550 OA
ATOM      9  O   UNL     1      12.696  66.835   1.738  1.00  0.00    -0.550 OA
ENDBRANCH   6   7
ENDBRANCH   5   6
ENDBRANCH   4   5
ENDBRANCH   3   4
ENDBRANCH   2   3
ENDBRANCH   1   2
BRANCH   1  10
ATOM     10  C   UNL     1      11.501  62.017   7.975  1.00  0.00     0.000 C 
BRANCH  10  11
ATOM     11  C   UNL     1      11.053  63.200   8.846  1.00  0.00    -0.000 C 
BRANCH  11  12
ATOM     12  C   UNL     1       9.563  63.533   8.670  1.00  0.00    -0.000 C 
BRANCH  12  13
ATOM     13  C   UNL     1       9.311  65.042   8.497  1.00  0.00    -0.000 C 
BRANCH  13  14
ATOM     14  C   UNL     1      10.570  65.883   8.754  1.00  0.00    -0.000 C 
BRANCH  14  15
ATOM     15  C   UNL     1      10.673  67.094   7.817  1.00  0.00    -0.000 C 
BRANCH  15  16
ATOM     16  C   UNL     1       9.673  66.978   6.659  1.00  0.00    -0.003 C 
ATOM     17  C   UNL     1       8.845  68.252   6.515  1.00  0.00     0.004 C 
ENDBRANCH  15  16
ENDBRANCH  14  15
ENDBRANCH  13  14
ENDBRANCH  12  13
ENDBRANCH  11  12
ENDBRANCH  10  11
ENDBRANCH   1  10
TORSDOF 13
ENDMDL
