MODEL 1
REMARK VINA RESULT:    -4.356      0.000      0.000
REMARK INTER + INTRA:          -6.593
REMARK INTER:                  -5.884
REMARK INTRA:                  -0.709
REMARK UNBOUND:                -0.709
REMARK SMILES CCCCCCC=CC(=O)[O-]
REMARK SMILES IDX 5 1 6 2 7 3 8 4 9 5 10 6 11 7 4 8 3 9 2 10 1 11
REMARK H PARENT
REMARK Flexibility Score: inf
ROOT
ATOM      1  C   UNL     1      -2.876  29.356  29.713  1.00  0.00     0.004 C 
ENDROOT
BRANCH   1   2
ATOM      2  C   UNL     1      -4.325  29.012  29.321  1.00  0.00     0.027 C 
BRANCH   2   3
ATOM      3  C   UNL     1      -4.536  29.000  27.829  1.00  0.00    -0.025 C 
ATOM      4  C   UNL     1      -4.000  28.125  26.961  1.00  0.00     0.020 C 
BRANCH   4   5
ATOM      5  C   UNL     1      -3.146  26.966  27.292  1.00  0.00     0.064 C 
ATOM      6  O   UNL     1      -3.625  25.879  27.705  1.00  0.00    -0.545 OA
ATOM      7  O   UNL     1      -1.774  27.072  27.108  1.00  0.00    -0.545 OA
ENDBRANCH   4   5
ENDBRANCH   2   3
ENDBRANCH   1   2
BRANCH   1   8
ATOM      8  C   UNL     1      -2.242  28.385  30.730  1.00  0.00     0.000 C 
BRANCH   8   9
ATOM      9  C   UNL     1      -3.121  27.186  31.125  1.00  0.00    -0.000 C 
BRANCH   9  10
ATOM     10  C   UNL     1      -2.393  25.841  30.992  1.00  0.00    -0.003 C 
ATOM     11  C   UNL     1      -0.999  26.027  30.399  1.00  0.00     0.004 C 
ENDBRANCH   9  10
ENDBRANCH   8   9
ENDBRANCH   1   8
TORSDOF 6
ENDMDL
MODEL 2
REMARK VINA RESULT:    -4.308      1.088      1.747
REMARK INTER + INTRA:          -6.528
REMARK INTER:                  -5.693
REMARK INTRA:                  -0.835
REMARK UNBOUND:                -0.709
REMARK SMILES CCCCCCC=CC(=O)[O-]
REMARK SMILES IDX 5 1 6 2 7 3 8 4 9 5 10 6 11 7 4 8 3 9 2 10 1 11
REMARK H PARENT
REMARK Flexibility Score: inf
ROOT
ATOM      1  C   UNL     1      -4.335  29.165  29.332  1.00  0.00     0.004 C 
ENDROOT
BRANCH   1   2
ATOM      2  C   UNL     1      -4.347  28.966  27.804  1.00  0.00     0.027 C 
BRANCH   2   3
ATOM      3  C   UNL     1      -4.368  27.513  27.408  1.00  0.00    -0.025 C 
ATOM      4  C   UNL     1      -3.298  26.759  27.107  1.00  0.00     0.020 C 
BRANCH   4   5
ATOM      5  C   UNL     1      -1.882  27.179  27.159  1.00  0.00     0.064 C 
ATOM      6  O   UNL     1      -1.371  27.920  26.280  1.00  0.00    -0.545 OA
ATOM      7  O   UNL     1      -1.101  26.768  28.231  1.00  0.00    -0.545 OA
ENDBRANCH   4   5
ENDBRANCH   2   3
ENDBRANCH   1   2
BRANCH   1   8
ATOM      8  C   UNL     1      -2.933  29.399  29.933  1.00  0.00     0.000 C 
BRANCH   8   9
ATOM      9  C   UNL     1      -2.519  28.404  31.031  1.00  0.00    -0.000 C 
BRANCH   9  10
ATOM     10  C   UNL     1      -3.375  27.130  31.036  1.00  0.00    -0.003 C 
ATOM     11  C   UNL     1      -2.502  25.881  31.125  1.00  0.00     0.004 C 
ENDBRANCH   9  10
ENDBRANCH   8   9
ENDBRANCH   1   8
TORSDOF 6
ENDMDL
MODEL 3
REMARK VINA RESULT:    -3.876      1.928      3.720
REMARK INTER + INTRA:          -5.944
REMARK INTER:                  -5.603
REMARK INTRA:                  -0.341
REMARK UNBOUND:                -0.709
REMARK SMILES CCCCCCC=CC(=O)[O-]
REMARK SMILES IDX 5 1 6 2 7 3 8 4 9 5 10 6 11 7 4 8 3 9 2 10 1 11
REMARK H PARENT
REMARK Flexibility Score: inf
ROOT
ATOM      1  C   UNL     1      -4.033  28.999  28.066  1.00  0.00     0.004 C 
ENDROOT
BRANCH   1   2
ATOM      2  C   UNL     1      -3.485  29.124  29.501  1.00  0.00     0.027 C 
BRANCH   2   3
ATOM      3  C   UNL     1      -4.262  28.297  30.492  1.00  0.00    -0.025 C 
ATOM      4  C   UNL     1      -3.827  27.186  31.109  1.00  0.00     0.020 C 
BRANCH   4   5
ATOM      5  C   UNL     1      -2.485  26.580  30.989  1.00  0.00     0.064 C 
ATOM      6  O   UNL     1      -2.322  25.357  30.744  1.00  0.00    -0.545 OA
ATOM      7  O   UNL     1      -1.368  27.395  31.119  1.00  0.00    -0.545 OA
ENDBRANCH   4   5
ENDBRANCH   2   3
ENDBRANCH   1   2
BRANCH   1   8
ATOM      8  C   UNL     1      -4.416  27.563  27.652  1.00  0.00     0.000 C 
BRANCH   8   9
ATOM      9  C   UNL     1      -3.282  26.741  27.016  1.00  0.00    -0.000 C 
BRANCH   9  10
ATOM     10  C   UNL     1      -2.502  27.525  25.950  1.00  0.00    -0.003 C 
ATOM     11  C   UNL     1      -1.005  27.512  26.244  1.00  0.00     0.004 C 
ENDBRANCH   9  10
ENDBRANCH   8   9
ENDBRANCH   1   8
TORSDOF 6
ENDMDL
MODEL 4
REMARK VINA RESULT:    -3.736      1.422      2.944
REMARK INTER + INTRA:          -5.755
REMARK INTER:                  -4.975
REMARK INTRA:                  -0.780
REMARK UNBOUND:                -0.709
REMARK SMILES CCCCCCC=CC(=O)[O-]
REMARK SMILES IDX 5 1 6 2 7 3 8 4 9 5 10 6 11 7 4 8 3 9 2 10 1 11
REMARK H PARENT
REMARK Flexibility Score: inf
ROOT
ATOM      1  C   UNL     1      -2.643  26.414  30.813  1.00  0.00     0.004 C 
ENDROOT
BRANCH   1   2
ATOM      2  C   UNL     1      -2.492  26.017  29.332  1.00  0.00     0.027 C 
BRANCH   2   3
ATOM      3  C   UNL     1      -3.741  26.279  28.531  1.00  0.00    -0.025 C 
ATOM      4  C   UNL     1      -3.812  26.970  27.381  1.00  0.00     0.020 C 
BRANCH   4   5
ATOM      5  C   UNL     1      -2.681  27.561  26.636  1.00  0.00     0.064 C 
ATOM      6  O   UNL     1      -2.309  27.116  25.520  1.00  0.00    -0.545 OA
ATOM      7  O   UNL     1      -2.031  28.665  27.172  1.00  0.00    -0.545 OA
ENDBRANCH   4   5
ENDBRANCH   2   3
ENDBRANCH   1   2
BRANCH   1   8
ATOM      8  C   UNL     1      -3.356  27.762  31.043  1.00  0.00     0.000 C 
BRANCH   8   9
ATOM      9  C   UNL     1      -2.445  29.001  30.991  1.00  0.00    -0.000 C 
BRANCH   9  10
ATOM     10  C   UNL     1      -3.016  30.125  30.114  1.00  0.00    -0.003 C 
ATOM     11  C   UNL     1      -4.416  29.777  29.616  1.00  0.00     0.004 C 
ENDBRANCH   9  10
ENDBRANCH   8   9
ENDBRANCH   1   8
TORSDOF 6
ENDMDL
MODEL 5
REMARK VINA RESULT:    -3.655      2.016      2.829
REMARK INTER + INTRA:          -5.646
REMARK INTER:                  -5.325
REMARK INTRA:                  -0.321
REMARK UNBOUND:                -0.709
REMARK SMILES CCCCCCC=CC(=O)[O-]
REMARK SMILES IDX 5 1 6 2 7 3 8 4 9 5 10 6 11 7 4 8 3 9 2 10 1 11
REMARK H PARENT
REMARK Flexibility Score: inf
ROOT
ATOM      1  C   UNL     1      -2.158  27.057  27.532  1.00  0.00     0.004 C 
ENDROOT
BRANCH   1   2
ATOM      2  C   UNL     1      -3.694  26.944  27.500  1.00  0.00     0.027 C 
BRANCH   2   3
ATOM      3  C   UNL     1      -4.370  28.274  27.295  1.00  0.00    -0.025 C 
ATOM      4  C   UNL     1      -4.460  29.264  28.199  1.00  0.00     0.020 C 
BRANCH   4   5
ATOM      5  C   UNL     1      -3.867  29.278  29.552  1.00  0.00     0.064 C 
ATOM      6  O   UNL     1      -2.847  29.959  29.829  1.00  0.00    -0.545 OA
ATOM      7  O   UNL     1      -4.478  28.540  30.558  1.00  0.00    -0.545 OA
ENDBRANCH   4   5
ENDBRANCH   2   3
ENDBRANCH   1   2
BRANCH   1   8
ATOM      8  C   UNL     1      -1.521  26.714  28.896  1.00  0.00     0.000 C 
BRANCH   8   9
ATOM      9  C   UNL     1      -2.469  26.053  29.912  1.00  0.00    -0.000 C 
BRANCH   9  10
ATOM     10  C   UNL     1      -1.730  25.470  31.125  1.00  0.00    -0.003 C 
ATOM     11  C   UNL     1      -0.251  25.846  31.101  1.00  0.00     0.004 C 
ENDBRANCH   9  10
ENDBRANCH   8   9
ENDBRANCH   1   8
TORSDOF 6
ENDMDL
MODEL 6
REMARK VINA RESULT:    -3.513      1.723      2.592
REMARK INTER + INTRA:          -5.454
REMARK INTER:                  -4.731
REMARK INTRA:                  -0.723
REMARK UNBOUND:                -0.709
REMARK SMILES CCCCCCC=CC(=O)[O-]
REMARK SMILES IDX 5 1 6 2 7 3 8 4 9 5 10 6 11 7 4 8 3 9 2 10 1 11
REMARK H PARENT
REMARK Flexibility Score: inf
ROOT
ATOM      1  C   UNL     1      -3.301  26.388  29.252  1.00  0.00     0.004 C 
ENDROOT
BRANCH   1   2
ATOM      2  C   UNL     1      -4.195  26.174  28.016  1.00  0.00     0.027 C 
BRANCH   2   3
ATOM      3  C   UNL     1      -4.564  27.466  27.336  1.00  0.00    -0.025 C 
ATOM      4  C   UNL     1      -3.754  28.218  26.573  1.00  0.00     0.020 C 
BRANCH   4   5
ATOM      5  C   UNL     1      -2.360  27.906  26.194  1.00  0.00     0.064 C 
ATOM      6  O   UNL     1      -2.064  26.901  25.499  1.00  0.00    -0.545 OA
ATOM      7  O   UNL     1      -1.349  28.771  26.593  1.00  0.00    -0.545 OA
ENDBRANCH   4   5
ENDBRANCH   2   3
ENDBRANCH   1   2
BRANCH   1   8
ATOM      8  C   UNL     1      -4.065  26.789  30.531  1.00  0.00     0.000 C 
BRANCH   8   9
ATOM      9  C   UNL     1      -3.883  28.253  30.969  1.00  0.00    -0.000 C 
BRANCH   9  10
ATOM     10  C   UNL     1      -2.564  28.864  30.475  1.00  0.00    -0.003 C 
ATOM     11  C   UNL     1      -2.817  30.123  29.649  1.00  0.00     0.004 C 
ENDBRANCH   9  10
ENDBRANCH   8   9
ENDBRANCH   1   8
TORSDOF 6
ENDMDL
MODEL 7
REMARK VINA RESULT:    -3.228      2.184      4.099
REMARK INTER + INTRA:          -5.069
REMARK INTER:                  -4.776
REMARK INTRA:                  -0.293
REMARK UNBOUND:                -0.709
REMARK SMILES CCCCCCC=CC(=O)[O-]
REMARK SMILES IDX 5 1 6 2 7 3 8 4 9 5 10 6 11 7 4 8 3 9 2 10 1 11
REMARK H PARENT
REMARK Flexibility Score: inf
ROOT
ATOM      1  C   UNL     1      -2.110  26.125  29.811  1.00  0.00     0.004 C 
ENDROOT
BRANCH   1   2
ATOM      2  C   UNL     1      -3.618  26.432  29.877  1.00  0.00     0.027 C 
BRANCH   2   3
ATOM      3  C   UNL     1      -3.989  27.271  31.072  1.00  0.00    -0.025 C 
ATOM      4  C   UNL     1      -4.013  28.614  31.119  1.00  0.00     0.020 C 
BRANCH   4   5
ATOM      5  C   UNL     1      -3.741  29.540  30.000  1.00  0.00     0.064 C 
ATOM      6  O   UNL     1      -2.635  30.124  29.869  1.00  0.00    -0.545 OA
ATOM      7  O   UNL     1      -4.729  29.745  29.046  1.00  0.00    -0.545 OA
ENDBRANCH   4   5
ENDBRANCH   2   3
ENDBRANCH   1   2
BRANCH   1   8
ATOM      8  C   UNL     1      -1.412  26.630  28.531  1.00  0.00     0.000 C 
BRANCH   8   9
ATOM      9  C   UNL     1      -2.148  27.756  27.785  1.00  0.00    -0.000 C 
BRANCH   9  10
ATOM     10  C   UNL     1      -2.553  27.361  26.358  1.00  0.00    -0.003 C 
ATOM     11  C   UNL     1      -3.775  28.150  25.895  1.00  0.00     0.004 C 
ENDBRANCH   9  10
ENDBRANCH   8   9
ENDBRANCH   1   8
TORSDOF 6
ENDMDL
MODEL 8
REMARK VINA RESULT:    -2.876      2.216      2.909
REMARK INTER + INTRA:          -4.594
REMARK INTER:                  -5.001
REMARK INTRA:                   0.407
REMARK UNBOUND:                -0.709
REMARK SMILES CCCCCCC=CC(=O)[O-]
REMARK SMILES IDX 5 1 6 2 7 3 8 4 9 5 10 6 11 7 4 8 3 9 2 10 1 11
REMARK H PARENT
REMARK Flexibility Score: inf
ROOT
ATOM      1  C   UNL     1      -2.497  26.732  27.841  1.00  0.00     0.004 C 
ENDROOT
BRANCH   1   2
ATOM      2  C   UNL     1      -2.830  28.153  27.348  1.00  0.00     0.027 C 
BRANCH   2   3
ATOM      3  C   UNL     1      -4.263  28.536  27.607  1.00  0.00    -0.025 C 
ATOM      4  C   UNL     1      -4.715  29.252  28.651  1.00  0.00     0.020 C 
BRANCH   4   5
ATOM      5  C   UNL     1      -3.898  29.858  29.723  1.00  0.00     0.064 C 
ATOM      6  O   UNL     1      -4.370  30.112  30.860  1.00  0.00    -0.545 OA
ATOM      7  O   UNL     1      -2.558  30.125  29.474  1.00  0.00    -0.545 OA
ENDBRANCH   4   5
ENDBRANCH   2   3
ENDBRANCH   1   2
BRANCH   1   8
ATOM      8  C   UNL     1      -3.312  26.275  29.069  1.00  0.00     0.000 C 
BRANCH   8   9
ATOM      9  C   UNL     1      -2.869  26.884  30.411  1.00  0.00    -0.000 C 
BRANCH   9  10
ATOM     10  C   UNL     1      -1.343  26.933  30.570  1.00  0.00    -0.003 C 
ATOM     11  C   UNL     1      -0.760  25.531  30.716  1.00  0.00     0.004 C 
ENDBRANCH   9  10
ENDBRANCH   8   9
ENDBRANCH   1   8
TORSDOF 6
ENDMDL
