MODEL 1
REMARK VINA RESULT:    -4.412      0.000      0.000
REMARK INTER + INTRA:          -5.159
REMARK INTER:                  -5.057
REMARK INTRA:                  -0.102
REMARK UNBOUND:                -0.102
REMARK SMILES C=Cc1ccc(O)c(OC)c1
REMARK SMILES IDX 8 1 6 2 5 3 4 4 3 5 11 6 9 7 10 8 7 9 2 11 1 12
REMARK H PARENT 7 10
REMARK Flexibility Score: inf
ROOT
ATOM      1  C   UNL     1     -18.140  19.925  42.659  1.00  0.00     0.161 A 
ATOM      2  C   UNL     1     -17.763  19.747  43.996  1.00  0.00     0.157 A 
ATOM      3  C   UNL     1     -17.025  18.618  44.374  1.00  0.00     0.051 A 
ATOM      4  C   UNL     1     -16.657  17.666  43.422  1.00  0.00     0.012 A 
ATOM      5  C   UNL     1     -17.015  17.833  42.071  1.00  0.00    -0.022 A 
ATOM      6  C   UNL     1     -17.766  18.961  41.702  1.00  0.00     0.058 A 
ENDROOT
BRANCH   1   7
ATOM      7  O   UNL     1     -18.883  21.067  42.321  1.00  0.00    -0.493 OA
ATOM      8  C   UNL     1     -20.194  21.042  41.766  1.00  0.00     0.278 C 
ENDBRANCH   1   7
BRANCH   2   9
ATOM      9  O   UNL     1     -18.128  20.698  44.948  1.00  0.00    -0.504 OA
ATOM     10  H   UNL     1     -18.800  20.486  45.678  1.00  0.00     0.293 HD
ENDBRANCH   2   9
BRANCH   5  11
ATOM     11  C   UNL     1     -16.656  16.845  41.022  1.00  0.00     0.000 C 
ATOM     12  C   UNL     1     -16.739  15.523  41.176  1.00  0.00     0.009 C 
ENDBRANCH   5  11
TORSDOF 3
ENDMDL
MODEL 2
REMARK VINA RESULT:    -3.947     14.150     15.083
REMARK INTER + INTRA:          -4.626
REMARK INTER:                  -4.538
REMARK INTRA:                  -0.088
REMARK UNBOUND:                -0.102
REMARK SMILES C=Cc1ccc(O)c(OC)c1
REMARK SMILES IDX 8 1 6 2 5 3 4 4 3 5 11 6 9 7 10 8 7 9 2 11 1 12
REMARK H PARENT 7 10
REMARK Flexibility Score: inf
ROOT
ATOM      1  C   UNL     1      -6.566  29.502  46.488  1.00  0.00     0.161 A 
ATOM      2  C   UNL     1      -5.827  28.314  46.540  1.00  0.00     0.157 A 
ATOM      3  C   UNL     1      -6.269  27.180  45.847  1.00  0.00     0.051 A 
ATOM      4  C   UNL     1      -7.445  27.226  45.096  1.00  0.00     0.012 A 
ATOM      5  C   UNL     1      -8.195  28.415  45.020  1.00  0.00    -0.022 A 
ATOM      6  C   UNL     1      -7.753  29.544  45.728  1.00  0.00     0.058 A 
ENDROOT
BRANCH   1   7
ATOM      7  O   UNL     1      -6.093  30.615  47.200  1.00  0.00    -0.493 OA
ATOM      8  C   UNL     1      -6.781  31.857  47.307  1.00  0.00     0.278 C 
ENDBRANCH   1   7
BRANCH   2   9
ATOM      9  O   UNL     1      -4.652  28.265  47.289  1.00  0.00    -0.504 OA
ATOM     10  H   UNL     1      -3.985  29.029  47.279  1.00  0.00     0.293 HD
ENDBRANCH   2   9
BRANCH   5  11
ATOM     11  C   UNL     1      -9.457  28.514  44.243  1.00  0.00     0.000 C 
ATOM     12  C   UNL     1     -10.361  27.538  44.153  1.00  0.00     0.009 C 
ENDBRANCH   5  11
TORSDOF 3
ENDMDL
MODEL 3
REMARK VINA RESULT:    -3.936     14.797     15.739
REMARK INTER + INTRA:          -4.613
REMARK INTER:                  -4.522
REMARK INTRA:                  -0.092
REMARK UNBOUND:                -0.102
REMARK SMILES C=Cc1ccc(O)c(OC)c1
REMARK SMILES IDX 8 1 6 2 5 3 4 4 3 5 11 6 9 7 10 8 7 9 2 11 1 12
REMARK H PARENT 7 10
REMARK Flexibility Score: inf
ROOT
ATOM      1  C   UNL     1      -7.408  30.871  46.573  1.00  0.00     0.161 A 
ATOM      2  C   UNL     1      -8.438  30.696  45.640  1.00  0.00     0.157 A 
ATOM      3  C   UNL     1      -8.587  29.472  44.978  1.00  0.00     0.051 A 
ATOM      4  C   UNL     1      -7.713  28.416  45.244  1.00  0.00     0.012 A 
ATOM      5  C   UNL     1      -6.679  28.566  46.188  1.00  0.00    -0.022 A 
ATOM      6  C   UNL     1      -6.529  29.802  46.838  1.00  0.00     0.058 A 
ENDROOT
BRANCH   1   7
ATOM      7  O   UNL     1      -7.289  32.115  47.212  1.00  0.00    -0.493 OA
ATOM      8  C   UNL     1      -6.131  32.554  47.914  1.00  0.00     0.278 C 
ENDBRANCH   1   7
BRANCH   2   9
ATOM      9  O   UNL     1      -9.312  31.749  45.374  1.00  0.00    -0.504 OA
ATOM     10  H   UNL     1      -9.271  32.618  45.896  1.00  0.00     0.293 HD
ENDBRANCH   2   9
BRANCH   5  11
ATOM     11  C   UNL     1      -5.718  27.479  46.499  1.00  0.00     0.000 C 
ATOM     12  C   UNL     1      -5.902  26.199  46.174  1.00  0.00     0.009 C 
ENDBRANCH   5  11
TORSDOF 3
ENDMDL
MODEL 4
REMARK VINA RESULT:    -3.861      2.710      4.253
REMARK INTER + INTRA:          -4.527
REMARK INTER:                  -4.444
REMARK INTRA:                  -0.083
REMARK UNBOUND:                -0.102
REMARK SMILES C=Cc1ccc(O)c(OC)c1
REMARK SMILES IDX 8 1 6 2 5 3 4 4 3 5 11 6 9 7 10 8 7 9 2 11 1 12
REMARK H PARENT 7 10
REMARK Flexibility Score: inf
ROOT
ATOM      1  C   UNL     1     -19.464  22.693  40.677  1.00  0.00     0.161 A 
ATOM      2  C   UNL     1     -20.777  22.341  41.014  1.00  0.00     0.157 A 
ATOM      3  C   UNL     1     -21.034  21.131  41.671  1.00  0.00     0.051 A 
ATOM      4  C   UNL     1     -19.985  20.270  41.998  1.00  0.00     0.012 A 
ATOM      5  C   UNL     1     -18.657  20.611  41.679  1.00  0.00    -0.022 A 
ATOM      6  C   UNL     1     -18.409  21.820  41.009  1.00  0.00     0.058 A 
ENDROOT
BRANCH   1   7
ATOM      7  O   UNL     1     -19.248  23.911  40.015  1.00  0.00    -0.493 OA
ATOM      8  C   UNL     1     -18.018  24.293  39.408  1.00  0.00     0.278 C 
ENDBRANCH   1   7
BRANCH   2   9
ATOM      9  O   UNL     1     -21.826  23.200  40.690  1.00  0.00    -0.504 OA
ATOM     10  H   UNL     1     -21.969  24.073  41.186  1.00  0.00     0.293 HD
ENDBRANCH   2   9
BRANCH   5  11
ATOM     11  C   UNL     1     -17.507  19.726  41.996  1.00  0.00     0.000 C 
ATOM     12  C   UNL     1     -17.385  18.470  41.563  1.00  0.00     0.009 C 
ENDBRANCH   5  11
TORSDOF 3
ENDMDL
MODEL 5
REMARK VINA RESULT:    -3.829     13.835     14.899
REMARK INTER + INTRA:          -4.491
REMARK INTER:                  -4.419
REMARK INTRA:                  -0.072
REMARK UNBOUND:                -0.102
REMARK SMILES C=Cc1ccc(O)c(OC)c1
REMARK SMILES IDX 8 1 6 2 5 3 4 4 3 5 11 6 9 7 10 8 7 9 2 11 1 12
REMARK H PARENT 7 10
REMARK Flexibility Score: inf
ROOT
ATOM      1  C   UNL     1      -6.783  28.680  46.223  1.00  0.00     0.161 A 
ATOM      2  C   UNL     1      -7.005  29.917  46.841  1.00  0.00     0.157 A 
ATOM      3  C   UNL     1      -8.069  30.729  46.429  1.00  0.00     0.051 A 
ATOM      4  C   UNL     1      -8.919  30.310  45.404  1.00  0.00     0.012 A 
ATOM      5  C   UNL     1      -8.722  29.064  44.778  1.00  0.00    -0.022 A 
ATOM      6  C   UNL     1      -7.644  28.262  45.188  1.00  0.00     0.058 A 
ENDROOT
BRANCH   1   7
ATOM      7  O   UNL     1      -5.703  27.898  46.661  1.00  0.00    -0.493 OA
ATOM      8  C   UNL     1      -5.410  26.588  46.186  1.00  0.00     0.278 C 
ENDBRANCH   1   7
BRANCH   2   9
ATOM      9  O   UNL     1      -6.158  30.337  47.866  1.00  0.00    -0.504 OA
ATOM     10  H   UNL     1      -6.019  31.321  48.070  1.00  0.00     0.293 HD
ENDBRANCH   2   9
BRANCH   5  11
ATOM     11  C   UNL     1      -9.591  28.577  43.678  1.00  0.00     0.000 C 
ATOM     12  C   UNL     1     -10.370  27.498  43.758  1.00  0.00     0.009 C 
ENDBRANCH   5  11
TORSDOF 3
ENDMDL
MODEL 6
REMARK VINA RESULT:    -3.791     16.580     17.526
REMARK INTER + INTRA:          -4.447
REMARK INTER:                  -4.337
REMARK INTRA:                  -0.110
REMARK UNBOUND:                -0.102
REMARK SMILES C=Cc1ccc(O)c(OC)c1
REMARK SMILES IDX 8 1 6 2 5 3 4 4 3 5 11 6 9 7 10 8 7 9 2 11 1 12
REMARK H PARENT 7 10
REMARK Flexibility Score: inf
ROOT
ATOM      1  C   UNL     1      -5.543  31.965  47.010  1.00  0.00     0.161 A 
ATOM      2  C   UNL     1      -6.931  32.147  46.959  1.00  0.00     0.157 A 
ATOM      3  C   UNL     1      -7.779  31.043  46.807  1.00  0.00     0.051 A 
ATOM      4  C   UNL     1      -7.249  29.755  46.710  1.00  0.00     0.012 A 
ATOM      5  C   UNL     1      -5.858  29.549  46.772  1.00  0.00    -0.022 A 
ATOM      6  C   UNL     1      -5.013  30.663  46.912  1.00  0.00     0.058 A 
ENDROOT
BRANCH   1   7
ATOM      7  O   UNL     1      -4.726  33.096  47.159  1.00  0.00    -0.493 OA
ATOM      8  C   UNL     1      -4.172  33.536  48.395  1.00  0.00     0.278 C 
ENDBRANCH   1   7
BRANCH   2   9
ATOM      9  O   UNL     1      -7.462  33.432  47.057  1.00  0.00    -0.504 OA
ATOM     10  H   UNL     1      -8.461  33.597  47.019  1.00  0.00     0.293 HD
ENDBRANCH   2   9
BRANCH   5  11
ATOM     11  C   UNL     1      -5.244  28.202  46.664  1.00  0.00     0.000 C 
ATOM     12  C   UNL     1      -5.905  27.104  46.296  1.00  0.00     0.009 C 
ENDBRANCH   5  11
TORSDOF 3
ENDMDL
MODEL 7
REMARK VINA RESULT:    -3.745     14.217     15.331
REMARK INTER + INTRA:          -4.395
REMARK INTER:                  -4.302
REMARK INTRA:                  -0.093
REMARK UNBOUND:                -0.102
REMARK SMILES C=Cc1ccc(O)c(OC)c1
REMARK SMILES IDX 8 1 6 2 5 3 4 4 3 5 11 6 9 7 10 8 7 9 2 11 1 12
REMARK H PARENT 7 10
REMARK Flexibility Score: inf
ROOT
ATOM      1  C   UNL     1      -7.843  28.116  45.388  1.00  0.00     0.161 A 
ATOM      2  C   UNL     1      -6.673  27.452  45.778  1.00  0.00     0.157 A 
ATOM      3  C   UNL     1      -5.721  28.110  46.567  1.00  0.00     0.051 A 
ATOM      4  C   UNL     1      -5.932  29.428  46.974  1.00  0.00     0.012 A 
ATOM      5  C   UNL     1      -7.108  30.109  46.604  1.00  0.00    -0.022 A 
ATOM      6  C   UNL     1      -8.052  29.447  45.802  1.00  0.00     0.058 A 
ENDROOT
BRANCH   1   7
ATOM      7  O   UNL     1      -8.771  27.424  44.594  1.00  0.00    -0.493 OA
ATOM      8  C   UNL     1      -9.760  28.047  43.780  1.00  0.00     0.278 C 
ENDBRANCH   1   7
BRANCH   2   9
ATOM      9  O   UNL     1      -6.461  26.135  45.374  1.00  0.00    -0.504 OA
ATOM     10  H   UNL     1      -5.774  25.544  45.829  1.00  0.00     0.293 HD
ENDBRANCH   2   9
BRANCH   5  11
ATOM     11  C   UNL     1      -7.376  31.514  47.002  1.00  0.00     0.000 C 
ATOM     12  C   UNL     1      -6.527  32.272  47.696  1.00  0.00     0.009 C 
ENDBRANCH   5  11
TORSDOF 3
ENDMDL
MODEL 8
REMARK VINA RESULT:    -3.737     15.928     16.736
REMARK INTER + INTRA:          -4.385
REMARK INTER:                  -4.287
REMARK INTRA:                  -0.098
REMARK UNBOUND:                -0.102
REMARK SMILES C=Cc1ccc(O)c(OC)c1
REMARK SMILES IDX 8 1 6 2 5 3 4 4 3 5 11 6 9 7 10 8 7 9 2 11 1 12
REMARK H PARENT 7 10
REMARK Flexibility Score: inf
ROOT
ATOM      1  C   UNL     1      -6.332  30.913  47.011  1.00  0.00     0.161 A 
ATOM      2  C   UNL     1      -4.938  31.047  47.053  1.00  0.00     0.157 A 
ATOM      3  C   UNL     1      -4.118  29.943  46.787  1.00  0.00     0.051 A 
ATOM      4  C   UNL     1      -4.682  28.705  46.473  1.00  0.00     0.012 A 
ATOM      5  C   UNL     1      -6.080  28.553  46.412  1.00  0.00    -0.022 A 
ATOM      6  C   UNL     1      -6.896  29.662  46.693  1.00  0.00     0.058 A 
ENDROOT
BRANCH   1   7
ATOM      7  O   UNL     1      -7.120  32.041  47.288  1.00  0.00    -0.493 OA
ATOM      8  C   UNL     1      -7.632  32.931  46.301  1.00  0.00     0.278 C 
ENDBRANCH   1   7
BRANCH   2   9
ATOM      9  O   UNL     1      -4.374  32.282  47.365  1.00  0.00    -0.504 OA
ATOM     10  H   UNL     1      -4.548  33.104  46.798  1.00  0.00     0.293 HD
ENDBRANCH   2   9
BRANCH   5  11
ATOM     11  C   UNL     1      -6.729  27.257  46.093  1.00  0.00     0.000 C 
ATOM     12  C   UNL     1      -6.174  26.065  46.312  1.00  0.00     0.009 C 
ENDBRANCH   5  11
TORSDOF 3
ENDMDL
MODEL 9
REMARK VINA RESULT:    -3.675      9.144     11.119
REMARK INTER + INTRA:          -4.314
REMARK INTER:                  -4.229
REMARK INTRA:                  -0.086
REMARK UNBOUND:                -0.102
REMARK SMILES C=Cc1ccc(O)c(OC)c1
REMARK SMILES IDX 8 1 6 2 5 3 4 4 3 5 11 6 9 7 10 8 7 9 2 11 1 12
REMARK H PARENT 7 10
REMARK Flexibility Score: inf
ROOT
ATOM      1  C   UNL     1     -19.493  22.793  33.857  1.00  0.00     0.161 A 
ATOM      2  C   UNL     1     -18.142  22.422  33.871  1.00  0.00     0.157 A 
ATOM      3  C   UNL     1     -17.187  23.221  33.229  1.00  0.00     0.051 A 
ATOM      4  C   UNL     1     -17.573  24.394  32.576  1.00  0.00     0.012 A 
ATOM      5  C   UNL     1     -18.923  24.791  32.563  1.00  0.00    -0.022 A 
ATOM      6  C   UNL     1     -19.876  23.978  33.197  1.00  0.00     0.058 A 
ENDROOT
BRANCH   1   7
ATOM      7  O   UNL     1     -20.420  21.964  34.507  1.00  0.00    -0.493 OA
ATOM      8  C   UNL     1     -21.273  22.383  35.567  1.00  0.00     0.278 C 
ENDBRANCH   1   7
BRANCH   2   9
ATOM      9  O   UNL     1     -17.755  21.253  34.523  1.00  0.00    -0.504 OA
ATOM     10  H   UNL     1     -17.982  21.089  35.497  1.00  0.00     0.293 HD
ENDBRANCH   2   9
BRANCH   5  11
ATOM     11  C   UNL     1     -19.386  26.023  31.875  1.00  0.00     0.000 C 
ATOM     12  C   UNL     1     -20.344  26.826  32.338  1.00  0.00     0.009 C 
ENDBRANCH   5  11
TORSDOF 3
ENDMDL
