MODEL 1
REMARK VINA RESULT:    37.010      0.000      0.000
REMARK INTER + INTRA:          44.861
REMARK INTER:                  44.583
REMARK INTRA:                   0.278
REMARK UNBOUND:                 0.278
REMARK SMILES O=c1c(O)c(-c2ccc(O)c(O)c2)oc2cc(O)cc(O)c12
REMARK SMILES IDX 5 1 3 2 2 3 1 4 22 5 20 6 19 7 17 8 16 9 15 10 14 11 6 12
REMARK SMILES IDX 7 13 8 14 9 15 13 16 11 17 10 18 12 20 4 22 21 24 18 26
REMARK H PARENT 10 19 12 21 4 23 21 25 18 27
REMARK Flexibility Score: inf
ROOT
ATOM      1  C   UNL     1      12.207  -5.467  15.296  1.00  0.00     0.180 A 
ATOM      2  C   UNL     1      10.844  -5.135  15.205  1.00  0.00     0.208 A 
ATOM      3  C   UNL     1      10.273  -4.323  16.199  1.00  0.00     0.238 A 
ATOM      4  O   UNL     1       9.065  -3.985  16.082  1.00  0.00    -0.285 OA
ATOM      5  C   UNL     1      11.066  -3.867  17.277  1.00  0.00     0.111 A 
ATOM      6  C   UNL     1      10.582  -3.073  18.361  1.00  0.00     0.134 A 
ATOM      7  C   UNL     1      11.486  -2.570  19.305  1.00  0.00     0.093 A 
ATOM      8  C   UNL     1      12.842  -2.884  19.244  1.00  0.00     0.123 A 
ATOM      9  C   UNL     1      13.317  -3.709  18.223  1.00  0.00     0.094 A 
ATOM     10  C   UNL     1      12.446  -4.197  17.246  1.00  0.00     0.146 A 
ATOM     11  O   UNL     1      12.940  -4.969  16.286  1.00  0.00    -0.452 OA
ENDROOT
BRANCH   1  12
ATOM     12  C   UNL     1      12.874  -6.338  14.301  1.00  0.00     0.025 A 
ATOM     13  C   UNL     1      12.137  -7.352  13.667  1.00  0.00     0.016 A 
ATOM     14  C   UNL     1      12.741  -8.172  12.710  1.00  0.00     0.051 A 
ATOM     15  C   UNL     1      14.084  -7.979  12.362  1.00  0.00     0.157 A 
ATOM     16  C   UNL     1      14.215  -6.135  13.933  1.00  0.00     0.062 A 
ATOM     17  C   UNL     1      14.822  -6.956  12.971  1.00  0.00     0.158 A 
BRANCH  15  18
ATOM     18  O   UNL     1      14.690  -8.796  11.409  1.00  0.00    -0.504 OA
ATOM     19  H   UNL     1      14.345  -9.728  11.213  1.00  0.00     0.293 HD
ENDBRANCH  15  18
BRANCH  17  20
ATOM     20  O   UNL     1      16.154  -6.758  12.612  1.00  0.00    -0.504 OA
ATOM     21  H   UNL     1      16.513  -5.837  12.395  1.00  0.00     0.293 HD
ENDBRANCH  17  20
ENDBRANCH   1  12
BRANCH   2  22
ATOM     22  O   UNL     1      10.084  -5.577  14.118  1.00  0.00    -0.502 OA
ATOM     23  H   UNL     1       9.957  -6.560  13.908  1.00  0.00     0.293 HD
ENDBRANCH   2  22
BRANCH   6  24
ATOM     24  O   UNL     1       9.232  -2.775  18.568  1.00  0.00    -0.507 OA
ATOM     25  H   UNL     1       8.710  -3.022  19.395  1.00  0.00     0.293 HD
ENDBRANCH   6  24
BRANCH   8  26
ATOM     26  O   UNL     1      13.710  -2.379  20.210  1.00  0.00    -0.508 OA
ATOM     27  H   UNL     1      13.425  -1.642  20.844  1.00  0.00     0.293 HD
ENDBRANCH   8  26
TORSDOF 6
ENDMDL
MODEL 2
REMARK VINA RESULT:    37.410      3.654      8.526
REMARK INTER + INTRA:          45.342
REMARK INTER:                  45.367
REMARK INTRA:                  -0.024
REMARK UNBOUND:                 0.278
REMARK SMILES O=c1c(O)c(-c2ccc(O)c(O)c2)oc2cc(O)cc(O)c12
REMARK SMILES IDX 5 1 3 2 2 3 1 4 22 5 20 6 19 7 17 8 16 9 15 10 14 11 6 12
REMARK SMILES IDX 7 13 8 14 9 15 13 16 11 17 10 18 12 20 4 22 21 24 18 26
REMARK H PARENT 10 19 12 21 4 23 21 25 18 27
REMARK Flexibility Score: inf
ROOT
ATOM      1  C   UNL     1      11.174  -0.575  18.633  1.00  0.00     0.180 A 
ATOM      2  C   UNL     1      12.108  -1.093  19.547  1.00  0.00     0.208 A 
ATOM      3  C   UNL     1      12.594  -2.397  19.360  1.00  0.00     0.238 A 
ATOM      4  O   UNL     1      13.471  -2.835  20.151  1.00  0.00    -0.285 OA
ATOM      5  C   UNL     1      12.130  -3.172  18.271  1.00  0.00     0.111 A 
ATOM      6  C   UNL     1      12.524  -4.519  18.008  1.00  0.00     0.134 A 
ATOM      7  C   UNL     1      12.101  -5.144  16.828  1.00  0.00     0.093 A 
ATOM      8  C   UNL     1      11.247  -4.497  15.936  1.00  0.00     0.123 A 
ATOM      9  C   UNL     1      10.806  -3.202  16.213  1.00  0.00     0.094 A 
ATOM     10  C   UNL     1      11.241  -2.539  17.364  1.00  0.00     0.146 A 
ATOM     11  O   UNL     1      10.807  -1.304  17.584  1.00  0.00    -0.452 OA
ENDROOT
BRANCH   1  12
ATOM     12  C   UNL     1      10.597   0.780  18.778  1.00  0.00     0.025 A 
ATOM     13  C   UNL     1       9.203   0.935  18.845  1.00  0.00     0.016 A 
ATOM     14  C   UNL     1       8.638   2.204  19.003  1.00  0.00     0.051 A 
ATOM     15  C   UNL     1       9.460   3.333  19.113  1.00  0.00     0.157 A 
ATOM     16  C   UNL     1      11.418   1.915  18.910  1.00  0.00     0.062 A 
ATOM     17  C   UNL     1      10.852   3.188  19.072  1.00  0.00     0.158 A 
BRANCH  15  18
ATOM     18  O   UNL     1       8.900   4.600  19.269  1.00  0.00    -0.504 OA
ATOM     19  H   UNL     1       9.478   5.428  19.355  1.00  0.00     0.293 HD
ENDBRANCH  15  18
BRANCH  17  20
ATOM     20  O   UNL     1      11.667   4.312  19.195  1.00  0.00    -0.504 OA
ATOM     21  H   UNL     1      11.633   5.068  18.522  1.00  0.00     0.293 HD
ENDBRANCH  17  20
ENDBRANCH   1  12
BRANCH   2  22
ATOM     22  O   UNL     1      12.571  -0.302  20.603  1.00  0.00    -0.502 OA
ATOM     23  H   UNL     1      12.057  -0.198  21.470  1.00  0.00     0.293 HD
ENDBRANCH   2  22
BRANCH   6  24
ATOM     24  O   UNL     1      13.300  -5.289  18.878  1.00  0.00    -0.507 OA
ATOM     25  H   UNL     1      13.773  -6.143  18.624  1.00  0.00     0.293 HD
ENDBRANCH   6  24
BRANCH   8  26
ATOM     26  O   UNL     1      10.833  -5.156  14.780  1.00  0.00    -0.508 OA
ATOM     27  H   UNL     1      10.855  -4.702  13.875  1.00  0.00     0.293 HD
ENDBRANCH   8  26
TORSDOF 6
ENDMDL
MODEL 3
REMARK VINA RESULT:    37.913      3.245      6.433
REMARK INTER + INTRA:          45.949
REMARK INTER:                  46.026
REMARK INTRA:                  -0.078
REMARK UNBOUND:                 0.278
REMARK SMILES O=c1c(O)c(-c2ccc(O)c(O)c2)oc2cc(O)cc(O)c12
REMARK SMILES IDX 5 1 3 2 2 3 1 4 22 5 20 6 19 7 17 8 16 9 15 10 14 11 6 12
REMARK SMILES IDX 7 13 8 14 9 15 13 16 11 17 10 18 12 20 4 22 21 24 18 26
REMARK H PARENT 10 19 12 21 4 23 21 25 18 27
REMARK Flexibility Score: inf
ROOT
ATOM      1  C   UNL     1      10.980  -3.810  17.482  1.00  0.00     0.180 A 
ATOM      2  C   UNL     1      11.265  -4.117  16.140  1.00  0.00     0.208 A 
ATOM      3  C   UNL     1      10.202  -4.362  15.256  1.00  0.00     0.238 A 
ATOM      4  O   UNL     1      10.463  -4.583  14.044  1.00  0.00    -0.285 OA
ATOM      5  C   UNL     1       8.869  -4.313  15.727  1.00  0.00     0.111 A 
ATOM      6  C   UNL     1       7.717  -4.584  14.929  1.00  0.00     0.134 A 
ATOM      7  C   UNL     1       6.440  -4.378  15.467  1.00  0.00     0.093 A 
ATOM      8  C   UNL     1       6.273  -3.974  16.791  1.00  0.00     0.123 A 
ATOM      9  C   UNL     1       7.391  -3.765  17.599  1.00  0.00     0.094 A 
ATOM     10  C   UNL     1       8.678  -3.927  17.079  1.00  0.00     0.146 A 
ATOM     11  O   UNL     1       9.716  -3.707  17.878  1.00  0.00    -0.452 OA
ENDROOT
BRANCH   1  12
ATOM     12  C   UNL     1      12.047  -3.564  18.478  1.00  0.00     0.025 A 
ATOM     13  C   UNL     1      13.026  -4.547  18.699  1.00  0.00     0.016 A 
ATOM     14  C   UNL     1      14.054  -4.327  19.619  1.00  0.00     0.051 A 
ATOM     15  C   UNL     1      14.127  -3.115  20.320  1.00  0.00     0.157 A 
ATOM     16  C   UNL     1      12.137  -2.342  19.168  1.00  0.00     0.062 A 
ATOM     17  C   UNL     1      13.170  -2.119  20.090  1.00  0.00     0.158 A 
BRANCH  15  18
ATOM     18  O   UNL     1      15.151  -2.893  21.240  1.00  0.00    -0.504 OA
ATOM     19  H   UNL     1      15.922  -3.542  21.342  1.00  0.00     0.293 HD
ENDBRANCH  15  18
BRANCH  17  20
ATOM     20  O   UNL     1      13.254  -0.910  20.779  1.00  0.00    -0.504 OA
ATOM     21  H   UNL     1      13.794  -0.132  20.420  1.00  0.00     0.293 HD
ENDBRANCH  17  20
ENDBRANCH   1  12
BRANCH   2  22
ATOM     22  O   UNL     1      12.589  -4.138  15.690  1.00  0.00    -0.502 OA
ATOM     23  H   UNL     1      12.829  -4.239  14.711  1.00  0.00     0.293 HD
ENDBRANCH   2  22
BRANCH   6  24
ATOM     24  O   UNL     1       7.771  -5.079  13.623  1.00  0.00    -0.507 OA
ATOM     25  H   UNL     1       8.189  -5.959  13.359  1.00  0.00     0.293 HD
ENDBRANCH   6  24
BRANCH   8  26
ATOM     26  O   UNL     1       4.987  -3.795  17.298  1.00  0.00    -0.508 OA
ATOM     27  H   UNL     1       4.664  -2.889  17.613  1.00  0.00     0.293 HD
ENDBRANCH   8  26
TORSDOF 6
ENDMDL
MODEL 4
REMARK VINA RESULT:    38.907      3.791      6.665
REMARK INTER + INTRA:          47.146
REMARK INTER:                  47.333
REMARK INTRA:                  -0.187
REMARK UNBOUND:                 0.278
REMARK SMILES O=c1c(O)c(-c2ccc(O)c(O)c2)oc2cc(O)cc(O)c12
REMARK SMILES IDX 5 1 3 2 2 3 1 4 22 5 20 6 19 7 17 8 16 9 15 10 14 11 6 12
REMARK SMILES IDX 7 13 8 14 9 15 13 16 11 17 10 18 12 20 4 22 21 24 18 26
REMARK H PARENT 10 19 12 21 4 23 21 25 18 27
REMARK Flexibility Score: inf
ROOT
ATOM      1  C   UNL     1      12.479  -3.432  18.406  1.00  0.00     0.180 A 
ATOM      2  C   UNL     1      11.710  -4.608  18.477  1.00  0.00     0.208 A 
ATOM      3  C   UNL     1      10.865  -4.936  17.404  1.00  0.00     0.238 A 
ATOM      4  O   UNL     1      10.222  -6.017  17.452  1.00  0.00    -0.285 OA
ATOM      5  C   UNL     1      10.788  -4.078  16.282  1.00  0.00     0.111 A 
ATOM      6  C   UNL     1       9.935  -4.292  15.156  1.00  0.00     0.134 A 
ATOM      7  C   UNL     1      10.037  -3.447  14.044  1.00  0.00     0.093 A 
ATOM      8  C   UNL     1      10.910  -2.361  14.041  1.00  0.00     0.123 A 
ATOM      9  C   UNL     1      11.705  -2.107  15.160  1.00  0.00     0.094 A 
ATOM     10  C   UNL     1      11.652  -2.953  16.270  1.00  0.00     0.146 A 
ATOM     11  O   UNL     1      12.432  -2.683  17.310  1.00  0.00    -0.452 OA
ENDROOT
BRANCH   1  12
ATOM     12  C   UNL     1      13.372  -3.007  19.507  1.00  0.00     0.025 A 
ATOM     13  C   UNL     1      13.038  -1.878  20.272  1.00  0.00     0.016 A 
ATOM     14  C   UNL     1      13.856  -1.471  21.329  1.00  0.00     0.051 A 
ATOM     15  C   UNL     1      15.011  -2.197  21.646  1.00  0.00     0.157 A 
ATOM     16  C   UNL     1      14.522  -3.744  19.842  1.00  0.00     0.062 A 
ATOM     17  C   UNL     1      15.343  -3.338  20.905  1.00  0.00     0.158 A 
BRANCH  15  18
ATOM     18  O   UNL     1      15.831  -1.794  22.699  1.00  0.00    -0.504 OA
ATOM     19  H   UNL     1      15.655  -0.936  23.209  1.00  0.00     0.293 HD
ENDBRANCH  15  18
BRANCH  17  20
ATOM     20  O   UNL     1      16.486  -4.066  21.232  1.00  0.00    -0.504 OA
ATOM     21  H   UNL     1      16.690  -4.957  20.796  1.00  0.00     0.293 HD
ENDBRANCH  17  20
ENDBRANCH   1  12
BRANCH   2  22
ATOM     22  O   UNL     1      11.819  -5.452  19.586  1.00  0.00    -0.502 OA
ATOM     23  H   UNL     1      12.370  -5.210  20.401  1.00  0.00     0.293 HD
ENDBRANCH   2  22
BRANCH   6  24
ATOM     24  O   UNL     1       8.962  -5.293  15.093  1.00  0.00    -0.507 OA
ATOM     25  H   UNL     1       8.747  -5.933  15.843  1.00  0.00     0.293 HD
ENDBRANCH   6  24
BRANCH   8  26
ATOM     26  O   UNL     1      10.973  -1.532  12.923  1.00  0.00    -0.508 OA
ATOM     27  H   UNL     1      11.856  -1.181  12.573  1.00  0.00     0.293 HD
ENDBRANCH   8  26
TORSDOF 6
ENDMDL
MODEL 5
REMARK VINA RESULT:    39.602      1.853      3.853
REMARK INTER + INTRA:          47.982
REMARK INTER:                  47.607
REMARK INTRA:                   0.376
REMARK UNBOUND:                 0.278
REMARK SMILES O=c1c(O)c(-c2ccc(O)c(O)c2)oc2cc(O)cc(O)c12
REMARK SMILES IDX 5 1 3 2 2 3 1 4 22 5 20 6 19 7 17 8 16 9 15 10 14 11 6 12
REMARK SMILES IDX 7 13 8 14 9 15 13 16 11 17 10 18 12 20 4 22 21 24 18 26
REMARK H PARENT 10 19 12 21 4 23 21 25 18 27
REMARK Flexibility Score: inf
ROOT
ATOM      1  C   UNL     1      11.420  -5.184  15.685  1.00  0.00     0.180 A 
ATOM      2  C   UNL     1      11.618  -4.875  17.043  1.00  0.00     0.208 A 
ATOM      3  C   UNL     1      10.548  -4.347  17.784  1.00  0.00     0.238 A 
ATOM      4  O   UNL     1      10.717  -4.124  19.012  1.00  0.00    -0.285 OA
ATOM      5  C   UNL     1       9.301  -4.121  17.157  1.00  0.00     0.111 A 
ATOM      6  C   UNL     1       8.160  -3.553  17.802  1.00  0.00     0.134 A 
ATOM      7  C   UNL     1       6.939  -3.496  17.119  1.00  0.00     0.093 A 
ATOM      8  C   UNL     1       6.830  -3.924  15.798  1.00  0.00     0.123 A 
ATOM      9  C   UNL     1       7.954  -4.425  15.137  1.00  0.00     0.094 A 
ATOM     10  C   UNL     1       9.177  -4.528  15.803  1.00  0.00     0.146 A 
ATOM     11  O   UNL     1      10.218  -5.021  15.143  1.00  0.00    -0.452 OA
ENDROOT
BRANCH   1  12
ATOM     12  C   UNL     1      12.505  -5.719  14.833  1.00  0.00     0.025 A 
ATOM     13  C   UNL     1      13.843  -5.462  15.175  1.00  0.00     0.016 A 
ATOM     14  C   UNL     1      14.884  -5.975  14.396  1.00  0.00     0.051 A 
ATOM     15  C   UNL     1      14.602  -6.766  13.275  1.00  0.00     0.157 A 
ATOM     16  C   UNL     1      12.229  -6.531  13.718  1.00  0.00     0.062 A 
ATOM     17  C   UNL     1      13.272  -7.048  12.938  1.00  0.00     0.158 A 
BRANCH  15  18
ATOM     18  O   UNL     1      15.638  -7.278  12.494  1.00  0.00    -0.504 OA
ATOM     19  H   UNL     1      16.568  -6.876  12.518  1.00  0.00     0.293 HD
ENDBRANCH  15  18
BRANCH  17  20
ATOM     20  O   UNL     1      12.996  -7.846  11.829  1.00  0.00    -0.504 OA
ATOM     21  H   UNL     1      12.385  -8.651  11.894  1.00  0.00     0.293 HD
ENDBRANCH  17  20
ENDBRANCH   1  12
BRANCH   2  22
ATOM     22  O   UNL     1      12.852  -5.128  17.648  1.00  0.00    -0.502 OA
ATOM     23  H   UNL     1      13.009  -5.927  18.250  1.00  0.00     0.293 HD
ENDBRANCH   2  22
BRANCH   6  24
ATOM     24  O   UNL     1       8.182  -3.011  19.090  1.00  0.00    -0.507 OA
ATOM     25  H   UNL     1       8.023  -2.038  19.307  1.00  0.00     0.293 HD
ENDBRANCH   6  24
BRANCH   8  26
ATOM     26  O   UNL     1       5.603  -3.837  15.144  1.00  0.00    -0.508 OA
ATOM     27  H   UNL     1       5.429  -4.329  14.277  1.00  0.00     0.293 HD
ENDBRANCH   8  26
TORSDOF 6
ENDMDL
