MODEL 1
REMARK VINA RESULT:    -3.983      0.000      0.000
REMARK INTER + INTRA:          -4.767
REMARK INTER:                  -4.682
REMARK INTRA:                  -0.085
REMARK UNBOUND:                -0.085
REMARK SMILES O=C([O-])CCC(=O)[O-]
REMARK SMILES IDX 4 1 2 2 1 3 3 4 5 5 6 6 7 7 8 8
REMARK H PARENT
REMARK Flexibility Score: inf
ROOT
ATOM      1  C   UNL     1      22.708 -12.071  20.887  1.00  0.00     0.059 C 
ENDROOT
BRANCH   1   2
ATOM      2  C   UNL     1      23.256 -10.767  21.379  1.00  0.00     0.042 C 
ATOM      3  O   UNL     1      23.061 -10.406  22.570  1.00  0.00    -0.550 OA
ATOM      4  O   UNL     1      24.017  -9.968  20.535  1.00  0.00    -0.550 OA
ENDBRANCH   1   2
BRANCH   1   5
ATOM      5  C   UNL     1      22.267 -11.982  19.422  1.00  0.00     0.059 C 
BRANCH   5   6
ATOM      6  C   UNL     1      23.154 -12.795  18.528  1.00  0.00     0.042 C 
ATOM      7  O   UNL     1      23.802 -13.769  18.994  1.00  0.00    -0.550 OA
ATOM      8  O   UNL     1      23.232 -12.502  17.172  1.00  0.00    -0.550 OA
ENDBRANCH   5   6
ENDBRANCH   1   5
TORSDOF 3
ENDMDL
MODEL 2
REMARK VINA RESULT:    -3.806      1.210      1.428
REMARK INTER + INTRA:          -4.558
REMARK INTER:                  -4.434
REMARK INTRA:                  -0.124
REMARK UNBOUND:                -0.085
REMARK SMILES O=C([O-])CCC(=O)[O-]
REMARK SMILES IDX 4 1 2 2 1 3 3 4 5 5 6 6 7 7 8 8
REMARK H PARENT
REMARK Flexibility Score: inf
ROOT
ATOM      1  C   UNL     1      22.316 -11.909  19.560  1.00  0.00     0.059 C 
ENDROOT
BRANCH   1   2
ATOM      2  C   UNL     1      23.001 -11.250  20.719  1.00  0.00     0.042 C 
ATOM      3  O   UNL     1      22.854 -11.704  21.884  1.00  0.00    -0.550 OA
ATOM      4  O   UNL     1      23.835 -10.159  20.506  1.00  0.00    -0.550 OA
ENDBRANCH   1   2
BRANCH   1   5
ATOM      5  C   UNL     1      23.231 -12.922  18.865  1.00  0.00     0.059 C 
BRANCH   5   6
ATOM      6  C   UNL     1      23.824 -12.360  17.609  1.00  0.00     0.042 C 
ATOM      7  O   UNL     1      24.927 -11.752  17.645  1.00  0.00    -0.550 OA
ATOM      8  O   UNL     1      23.180 -12.544  16.391  1.00  0.00    -0.550 OA
ENDBRANCH   5   6
ENDBRANCH   1   5
TORSDOF 3
ENDMDL
MODEL 3
REMARK VINA RESULT:    -3.805      1.218      3.921
REMARK INTER + INTRA:          -4.557
REMARK INTER:                  -4.433
REMARK INTRA:                  -0.123
REMARK UNBOUND:                -0.085
REMARK SMILES O=C([O-])CCC(=O)[O-]
REMARK SMILES IDX 4 1 2 2 1 3 3 4 5 5 6 6 7 7 8 8
REMARK H PARENT
REMARK Flexibility Score: inf
ROOT
ATOM      1  C   UNL     1      23.278 -12.889  18.860  1.00  0.00     0.059 C 
ENDROOT
BRANCH   1   2
ATOM      2  C   UNL     1      23.858 -12.333  17.595  1.00  0.00     0.042 C 
ATOM      3  O   UNL     1      24.951 -11.709  17.619  1.00  0.00    -0.550 OA
ATOM      4  O   UNL     1      23.211 -12.541  16.383  1.00  0.00    -0.550 OA
ENDBRANCH   1   2
BRANCH   1   5
ATOM      5  C   UNL     1      22.355 -11.879  19.549  1.00  0.00     0.059 C 
BRANCH   5   6
ATOM      6  C   UNL     1      23.042 -11.191  20.689  1.00  0.00     0.042 C 
ATOM      7  O   UNL     1      23.776 -10.189  20.475  1.00  0.00    -0.550 OA
ATOM      8  O   UNL     1      22.839 -11.629  21.992  1.00  0.00    -0.550 OA
ENDBRANCH   5   6
ENDBRANCH   1   5
TORSDOF 3
ENDMDL
MODEL 4
REMARK VINA RESULT:    -3.773      1.297      3.801
REMARK INTER + INTRA:          -4.519
REMARK INTER:                  -4.398
REMARK INTRA:                  -0.121
REMARK UNBOUND:                -0.085
REMARK SMILES O=C([O-])CCC(=O)[O-]
REMARK SMILES IDX 4 1 2 2 1 3 3 4 5 5 6 6 7 7 8 8
REMARK H PARENT
REMARK Flexibility Score: inf
ROOT
ATOM      1  C   UNL     1      23.319 -12.914  18.756  1.00  0.00     0.059 C 
ENDROOT
BRANCH   1   2
ATOM      2  C   UNL     1      23.887 -12.356  17.488  1.00  0.00     0.042 C 
ATOM      3  O   UNL     1      23.357 -12.631  16.380  1.00  0.00    -0.550 OA
ATOM      4  O   UNL     1      24.980 -11.498  17.533  1.00  0.00    -0.550 OA
ENDBRANCH   1   2
BRANCH   1   5
ATOM      5  C   UNL     1      22.378 -11.917  19.440  1.00  0.00     0.059 C 
BRANCH   5   6
ATOM      6  C   UNL     1      23.008 -11.305  20.654  1.00  0.00     0.042 C 
ATOM      7  O   UNL     1      22.832 -11.824  21.789  1.00  0.00    -0.550 OA
ATOM      8  O   UNL     1      23.824 -10.188  20.527  1.00  0.00    -0.550 OA
ENDBRANCH   5   6
ENDBRANCH   1   5
TORSDOF 3
ENDMDL
MODEL 5
REMARK VINA RESULT:    -3.581      2.002      2.943
REMARK INTER + INTRA:          -4.293
REMARK INTER:                  -4.267
REMARK INTRA:                  -0.027
REMARK UNBOUND:                -0.085
REMARK SMILES O=C([O-])CCC(=O)[O-]
REMARK SMILES IDX 4 1 2 2 1 3 3 4 5 5 6 6 7 7 8 8
REMARK H PARENT
REMARK Flexibility Score: inf
ROOT
ATOM      1  C   UNL     1      22.621 -12.606  18.776  1.00  0.00     0.059 C 
ENDROOT
BRANCH   1   2
ATOM      2  C   UNL     1      22.584 -13.195  20.154  1.00  0.00     0.042 C 
ATOM      3  O   UNL     1      22.819 -12.474  21.158  1.00  0.00    -0.550 OA
ATOM      4  O   UNL     1      22.248 -14.532  20.330  1.00  0.00    -0.550 OA
ENDBRANCH   1   2
BRANCH   1   5
ATOM      5  C   UNL     1      23.967 -12.862  18.089  1.00  0.00     0.059 C 
BRANCH   5   6
ATOM      6  C   UNL     1      24.022 -12.233  16.731  1.00  0.00     0.042 C 
ATOM      7  O   UNL     1      23.273 -12.652  15.808  1.00  0.00    -0.550 OA
ATOM      8  O   UNL     1      24.870 -11.158  16.494  1.00  0.00    -0.550 OA
ENDBRANCH   5   6
ENDBRANCH   1   5
TORSDOF 3
ENDMDL
MODEL 6
REMARK VINA RESULT:    -3.563      1.978      4.048
REMARK INTER + INTRA:          -4.273
REMARK INTER:                  -4.245
REMARK INTRA:                  -0.028
REMARK UNBOUND:                -0.085
REMARK SMILES O=C([O-])CCC(=O)[O-]
REMARK SMILES IDX 4 1 2 2 1 3 3 4 5 5 6 6 7 7 8 8
REMARK H PARENT
REMARK Flexibility Score: inf
ROOT
ATOM      1  C   UNL     1      23.994 -12.720  18.107  1.00  0.00     0.059 C 
ENDROOT
BRANCH   1   2
ATOM      2  C   UNL     1      24.001 -12.224  16.693  1.00  0.00     0.042 C 
ATOM      3  O   UNL     1      23.280 -12.778  15.823  1.00  0.00    -0.550 OA
ATOM      4  O   UNL     1      24.774 -11.123  16.345  1.00  0.00    -0.550 OA
ENDBRANCH   1   2
BRANCH   1   5
ATOM      5  C   UNL     1      22.619 -12.547  18.759  1.00  0.00     0.059 C 
BRANCH   5   6
ATOM      6  C   UNL     1      22.578 -13.147  20.131  1.00  0.00     0.042 C 
ATOM      7  O   UNL     1      22.796 -12.429  21.144  1.00  0.00    -0.550 OA
ATOM      8  O   UNL     1      22.259 -14.490  20.296  1.00  0.00    -0.550 OA
ENDBRANCH   5   6
ENDBRANCH   1   5
TORSDOF 3
ENDMDL
MODEL 7
REMARK VINA RESULT:    -3.440      3.390      4.861
REMARK INTER + INTRA:          -4.128
REMARK INTER:                  -4.008
REMARK INTRA:                  -0.121
REMARK UNBOUND:                -0.085
REMARK SMILES O=C([O-])CCC(=O)[O-]
REMARK SMILES IDX 4 1 2 2 1 3 3 4 5 5 6 6 7 7 8 8
REMARK H PARENT
REMARK Flexibility Score: inf
ROOT
ATOM      1  C   UNL     1      24.824 -10.983  15.825  1.00  0.00     0.059 C 
ENDROOT
BRANCH   1   2
ATOM      2  C   UNL     1      26.315 -11.124  15.767  1.00  0.00     0.042 C 
ATOM      3  O   UNL     1      26.980 -11.268  16.826  1.00  0.00    -0.550 OA
ATOM      4  O   UNL     1      26.965 -11.138  14.539  1.00  0.00    -0.550 OA
ENDBRANCH   1   2
BRANCH   1   5
ATOM      5  C   UNL     1      24.128 -12.348  15.825  1.00  0.00     0.059 C 
BRANCH   5   6
ATOM      6  C   UNL     1      23.827 -12.815  17.216  1.00  0.00     0.042 C 
ATOM      7  O   UNL     1      24.656 -13.533  17.836  1.00  0.00    -0.550 OA
ATOM      8  O   UNL     1      22.650 -12.425  17.843  1.00  0.00    -0.550 OA
ENDBRANCH   5   6
ENDBRANCH   1   5
TORSDOF 3
ENDMDL
MODEL 8
REMARK VINA RESULT:    -3.414      3.372      4.862
REMARK INTER + INTRA:          -4.098
REMARK INTER:                  -3.975
REMARK INTRA:                  -0.123
REMARK UNBOUND:                -0.085
REMARK SMILES O=C([O-])CCC(=O)[O-]
REMARK SMILES IDX 4 1 2 2 1 3 3 4 5 5 6 6 7 7 8 8
REMARK H PARENT
REMARK Flexibility Score: inf
ROOT
ATOM      1  C   UNL     1      24.107 -12.453  15.827  1.00  0.00     0.059 C 
ENDROOT
BRANCH   1   2
ATOM      2  C   UNL     1      23.805 -12.835  17.244  1.00  0.00     0.042 C 
ATOM      3  O   UNL     1      22.760 -12.414  17.805  1.00  0.00    -0.550 OA
ATOM      4  O   UNL     1      24.658 -13.691  17.931  1.00  0.00    -0.550 OA
ENDBRANCH   1   2
BRANCH   1   5
ATOM      5  C   UNL     1      24.743 -11.062  15.740  1.00  0.00     0.059 C 
BRANCH   5   6
ATOM      6  C   UNL     1      26.239 -11.139  15.718  1.00  0.00     0.042 C 
ATOM      7  O   UNL     1      26.860 -11.083  14.623  1.00  0.00    -0.550 OA
ATOM      8  O   UNL     1      26.950 -11.229  16.909  1.00  0.00    -0.550 OA
ENDBRANCH   5   6
ENDBRANCH   1   5
TORSDOF 3
ENDMDL
MODEL 9
REMARK VINA RESULT:    -3.392      4.164      5.657
REMARK INTER + INTRA:          -4.072
REMARK INTER:                  -3.945
REMARK INTRA:                  -0.127
REMARK UNBOUND:                -0.085
REMARK SMILES O=C([O-])CCC(=O)[O-]
REMARK SMILES IDX 4 1 2 2 1 3 3 4 5 5 6 6 7 7 8 8
REMARK H PARENT
REMARK Flexibility Score: inf
ROOT
ATOM      1  C   UNL     1      24.813 -10.924  15.480  1.00  0.00     0.059 C 
ENDROOT
BRANCH   1   2
ATOM      2  C   UNL     1      24.396 -12.053  16.372  1.00  0.00     0.042 C 
ATOM      3  O   UNL     1      23.767 -13.036  15.899  1.00  0.00    -0.550 OA
ATOM      4  O   UNL     1      24.739 -12.040  17.718  1.00  0.00    -0.550 OA
ENDBRANCH   1   2
BRANCH   1   5
ATOM      5  C   UNL     1      26.171 -11.195  14.824  1.00  0.00     0.059 C 
BRANCH   5   6
ATOM      6  C   UNL     1      27.302 -10.677  15.660  1.00  0.00     0.042 C 
ATOM      7  O   UNL     1      27.916 -11.449  16.443  1.00  0.00    -0.550 OA
ATOM      8  O   UNL     1      27.705  -9.353  15.543  1.00  0.00    -0.550 OA
ENDBRANCH   5   6
ENDBRANCH   1   5
TORSDOF 3
ENDMDL
