MODEL 1
REMARK VINA RESULT:    -3.989      0.000      0.000
REMARK INTER + INTRA:         -13.050
REMARK INTER:                  -9.120
REMARK INTRA:                  -3.930
REMARK UNBOUND:                -3.930
REMARK SMILES CCCCCCCCCCCCCCCCCCCCCCCC(=O)[O-]
REMARK SMILES IDX 13 1 14 2 15 3 16 4 17 5 18 6 19 7 20 8 21 9 22 10 23 11
REMARK SMILES IDX 24 12 25 13 26 14 12 15 11 16 10 17 9 18 8 19 7 20 6 21 5 22
REMARK SMILES IDX 4 23 3 24 2 25 1 26
REMARK H PARENT
REMARK Flexibility Score: inf
ROOT
ATOM      1  C   UNL     1       9.852  -8.258  33.328  1.00  0.00     0.000 C 
ENDROOT
BRANCH   1   2
ATOM      2  C   UNL     1      10.516  -9.246  34.313  1.00  0.00     0.000 C 
BRANCH   2   3
ATOM      3  C   UNL     1       9.648  -9.623  35.528  1.00  0.00     0.000 C 
BRANCH   3   4
ATOM      4  C   UNL     1       9.666 -11.127  35.849  1.00  0.00     0.000 C 
BRANCH   4   5
ATOM      5  C   UNL     1      10.943 -11.831  35.361  1.00  0.00     0.000 C 
BRANCH   5   6
ATOM      6  C   UNL     1      11.592 -12.700  36.450  1.00  0.00     0.000 C 
BRANCH   6   7
ATOM      7  C   UNL     1      12.668 -11.943  37.251  1.00  0.00     0.000 C 
BRANCH   7   8
ATOM      8  C   UNL     1      12.347 -11.825  38.757  1.00  0.00     0.000 C 
BRANCH   8   9
ATOM      9  C   UNL     1      11.773 -10.446  39.125  1.00  0.00     0.000 C 
BRANCH   9  10
ATOM     10  C   UNL     1      12.158  -9.393  38.075  1.00  0.00     0.006 C 
BRANCH  10  11
ATOM     11  C   UNL     1      12.750  -8.127  38.711  1.00  0.00     0.053 C 
BRANCH  11  12
ATOM     12  C   UNL     1      14.249  -8.149  38.700  1.00  0.00     0.041 C 
ATOM     13  O   UNL     1      14.900  -7.090  38.908  1.00  0.00    -0.550 OA
ATOM     14  O   UNL     1      14.925  -9.328  38.411  1.00  0.00    -0.550 OA
ENDBRANCH  11  12
ENDBRANCH  10  11
ENDBRANCH   9  10
ENDBRANCH   8   9
ENDBRANCH   7   8
ENDBRANCH   6   7
ENDBRANCH   5   6
ENDBRANCH   4   5
ENDBRANCH   3   4
ENDBRANCH   2   3
ENDBRANCH   1   2
BRANCH   1  15
ATOM     15  C   UNL     1       8.341  -8.024  33.528  1.00  0.00     0.000 C 
BRANCH  15  16
ATOM     16  C   UNL     1       7.926  -6.593  33.927  1.00  0.00     0.000 C 
BRANCH  16  17
ATOM     17  C   UNL     1       8.825  -5.487  33.339  1.00  0.00     0.000 C 
BRANCH  17  18
ATOM     18  C   UNL     1       8.630  -4.135  34.047  1.00  0.00    -0.000 C 
BRANCH  18  19
ATOM     19  C   UNL     1       7.554  -4.186  35.146  1.00  0.00    -0.000 C 
BRANCH  19  20
ATOM     20  C   UNL     1       8.061  -3.883  36.572  1.00  0.00    -0.000 C 
BRANCH  20  21
ATOM     21  C   UNL     1       8.236  -5.112  37.484  1.00  0.00    -0.000 C 
BRANCH  21  22
ATOM     22  C   UNL     1       9.692  -5.454  37.856  1.00  0.00    -0.000 C 
BRANCH  22  23
ATOM     23  C   UNL     1      10.431  -6.303  36.799  1.00  0.00    -0.000 C 
BRANCH  23  24
ATOM     24  C   UNL     1      11.390  -5.474  35.930  1.00  0.00    -0.000 C 
BRANCH  24  25
ATOM     25  C   UNL     1      12.191  -4.483  36.785  1.00  0.00    -0.003 C 
ATOM     26  C   UNL     1      12.353  -3.144  36.071  1.00  0.00     0.004 C 
ENDBRANCH  24  25
ENDBRANCH  23  24
ENDBRANCH  22  23
ENDBRANCH  21  22
ENDBRANCH  20  21
ENDBRANCH  19  20
ENDBRANCH  18  19
ENDBRANCH  17  18
ENDBRANCH  16  17
ENDBRANCH  15  16
ENDBRANCH   1  15
TORSDOF 22
ENDMDL
MODEL 2
REMARK VINA RESULT:    -3.958      3.048      5.537
REMARK INTER + INTRA:         -12.979
REMARK INTER:                  -8.399
REMARK INTRA:                  -4.580
REMARK UNBOUND:                -3.930
REMARK SMILES CCCCCCCCCCCCCCCCCCCCCCCC(=O)[O-]
REMARK SMILES IDX 13 1 14 2 15 3 16 4 17 5 18 6 19 7 20 8 21 9 22 10 23 11
REMARK SMILES IDX 24 12 25 13 26 14 12 15 11 16 10 17 9 18 8 19 7 20 6 21 5 22
REMARK SMILES IDX 4 23 3 24 2 25 1 26
REMARK H PARENT
REMARK Flexibility Score: inf
ROOT
ATOM      1  C   UNL     1       7.989  -5.587  34.594  1.00  0.00     0.000 C 
ENDROOT
BRANCH   1   2
ATOM      2  C   UNL     1       9.175  -6.236  33.848  1.00  0.00     0.000 C 
BRANCH   2   3
ATOM      3  C   UNL     1       8.993  -7.731  33.528  1.00  0.00     0.000 C 
BRANCH   3   4
ATOM      4  C   UNL     1       9.972  -8.643  34.288  1.00  0.00     0.000 C 
BRANCH   4   5
ATOM      5  C   UNL     1      10.490  -8.014  35.591  1.00  0.00     0.000 C 
BRANCH   5   6
ATOM      6  C   UNL     1      10.719  -9.055  36.699  1.00  0.00     0.000 C 
BRANCH   6   7
ATOM      7  C   UNL     1      11.663  -8.547  37.805  1.00  0.00     0.000 C 
BRANCH   7   8
ATOM      8  C   UNL     1      11.187  -7.237  38.469  1.00  0.00     0.000 C 
BRANCH   8   9
ATOM      9  C   UNL     1      12.257  -6.133  38.417  1.00  0.00     0.000 C 
BRANCH   9  10
ATOM     10  C   UNL     1      11.674  -4.828  37.854  1.00  0.00     0.006 C 
BRANCH  10  11
ATOM     11  C   UNL     1      12.084  -4.592  36.393  1.00  0.00     0.053 C 
BRANCH  11  12
ATOM     12  C   UNL     1      13.159  -3.554  36.279  1.00  0.00     0.041 C 
ATOM     13  O   UNL     1      14.359  -3.856  36.516  1.00  0.00    -0.550 OA
ATOM     14  O   UNL     1      12.828  -2.242  35.961  1.00  0.00    -0.550 OA
ENDBRANCH  11  12
ENDBRANCH  10  11
ENDBRANCH   9  10
ENDBRANCH   8   9
ENDBRANCH   7   8
ENDBRANCH   6   7
ENDBRANCH   5   6
ENDBRANCH   4   5
ENDBRANCH   3   4
ENDBRANCH   2   3
ENDBRANCH   1   2
BRANCH   1  15
ATOM     15  C   UNL     1       8.357  -4.721  35.816  1.00  0.00     0.000 C 
BRANCH  15  16
ATOM     16  C   UNL     1       8.183  -5.389  37.195  1.00  0.00     0.000 C 
BRANCH  16  17
ATOM     17  C   UNL     1       7.130  -6.516  37.222  1.00  0.00     0.000 C 
BRANCH  17  18
ATOM     18  C   UNL     1       7.588  -7.726  38.056  1.00  0.00    -0.000 C 
BRANCH  18  19
ATOM     19  C   UNL     1       6.847  -9.022  37.684  1.00  0.00    -0.000 C 
BRANCH  19  20
ATOM     20  C   UNL     1       6.998  -9.462  36.211  1.00  0.00    -0.000 C 
BRANCH  20  21
ATOM     21  C   UNL     1       5.690  -9.510  35.402  1.00  0.00    -0.000 C 
BRANCH  21  22
ATOM     22  C   UNL     1       5.347  -8.223  34.625  1.00  0.00    -0.000 C 
BRANCH  22  23
ATOM     23  C   UNL     1       4.097  -7.485  35.149  1.00  0.00    -0.000 C 
BRANCH  23  24
ATOM     24  C   UNL     1       3.098  -8.420  35.847  1.00  0.00    -0.000 C 
BRANCH  24  25
ATOM     25  C   UNL     1       2.527  -7.771  37.114  1.00  0.00    -0.003 C 
ATOM     26  C   UNL     1       3.629  -7.124  37.948  1.00  0.00     0.004 C 
ENDBRANCH  24  25
ENDBRANCH  23  24
ENDBRANCH  22  23
ENDBRANCH  21  22
ENDBRANCH  20  21
ENDBRANCH  19  20
ENDBRANCH  18  19
ENDBRANCH  17  18
ENDBRANCH  16  17
ENDBRANCH  15  16
ENDBRANCH   1  15
TORSDOF 22
ENDMDL
MODEL 3
REMARK VINA RESULT:    -3.948      3.539      6.604
REMARK INTER + INTRA:         -12.955
REMARK INTER:                  -9.043
REMARK INTRA:                  -3.912
REMARK UNBOUND:                -3.930
REMARK SMILES CCCCCCCCCCCCCCCCCCCCCCCC(=O)[O-]
REMARK SMILES IDX 13 1 14 2 15 3 16 4 17 5 18 6 19 7 20 8 21 9 22 10 23 11
REMARK SMILES IDX 24 12 25 13 26 14 12 15 11 16 10 17 9 18 8 19 7 20 6 21 5 22
REMARK SMILES IDX 4 23 3 24 2 25 1 26
REMARK H PARENT
REMARK Flexibility Score: inf
ROOT
ATOM      1  C   UNL     1      10.657 -10.607  35.932  1.00  0.00     0.000 C 
ENDROOT
BRANCH   1   2
ATOM      2  C   UNL     1       9.635  -9.475  35.685  1.00  0.00     0.000 C 
BRANCH   2   3
ATOM      3  C   UNL     1      10.098  -8.396  34.689  1.00  0.00     0.000 C 
BRANCH   3   4
ATOM      4  C   UNL     1       9.134  -8.201  33.507  1.00  0.00     0.000 C 
BRANCH   4   5
ATOM      5  C   UNL     1       8.969  -6.728  33.101  1.00  0.00     0.000 C 
BRANCH   5   6
ATOM      6  C   UNL     1       9.310  -5.759  34.245  1.00  0.00     0.000 C 
BRANCH   6   7
ATOM      7  C   UNL     1       8.227  -4.683  34.454  1.00  0.00     0.000 C 
BRANCH   7   8
ATOM      8  C   UNL     1       7.245  -5.011  35.600  1.00  0.00     0.000 C 
BRANCH   8   9
ATOM      9  C   UNL     1       7.781  -6.111  36.531  1.00  0.00     0.000 C 
BRANCH   9  10
ATOM     10  C   UNL     1       6.799  -7.291  36.610  1.00  0.00     0.006 C 
BRANCH  10  11
ATOM     11  C   UNL     1       5.863  -7.349  35.395  1.00  0.00     0.053 C 
BRANCH  11  12
ATOM     12  C   UNL     1       4.421  -7.332  35.804  1.00  0.00     0.041 C 
ATOM     13  O   UNL     1       3.964  -6.368  36.476  1.00  0.00    -0.550 OA
ATOM     14  O   UNL     1       3.596  -8.404  35.489  1.00  0.00    -0.550 OA
ENDBRANCH  11  12
ENDBRANCH  10  11
ENDBRANCH   9  10
ENDBRANCH   8   9
ENDBRANCH   7   8
ENDBRANCH   6   7
ENDBRANCH   5   6
ENDBRANCH   4   5
ENDBRANCH   3   4
ENDBRANCH   2   3
ENDBRANCH   1   2
BRANCH   1  15
ATOM     15  C   UNL     1      10.773 -11.100  37.389  1.00  0.00     0.000 C 
BRANCH  15  16
ATOM     16  C   UNL     1      12.194 -11.102  37.990  1.00  0.00     0.000 C 
BRANCH  16  17
ATOM     17  C   UNL     1      12.422 -10.032  39.076  1.00  0.00     0.000 C 
BRANCH  17  18
ATOM     18  C   UNL     1      13.568  -9.070  38.719  1.00  0.00    -0.000 C 
BRANCH  18  19
ATOM     19  C   UNL     1      13.155  -7.590  38.806  1.00  0.00    -0.000 C 
BRANCH  19  20
ATOM     20  C   UNL     1      11.683  -7.299  38.442  1.00  0.00    -0.000 C 
BRANCH  20  21
ATOM     21  C   UNL     1      11.473  -6.249  37.336  1.00  0.00    -0.000 C 
BRANCH  21  22
ATOM     22  C   UNL     1      10.849  -4.918  37.800  1.00  0.00    -0.000 C 
BRANCH  22  23
ATOM     23  C   UNL     1      11.145  -3.724  36.868  1.00  0.00    -0.000 C 
BRANCH  23  24
ATOM     24  C   UNL     1      12.254  -4.022  35.847  1.00  0.00    -0.000 C 
BRANCH  24  25
ATOM     25  C   UNL     1      13.518  -3.206  36.152  1.00  0.00    -0.003 C 
ATOM     26  C   UNL     1      14.533  -4.033  36.936  1.00  0.00     0.004 C 
ENDBRANCH  24  25
ENDBRANCH  23  24
ENDBRANCH  22  23
ENDBRANCH  21  22
ENDBRANCH  20  21
ENDBRANCH  19  20
ENDBRANCH  18  19
ENDBRANCH  17  18
ENDBRANCH  16  17
ENDBRANCH  15  16
ENDBRANCH   1  15
TORSDOF 22
ENDMDL
MODEL 4
REMARK VINA RESULT:    -3.918      2.376      4.509
REMARK INTER + INTRA:         -12.887
REMARK INTER:                  -9.007
REMARK INTRA:                  -3.880
REMARK UNBOUND:                -3.930
REMARK SMILES CCCCCCCCCCCCCCCCCCCCCCCC(=O)[O-]
REMARK SMILES IDX 13 1 14 2 15 3 16 4 17 5 18 6 19 7 20 8 21 9 22 10 23 11
REMARK SMILES IDX 24 12 25 13 26 14 12 15 11 16 10 17 9 18 8 19 7 20 6 21 5 22
REMARK SMILES IDX 4 23 3 24 2 25 1 26
REMARK H PARENT
REMARK Flexibility Score: inf
ROOT
ATOM      1  C   UNL     1       9.861  -8.670  37.984  1.00  0.00     0.000 C 
ENDROOT
BRANCH   1   2
ATOM      2  C   UNL     1      10.771  -9.585  37.134  1.00  0.00     0.000 C 
BRANCH   2   3
ATOM      3  C   UNL     1      11.212 -10.883  37.835  1.00  0.00     0.000 C 
BRANCH   3   4
ATOM      4  C   UNL     1      12.730 -10.968  38.066  1.00  0.00     0.000 C 
BRANCH   4   5
ATOM      5  C   UNL     1      13.250  -9.904  39.046  1.00  0.00     0.000 C 
BRANCH   5   6
ATOM      6  C   UNL     1      14.524  -9.207  38.541  1.00  0.00     0.000 C 
BRANCH   6   7
ATOM      7  C   UNL     1      14.515  -7.689  38.806  1.00  0.00     0.000 C 
BRANCH   7   8
ATOM      8  C   UNL     1      13.098  -7.100  38.972  1.00  0.00     0.000 C 
BRANCH   8   9
ATOM      9  C   UNL     1      12.997  -5.662  38.437  1.00  0.00     0.000 C 
BRANCH   9  10
ATOM     10  C   UNL     1      11.764  -5.497  37.535  1.00  0.00     0.006 C 
BRANCH  10  11
ATOM     11  C   UNL     1      11.618  -4.063  37.006  1.00  0.00     0.053 C 
BRANCH  11  12
ATOM     12  C   UNL     1      12.380  -3.862  35.731  1.00  0.00     0.041 C 
ATOM     13  O   UNL     1      11.821  -4.068  34.620  1.00  0.00    -0.550 OA
ATOM     14  O   UNL     1      13.720  -3.498  35.772  1.00  0.00    -0.550 OA
ENDBRANCH  11  12
ENDBRANCH  10  11
ENDBRANCH   9  10
ENDBRANCH   8   9
ENDBRANCH   7   8
ENDBRANCH   6   7
ENDBRANCH   5   6
ENDBRANCH   4   5
ENDBRANCH   3   4
ENDBRANCH   2   3
ENDBRANCH   1   2
BRANCH   1  15
ATOM     15  C   UNL     1       8.345  -8.931  37.862  1.00  0.00     0.000 C 
BRANCH  15  16
ATOM     16  C   UNL     1       7.865  -9.501  36.512  1.00  0.00     0.000 C 
BRANCH  16  17
ATOM     17  C   UNL     1       6.603  -8.817  35.949  1.00  0.00     0.000 C 
BRANCH  17  18
ATOM     18  C   UNL     1       6.031  -7.761  36.910  1.00  0.00    -0.000 C 
BRANCH  18  19
ATOM     19  C   UNL     1       5.120  -6.740  36.204  1.00  0.00    -0.000 C 
BRANCH  19  20
ATOM     20  C   UNL     1       5.835  -5.473  35.688  1.00  0.00    -0.000 C 
BRANCH  20  21
ATOM     21  C   UNL     1       7.186  -5.161  36.358  1.00  0.00    -0.000 C 
BRANCH  21  22
ATOM     22  C   UNL     1       8.375  -4.984  35.392  1.00  0.00    -0.000 C 
BRANCH  22  23
ATOM     23  C   UNL     1       9.104  -6.298  35.042  1.00  0.00    -0.000 C 
BRANCH  23  24
ATOM     24  C   UNL     1       9.034  -6.642  33.546  1.00  0.00    -0.000 C 
BRANCH  24  25
ATOM     25  C   UNL     1       9.174  -8.153  33.321  1.00  0.00    -0.003 C 
ATOM     26  C   UNL     1      10.595  -8.626  33.613  1.00  0.00     0.004 C 
ENDBRANCH  24  25
ENDBRANCH  23  24
ENDBRANCH  22  23
ENDBRANCH  21  22
ENDBRANCH  20  21
ENDBRANCH  19  20
ENDBRANCH  18  19
ENDBRANCH  17  18
ENDBRANCH  16  17
ENDBRANCH  15  16
ENDBRANCH   1  15
TORSDOF 22
ENDMDL
MODEL 5
REMARK VINA RESULT:    -3.917      2.388      4.341
REMARK INTER + INTRA:         -12.885
REMARK INTER:                  -8.434
REMARK INTRA:                  -4.451
REMARK UNBOUND:                -3.930
REMARK SMILES CCCCCCCCCCCCCCCCCCCCCCCC(=O)[O-]
REMARK SMILES IDX 13 1 14 2 15 3 16 4 17 5 18 6 19 7 20 8 21 9 22 10 23 11
REMARK SMILES IDX 24 12 25 13 26 14 12 15 11 16 10 17 9 18 8 19 7 20 6 21 5 22
REMARK SMILES IDX 4 23 3 24 2 25 1 26
REMARK H PARENT
REMARK Flexibility Score: inf
ROOT
ATOM      1  C   UNL     1      10.081  -8.292  34.591  1.00  0.00     0.000 C 
ENDROOT
BRANCH   1   2
ATOM      2  C   UNL     1      10.492  -9.721  35.011  1.00  0.00     0.000 C 
BRANCH   2   3
ATOM      3  C   UNL     1       9.523 -10.406  35.992  1.00  0.00     0.000 C 
BRANCH   3   4
ATOM      4  C   UNL     1      10.149 -10.698  37.366  1.00  0.00     0.000 C 
BRANCH   4   5
ATOM      5  C   UNL     1      10.710  -9.442  38.051  1.00  0.00     0.000 C 
BRANCH   5   6
ATOM      6  C   UNL     1      12.185  -9.596  38.455  1.00  0.00     0.000 C 
BRANCH   6   7
ATOM      7  C   UNL     1      12.863  -8.247  38.757  1.00  0.00     0.000 C 
BRANCH   7   8
ATOM      8  C   UNL     1      11.863  -7.094  38.995  1.00  0.00     0.000 C 
BRANCH   8   9
ATOM      9  C   UNL     1      12.263  -5.811  38.248  1.00  0.00     0.000 C 
BRANCH   9  10
ATOM     10  C   UNL     1      11.394  -5.610  36.997  1.00  0.00     0.006 C 
BRANCH  10  11
ATOM     11  C   UNL     1      11.339  -4.141  36.557  1.00  0.00     0.053 C 
BRANCH  11  12
ATOM     12  C   UNL     1      12.432  -3.811  35.585  1.00  0.00     0.041 C 
ATOM     13  O   UNL     1      12.424  -4.314  34.429  1.00  0.00    -0.550 OA
ATOM     14  O   UNL     1      13.485  -2.992  35.973  1.00  0.00    -0.550 OA
ENDBRANCH  11  12
ENDBRANCH  10  11
ENDBRANCH   9  10
ENDBRANCH   8   9
ENDBRANCH   7   8
ENDBRANCH   6   7
ENDBRANCH   5   6
ENDBRANCH   4   5
ENDBRANCH   3   4
ENDBRANCH   2   3
ENDBRANCH   1   2
BRANCH   1  15
ATOM     15  C   UNL     1       9.035  -8.199  33.461  1.00  0.00     0.000 C 
BRANCH  15  16
ATOM     16  C   UNL     1       8.530  -6.782  33.123  1.00  0.00     0.000 C 
BRANCH  16  17
ATOM     17  C   UNL     1       9.306  -5.650  33.826  1.00  0.00     0.000 C 
BRANCH  17  18
ATOM     18  C   UNL     1       8.373  -4.633  34.506  1.00  0.00    -0.000 C 
BRANCH  18  19
ATOM     19  C   UNL     1       7.216  -5.302  35.270  1.00  0.00    -0.000 C 
BRANCH  19  20
ATOM     20  C   UNL     1       7.494  -5.582  36.762  1.00  0.00    -0.000 C 
BRANCH  20  21
ATOM     21  C   UNL     1       8.139  -6.947  37.066  1.00  0.00    -0.000 C 
BRANCH  21  22
ATOM     22  C   UNL     1       7.226  -7.963  37.783  1.00  0.00    -0.000 C 
BRANCH  22  23
ATOM     23  C   UNL     1       5.899  -8.245  37.047  1.00  0.00    -0.000 C 
BRANCH  23  24
ATOM     24  C   UNL     1       6.086  -9.093  35.779  1.00  0.00    -0.000 C 
BRANCH  24  25
ATOM     25  C   UNL     1       5.417  -8.429  34.568  1.00  0.00    -0.003 C 
ATOM     26  C   UNL     1       4.176  -7.644  34.984  1.00  0.00     0.004 C 
ENDBRANCH  24  25
ENDBRANCH  23  24
ENDBRANCH  22  23
ENDBRANCH  21  22
ENDBRANCH  20  21
ENDBRANCH  19  20
ENDBRANCH  18  19
ENDBRANCH  17  18
ENDBRANCH  16  17
ENDBRANCH  15  16
ENDBRANCH   1  15
TORSDOF 22
ENDMDL
MODEL 6
REMARK VINA RESULT:    -3.905      2.416      5.715
REMARK INTER + INTRA:         -12.858
REMARK INTER:                  -8.690
REMARK INTRA:                  -4.168
REMARK UNBOUND:                -3.930
REMARK SMILES CCCCCCCCCCCCCCCCCCCCCCCC(=O)[O-]
REMARK SMILES IDX 13 1 14 2 15 3 16 4 17 5 18 6 19 7 20 8 21 9 22 10 23 11
REMARK SMILES IDX 24 12 25 13 26 14 12 15 11 16 10 17 9 18 8 19 7 20 6 21 5 22
REMARK SMILES IDX 4 23 3 24 2 25 1 26
REMARK H PARENT
REMARK Flexibility Score: inf
ROOT
ATOM      1  C   UNL     1      11.955 -10.325  38.834  1.00  0.00     0.000 C 
ENDROOT
BRANCH   1   2
ATOM      2  C   UNL     1      11.868 -11.465  37.795  1.00  0.00     0.000 C 
BRANCH   2   3
ATOM      3  C   UNL     1      11.049 -11.126  36.536  1.00  0.00     0.000 C 
BRANCH   3   4
ATOM      4  C   UNL     1       9.753 -10.356  36.840  1.00  0.00     0.000 C 
BRANCH   4   5
ATOM      5  C   UNL     1       9.409  -9.310  35.767  1.00  0.00     0.000 C 
BRANCH   5   6
ATOM      6  C   UNL     1      10.366  -9.359  34.565  1.00  0.00     0.000 C 
BRANCH   6   7
ATOM      7  C   UNL     1      10.025  -8.310  33.490  1.00  0.00     0.000 C 
BRANCH   7   8
ATOM      8  C   UNL     1       8.899  -7.341  33.910  1.00  0.00     0.000 C 
BRANCH   8   9
ATOM      9  C   UNL     1       9.384  -5.884  33.995  1.00  0.00     0.000 C 
BRANCH   9  10
ATOM     10  C   UNL     1      10.533  -5.745  35.006  1.00  0.00     0.006 C 
BRANCH  10  11
ATOM     11  C   UNL     1      11.245  -4.390  34.894  1.00  0.00     0.053 C 
BRANCH  11  12
ATOM     12  C   UNL     1      11.801  -3.945  36.213  1.00  0.00     0.041 C 
ATOM     13  O   UNL     1      11.050  -3.399  37.066  1.00  0.00    -0.550 OA
ATOM     14  O   UNL     1      13.157  -4.086  36.480  1.00  0.00    -0.550 OA
ENDBRANCH  11  12
ENDBRANCH  10  11
ENDBRANCH   9  10
ENDBRANCH   8   9
ENDBRANCH   7   8
ENDBRANCH   6   7
ENDBRANCH   5   6
ENDBRANCH   4   5
ENDBRANCH   3   4
ENDBRANCH   2   3
ENDBRANCH   1   2
BRANCH   1  15
ATOM     15  C   UNL     1      13.290  -9.552  38.873  1.00  0.00     0.000 C 
BRANCH  15  16
ATOM     16  C   UNL     1      13.197  -8.033  38.628  1.00  0.00     0.000 C 
BRANCH  16  17
ATOM     17  C   UNL     1      11.920  -7.589  37.885  1.00  0.00     0.000 C 
BRANCH  17  18
ATOM     18  C   UNL     1      11.069  -6.612  38.715  1.00  0.00    -0.000 C 
BRANCH  18  19
ATOM     19  C   UNL     1       9.568  -6.950  38.682  1.00  0.00    -0.000 C 
BRANCH  19  20
ATOM     20  C   UNL     1       8.651  -5.811  38.185  1.00  0.00    -0.000 C 
BRANCH  20  21
ATOM     21  C   UNL     1       7.518  -6.245  37.237  1.00  0.00    -0.000 C 
BRANCH  21  22
ATOM     22  C   UNL     1       6.717  -7.482  37.691  1.00  0.00    -0.000 C 
BRANCH  22  23
ATOM     23  C   UNL     1       5.966  -8.199  36.549  1.00  0.00    -0.000 C 
BRANCH  23  24
ATOM     24  C   UNL     1       5.509  -7.241  35.438  1.00  0.00    -0.000 C 
BRANCH  24  25
ATOM     25  C   UNL     1       4.021  -7.438  35.117  1.00  0.00    -0.003 C 
ATOM     26  C   UNL     1       3.182  -7.478  36.391  1.00  0.00     0.004 C 
ENDBRANCH  24  25
ENDBRANCH  23  24
ENDBRANCH  22  23
ENDBRANCH  21  22
ENDBRANCH  20  21
ENDBRANCH  19  20
ENDBRANCH  18  19
ENDBRANCH  17  18
ENDBRANCH  16  17
ENDBRANCH  15  16
ENDBRANCH   1  15
TORSDOF 22
ENDMDL
MODEL 7
REMARK VINA RESULT:    -3.891      3.872      5.745
REMARK INTER + INTRA:         -12.826
REMARK INTER:                  -8.096
REMARK INTRA:                  -4.730
REMARK UNBOUND:                -3.930
REMARK SMILES CCCCCCCCCCCCCCCCCCCCCCCC(=O)[O-]
REMARK SMILES IDX 13 1 14 2 15 3 16 4 17 5 18 6 19 7 20 8 21 9 22 10 23 11
REMARK SMILES IDX 24 12 25 13 26 14 12 15 11 16 10 17 9 18 8 19 7 20 6 21 5 22
REMARK SMILES IDX 4 23 3 24 2 25 1 26
REMARK H PARENT
REMARK Flexibility Score: inf
ROOT
ATOM      1  C   UNL     1      10.718  -8.785  34.479  1.00  0.00     0.000 C 
ENDROOT
BRANCH   1   2
ATOM      2  C   UNL     1      10.312 -10.039  35.284  1.00  0.00     0.000 C 
BRANCH   2   3
ATOM      3  C   UNL     1       9.445  -9.755  36.524  1.00  0.00     0.000 C 
BRANCH   3   4
ATOM      4  C   UNL     1       8.078 -10.460  36.489  1.00  0.00     0.000 C 
BRANCH   4   5
ATOM      5  C   UNL     1       6.962  -9.642  37.158  1.00  0.00     0.000 C 
BRANCH   5   6
ATOM      6  C   UNL     1       7.476  -8.326  37.764  1.00  0.00     0.000 C 
BRANCH   6   7
ATOM      7  C   UNL     1       6.336  -7.360  38.139  1.00  0.00     0.000 C 
BRANCH   7   8
ATOM      8  C   UNL     1       4.961  -7.781  37.577  1.00  0.00     0.000 C 
BRANCH   8   9
ATOM      9  C   UNL     1       4.412  -6.768  36.558  1.00  0.00     0.000 C 
BRANCH   9  10
ATOM     10  C   UNL     1       3.944  -7.476  35.277  1.00  0.00     0.006 C 
BRANCH  10  11
ATOM     11  C   UNL     1       3.784  -8.990  35.476  1.00  0.00     0.053 C 
BRANCH  11  12
ATOM     12  C   UNL     1       4.523  -9.768  34.430  1.00  0.00     0.041 C 
ATOM     13  O   UNL     1       4.891  -9.206  33.363  1.00  0.00    -0.550 OA
ATOM     14  O   UNL     1       4.759 -11.126  34.610  1.00  0.00    -0.550 OA
ENDBRANCH  11  12
ENDBRANCH  10  11
ENDBRANCH   9  10
ENDBRANCH   8   9
ENDBRANCH   7   8
ENDBRANCH   6   7
ENDBRANCH   5   6
ENDBRANCH   4   5
ENDBRANCH   3   4
ENDBRANCH   2   3
ENDBRANCH   1   2
BRANCH   1  15
ATOM     15  C   UNL     1       9.966  -8.569  33.149  1.00  0.00     0.000 C 
BRANCH  15  16
ATOM     16  C   UNL     1       8.957  -7.404  33.125  1.00  0.00     0.000 C 
BRANCH  16  17
ATOM     17  C   UNL     1       7.774  -7.572  34.101  1.00  0.00     0.000 C 
BRANCH  17  18
ATOM     18  C   UNL     1       7.437  -6.267  34.844  1.00  0.00    -0.000 C 
BRANCH  18  19
ATOM     19  C   UNL     1       8.140  -5.038  34.240  1.00  0.00    -0.000 C 
BRANCH  19  20
ATOM     20  C   UNL     1       7.988  -3.734  35.053  1.00  0.00    -0.000 C 
BRANCH  20  21
ATOM     21  C   UNL     1       7.821  -3.921  36.572  1.00  0.00    -0.000 C 
BRANCH  21  22
ATOM     22  C   UNL     1       9.131  -3.909  37.385  1.00  0.00    -0.000 C 
BRANCH  22  23
ATOM     23  C   UNL     1       9.626  -5.310  37.804  1.00  0.00    -0.000 C 
BRANCH  23  24
ATOM     24  C   UNL     1      10.603  -5.927  36.791  1.00  0.00    -0.000 C 
BRANCH  24  25
ATOM     25  C   UNL     1      11.644  -4.898  36.332  1.00  0.00    -0.003 C 
ATOM     26  C   UNL     1      11.692  -4.801  34.810  1.00  0.00     0.004 C 
ENDBRANCH  24  25
ENDBRANCH  23  24
ENDBRANCH  22  23
ENDBRANCH  21  22
ENDBRANCH  20  21
ENDBRANCH  19  20
ENDBRANCH  18  19
ENDBRANCH  17  18
ENDBRANCH  16  17
ENDBRANCH  15  16
ENDBRANCH   1  15
TORSDOF 22
ENDMDL
MODEL 8
REMARK VINA RESULT:    -3.890      3.648      6.120
REMARK INTER + INTRA:         -12.822
REMARK INTER:                  -9.409
REMARK INTRA:                  -3.414
REMARK UNBOUND:                -3.930
REMARK SMILES CCCCCCCCCCCCCCCCCCCCCCCC(=O)[O-]
REMARK SMILES IDX 13 1 14 2 15 3 16 4 17 5 18 6 19 7 20 8 21 9 22 10 23 11
REMARK SMILES IDX 24 12 25 13 26 14 12 15 11 16 10 17 9 18 8 19 7 20 6 21 5 22
REMARK SMILES IDX 4 23 3 24 2 25 1 26
REMARK H PARENT
REMARK Flexibility Score: inf
ROOT
ATOM      1  C   UNL     1       8.994  -5.853  33.210  1.00  0.00     0.000 C 
ENDROOT
BRANCH   1   2
ATOM      2  C   UNL     1       8.770  -7.356  33.490  1.00  0.00     0.000 C 
BRANCH   2   3
ATOM      3  C   UNL     1       9.910  -8.275  33.014  1.00  0.00     0.000 C 
BRANCH   3   4
ATOM      4  C   UNL     1      10.466  -9.184  34.124  1.00  0.00     0.000 C 
BRANCH   4   5
ATOM      5  C   UNL     1       9.626  -9.144  35.410  1.00  0.00     0.000 C 
BRANCH   5   6
ATOM      6  C   UNL     1      10.371  -8.484  36.582  1.00  0.00     0.000 C 
BRANCH   6   7
ATOM      7  C   UNL     1       9.422  -8.024  37.705  1.00  0.00     0.000 C 
BRANCH   7   8
ATOM      8  C   UNL     1       7.954  -8.449  37.486  1.00  0.00     0.000 C 
BRANCH   8   9
ATOM      9  C   UNL     1       6.979  -7.267  37.606  1.00  0.00     0.000 C 
BRANCH   9  10
ATOM     10  C   UNL     1       6.324  -6.955  36.252  1.00  0.00     0.006 C 
BRANCH  10  11
ATOM     11  C   UNL     1       6.061  -8.223  35.428  1.00  0.00     0.053 C 
BRANCH  11  12
ATOM     12  C   UNL     1       4.614  -8.355  35.058  1.00  0.00     0.041 C 
ATOM     13  O   UNL     1       4.096  -9.496  34.924  1.00  0.00    -0.550 OA
ATOM     14  O   UNL     1       3.853  -7.218  34.814  1.00  0.00    -0.550 OA
ENDBRANCH  11  12
ENDBRANCH  10  11
ENDBRANCH   9  10
ENDBRANCH   8   9
ENDBRANCH   7   8
ENDBRANCH   6   7
ENDBRANCH   5   6
ENDBRANCH   4   5
ENDBRANCH   3   4
ENDBRANCH   2   3
ENDBRANCH   1   2
BRANCH   1  15
ATOM     15  C   UNL     1       9.466  -5.009  34.412  1.00  0.00     0.000 C 
BRANCH  15  16
ATOM     16  C   UNL     1      10.848  -5.374  34.992  1.00  0.00     0.000 C 
BRANCH  16  17
ATOM     17  C   UNL     1      11.754  -4.160  35.278  1.00  0.00     0.000 C 
BRANCH  17  18
ATOM     18  C   UNL     1      12.438  -4.251  36.653  1.00  0.00    -0.000 C 
BRANCH  18  19
ATOM     19  C   UNL     1      11.623  -5.066  37.673  1.00  0.00    -0.000 C 
BRANCH  19  20
ATOM     20  C   UNL     1      12.425  -5.585  38.886  1.00  0.00    -0.000 C 
BRANCH  20  21
ATOM     21  C   UNL     1      13.921  -5.838  38.626  1.00  0.00    -0.000 C 
BRANCH  21  22
ATOM     22  C   UNL     1      14.384  -7.298  38.808  1.00  0.00    -0.000 C 
BRANCH  22  23
ATOM     23  C   UNL     1      13.232  -8.325  38.837  1.00  0.00    -0.000 C 
BRANCH  23  24
ATOM     24  C   UNL     1      13.724  -9.779  38.756  1.00  0.00    -0.000 C 
BRANCH  24  25
ATOM     25  C   UNL     1      12.548 -10.750  38.588  1.00  0.00    -0.003 C 
ATOM     26  C   UNL     1      12.897 -11.880  37.624  1.00  0.00     0.004 C 
ENDBRANCH  24  25
ENDBRANCH  23  24
ENDBRANCH  22  23
ENDBRANCH  21  22
ENDBRANCH  20  21
ENDBRANCH  19  20
ENDBRANCH  18  19
ENDBRANCH  17  18
ENDBRANCH  16  17
ENDBRANCH  15  16
ENDBRANCH   1  15
TORSDOF 22
ENDMDL
MODEL 9
REMARK VINA RESULT:    -3.876      3.988      5.767
REMARK INTER + INTRA:         -12.791
REMARK INTER:                  -8.570
REMARK INTRA:                  -4.222
REMARK UNBOUND:                -3.930
REMARK SMILES CCCCCCCCCCCCCCCCCCCCCCCC(=O)[O-]
REMARK SMILES IDX 13 1 14 2 15 3 16 4 17 5 18 6 19 7 20 8 21 9 22 10 23 11
REMARK SMILES IDX 24 12 25 13 26 14 12 15 11 16 10 17 9 18 8 19 7 20 6 21 5 22
REMARK SMILES IDX 4 23 3 24 2 25 1 26
REMARK H PARENT
REMARK Flexibility Score: inf
ROOT
ATOM      1  C   UNL     1       8.869  -5.670  33.097  1.00  0.00     0.000 C 
ENDROOT
BRANCH   1   2
ATOM      2  C   UNL     1       8.647  -7.132  33.546  1.00  0.00     0.000 C 
BRANCH   2   3
ATOM      3  C   UNL     1       9.714  -8.126  33.052  1.00  0.00     0.000 C 
BRANCH   3   4
ATOM      4  C   UNL     1      10.271  -9.028  34.166  1.00  0.00     0.000 C 
BRANCH   4   5
ATOM      5  C   UNL     1       9.755  -8.647  35.563  1.00  0.00     0.000 C 
BRANCH   5   6
ATOM      6  C   UNL     1       9.477  -9.875  36.445  1.00  0.00     0.000 C 
BRANCH   6   7
ATOM      7  C   UNL     1       8.067  -9.853  37.066  1.00  0.00     0.000 C 
BRANCH   7   8
ATOM      8  C   UNL     1       6.935  -9.746  36.021  1.00  0.00     0.000 C 
BRANCH   8   9
ATOM      9  C   UNL     1       6.167  -8.418  36.127  1.00  0.00     0.000 C 
BRANCH   9  10
ATOM     10  C   UNL     1       5.349  -8.153  34.853  1.00  0.00     0.006 C 
BRANCH  10  11
ATOM     11  C   UNL     1       4.077  -7.342  35.136  1.00  0.00     0.053 C 
BRANCH  11  12
ATOM     12  C   UNL     1       3.092  -8.122  35.954  1.00  0.00     0.041 C 
ATOM     13  O   UNL     1       2.933  -9.355  35.748  1.00  0.00    -0.550 OA
ATOM     14  O   UNL     1       2.315  -7.476  36.908  1.00  0.00    -0.550 OA
ENDBRANCH  11  12
ENDBRANCH  10  11
ENDBRANCH   9  10
ENDBRANCH   8   9
ENDBRANCH   7   8
ENDBRANCH   6   7
ENDBRANCH   5   6
ENDBRANCH   4   5
ENDBRANCH   3   4
ENDBRANCH   2   3
ENDBRANCH   1   2
BRANCH   1  15
ATOM     15  C   UNL     1       8.281  -4.587  34.024  1.00  0.00     0.000 C 
BRANCH  15  16
ATOM     16  C   UNL     1       7.769  -5.076  35.394  1.00  0.00     0.000 C 
BRANCH  16  17
ATOM     17  C   UNL     1       7.904  -4.037  36.527  1.00  0.00     0.000 C 
BRANCH  17  18
ATOM     18  C   UNL     1       8.403  -4.664  37.840  1.00  0.00    -0.000 C 
BRANCH  18  19
ATOM     19  C   UNL     1       8.377  -6.203  37.815  1.00  0.00    -0.000 C 
BRANCH  19  20
ATOM     20  C   UNL     1       9.178  -6.889  38.943  1.00  0.00    -0.000 C 
BRANCH  20  21
ATOM     21  C   UNL     1      10.637  -6.420  39.092  1.00  0.00    -0.000 C 
BRANCH  21  22
ATOM     22  C   UNL     1      11.512  -6.576  37.832  1.00  0.00    -0.000 C 
BRANCH  22  23
ATOM     23  C   UNL     1      11.930  -5.239  37.185  1.00  0.00    -0.000 C 
BRANCH  23  24
ATOM     24  C   UNL     1      11.451  -5.101  35.731  1.00  0.00    -0.000 C 
BRANCH  24  25
ATOM     25  C   UNL     1      12.371  -4.166  34.934  1.00  0.00    -0.003 C 
ATOM     26  C   UNL     1      13.339  -3.428  35.854  1.00  0.00     0.004 C 
ENDBRANCH  24  25
ENDBRANCH  23  24
ENDBRANCH  22  23
ENDBRANCH  21  22
ENDBRANCH  20  21
ENDBRANCH  19  20
ENDBRANCH  18  19
ENDBRANCH  17  18
ENDBRANCH  16  17
ENDBRANCH  15  16
ENDBRANCH   1  15
TORSDOF 22
ENDMDL
