MODEL 1
REMARK VINA RESULT:    -2.502      0.000      0.000
REMARK INTER + INTRA:          -6.285
REMARK INTER:                  -4.695
REMARK INTRA:                  -1.590
REMARK UNBOUND:                -1.590
REMARK SMILES O=C([O-])CCCCCCCCCCCCCCC(=O)[O-]
REMARK SMILES IDX 10 1 9 2 8 3 7 4 6 5 5 6 4 7 2 8 1 9 3 10 11 11 12 12 13 13
REMARK SMILES IDX 14 14 15 15 16 16 17 17 18 18 19 19 20 20
REMARK H PARENT
REMARK Flexibility Score: inf
ROOT
ATOM      1  C   UNL     1       6.967 -35.686  12.969  1.00  0.00     0.000 C 
ENDROOT
BRANCH   1   2
ATOM      2  C   UNL     1       6.063 -35.587  14.204  1.00  0.00     0.000 C 
BRANCH   2   3
ATOM      3  C   UNL     1       5.879 -34.127  14.637  1.00  0.00     0.000 C 
BRANCH   3   4
ATOM      4  C   UNL     1       6.373 -33.164  13.550  1.00  0.00     0.000 C 
BRANCH   4   5
ATOM      5  C   UNL     1       7.571 -32.341  14.047  1.00  0.00     0.000 C 
BRANCH   5   6
ATOM      6  C   UNL     1       7.576 -32.164  15.574  1.00  0.00     0.006 C 
BRANCH   6   7
ATOM      7  C   UNL     1       8.972 -32.337  16.186  1.00  0.00     0.053 C 
BRANCH   7   8
ATOM      8  C   UNL     1       9.065 -31.600  17.485  1.00  0.00     0.041 C 
ATOM      9  O   UNL     1       8.231 -31.825  18.401  1.00  0.00    -0.550 OA
ATOM     10  O   UNL     1      10.109 -30.708  17.707  1.00  0.00    -0.550 OA
ENDBRANCH   7   8
ENDBRANCH   6   7
ENDBRANCH   5   6
ENDBRANCH   4   5
ENDBRANCH   3   4
ENDBRANCH   2   3
ENDBRANCH   1   2
BRANCH   1  11
ATOM     11  C   UNL     1       7.921 -36.884  13.082  1.00  0.00     0.000 C 
BRANCH  11  12
ATOM     12  C   UNL     1       9.395 -36.487  12.902  1.00  0.00     0.000 C 
BRANCH  12  13
ATOM     13  C   UNL     1       9.596 -34.961  12.878  1.00  0.00     0.000 C 
BRANCH  13  14
ATOM     14  C   UNL     1      10.907 -34.528  13.553  1.00  0.00     0.000 C 
BRANCH  14  15
ATOM     15  C   UNL     1      11.224 -33.038  13.333  1.00  0.00     0.000 C 
BRANCH  15  16
ATOM     16  C   UNL     1      12.705 -32.708  13.580  1.00  0.00     0.006 C 
BRANCH  16  17
ATOM     17  C   UNL     1      12.906 -31.319  14.200  1.00  0.00     0.053 C 
BRANCH  17  18
ATOM     18  C   UNL     1      14.111 -30.655  13.612  1.00  0.00     0.041 C 
ATOM     19  O   UNL     1      15.072 -31.348  13.183  1.00  0.00    -0.550 OA
ATOM     20  O   UNL     1      14.151 -29.272  13.491  1.00  0.00    -0.550 OA
ENDBRANCH  17  18
ENDBRANCH  16  17
ENDBRANCH  15  16
ENDBRANCH  14  15
ENDBRANCH  13  14
ENDBRANCH  12  13
ENDBRANCH  11  12
ENDBRANCH   1  11
TORSDOF 15
ENDMDL
MODEL 2
REMARK VINA RESULT:    -2.450      0.971      5.061
REMARK INTER + INTRA:          -6.188
REMARK INTER:                  -4.880
REMARK INTRA:                  -1.308
REMARK UNBOUND:                -1.590
REMARK SMILES O=C([O-])CCCCCCCCCCCCCCC(=O)[O-]
REMARK SMILES IDX 10 1 9 2 8 3 7 4 6 5 5 6 4 7 2 8 1 9 3 10 11 11 12 12 13 13
REMARK SMILES IDX 14 14 15 15 16 16 17 17 18 18 19 19 20 20
REMARK H PARENT
REMARK Flexibility Score: inf
ROOT
ATOM      1  C   UNL     1       8.330 -35.472  14.525  1.00  0.00     0.000 C 
ENDROOT
BRANCH   1   2
ATOM      2  C   UNL     1       9.217 -36.294  13.582  1.00  0.00     0.000 C 
BRANCH   2   3
ATOM      3  C   UNL     1      10.245 -35.402  12.875  1.00  0.00     0.000 C 
BRANCH   3   4
ATOM      4  C   UNL     1      10.010 -33.923  13.205  1.00  0.00     0.000 C 
BRANCH   4   5
ATOM      5  C   UNL     1      11.329 -33.136  13.174  1.00  0.00     0.000 C 
BRANCH   5   6
ATOM      6  C   UNL     1      11.188 -31.721  13.758  1.00  0.00     0.006 C 
BRANCH   6   7
ATOM      7  C   UNL     1      12.334 -31.357  14.711  1.00  0.00     0.053 C 
BRANCH   7   8
ATOM      8  C   UNL     1      13.586 -31.083  13.939  1.00  0.00     0.041 C 
ATOM      9  O   UNL     1      13.874 -29.905  13.599  1.00  0.00    -0.550 OA
ATOM     10  O   UNL     1      14.465 -32.120  13.646  1.00  0.00    -0.550 OA
ENDBRANCH   7   8
ENDBRANCH   6   7
ENDBRANCH   5   6
ENDBRANCH   4   5
ENDBRANCH   3   4
ENDBRANCH   2   3
ENDBRANCH   1   2
BRANCH   1  11
ATOM     11  C   UNL     1       6.879 -35.975  14.492  1.00  0.00     0.000 C 
BRANCH  11  12
ATOM     12  C   UNL     1       5.979 -35.128  13.578  1.00  0.00     0.000 C 
BRANCH  12  13
ATOM     13  C   UNL     1       6.728 -33.940  12.950  1.00  0.00     0.000 C 
BRANCH  13  14
ATOM     14  C   UNL     1       6.422 -32.609  13.657  1.00  0.00     0.000 C 
BRANCH  14  15
ATOM     15  C   UNL     1       6.585 -32.696  15.184  1.00  0.00     0.000 C 
BRANCH  15  16
ATOM     16  C   UNL     1       7.907 -32.079  15.672  1.00  0.00     0.006 C 
BRANCH  16  17
ATOM     17  C   UNL     1       8.422 -32.729  16.962  1.00  0.00     0.053 C 
BRANCH  17  18
ATOM     18  C   UNL     1       9.181 -31.733  17.780  1.00  0.00     0.041 C 
ATOM     19  O   UNL     1       9.958 -30.913  17.222  1.00  0.00    -0.550 OA
ATOM     20  O   UNL     1       8.992 -31.675  19.155  1.00  0.00    -0.550 OA
ENDBRANCH  17  18
ENDBRANCH  16  17
ENDBRANCH  15  16
ENDBRANCH  14  15
ENDBRANCH  13  14
ENDBRANCH  12  13
ENDBRANCH  11  12
ENDBRANCH   1  11
TORSDOF 15
ENDMDL
MODEL 3
REMARK VINA RESULT:    -2.399      1.520      2.769
REMARK INTER + INTRA:          -6.092
REMARK INTER:                  -4.607
REMARK INTRA:                  -1.486
REMARK UNBOUND:                -1.590
REMARK SMILES O=C([O-])CCCCCCCCCCCCCCC(=O)[O-]
REMARK SMILES IDX 10 1 9 2 8 3 7 4 6 5 5 6 4 7 2 8 1 9 3 10 11 11 12 12 13 13
REMARK SMILES IDX 14 14 15 15 16 16 17 17 18 18 19 19 20 20
REMARK H PARENT
REMARK Flexibility Score: inf
ROOT
ATOM      1  C   UNL     1       9.159 -34.447  12.891  1.00  0.00     0.000 C 
ENDROOT
BRANCH   1   2
ATOM      2  C   UNL     1       8.117 -35.302  13.623  1.00  0.00     0.000 C 
BRANCH   2   3
ATOM      3  C   UNL     1       6.705 -34.735  13.429  1.00  0.00     0.000 C 
BRANCH   3   4
ATOM      4  C   UNL     1       6.690 -33.215  13.626  1.00  0.00     0.000 C 
BRANCH   4   5
ATOM      5  C   UNL     1       6.578 -32.854  15.115  1.00  0.00     0.000 C 
BRANCH   5   6
ATOM      6  C   UNL     1       7.838 -32.157  15.652  1.00  0.00     0.006 C 
BRANCH   6   7
ATOM      7  C   UNL     1       8.481 -32.916  16.821  1.00  0.00     0.053 C 
BRANCH   7   8
ATOM      8  C   UNL     1       8.890 -31.962  17.898  1.00  0.00     0.041 C 
ATOM      9  O   UNL     1       9.626 -30.978  17.626  1.00  0.00    -0.550 OA
ATOM     10  O   UNL     1       8.408 -32.126  19.193  1.00  0.00    -0.550 OA
ENDBRANCH   7   8
ENDBRANCH   6   7
ENDBRANCH   5   6
ENDBRANCH   4   5
ENDBRANCH   3   4
ENDBRANCH   2   3
ENDBRANCH   1   2
BRANCH   1  11
ATOM     11  C   UNL     1      10.338 -34.107  13.816  1.00  0.00     0.000 C 
BRANCH  11  12
ATOM     12  C   UNL     1      11.266 -33.035  13.223  1.00  0.00     0.000 C 
BRANCH  12  13
ATOM     13  C   UNL     1      11.021 -31.642  13.831  1.00  0.00     0.000 C 
BRANCH  13  14
ATOM     14  C   UNL     1      12.206 -31.152  14.679  1.00  0.00     0.000 C 
BRANCH  14  15
ATOM     15  C   UNL     1      13.557 -31.306  13.957  1.00  0.00     0.000 C 
BRANCH  15  16
ATOM     16  C   UNL     1      14.335 -29.983  13.876  1.00  0.00     0.006 C 
BRANCH  16  17
ATOM     17  C   UNL     1      14.918 -29.555  15.229  1.00  0.00     0.053 C 
BRANCH  17  18
ATOM     18  C   UNL     1      15.401 -28.141  15.165  1.00  0.00     0.041 C 
ATOM     19  O   UNL     1      15.243 -27.462  14.115  1.00  0.00    -0.550 OA
ATOM     20  O   UNL     1      15.980 -27.554  16.283  1.00  0.00    -0.550 OA
ENDBRANCH  17  18
ENDBRANCH  16  17
ENDBRANCH  15  16
ENDBRANCH  14  15
ENDBRANCH  13  14
ENDBRANCH  12  13
ENDBRANCH  11  12
ENDBRANCH   1  11
TORSDOF 15
ENDMDL
MODEL 4
REMARK VINA RESULT:    -1.916      1.286      5.738
REMARK INTER + INTRA:          -5.185
REMARK INTER:                  -3.646
REMARK INTRA:                  -1.539
REMARK UNBOUND:                -1.590
REMARK SMILES O=C([O-])CCCCCCCCCCCCCCC(=O)[O-]
REMARK SMILES IDX 10 1 9 2 8 3 7 4 6 5 5 6 4 7 2 8 1 9 3 10 11 11 12 12 13 13
REMARK SMILES IDX 14 14 15 15 16 16 17 17 18 18 19 19 20 20
REMARK H PARENT
REMARK Flexibility Score: inf
ROOT
ATOM      1  C   UNL     1       9.939 -34.421  13.796  1.00  0.00     0.000 C 
ENDROOT
BRANCH   1   2
ATOM      2  C   UNL     1      10.684 -33.417  12.907  1.00  0.00     0.000 C 
BRANCH   2   3
ATOM      3  C   UNL     1      10.486 -31.982  13.412  1.00  0.00     0.000 C 
BRANCH   3   4
ATOM      4  C   UNL     1      11.776 -31.435  14.035  1.00  0.00     0.000 C 
BRANCH   4   5
ATOM      5  C   UNL     1      12.958 -32.379  13.772  1.00  0.00     0.000 C 
BRANCH   5   6
ATOM      6  C   UNL     1      14.249 -31.627  13.414  1.00  0.00     0.006 C 
BRANCH   6   7
ATOM      7  C   UNL     1      14.082 -30.102  13.474  1.00  0.00     0.053 C 
BRANCH   7   8
ATOM      8  C   UNL     1      14.713 -29.558  14.716  1.00  0.00     0.041 C 
ATOM      9  O   UNL     1      14.652 -30.208  15.793  1.00  0.00    -0.550 OA
ATOM     10  O   UNL     1      15.419 -28.361  14.672  1.00  0.00    -0.550 OA
ENDBRANCH   7   8
ENDBRANCH   6   7
ENDBRANCH   5   6
ENDBRANCH   4   5
ENDBRANCH   3   4
ENDBRANCH   2   3
ENDBRANCH   1   2
BRANCH   1  11
ATOM     11  C   UNL     1       9.110 -35.397  12.946  1.00  0.00     0.000 C 
BRANCH  11  12
ATOM     12  C   UNL     1       7.601 -35.282  13.216  1.00  0.00     0.000 C 
BRANCH  12  13
ATOM     13  C   UNL     1       7.292 -34.857  14.663  1.00  0.00     0.000 C 
BRANCH  13  14
ATOM     14  C   UNL     1       6.443 -33.578  14.733  1.00  0.00     0.000 C 
BRANCH  14  15
ATOM     15  C   UNL     1       7.120 -32.460  15.547  1.00  0.00     0.000 C 
BRANCH  15  16
ATOM     16  C   UNL     1       8.329 -32.966  16.350  1.00  0.00     0.006 C 
BRANCH  16  17
ATOM     17  C   UNL     1       9.120 -31.828  17.007  1.00  0.00     0.053 C 
BRANCH  17  18
ATOM     18  C   UNL     1       8.810 -31.752  18.468  1.00  0.00     0.041 C 
ATOM     19  O   UNL     1       8.172 -32.682  19.031  1.00  0.00    -0.550 OA
ATOM     20  O   UNL     1       9.271 -30.679  19.221  1.00  0.00    -0.550 OA
ENDBRANCH  17  18
ENDBRANCH  16  17
ENDBRANCH  15  16
ENDBRANCH  14  15
ENDBRANCH  13  14
ENDBRANCH  12  13
ENDBRANCH  11  12
ENDBRANCH   1  11
TORSDOF 15
ENDMDL
MODEL 5
REMARK VINA RESULT:    -1.746      2.741      5.289
REMARK INTER + INTRA:          -4.867
REMARK INTER:                  -3.745
REMARK INTRA:                  -1.121
REMARK UNBOUND:                -1.590
REMARK SMILES O=C([O-])CCCCCCCCCCCCCCC(=O)[O-]
REMARK SMILES IDX 10 1 9 2 8 3 7 4 6 5 5 6 4 7 2 8 1 9 3 10 11 11 12 12 13 13
REMARK SMILES IDX 14 14 15 15 16 16 17 17 18 18 19 19 20 20
REMARK H PARENT
REMARK Flexibility Score: inf
ROOT
ATOM      1  C   UNL     1      10.232 -34.524  12.914  1.00  0.00     0.000 C 
ENDROOT
BRANCH   1   2
ATOM      2  C   UNL     1      10.627 -36.005  12.883  1.00  0.00     0.000 C 
BRANCH   2   3
ATOM      3  C   UNL     1       9.394 -36.907  13.030  1.00  0.00     0.000 C 
BRANCH   3   4
ATOM      4  C   UNL     1       8.100 -36.100  12.875  1.00  0.00     0.000 C 
BRANCH   4   5
ATOM      5  C   UNL     1       7.038 -36.564  13.883  1.00  0.00     0.000 C 
BRANCH   5   6
ATOM      6  C   UNL     1       6.451 -35.403  14.701  1.00  0.00     0.006 C 
BRANCH   6   7
ATOM      7  C   UNL     1       5.912 -34.269  13.819  1.00  0.00     0.053 C 
BRANCH   7   8
ATOM      8  C   UNL     1       6.603 -32.983  14.145  1.00  0.00     0.041 C 
ATOM      9  O   UNL     1       6.687 -32.595  15.340  1.00  0.00    -0.550 OA
ATOM     10  O   UNL     1       7.206 -32.241  13.135  1.00  0.00    -0.550 OA
ENDBRANCH   7   8
ENDBRANCH   6   7
ENDBRANCH   5   6
ENDBRANCH   4   5
ENDBRANCH   3   4
ENDBRANCH   2   3
ENDBRANCH   1   2
BRANCH   1  11
ATOM     11  C   UNL     1      11.404 -33.653  13.392  1.00  0.00     0.000 C 
BRANCH  11  12
ATOM     12  C   UNL     1      11.057 -32.156  13.418  1.00  0.00     0.000 C 
BRANCH  12  13
ATOM     13  C   UNL     1      12.159 -31.307  14.077  1.00  0.00     0.000 C 
BRANCH  13  14
ATOM     14  C   UNL     1      11.772 -30.828  15.486  1.00  0.00     0.000 C 
BRANCH  14  15
ATOM     15  C   UNL     1      10.320 -31.181  15.855  1.00  0.00     0.000 C 
BRANCH  15  16
ATOM     16  C   UNL     1      10.088 -31.208  17.375  1.00  0.00     0.006 C 
BRANCH  16  17
ATOM     17  C   UNL     1       8.897 -32.088  17.775  1.00  0.00     0.053 C 
BRANCH  17  18
ATOM     18  C   UNL     1       8.654 -31.997  19.249  1.00  0.00     0.041 C 
ATOM     19  O   UNL     1       7.931 -32.852  19.827  1.00  0.00    -0.550 OA
ATOM     20  O   UNL     1       9.269 -30.999  19.993  1.00  0.00    -0.550 OA
ENDBRANCH  17  18
ENDBRANCH  16  17
ENDBRANCH  15  16
ENDBRANCH  14  15
ENDBRANCH  13  14
ENDBRANCH  12  13
ENDBRANCH  11  12
ENDBRANCH   1  11
TORSDOF 15
ENDMDL
MODEL 6
REMARK VINA RESULT:    -1.698      2.938      6.710
REMARK INTER + INTRA:          -4.777
REMARK INTER:                  -3.369
REMARK INTRA:                  -1.408
REMARK UNBOUND:                -1.590
REMARK SMILES O=C([O-])CCCCCCCCCCCCCCC(=O)[O-]
REMARK SMILES IDX 10 1 9 2 8 3 7 4 6 5 5 6 4 7 2 8 1 9 3 10 11 11 12 12 13 13
REMARK SMILES IDX 14 14 15 15 16 16 17 17 18 18 19 19 20 20
REMARK H PARENT
REMARK Flexibility Score: inf
ROOT
ATOM      1  C   UNL     1      10.108 -31.119  17.907  1.00  0.00     0.000 C 
ENDROOT
BRANCH   1   2
ATOM      2  C   UNL     1      10.359 -30.483  16.534  1.00  0.00     0.000 C 
BRANCH   2   3
ATOM      3  C   UNL     1      11.610 -31.075  15.873  1.00  0.00     0.000 C 
BRANCH   3   4
ATOM      4  C   UNL     1      11.559 -30.908  14.349  1.00  0.00     0.000 C 
BRANCH   4   5
ATOM      5  C   UNL     1      10.521 -31.853  13.726  1.00  0.00     0.000 C 
BRANCH   5   6
ATOM      6  C   UNL     1      11.162 -33.080  13.060  1.00  0.00     0.006 C 
BRANCH   6   7
ATOM      7  C   UNL     1      10.575 -34.404  13.568  1.00  0.00     0.053 C 
BRANCH   7   8
ATOM      8  C   UNL     1      11.434 -35.552  13.140  1.00  0.00     0.041 C 
ATOM      9  O   UNL     1      12.651 -35.367  12.875  1.00  0.00    -0.550 OA
ATOM     10  O   UNL     1      10.905 -36.837  13.091  1.00  0.00    -0.550 OA
ENDBRANCH   7   8
ENDBRANCH   6   7
ENDBRANCH   5   6
ENDBRANCH   4   5
ENDBRANCH   3   4
ENDBRANCH   2   3
ENDBRANCH   1   2
BRANCH   1  11
ATOM     11  C   UNL     1       8.794 -31.914  17.912  1.00  0.00     0.000 C 
BRANCH  11  12
ATOM     12  C   UNL     1       8.387 -32.395  16.509  1.00  0.00     0.000 C 
BRANCH  12  13
ATOM     13  C   UNL     1       6.929 -32.042  16.165  1.00  0.00     0.000 C 
BRANCH  13  14
ATOM     14  C   UNL     1       6.378 -32.883  15.002  1.00  0.00     0.000 C 
BRANCH  14  15
ATOM     15  C   UNL     1       7.224 -32.755  13.723  1.00  0.00     0.000 C 
BRANCH  15  16
ATOM     16  C   UNL     1       7.236 -34.048  12.892  1.00  0.00     0.006 C 
BRANCH  16  17
ATOM     17  C   UNL     1       6.287 -35.117  13.448  1.00  0.00     0.053 C 
BRANCH  17  18
ATOM     18  C   UNL     1       7.049 -36.124  14.250  1.00  0.00     0.041 C 
ATOM     19  O   UNL     1       7.003 -36.099  15.509  1.00  0.00    -0.550 OA
ATOM     20  O   UNL     1       7.767 -37.124  13.607  1.00  0.00    -0.550 OA
ENDBRANCH  17  18
ENDBRANCH  16  17
ENDBRANCH  15  16
ENDBRANCH  14  15
ENDBRANCH  13  14
ENDBRANCH  12  13
ENDBRANCH  11  12
ENDBRANCH   1  11
TORSDOF 15
ENDMDL
MODEL 7
REMARK VINA RESULT:    -1.367      1.922      6.498
REMARK INTER + INTRA:          -4.156
REMARK INTER:                  -3.170
REMARK INTRA:                  -0.986
REMARK UNBOUND:                -1.590
REMARK SMILES O=C([O-])CCCCCCCCCCCCCCC(=O)[O-]
REMARK SMILES IDX 10 1 9 2 8 3 7 4 6 5 5 6 4 7 2 8 1 9 3 10 11 11 12 12 13 13
REMARK SMILES IDX 14 14 15 15 16 16 17 17 18 18 19 19 20 20
REMARK H PARENT
REMARK Flexibility Score: inf
ROOT
ATOM      1  C   UNL     1      10.661 -32.504  14.128  1.00  0.00     0.000 C 
ENDROOT
BRANCH   1   2
ATOM      2  C   UNL     1      11.369 -31.168  13.872  1.00  0.00     0.000 C 
BRANCH   2   3
ATOM      3  C   UNL     1      12.304 -30.808  15.033  1.00  0.00     0.000 C 
BRANCH   3   4
ATOM      4  C   UNL     1      13.752 -31.201  14.718  1.00  0.00     0.000 C 
BRANCH   4   5
ATOM      5  C   UNL     1      14.270 -30.448  13.484  1.00  0.00     0.000 C 
BRANCH   5   6
ATOM      6  C   UNL     1      14.741 -29.024  13.814  1.00  0.00     0.006 C 
BRANCH   6   7
ATOM      7  C   UNL     1      15.305 -28.901  15.236  1.00  0.00     0.053 C 
BRANCH   7   8
ATOM      8  C   UNL     1      15.730 -27.492  15.508  1.00  0.00     0.041 C 
ATOM      9  O   UNL     1      15.583 -26.606  14.625  1.00  0.00    -0.550 OA
ATOM     10  O   UNL     1      16.232 -27.145  16.757  1.00  0.00    -0.550 OA
ENDBRANCH   7   8
ENDBRANCH   6   7
ENDBRANCH   5   6
ENDBRANCH   4   5
ENDBRANCH   3   4
ENDBRANCH   2   3
ENDBRANCH   1   2
BRANCH   1  11
ATOM     11  C   UNL     1      10.702 -33.396  12.879  1.00  0.00     0.000 C 
BRANCH  11  12
ATOM     12  C   UNL     1       9.595 -34.463  12.875  1.00  0.00     0.000 C 
BRANCH  12  13
ATOM     13  C   UNL     1       8.762 -34.451  14.169  1.00  0.00     0.000 C 
BRANCH  13  14
ATOM     14  C   UNL     1       7.366 -33.838  13.967  1.00  0.00     0.000 C 
BRANCH  14  15
ATOM     15  C   UNL     1       6.800 -33.212  15.254  1.00  0.00     0.000 C 
BRANCH  15  16
ATOM     16  C   UNL     1       7.798 -32.261  15.934  1.00  0.00     0.006 C 
BRANCH  16  17
ATOM     17  C   UNL     1       8.375 -32.839  17.233  1.00  0.00     0.053 C 
BRANCH  17  18
ATOM     18  C   UNL     1       9.065 -31.769  18.018  1.00  0.00     0.041 C 
ATOM     19  O   UNL     1       8.922 -31.707  19.269  1.00  0.00    -0.550 OA
ATOM     20  O   UNL     1       9.910 -30.872  17.376  1.00  0.00    -0.550 OA
ENDBRANCH  17  18
ENDBRANCH  16  17
ENDBRANCH  15  16
ENDBRANCH  14  15
ENDBRANCH  13  14
ENDBRANCH  12  13
ENDBRANCH  11  12
ENDBRANCH   1  11
TORSDOF 15
ENDMDL
MODEL 8
REMARK VINA RESULT:    -0.931      2.660      5.324
REMARK INTER + INTRA:          -3.338
REMARK INTER:                  -2.360
REMARK INTRA:                  -0.978
REMARK UNBOUND:                -1.590
REMARK SMILES O=C([O-])CCCCCCCCCCCCCCC(=O)[O-]
REMARK SMILES IDX 10 1 9 2 8 3 7 4 6 5 5 6 4 7 2 8 1 9 3 10 11 11 12 12 13 13
REMARK SMILES IDX 14 14 15 15 16 16 17 17 18 18 19 19 20 20
REMARK H PARENT
REMARK Flexibility Score: inf
ROOT
ATOM      1  C   UNL     1      12.258 -33.899  12.877  1.00  0.00     0.000 C 
ENDROOT
BRANCH   1   2
ATOM      2  C   UNL     1      12.026 -35.415  12.923  1.00  0.00     0.000 C 
BRANCH   2   3
ATOM      3  C   UNL     1      10.529 -35.745  12.875  1.00  0.00     0.000 C 
BRANCH   3   4
ATOM      4  C   UNL     1       9.689 -34.570  13.389  1.00  0.00     0.000 C 
BRANCH   4   5
ATOM      5  C   UNL     1       8.229 -34.694  12.929  1.00  0.00     0.000 C 
BRANCH   5   6
ATOM      6  C   UNL     1       7.610 -36.055  13.283  1.00  0.00     0.006 C 
BRANCH   6   7
ATOM      7  C   UNL     1       6.412 -35.932  14.233  1.00  0.00     0.053 C 
BRANCH   7   8
ATOM      8  C   UNL     1       6.679 -34.892  15.275  1.00  0.00     0.041 C 
ATOM      9  O   UNL     1       7.405 -35.163  16.267  1.00  0.00    -0.550 OA
ATOM     10  O   UNL     1       6.174 -33.606  15.121  1.00  0.00    -0.550 OA
ENDBRANCH   7   8
ENDBRANCH   6   7
ENDBRANCH   5   6
ENDBRANCH   4   5
ENDBRANCH   3   4
ENDBRANCH   2   3
ENDBRANCH   1   2
BRANCH   1  11
ATOM     11  C   UNL     1      13.664 -33.543  13.381  1.00  0.00     0.000 C 
BRANCH  11  12
ATOM     12  C   UNL     1      14.013 -32.061  13.165  1.00  0.00     0.000 C 
BRANCH  12  13
ATOM     13  C   UNL     1      13.616 -31.182  14.364  1.00  0.00     0.000 C 
BRANCH  13  14
ATOM     14  C   UNL     1      12.252 -30.500  14.170  1.00  0.00     0.000 C 
BRANCH  14  15
ATOM     15  C   UNL     1      11.072 -31.423  14.521  1.00  0.00     0.000 C 
BRANCH  15  16
ATOM     16  C   UNL     1      10.472 -31.114  15.902  1.00  0.00     0.006 C 
BRANCH  16  17
ATOM     17  C   UNL     1       9.256 -31.989  16.229  1.00  0.00     0.053 C 
BRANCH  17  18
ATOM     18  C   UNL     1       8.974 -31.964  17.698  1.00  0.00     0.041 C 
ATOM     19  O   UNL     1       8.365 -32.922  18.244  1.00  0.00    -0.550 OA
ATOM     20  O   UNL     1       9.429 -30.906  18.474  1.00  0.00    -0.550 OA
ENDBRANCH  17  18
ENDBRANCH  16  17
ENDBRANCH  15  16
ENDBRANCH  14  15
ENDBRANCH  13  14
ENDBRANCH  12  13
ENDBRANCH  11  12
ENDBRANCH   1  11
TORSDOF 15
ENDMDL
