MODEL 1
REMARK VINA RESULT:    -3.141      0.000      0.000
REMARK INTER + INTRA:          -3.725
REMARK INTER:                  -3.692
REMARK INTRA:                  -0.033
REMARK UNBOUND:                -0.033
REMARK SMILES O=C([O-])CCC(=O)[O-]
REMARK SMILES IDX 4 1 2 2 1 3 3 4 5 5 6 6 7 7 8 8
REMARK H PARENT
REMARK Flexibility Score: inf
ROOT
ATOM      1  C   UNL     1      41.895  55.568  17.996  1.00  0.00     0.059 C 
ENDROOT
BRANCH   1   2
ATOM      2  C   UNL     1      43.079  55.015  17.264  1.00  0.00     0.042 C 
ATOM      3  O   UNL     1      43.095  53.809  16.901  1.00  0.00    -0.550 OA
ATOM      4  O   UNL     1      44.149  55.843  16.947  1.00  0.00    -0.550 OA
ENDBRANCH   1   2
BRANCH   1   5
ATOM      5  C   UNL     1      40.762  55.941  17.034  1.00  0.00     0.059 C 
BRANCH   5   6
ATOM      6  C   UNL     1      39.561  56.455  17.768  1.00  0.00     0.042 C 
ATOM      7  O   UNL     1      39.642  56.746  18.990  1.00  0.00    -0.550 OA
ATOM      8  O   UNL     1      38.342  56.572  17.112  1.00  0.00    -0.550 OA
ENDBRANCH   5   6
ENDBRANCH   1   5
TORSDOF 3
ENDMDL
MODEL 2
REMARK VINA RESULT:    -3.116      0.209      4.330
REMARK INTER + INTRA:          -3.695
REMARK INTER:                  -3.663
REMARK INTRA:                  -0.032
REMARK UNBOUND:                -0.033
REMARK SMILES O=C([O-])CCC(=O)[O-]
REMARK SMILES IDX 4 1 2 2 1 3 3 4 5 5 6 6 7 7 8 8
REMARK H PARENT
REMARK Flexibility Score: inf
ROOT
ATOM      1  C   UNL     1      40.606  55.990  17.007  1.00  0.00     0.059 C 
ENDROOT
BRANCH   1   2
ATOM      2  C   UNL     1      39.386  56.496  17.713  1.00  0.00     0.042 C 
ATOM      3  O   UNL     1      39.466  56.915  18.897  1.00  0.00    -0.550 OA
ATOM      4  O   UNL     1      38.167  56.541  17.048  1.00  0.00    -0.550 OA
ENDBRANCH   1   2
BRANCH   1   5
ATOM      5  C   UNL     1      41.702  55.582  17.997  1.00  0.00     0.059 C 
BRANCH   5   6
ATOM      6  C   UNL     1      42.932  55.096  17.292  1.00  0.00     0.042 C 
ATOM      7  O   UNL     1      43.828  55.911  16.949  1.00  0.00    -0.550 OA
ATOM      8  O   UNL     1      43.068  53.750  16.979  1.00  0.00    -0.550 OA
ENDBRANCH   5   6
ENDBRANCH   1   5
TORSDOF 3
ENDMDL
MODEL 3
REMARK VINA RESULT:    -3.098      2.599      5.559
REMARK INTER + INTRA:          -3.674
REMARK INTER:                  -3.642
REMARK INTRA:                  -0.032
REMARK UNBOUND:                -0.033
REMARK SMILES O=C([O-])CCC(=O)[O-]
REMARK SMILES IDX 4 1 2 2 1 3 3 4 5 5 6 6 7 7 8 8
REMARK H PARENT
REMARK Flexibility Score: inf
ROOT
ATOM      1  C   UNL     1      37.072  57.339  17.368  1.00  0.00     0.059 C 
ENDROOT
BRANCH   1   2
ATOM      2  C   UNL     1      35.932  57.386  16.397  1.00  0.00     0.042 C 
ATOM      3  O   UNL     1      34.921  56.656  16.571  1.00  0.00    -0.550 OA
ATOM      4  O   UNL     1      35.970  58.265  15.323  1.00  0.00    -0.550 OA
ENDBRANCH   1   2
BRANCH   1   5
ATOM      5  C   UNL     1      38.237  56.501  16.829  1.00  0.00     0.059 C 
BRANCH   5   6
ATOM      6  C   UNL     1      39.420  56.543  17.748  1.00  0.00     0.042 C 
ATOM      7  O   UNL     1      39.308  57.037  18.901  1.00  0.00    -0.550 OA
ATOM      8  O   UNL     1      40.654  56.074  17.316  1.00  0.00    -0.550 OA
ENDBRANCH   5   6
ENDBRANCH   1   5
TORSDOF 3
ENDMDL
MODEL 4
REMARK VINA RESULT:    -3.059      2.609      4.242
REMARK INTER + INTRA:          -3.628
REMARK INTER:                  -3.596
REMARK INTRA:                  -0.032
REMARK UNBOUND:                -0.033
REMARK SMILES O=C([O-])CCC(=O)[O-]
REMARK SMILES IDX 4 1 2 2 1 3 3 4 5 5 6 6 7 7 8 8
REMARK H PARENT
REMARK Flexibility Score: inf
ROOT
ATOM      1  C   UNL     1      38.192  56.463  16.836  1.00  0.00     0.059 C 
ENDROOT
BRANCH   1   2
ATOM      2  C   UNL     1      39.409  56.525  17.708  1.00  0.00     0.042 C 
ATOM      3  O   UNL     1      39.321  56.948  18.891  1.00  0.00    -0.550 OA
ATOM      4  O   UNL     1      40.632  56.077  17.226  1.00  0.00    -0.550 OA
ENDBRANCH   1   2
BRANCH   1   5
ATOM      5  C   UNL     1      37.089  57.399  17.342  1.00  0.00     0.059 C 
BRANCH   5   6
ATOM      6  C   UNL     1      35.954  57.494  16.368  1.00  0.00     0.042 C 
ATOM      7  O   UNL     1      34.865  56.910  16.607  1.00  0.00    -0.550 OA
ATOM      8  O   UNL     1      36.115  58.192  15.178  1.00  0.00    -0.550 OA
ENDBRANCH   5   6
ENDBRANCH   1   5
TORSDOF 3
ENDMDL
MODEL 5
REMARK VINA RESULT:    -2.967      1.710      4.587
REMARK INTER + INTRA:          -3.520
REMARK INTER:                  -3.412
REMARK INTRA:                  -0.108
REMARK UNBOUND:                -0.033
REMARK SMILES O=C([O-])CCC(=O)[O-]
REMARK SMILES IDX 4 1 2 2 1 3 3 4 5 5 6 6 7 7 8 8
REMARK H PARENT
REMARK Flexibility Score: inf
ROOT
ATOM      1  C   UNL     1      42.702  55.445  17.616  1.00  0.00     0.059 C 
ENDROOT
BRANCH   1   2
ATOM      2  C   UNL     1      41.399  55.655  16.908  1.00  0.00     0.042 C 
ATOM      3  O   UNL     1      41.249  55.257  15.723  1.00  0.00    -0.550 OA
ATOM      4  O   UNL     1      40.336  56.254  17.572  1.00  0.00    -0.550 OA
ENDBRANCH   1   2
BRANCH   1   5
ATOM      5  C   UNL     1      43.618  54.492  16.840  1.00  0.00     0.059 C 
BRANCH   5   6
ATOM      6  C   UNL     1      44.740  55.225  16.171  1.00  0.00     0.042 C 
ATOM      7  O   UNL     1      44.699  55.453  14.934  1.00  0.00    -0.550 OA
ATOM      8  O   UNL     1      45.850  55.619  16.907  1.00  0.00    -0.550 OA
ENDBRANCH   5   6
ENDBRANCH   1   5
TORSDOF 3
ENDMDL
MODEL 6
REMARK VINA RESULT:    -2.916      2.366      5.068
REMARK INTER + INTRA:          -3.460
REMARK INTER:                  -3.349
REMARK INTRA:                  -0.111
REMARK UNBOUND:                -0.033
REMARK SMILES O=C([O-])CCC(=O)[O-]
REMARK SMILES IDX 4 1 2 2 1 3 3 4 5 5 6 6 7 7 8 8
REMARK H PARENT
REMARK Flexibility Score: inf
ROOT
ATOM      1  C   UNL     1      43.019  53.845  16.803  1.00  0.00     0.059 C 
ENDROOT
BRANCH   1   2
ATOM      2  C   UNL     1      42.605  55.274  16.979  1.00  0.00     0.042 C 
ATOM      3  O   UNL     1      43.461  56.152  17.266  1.00  0.00    -0.550 OA
ATOM      4  O   UNL     1      41.280  55.642  16.787  1.00  0.00    -0.550 OA
ENDBRANCH   1   2
BRANCH   1   5
ATOM      5  C   UNL     1      43.269  53.509  15.329  1.00  0.00     0.059 C 
BRANCH   5   6
ATOM      6  C   UNL     1      44.731  53.498  15.005  1.00  0.00     0.042 C 
ATOM      7  O   UNL     1      45.381  54.576  14.975  1.00  0.00    -0.550 OA
ATOM      8  O   UNL     1      45.367  52.302  14.694  1.00  0.00    -0.550 OA
ENDBRANCH   5   6
ENDBRANCH   1   5
TORSDOF 3
ENDMDL
MODEL 7
REMARK VINA RESULT:    -2.913      2.366      3.509
REMARK INTER + INTRA:          -3.456
REMARK INTER:                  -3.364
REMARK INTRA:                  -0.092
REMARK UNBOUND:                -0.033
REMARK SMILES O=C([O-])CCC(=O)[O-]
REMARK SMILES IDX 4 1 2 2 1 3 3 4 5 5 6 6 7 7 8 8
REMARK H PARENT
REMARK Flexibility Score: inf
ROOT
ATOM      1  C   UNL     1      43.236  53.441  15.354  1.00  0.00     0.059 C 
ENDROOT
BRANCH   1   2
ATOM      2  C   UNL     1      44.690  53.491  14.998  1.00  0.00     0.042 C 
ATOM      3  O   UNL     1      45.312  54.586  15.021  1.00  0.00    -0.550 OA
ATOM      4  O   UNL     1      45.369  52.322  14.678  1.00  0.00    -0.550 OA
ENDBRANCH   1   2
BRANCH   1   5
ATOM      5  C   UNL     1      43.001  53.836  16.816  1.00  0.00     0.059 C 
BRANCH   5   6
ATOM      6  C   UNL     1      42.556  55.261  16.939  1.00  0.00     0.042 C 
ATOM      7  O   UNL     1      43.365  56.146  17.322  1.00  0.00    -0.550 OA
ATOM      8  O   UNL     1      41.237  55.604  16.670  1.00  0.00    -0.550 OA
ENDBRANCH   5   6
ENDBRANCH   1   5
TORSDOF 3
ENDMDL
MODEL 8
REMARK VINA RESULT:    -2.890      4.148      5.961
REMARK INTER + INTRA:          -3.429
REMARK INTER:                  -3.332
REMARK INTRA:                  -0.096
REMARK UNBOUND:                -0.033
REMARK SMILES O=C([O-])CCC(=O)[O-]
REMARK SMILES IDX 4 1 2 2 1 3 3 4 5 5 6 6 7 7 8 8
REMARK H PARENT
REMARK Flexibility Score: inf
ROOT
ATOM      1  C   UNL     1      36.193  57.184  16.894  1.00  0.00     0.059 C 
ENDROOT
BRANCH   1   2
ATOM      2  C   UNL     1      37.555  56.706  16.494  1.00  0.00     0.042 C 
ATOM      3  O   UNL     1      37.785  56.373  15.301  1.00  0.00    -0.550 OA
ATOM      4  O   UNL     1      38.581  56.666  17.429  1.00  0.00    -0.550 OA
ENDBRANCH   1   2
BRANCH   1   5
ATOM      5  C   UNL     1      35.312  57.463  15.672  1.00  0.00     0.059 C 
BRANCH   5   6
ATOM      6  C   UNL     1      34.221  56.446  15.533  1.00  0.00     0.042 C 
ATOM      7  O   UNL     1      34.206  55.664  14.546  1.00  0.00    -0.550 OA
ATOM      8  O   UNL     1      33.199  56.388  16.472  1.00  0.00    -0.550 OA
ENDBRANCH   5   6
ENDBRANCH   1   5
TORSDOF 3
ENDMDL
MODEL 9
REMARK VINA RESULT:    -2.805      2.095      3.161
REMARK INTER + INTRA:          -3.329
REMARK INTER:                  -3.276
REMARK INTRA:                  -0.053
REMARK UNBOUND:                -0.033
REMARK SMILES O=C([O-])CCC(=O)[O-]
REMARK SMILES IDX 4 1 2 2 1 3 3 4 5 5 6 6 7 7 8 8
REMARK H PARENT
REMARK Flexibility Score: inf
ROOT
ATOM      1  C   UNL     1      44.432  55.055  16.200  1.00  0.00     0.059 C 
ENDROOT
BRANCH   1   2
ATOM      2  C   UNL     1      45.526  56.041  16.473  1.00  0.00     0.042 C 
ATOM      3  O   UNL     1      45.391  57.247  16.135  1.00  0.00    -0.550 OA
ATOM      4  O   UNL     1      46.677  55.637  17.135  1.00  0.00    -0.550 OA
ENDBRANCH   1   2
BRANCH   1   5
ATOM      5  C   UNL     1      43.344  55.107  17.277  1.00  0.00     0.059 C 
BRANCH   5   6
ATOM      6  C   UNL     1      41.989  55.347  16.684  1.00  0.00     0.042 C 
ATOM      7  O   UNL     1      41.122  55.995  17.326  1.00  0.00    -0.550 OA
ATOM      8  O   UNL     1      41.672  54.819  15.439  1.00  0.00    -0.550 OA
ENDBRANCH   5   6
ENDBRANCH   1   5
TORSDOF 3
ENDMDL
