MODEL 1
REMARK VINA RESULT:    -6.900      0.000      0.000
REMARK INTER + INTRA:          -8.789
REMARK INTER:                  -8.110
REMARK INTRA:                  -0.679
REMARK UNBOUND:                -0.679
REMARK SMILES C=C(C)[C@@H]1CC[C@@]2(C(=O)[O-])CC[C@]3(C)[C@@H](CC[C@H]4[C@@]5(C)C[C@@H](O)[C@H](O)C(C)(C)[C@@H]5CC[C@@]43C)[C@@H]12
REMARK SMILES IDX 7 1 6 2 34 3 11 4 5 5 15 6 4 7 12 8 16 9 13 10 17 11 32 12
REMARK SMILES IDX 14 13 18 14 31 15 33 16 19 17 30 18 29 19 21 20 20 21 26 22
REMARK SMILES IDX 22 23 24 24 27 25 28 26 8 27 9 28 10 29 2 30 3 31 1 32 23 33
REMARK SMILES IDX 25 35
REMARK H PARENT 23 34 25 36
REMARK Flexibility Score: inf
ROOT
ATOM      1  C   UNL     1     -23.177  -7.430  -3.666  1.00  0.00     0.014 C 
ATOM      2  C   UNL     1     -24.493  -6.892  -4.300  1.00  0.00     0.014 C 
ATOM      3  C   UNL     1     -22.089  -7.303  -4.787  1.00  0.00     0.012 C 
ATOM      4  C   UNL     1     -23.374  -8.896  -3.201  1.00  0.00     0.014 C 
ATOM      5  C   UNL     1     -24.204  -6.484  -5.741  1.00  0.00     0.009 C 
ATOM      6  C   UNL     1     -21.530  -8.682  -5.315  1.00  0.00     0.000 C 
ATOM      7  C   UNL     1     -22.688  -6.393  -5.892  1.00  0.00     0.018 C 
ATOM      8  C   UNL     1     -22.052  -9.624  -2.934  1.00  0.00     0.008 C 
ATOM      9  C   UNL     1     -22.500  -9.402  -6.317  1.00  0.00     0.005 C 
ATOM     10  C   UNL     1     -20.995  -9.594  -4.117  1.00  0.00    -0.024 C 
ATOM     11  C   UNL     1     -22.196 -10.878  -6.632  1.00  0.00     0.005 C 
ATOM     12  C   UNL     1     -20.617 -11.075  -4.654  1.00  0.00    -0.024 C 
ATOM     13  C   UNL     1     -19.710  -8.910  -3.542  1.00  0.00     0.012 C 
ATOM     14  C   UNL     1     -21.896 -11.682  -5.350  1.00  0.00     0.002 C 
ATOM     15  C   UNL     1     -20.180 -12.048  -3.509  1.00  0.00     0.008 C 
ATOM     16  C   UNL     1     -19.393 -10.955  -5.641  1.00  0.00     0.012 C 
ATOM     17  C   UNL     1     -22.018 -13.295  -5.417  1.00  0.00    -0.023 C 
ATOM     18  C   UNL     1     -19.820 -13.466  -3.984  1.00  0.00     0.005 C 
ATOM     19  C   UNL     1     -20.621 -13.986  -5.213  1.00  0.00     0.004 C 
ATOM     20  C   UNL     1     -22.582 -13.771  -6.795  1.00  0.00     0.042 C 
ATOM     21  C   UNL     1     -23.030 -13.729  -4.308  1.00  0.00     0.012 C 
ATOM     22  C   UNL     1     -20.565 -15.560  -5.399  1.00  0.00    -0.003 C 
ATOM     23  C   UNL     1     -22.587 -15.301  -7.004  1.00  0.00     0.144 C 
ATOM     24  C   UNL     1     -21.186 -15.921  -6.787  1.00  0.00     0.149 C 
ATOM     25  C   UNL     1     -21.258 -16.367  -4.254  1.00  0.00     0.014 C 
ATOM     26  C   UNL     1     -19.074 -16.003  -5.435  1.00  0.00     0.014 C 
ENDROOT
BRANCH   1  27
ATOM     27  C   UNL     1     -22.837  -6.603  -2.424  1.00  0.00     0.048 C 
ATOM     28  O   UNL     1     -23.674  -6.507  -1.485  1.00  0.00    -0.550 OA
ATOM     29  O   UNL     1     -21.581  -6.028  -2.248  1.00  0.00    -0.550 OA
ENDBRANCH   1  27
BRANCH   7  30
ATOM     30  C   UNL     1     -22.177  -4.949  -5.826  1.00  0.00    -0.077 C 
ATOM     31  C   UNL     1     -22.966  -3.839  -6.478  1.00  0.00     0.039 C 
ATOM     32  C   UNL     1     -21.043  -4.622  -5.185  1.00  0.00     0.008 C 
ENDBRANCH   7  30
BRANCH  23  33
ATOM     33  O   UNL     1     -23.060 -15.602  -8.294  1.00  0.00    -0.390 OA
ATOM     34  H   UNL     1     -23.410 -16.532  -8.282  1.00  0.00     0.211 HD
ENDBRANCH  23  33
BRANCH  24  35
ATOM     35  O   UNL     1     -21.266 -17.320  -6.932  1.00  0.00    -0.390 OA
ATOM     36  H   UNL     1     -21.765 -17.670  -6.147  1.00  0.00     0.211 HD
ENDBRANCH  24  35
TORSDOF 4
ENDMDL
MODEL 2
REMARK VINA RESULT:    -6.783      3.956      7.604
REMARK INTER + INTRA:          -8.652
REMARK INTER:                  -7.891
REMARK INTRA:                  -0.761
REMARK UNBOUND:                -0.679
REMARK SMILES C=C(C)[C@@H]1CC[C@@]2(C(=O)[O-])CC[C@]3(C)[C@@H](CC[C@H]4[C@@]5(C)C[C@@H](O)[C@H](O)C(C)(C)[C@@H]5CC[C@@]43C)[C@@H]12
REMARK SMILES IDX 7 1 6 2 34 3 11 4 5 5 15 6 4 7 12 8 16 9 13 10 17 11 32 12
REMARK SMILES IDX 14 13 18 14 31 15 33 16 19 17 30 18 29 19 21 20 20 21 26 22
REMARK SMILES IDX 22 23 24 24 27 25 28 26 8 27 9 28 10 29 2 30 3 31 1 32 23 33
REMARK SMILES IDX 25 35
REMARK H PARENT 23 34 25 36
REMARK Flexibility Score: inf
ROOT
ATOM      1  C   UNL     1     -21.925  -9.509  -1.074  1.00  0.00     0.014 C 
ATOM      2  C   UNL     1     -21.329 -10.946  -1.130  1.00  0.00     0.014 C 
ATOM      3  C   UNL     1     -23.336  -9.614  -1.747  1.00  0.00     0.012 C 
ATOM      4  C   UNL     1     -20.991  -8.519  -1.817  1.00  0.00     0.014 C 
ATOM      5  C   UNL     1     -22.333 -11.859  -1.825  1.00  0.00     0.009 C 
ATOM      6  C   UNL     1     -23.474  -8.822  -3.106  1.00  0.00     0.000 C 
ATOM      7  C   UNL     1     -23.671 -11.125  -1.853  1.00  0.00     0.018 C 
ATOM      8  C   UNL     1     -21.672  -7.187  -2.151  1.00  0.00     0.008 C 
ATOM      9  C   UNL     1     -22.821  -9.565  -4.324  1.00  0.00     0.005 C 
ATOM     10  C   UNL     1     -23.047  -7.291  -2.938  1.00  0.00    -0.024 C 
ATOM     11  C   UNL     1     -22.622  -8.740  -5.609  1.00  0.00     0.005 C 
ATOM     12  C   UNL     1     -23.000  -6.552  -4.378  1.00  0.00    -0.024 C 
ATOM     13  C   UNL     1     -24.123  -6.598  -2.037  1.00  0.00     0.012 C 
ATOM     14  C   UNL     1     -22.010  -7.357  -5.306  1.00  0.00     0.002 C 
ATOM     15  C   UNL     1     -22.491  -5.075  -4.291  1.00  0.00     0.008 C 
ATOM     16  C   UNL     1     -24.463  -6.495  -4.962  1.00  0.00     0.012 C 
ATOM     17  C   UNL     1     -21.304  -6.554  -6.523  1.00  0.00    -0.023 C 
ATOM     18  C   UNL     1     -22.428  -4.345  -5.644  1.00  0.00     0.005 C 
ATOM     19  C   UNL     1     -22.088  -5.237  -6.874  1.00  0.00     0.004 C 
ATOM     20  C   UNL     1     -21.238  -7.422  -7.822  1.00  0.00     0.042 C 
ATOM     21  C   UNL     1     -19.839  -6.239  -6.081  1.00  0.00     0.012 C 
ATOM     22  C   UNL     1     -21.593  -4.424  -8.141  1.00  0.00    -0.003 C 
ATOM     23  C   UNL     1     -20.721  -6.682  -9.075  1.00  0.00     0.144 C 
ATOM     24  C   UNL     1     -21.529  -5.395  -9.364  1.00  0.00     0.149 C 
ATOM     25  C   UNL     1     -20.227  -3.692  -7.942  1.00  0.00     0.014 C 
ATOM     26  C   UNL     1     -22.653  -3.334  -8.477  1.00  0.00     0.014 C 
ENDROOT
BRANCH   1  27
ATOM     27  C   UNL     1     -22.004  -9.049   0.384  1.00  0.00     0.048 C 
ATOM     28  O   UNL     1     -20.989  -9.143   1.127  1.00  0.00    -0.550 OA
ATOM     29  O   UNL     1     -23.140  -8.429   0.895  1.00  0.00    -0.550 OA
ENDBRANCH   1  27
BRANCH   7  30
ATOM     30  C   UNL     1     -24.629 -11.609  -0.757  1.00  0.00    -0.077 C 
ATOM     31  C   UNL     1     -25.676 -10.673  -0.202  1.00  0.00     0.039 C 
ATOM     32  C   UNL     1     -24.584 -12.860  -0.272  1.00  0.00     0.008 C 
ENDBRANCH   7  30
BRANCH  23  33
ATOM     33  O   UNL     1     -20.760  -7.545 -10.185  1.00  0.00    -0.390 OA
ATOM     34  H   UNL     1     -21.000  -8.452  -9.858  1.00  0.00     0.211 HD
ENDBRANCH  23  33
BRANCH  24  35
ATOM     35  O   UNL     1     -20.975  -4.736 -10.479  1.00  0.00    -0.390 OA
ATOM     36  H   UNL     1     -20.737  -5.433 -11.145  1.00  0.00     0.211 HD
ENDBRANCH  24  35
TORSDOF 4
ENDMDL
MODEL 3
REMARK VINA RESULT:    -6.616      4.655      7.198
REMARK INTER + INTRA:          -8.456
REMARK INTER:                  -7.802
REMARK INTRA:                  -0.654
REMARK UNBOUND:                -0.679
REMARK SMILES C=C(C)[C@@H]1CC[C@@]2(C(=O)[O-])CC[C@]3(C)[C@@H](CC[C@H]4[C@@]5(C)C[C@@H](O)[C@H](O)C(C)(C)[C@@H]5CC[C@@]43C)[C@@H]12
REMARK SMILES IDX 7 1 6 2 34 3 11 4 5 5 15 6 4 7 12 8 16 9 13 10 17 11 32 12
REMARK SMILES IDX 14 13 18 14 31 15 33 16 19 17 30 18 29 19 21 20 20 21 26 22
REMARK SMILES IDX 22 23 24 24 27 25 28 26 8 27 9 28 10 29 2 30 3 31 1 32 23 33
REMARK SMILES IDX 25 35
REMARK H PARENT 23 34 25 36
REMARK Flexibility Score: inf
ROOT
ATOM      1  C   UNL     1     -20.457  -6.148  -8.080  1.00  0.00     0.014 C 
ATOM      2  C   UNL     1     -19.013  -5.656  -8.392  1.00  0.00     0.014 C 
ATOM      3  C   UNL     1     -21.176  -4.931  -7.403  1.00  0.00     0.012 C 
ATOM      4  C   UNL     1     -20.404  -7.390  -7.153  1.00  0.00     0.014 C 
ATOM      5  C   UNL     1     -18.875  -4.219  -7.903  1.00  0.00     0.009 C 
ATOM      6  C   UNL     1     -21.563  -5.159  -5.889  1.00  0.00     0.000 C 
ATOM      7  C   UNL     1     -20.284  -3.687  -7.653  1.00  0.00     0.018 C 
ATOM      8  C   UNL     1     -21.749  -7.698  -6.484  1.00  0.00     0.008 C 
ATOM      9  C   UNL     1     -20.347  -5.005  -4.909  1.00  0.00     0.005 C 
ATOM     10  C   UNL     1     -22.421  -6.494  -5.699  1.00  0.00    -0.024 C 
ATOM     11  C   UNL     1     -20.550  -5.516  -3.471  1.00  0.00     0.005 C 
ATOM     12  C   UNL     1     -22.631  -6.815  -4.125  1.00  0.00    -0.024 C 
ATOM     13  C   UNL     1     -23.816  -6.256  -6.368  1.00  0.00     0.012 C 
ATOM     14  C   UNL     1     -21.207  -6.912  -3.453  1.00  0.00     0.002 C 
ATOM     15  C   UNL     1     -23.381  -8.165  -3.871  1.00  0.00     0.008 C 
ATOM     16  C   UNL     1     -23.521  -5.676  -3.493  1.00  0.00     0.012 C 
ATOM     17  C   UNL     1     -21.074  -7.799  -2.105  1.00  0.00    -0.023 C 
ATOM     18  C   UNL     1     -23.591  -8.504  -2.385  1.00  0.00     0.005 C 
ATOM     19  C   UNL     1     -22.472  -8.017  -1.420  1.00  0.00     0.004 C 
ATOM     20  C   UNL     1     -20.139  -7.112  -1.056  1.00  0.00     0.042 C 
ATOM     21  C   UNL     1     -20.424  -9.161  -2.509  1.00  0.00     0.012 C 
ATOM     22  C   UNL     1     -22.475  -8.746  -0.012  1.00  0.00    -0.003 C 
ATOM     23  C   UNL     1     -20.077  -7.812   0.319  1.00  0.00     0.144 C 
ATOM     24  C   UNL     1     -21.482  -8.001   0.938  1.00  0.00     0.149 C 
ATOM     25  C   UNL     1     -22.142 -10.271  -0.076  1.00  0.00     0.014 C 
ATOM     26  C   UNL     1     -23.894  -8.612   0.614  1.00  0.00     0.014 C 
ENDROOT
BRANCH   1  27
ATOM     27  C   UNL     1     -21.138  -6.582  -9.380  1.00  0.00     0.048 C 
ATOM     28  O   UNL     1     -20.750  -7.625  -9.974  1.00  0.00    -0.550 OA
ATOM     29  O   UNL     1     -22.251  -5.913  -9.882  1.00  0.00    -0.550 OA
ENDBRANCH   1  27
BRANCH   7  30
ATOM     30  C   UNL     1     -20.790  -2.802  -8.798  1.00  0.00    -0.077 C 
ATOM     31  C   UNL     1     -19.810  -2.004  -9.625  1.00  0.00     0.039 C 
ATOM     32  C   UNL     1     -22.092  -2.719  -9.114  1.00  0.00     0.008 C 
ENDBRANCH   7  30
BRANCH  23  33
ATOM     33  O   UNL     1     -19.253  -7.075   1.189  1.00  0.00    -0.390 OA
ATOM     34  H   UNL     1     -19.586  -6.139   1.205  1.00  0.00     0.211 HD
ENDBRANCH  23  33
BRANCH  24  35
ATOM     35  O   UNL     1     -21.366  -8.694   2.158  1.00  0.00    -0.390 OA
ATOM     36  H   UNL     1     -21.800  -9.579   2.037  1.00  0.00     0.211 HD
ENDBRANCH  24  35
TORSDOF 4
ENDMDL
MODEL 4
REMARK VINA RESULT:    -6.139      3.000      8.051
REMARK INTER + INTRA:          -7.895
REMARK INTER:                  -7.569
REMARK INTRA:                  -0.326
REMARK UNBOUND:                -0.679
REMARK SMILES C=C(C)[C@@H]1CC[C@@]2(C(=O)[O-])CC[C@]3(C)[C@@H](CC[C@H]4[C@@]5(C)C[C@@H](O)[C@H](O)C(C)(C)[C@@H]5CC[C@@]43C)[C@@H]12
REMARK SMILES IDX 7 1 6 2 34 3 11 4 5 5 15 6 4 7 12 8 16 9 13 10 17 11 32 12
REMARK SMILES IDX 14 13 18 14 31 15 33 16 19 17 30 18 29 19 21 20 20 21 26 22
REMARK SMILES IDX 22 23 24 24 27 25 28 26 8 27 9 28 10 29 2 30 3 31 1 32 23 33
REMARK SMILES IDX 25 35
REMARK H PARENT 23 34 25 36
REMARK Flexibility Score: inf
ROOT
ATOM      1  C   UNL     1     -19.532 -11.759  -3.991  1.00  0.00     0.014 C 
ATOM      2  C   UNL     1     -18.882 -12.865  -4.873  1.00  0.00     0.014 C 
ATOM      3  C   UNL     1     -21.075 -11.882  -4.235  1.00  0.00     0.012 C 
ATOM      4  C   UNL     1     -18.982 -10.367  -4.397  1.00  0.00     0.014 C 
ATOM      5  C   UNL     1     -19.988 -13.598  -5.624  1.00  0.00     0.009 C 
ATOM      6  C   UNL     1     -21.723 -10.643  -4.970  1.00  0.00     0.000 C 
ATOM      7  C   UNL     1     -21.310 -13.240  -4.949  1.00  0.00     0.018 C 
ATOM      8  C   UNL     1     -19.836  -9.207  -3.871  1.00  0.00     0.008 C 
ATOM      9  C   UNL     1     -21.463 -10.636  -6.518  1.00  0.00     0.005 C 
ATOM     10  C   UNL     1     -21.382  -9.274  -4.219  1.00  0.00    -0.024 C 
ATOM     11  C   UNL     1     -21.773  -9.324  -7.263  1.00  0.00     0.005 C 
ATOM     12  C   UNL     1     -21.880  -8.006  -5.096  1.00  0.00    -0.024 C 
ATOM     13  C   UNL     1     -22.142  -9.285  -2.851  1.00  0.00     0.012 C 
ATOM     14  C   UNL     1     -21.202  -8.100  -6.517  1.00  0.00     0.002 C 
ATOM     15  C   UNL     1     -21.486  -6.631  -4.461  1.00  0.00     0.008 C 
ATOM     16  C   UNL     1     -23.455  -8.035  -5.175  1.00  0.00     0.012 C 
ATOM     17  C   UNL     1     -21.010  -6.723  -7.348  1.00  0.00    -0.023 C 
ATOM     18  C   UNL     1     -21.939  -5.404  -5.272  1.00  0.00     0.005 C 
ATOM     19  C   UNL     1     -21.965  -5.593  -6.817  1.00  0.00     0.004 C 
ATOM     20  C   UNL     1     -21.320  -6.923  -8.868  1.00  0.00     0.042 C 
ATOM     21  C   UNL     1     -19.511  -6.307  -7.214  1.00  0.00     0.012 C 
ATOM     22  C   UNL     1     -21.990  -4.233  -7.630  1.00  0.00    -0.003 C 
ATOM     23  C   UNL     1     -21.312  -5.628  -9.710  1.00  0.00     0.144 C 
ATOM     24  C   UNL     1     -22.267  -4.556  -9.134  1.00  0.00     0.149 C 
ATOM     25  C   UNL     1     -20.697  -3.370  -7.478  1.00  0.00     0.014 C 
ATOM     26  C   UNL     1     -23.180  -3.370  -7.120  1.00  0.00     0.014 C 
ENDROOT
BRANCH   1  27
ATOM     27  C   UNL     1     -19.151 -11.988  -2.527  1.00  0.00     0.048 C 
ATOM     28  O   UNL     1     -18.965 -10.999  -1.766  1.00  0.00    -0.550 OA
ATOM     29  O   UNL     1     -19.100 -13.264  -1.974  1.00  0.00    -0.550 OA
ENDBRANCH   1  27
BRANCH   7  30
ATOM     30  C   UNL     1     -21.802 -14.341  -4.002  1.00  0.00    -0.077 C 
ATOM     31  C   UNL     1     -22.820 -14.019  -2.934  1.00  0.00     0.039 C 
ATOM     32  C   UNL     1     -21.370 -15.609  -4.096  1.00  0.00     0.008 C 
ENDBRANCH   7  30
BRANCH  23  33
ATOM     33  O   UNL     1     -21.657  -5.927 -11.041  1.00  0.00    -0.390 OA
ATOM     34  H   UNL     1     -20.991  -5.489 -11.635  1.00  0.00     0.211 HD
ENDBRANCH  23  33
BRANCH  24  35
ATOM     35  O   UNL     1     -22.173  -3.383  -9.908  1.00  0.00    -0.390 OA
ATOM     36  H   UNL     1     -23.088  -3.001  -9.976  1.00  0.00     0.211 HD
ENDBRANCH  24  35
TORSDOF 4
ENDMDL
MODEL 5
REMARK VINA RESULT:    -6.046      4.301      7.674
REMARK INTER + INTRA:          -7.785
REMARK INTER:                  -7.035
REMARK INTRA:                  -0.750
REMARK UNBOUND:                -0.679
REMARK SMILES C=C(C)[C@@H]1CC[C@@]2(C(=O)[O-])CC[C@]3(C)[C@@H](CC[C@H]4[C@@]5(C)C[C@@H](O)[C@H](O)C(C)(C)[C@@H]5CC[C@@]43C)[C@@H]12
REMARK SMILES IDX 7 1 6 2 34 3 11 4 5 5 15 6 4 7 12 8 16 9 13 10 17 11 32 12
REMARK SMILES IDX 14 13 18 14 31 15 33 16 19 17 30 18 29 19 21 20 20 21 26 22
REMARK SMILES IDX 22 23 24 24 27 25 28 26 8 27 9 28 10 29 2 30 3 31 1 32 23 33
REMARK SMILES IDX 25 35
REMARK H PARENT 23 34 25 36
REMARK Flexibility Score: inf
ROOT
ATOM      1  C   UNL     1     -23.719 -10.248  -0.882  1.00  0.00     0.014 C 
ATOM      2  C   UNL     1     -25.253 -10.246  -0.618  1.00  0.00     0.014 C 
ATOM      3  C   UNL     1     -23.170  -8.966  -0.168  1.00  0.00     0.012 C 
ATOM      4  C   UNL     1     -23.444 -10.234  -2.408  1.00  0.00     0.014 C 
ATOM      5  C   UNL     1     -25.603  -9.006   0.198  1.00  0.00     0.009 C 
ATOM      6  C   UNL     1     -22.592  -7.868  -1.146  1.00  0.00     0.000 C 
ATOM      7  C   UNL     1     -24.298  -8.455   0.767  1.00  0.00     0.018 C 
ATOM      8  C   UNL     1     -22.004  -9.842  -2.755  1.00  0.00     0.008 C 
ATOM      9  C   UNL     1     -23.706  -7.018  -1.850  1.00  0.00     0.005 C 
ATOM     10  C   UNL     1     -21.487  -8.481  -2.124  1.00  0.00    -0.024 C 
ATOM     11  C   UNL     1     -23.262  -6.154  -3.045  1.00  0.00     0.005 C 
ATOM     12  C   UNL     1     -21.057  -7.396  -3.247  1.00  0.00    -0.024 C 
ATOM     13  C   UNL     1     -20.237  -8.846  -1.255  1.00  0.00     0.012 C 
ATOM     14  C   UNL     1     -22.360  -6.947  -4.014  1.00  0.00     0.002 C 
ATOM     15  C   UNL     1     -20.049  -7.969  -4.298  1.00  0.00     0.008 C 
ATOM     16  C   UNL     1     -20.332  -6.191  -2.533  1.00  0.00     0.012 C 
ATOM     17  C   UNL     1     -22.186  -6.386  -5.523  1.00  0.00    -0.023 C 
ATOM     18  C   UNL     1     -19.625  -6.965  -5.384  1.00  0.00     0.005 C 
ATOM     19  C   UNL     1     -20.708  -5.927  -5.799  1.00  0.00     0.004 C 
ATOM     20  C   UNL     1     -23.117  -5.158  -5.790  1.00  0.00     0.042 C 
ATOM     21  C   UNL     1     -22.612  -7.532  -6.495  1.00  0.00     0.012 C 
ATOM     22  C   UNL     1     -20.423  -5.220  -7.189  1.00  0.00    -0.003 C 
ATOM     23  C   UNL     1     -22.904  -4.463  -7.153  1.00  0.00     0.144 C 
ATOM     24  C   UNL     1     -21.432  -4.039  -7.365  1.00  0.00     0.149 C 
ATOM     25  C   UNL     1     -20.474  -6.181  -8.420  1.00  0.00     0.014 C 
ATOM     26  C   UNL     1     -18.996  -4.601  -7.148  1.00  0.00     0.014 C 
ENDROOT
BRANCH   1  27
ATOM     27  C   UNL     1     -23.110 -11.536  -0.323  1.00  0.00     0.048 C 
ATOM     28  O   UNL     1     -22.136 -11.473   0.477  1.00  0.00    -0.550 OA
ATOM     29  O   UNL     1     -23.663 -12.784  -0.592  1.00  0.00    -0.550 OA
ENDBRANCH   1  27
BRANCH   7  30
ATOM     30  C   UNL     1     -24.087  -8.844   2.235  1.00  0.00    -0.077 C 
ATOM     31  C   UNL     1     -25.251  -9.342   3.059  1.00  0.00     0.039 C 
ATOM     32  C   UNL     1     -22.883  -8.776   2.826  1.00  0.00     0.008 C 
ENDBRANCH   7  30
BRANCH  23  33
ATOM     33  O   UNL     1     -23.754  -3.346  -7.253  1.00  0.00    -0.390 OA
ATOM     34  H   UNL     1     -24.016  -3.078  -6.333  1.00  0.00     0.211 HD
ENDBRANCH  23  33
BRANCH  24  35
ATOM     35  O   UNL     1     -21.289  -3.467  -8.644  1.00  0.00    -0.390 OA
ATOM     36  H   UNL     1     -20.891  -2.565  -8.520  1.00  0.00     0.211 HD
ENDBRANCH  24  35
TORSDOF 4
ENDMDL
MODEL 6
REMARK VINA RESULT:    -6.038      1.664      2.131
REMARK INTER + INTRA:          -7.776
REMARK INTER:                  -7.407
REMARK INTRA:                  -0.370
REMARK UNBOUND:                -0.679
REMARK SMILES C=C(C)[C@@H]1CC[C@@]2(C(=O)[O-])CC[C@]3(C)[C@@H](CC[C@H]4[C@@]5(C)C[C@@H](O)[C@H](O)C(C)(C)[C@@H]5CC[C@@]43C)[C@@H]12
REMARK SMILES IDX 7 1 6 2 34 3 11 4 5 5 15 6 4 7 12 8 16 9 13 10 17 11 32 12
REMARK SMILES IDX 14 13 18 14 31 15 33 16 19 17 30 18 29 19 21 20 20 21 26 22
REMARK SMILES IDX 22 23 24 24 27 25 28 26 8 27 9 28 10 29 2 30 3 31 1 32 23 33
REMARK SMILES IDX 25 35
REMARK H PARENT 23 34 25 36
REMARK Flexibility Score: inf
ROOT
ATOM      1  C   UNL     1     -22.174  -5.702  -5.394  1.00  0.00     0.014 C 
ATOM      2  C   UNL     1     -23.389  -5.204  -6.229  1.00  0.00     0.014 C 
ATOM      3  C   UNL     1     -21.056  -6.039  -6.440  1.00  0.00     0.012 C 
ATOM      4  C   UNL     1     -22.582  -6.938  -4.550  1.00  0.00     0.014 C 
ATOM      5  C   UNL     1     -23.018  -5.264  -7.707  1.00  0.00     0.009 C 
ATOM      6  C   UNL     1     -20.683  -7.571  -6.528  1.00  0.00     0.000 C 
ATOM      7  C   UNL     1     -21.501  -5.413  -7.788  1.00  0.00     0.018 C 
ATOM      8  C   UNL     1     -21.379  -7.722  -4.013  1.00  0.00     0.008 C 
ATOM      9  C   UNL     1     -21.723  -8.416  -7.344  1.00  0.00     0.005 C 
ATOM     10  C   UNL     1     -20.304  -8.165  -5.093  1.00  0.00    -0.024 C 
ATOM     11  C   UNL     1     -21.620  -9.947  -7.216  1.00  0.00     0.005 C 
ATOM     12  C   UNL     1     -20.124  -9.772  -5.172  1.00  0.00    -0.024 C 
ATOM     13  C   UNL     1     -18.948  -7.514  -4.657  1.00  0.00     0.012 C 
ATOM     14  C   UNL     1     -21.461 -10.384  -5.745  1.00  0.00     0.002 C 
ATOM     15  C   UNL     1     -19.850 -10.427  -3.778  1.00  0.00     0.008 C 
ATOM     16  C   UNL     1     -18.875 -10.095  -6.079  1.00  0.00     0.012 C 
ATOM     17  C   UNL     1     -21.804 -11.921  -5.366  1.00  0.00    -0.023 C 
ATOM     18  C   UNL     1     -19.680 -11.956  -3.816  1.00  0.00     0.005 C 
ATOM     19  C   UNL     1     -20.520 -12.698  -4.896  1.00  0.00     0.004 C 
ATOM     20  C   UNL     1     -22.399 -12.694  -6.588  1.00  0.00     0.042 C 
ATOM     21  C   UNL     1     -22.889 -11.889  -4.242  1.00  0.00     0.012 C 
ATOM     22  C   UNL     1     -20.679 -14.252  -4.631  1.00  0.00    -0.003 C 
ATOM     23  C   UNL     1     -22.612 -14.207  -6.361  1.00  0.00     0.144 C 
ATOM     24  C   UNL     1     -21.316 -14.912  -5.897  1.00  0.00     0.149 C 
ATOM     25  C   UNL     1     -21.500 -14.605  -3.349  1.00  0.00     0.014 C 
ATOM     26  C   UNL     1     -19.263 -14.873  -4.454  1.00  0.00     0.014 C 
ENDROOT
BRANCH   1  27
ATOM     27  C   UNL     1     -21.748  -4.606  -4.414  1.00  0.00     0.048 C 
ATOM     28  O   UNL     1     -21.883  -3.393  -4.733  1.00  0.00    -0.550 OA
ATOM     29  O   UNL     1     -21.306  -4.904  -3.128  1.00  0.00    -0.550 OA
ENDBRANCH   1  27
BRANCH   7  30
ATOM     30  C   UNL     1     -20.796  -4.087  -8.097  1.00  0.00    -0.077 C 
ATOM     31  C   UNL     1     -21.592  -2.910  -8.610  1.00  0.00     0.039 C 
ATOM     32  C   UNL     1     -19.476  -3.920  -7.913  1.00  0.00     0.008 C 
ENDBRANCH   7  30
BRANCH  23  33
ATOM     33  O   UNL     1     -23.096 -14.800  -7.541  1.00  0.00    -0.390 OA
ATOM     34  H   UNL     1     -23.660 -14.130  -8.011  1.00  0.00     0.211 HD
ENDBRANCH  23  33
BRANCH  24  35
ATOM     35  O   UNL     1     -21.586 -16.272  -5.651  1.00  0.00    -0.390 OA
ATOM     36  H   UNL     1     -20.838 -16.626  -5.100  1.00  0.00     0.211 HD
ENDBRANCH  24  35
TORSDOF 4
ENDMDL
MODEL 7
REMARK VINA RESULT:    -5.976      3.643      8.379
REMARK INTER + INTRA:          -7.704
REMARK INTER:                  -7.092
REMARK INTRA:                  -0.611
REMARK UNBOUND:                -0.679
REMARK SMILES C=C(C)[C@@H]1CC[C@@]2(C(=O)[O-])CC[C@]3(C)[C@@H](CC[C@H]4[C@@]5(C)C[C@@H](O)[C@H](O)C(C)(C)[C@@H]5CC[C@@]43C)[C@@H]12
REMARK SMILES IDX 7 1 6 2 34 3 11 4 5 5 15 6 4 7 12 8 16 9 13 10 17 11 32 12
REMARK SMILES IDX 14 13 18 14 31 15 33 16 19 17 30 18 29 19 21 20 20 21 26 22
REMARK SMILES IDX 22 23 24 24 27 25 28 26 8 27 9 28 10 29 2 30 3 31 1 32 23 33
REMARK SMILES IDX 25 35
REMARK H PARENT 23 34 25 36
REMARK Flexibility Score: inf
ROOT
ATOM      1  C   UNL     1     -21.350 -14.248  -6.294  1.00  0.00     0.014 C 
ATOM      2  C   UNL     1     -22.089 -13.944  -7.630  1.00  0.00     0.014 C 
ATOM      3  C   UNL     1     -22.220 -15.334  -5.573  1.00  0.00     0.012 C 
ATOM      4  C   UNL     1     -21.215 -12.950  -5.456  1.00  0.00     0.014 C 
ATOM      5  C   UNL     1     -23.353 -14.795  -7.689  1.00  0.00     0.009 C 
ATOM      6  C   UNL     1     -22.896 -14.846  -4.231  1.00  0.00     0.000 C 
ATOM      7  C   UNL     1     -23.218 -15.882  -6.626  1.00  0.00     0.018 C 
ATOM      8  C   UNL     1     -20.866 -13.217  -3.987  1.00  0.00     0.008 C 
ATOM      9  C   UNL     1     -24.170 -13.960  -4.467  1.00  0.00     0.005 C 
ATOM     10  C   UNL     1     -21.820 -14.230  -3.223  1.00  0.00    -0.024 C 
ATOM     11  C   UNL     1     -24.704 -13.182  -3.250  1.00  0.00     0.005 C 
ATOM     12  C   UNL     1     -22.556 -13.554  -1.949  1.00  0.00    -0.024 C 
ATOM     13  C   UNL     1     -20.910 -15.405  -2.731  1.00  0.00     0.012 C 
ATOM     14  C   UNL     1     -23.566 -12.469  -2.489  1.00  0.00     0.002 C 
ATOM     15  C   UNL     1     -21.560 -12.845  -0.973  1.00  0.00     0.008 C 
ATOM     16  C   UNL     1     -23.273 -14.688  -1.121  1.00  0.00     0.012 C 
ATOM     17  C   UNL     1     -23.961 -11.252  -1.496  1.00  0.00    -0.023 C 
ATOM     18  C   UNL     1     -22.227 -12.185   0.247  1.00  0.00     0.005 C 
ATOM     19  C   UNL     1     -23.653 -11.611   0.004  1.00  0.00     0.004 C 
ATOM     20  C   UNL     1     -25.481 -10.902  -1.593  1.00  0.00     0.042 C 
ATOM     21  C   UNL     1     -23.149  -9.999  -1.955  1.00  0.00     0.012 C 
ATOM     22  C   UNL     1     -24.123 -10.569   1.101  1.00  0.00    -0.003 C 
ATOM     23  C   UNL     1     -25.976  -9.857  -0.569  1.00  0.00     0.144 C 
ATOM     24  C   UNL     1     -25.641 -10.265   0.885  1.00  0.00     0.149 C 
ATOM     25  C   UNL     1     -23.292  -9.246   1.129  1.00  0.00     0.014 C 
ATOM     26  C   UNL     1     -23.983 -11.228   2.504  1.00  0.00     0.014 C 
ENDROOT
BRANCH   1  27
ATOM     27  C   UNL     1     -19.933 -14.740  -6.598  1.00  0.00     0.048 C 
ATOM     28  O   UNL     1     -19.127 -13.990  -7.214  1.00  0.00    -0.550 OA
ATOM     29  O   UNL     1     -19.465 -15.962  -6.124  1.00  0.00    -0.550 OA
ENDBRANCH   1  27
BRANCH   7  30
ATOM     30  C   UNL     1     -22.789 -17.231  -7.218  1.00  0.00    -0.077 C 
ATOM     31  C   UNL     1     -23.401 -17.717  -8.510  1.00  0.00     0.039 C 
ATOM     32  C   UNL     1     -21.862 -18.005  -6.631  1.00  0.00     0.008 C 
ENDBRANCH   7  30
BRANCH  23  33
ATOM     33  O   UNL     1     -27.362  -9.668  -0.717  1.00  0.00    -0.390 OA
ATOM     34  H   UNL     1     -27.787  -9.810   0.170  1.00  0.00     0.211 HD
ENDBRANCH  23  33
BRANCH  24  35
ATOM     35  O   UNL     1     -26.063  -9.250   1.765  1.00  0.00    -0.390 OA
ATOM     36  H   UNL     1     -25.564  -9.370   2.615  1.00  0.00     0.211 HD
ENDBRANCH  24  35
TORSDOF 4
ENDMDL
MODEL 8
REMARK VINA RESULT:    -5.950      2.196      3.766
REMARK INTER + INTRA:          -7.673
REMARK INTER:                  -6.917
REMARK INTRA:                  -0.756
REMARK UNBOUND:                -0.679
REMARK SMILES C=C(C)[C@@H]1CC[C@@]2(C(=O)[O-])CC[C@]3(C)[C@@H](CC[C@H]4[C@@]5(C)C[C@@H](O)[C@H](O)C(C)(C)[C@@H]5CC[C@@]43C)[C@@H]12
REMARK SMILES IDX 7 1 6 2 34 3 11 4 5 5 15 6 4 7 12 8 16 9 13 10 17 11 32 12
REMARK SMILES IDX 14 13 18 14 31 15 33 16 19 17 30 18 29 19 21 20 20 21 26 22
REMARK SMILES IDX 22 23 24 24 27 25 28 26 8 27 9 28 10 29 2 30 3 31 1 32 23 33
REMARK SMILES IDX 25 35
REMARK H PARENT 23 34 25 36
REMARK Flexibility Score: inf
ROOT
ATOM      1  C   UNL     1     -20.827  -8.937  -4.096  1.00  0.00     0.014 C 
ATOM      2  C   UNL     1     -20.827  -8.413  -2.630  1.00  0.00     0.014 C 
ATOM      3  C   UNL     1     -22.326  -9.256  -4.426  1.00  0.00     0.012 C 
ATOM      4  C   UNL     1     -19.921 -10.190  -4.211  1.00  0.00     0.014 C 
ATOM      5  C   UNL     1     -22.258  -8.440  -2.106  1.00  0.00     0.009 C 
ATOM      6  C   UNL     1     -22.634 -10.787  -4.659  1.00  0.00     0.000 C 
ATOM      7  C   UNL     1     -23.180  -8.596  -3.313  1.00  0.00     0.018 C 
ATOM      8  C   UNL     1     -20.165 -10.993  -5.494  1.00  0.00     0.008 C 
ATOM      9  C   UNL     1     -22.737 -11.607  -3.325  1.00  0.00     0.005 C 
ATOM     10  C   UNL     1     -21.670 -11.416  -5.768  1.00  0.00    -0.024 C 
ATOM     11  C   UNL     1     -22.715 -13.141  -3.455  1.00  0.00     0.005 C 
ATOM     12  C   UNL     1     -21.863 -13.022  -5.844  1.00  0.00    -0.024 C 
ATOM     13  C   UNL     1     -22.061 -10.784  -7.145  1.00  0.00     0.012 C 
ATOM     14  C   UNL     1     -21.595 -13.614  -4.406  1.00  0.00     0.002 C 
ATOM     15  C   UNL     1     -20.875 -13.711  -6.842  1.00  0.00     0.008 C 
ATOM     16  C   UNL     1     -23.320 -13.331  -6.361  1.00  0.00     0.012 C 
ATOM     17  C   UNL     1     -21.114 -15.157  -4.308  1.00  0.00    -0.023 C 
ATOM     18  C   UNL     1     -21.027 -15.240  -6.934  1.00  0.00     0.005 C 
ATOM     19  C   UNL     1     -21.460 -15.952  -5.620  1.00  0.00     0.004 C 
ATOM     20  C   UNL     1     -21.802 -15.898  -3.115  1.00  0.00     0.042 C 
ATOM     21  C   UNL     1     -19.574 -15.146  -4.043  1.00  0.00     0.012 C 
ATOM     22  C   UNL     1     -21.177 -17.511  -5.610  1.00  0.00    -0.003 C 
ATOM     23  C   UNL     1     -21.519 -17.414  -3.040  1.00  0.00     0.144 C 
ATOM     24  C   UNL     1     -21.876 -18.137  -4.360  1.00  0.00     0.149 C 
ATOM     25  C   UNL     1     -19.661 -17.889  -5.644  1.00  0.00     0.014 C 
ATOM     26  C   UNL     1     -21.837 -18.144  -6.869  1.00  0.00     0.014 C 
ENDROOT
BRANCH   1  27
ATOM     27  C   UNL     1     -20.239  -7.867  -5.018  1.00  0.00     0.048 C 
ATOM     28  O   UNL     1     -19.173  -7.276  -4.694  1.00  0.00    -0.550 OA
ATOM     29  O   UNL     1     -20.791  -7.591  -6.266  1.00  0.00    -0.550 OA
ENDBRANCH   1  27
BRANCH   7  30
ATOM     30  C   UNL     1     -23.811  -7.266  -3.745  1.00  0.00    -0.077 C 
ATOM     31  C   UNL     1     -24.115  -7.013  -5.202  1.00  0.00     0.039 C 
ATOM     32  C   UNL     1     -24.126  -6.305  -2.861  1.00  0.00     0.008 C 
ENDBRANCH   7  30
BRANCH  23  33
ATOM     33  O   UNL     1     -22.233 -17.977  -1.965  1.00  0.00    -0.390 OA
ATOM     34  H   UNL     1     -23.168 -17.644  -2.012  1.00  0.00     0.211 HD
ENDBRANCH  23  33
BRANCH  24  35
ATOM     35  O   UNL     1     -21.543 -19.502  -4.251  1.00  0.00    -0.390 OA
ATOM     36  H   UNL     1     -21.169 -19.642  -3.341  1.00  0.00     0.211 HD
ENDBRANCH  24  35
TORSDOF 4
ENDMDL
MODEL 9
REMARK VINA RESULT:    -5.772      4.207      5.601
REMARK INTER + INTRA:          -7.464
REMARK INTER:                  -6.714
REMARK INTRA:                  -0.750
REMARK UNBOUND:                -0.679
REMARK SMILES C=C(C)[C@@H]1CC[C@@]2(C(=O)[O-])CC[C@]3(C)[C@@H](CC[C@H]4[C@@]5(C)C[C@@H](O)[C@H](O)C(C)(C)[C@@H]5CC[C@@]43C)[C@@H]12
REMARK SMILES IDX 7 1 6 2 34 3 11 4 5 5 15 6 4 7 12 8 16 9 13 10 17 11 32 12
REMARK SMILES IDX 14 13 18 14 31 15 33 16 19 17 30 18 29 19 21 20 20 21 26 22
REMARK SMILES IDX 22 23 24 24 27 25 28 26 8 27 9 28 10 29 2 30 3 31 1 32 23 33
REMARK SMILES IDX 25 35
REMARK H PARENT 23 34 25 36
REMARK Flexibility Score: inf
ROOT
ATOM      1  C   UNL     1     -22.482  -6.225  -3.510  1.00  0.00     0.014 C 
ATOM      2  C   UNL     1     -23.535  -5.829  -4.586  1.00  0.00     0.014 C 
ATOM      3  C   UNL     1     -21.765  -7.499  -4.076  1.00  0.00     0.012 C 
ATOM      4  C   UNL     1     -23.186  -6.500  -2.156  1.00  0.00     0.014 C 
ATOM      5  C   UNL     1     -23.461  -6.834  -5.729  1.00  0.00     0.009 C 
ATOM      6  C   UNL     1     -22.023  -8.818  -3.247  1.00  0.00     0.000 C 
ATOM      7  C   UNL     1     -22.151  -7.602  -5.574  1.00  0.00     0.018 C 
ATOM      8  C   UNL     1     -22.303  -7.264  -1.163  1.00  0.00     0.008 C 
ATOM      9  C   UNL     1     -23.425  -9.463  -3.530  1.00  0.00     0.005 C 
ATOM     10  C   UNL     1     -21.670  -8.617  -1.701  1.00  0.00    -0.024 C 
ATOM     11  C   UNL     1     -23.894 -10.554  -2.549  1.00  0.00     0.005 C 
ATOM     12  C   UNL     1     -22.132  -9.908  -0.839  1.00  0.00    -0.024 C 
ATOM     13  C   UNL     1     -20.118  -8.451  -1.590  1.00  0.00     0.012 C 
ATOM     14  C   UNL     1     -23.675 -10.129  -1.082  1.00  0.00     0.002 C 
ATOM     15  C   UNL     1     -21.904  -9.731   0.698  1.00  0.00     0.008 C 
ATOM     16  C   UNL     1     -21.267 -11.148  -1.287  1.00  0.00     0.012 C 
ATOM     17  C   UNL     1     -24.511 -10.905   0.067  1.00  0.00    -0.023 C 
ATOM     18  C   UNL     1     -22.339 -10.938   1.548  1.00  0.00     0.005 C 
ATOM     19  C   UNL     1     -23.562 -11.734   1.008  1.00  0.00     0.004 C 
ATOM     20  C   UNL     1     -25.548 -11.900  -0.549  1.00  0.00     0.042 C 
ATOM     21  C   UNL     1     -25.302  -9.825   0.873  1.00  0.00     0.012 C 
ATOM     22  C   UNL     1     -24.256 -12.660   2.091  1.00  0.00    -0.003 C 
ATOM     23  C   UNL     1     -26.281 -12.795   0.474  1.00  0.00     0.144 C 
ATOM     24  C   UNL     1     -25.294 -13.580   1.370  1.00  0.00     0.149 C 
ATOM     25  C   UNL     1     -24.928 -11.881   3.267  1.00  0.00     0.014 C 
ATOM     26  C   UNL     1     -23.176 -13.590   2.715  1.00  0.00     0.014 C 
ENDROOT
BRANCH   1  27
ATOM     27  C   UNL     1     -21.517  -5.059  -3.290  1.00  0.00     0.048 C 
ATOM     28  O   UNL     1     -21.969  -3.893  -3.124  1.00  0.00    -0.550 OA
ATOM     29  O   UNL     1     -20.145  -5.257  -3.163  1.00  0.00    -0.550 OA
ENDBRANCH   1  27
BRANCH   7  30
ATOM     30  C   UNL     1     -21.055  -7.089  -6.516  1.00  0.00    -0.077 C 
ATOM     31  C   UNL     1     -21.421  -6.547  -7.877  1.00  0.00     0.039 C 
ATOM     32  C   UNL     1     -19.758  -7.085  -6.167  1.00  0.00     0.008 C 
ENDBRANCH   7  30
BRANCH  23  33
ATOM     33  O   UNL     1     -27.140 -13.681  -0.201  1.00  0.00    -0.390 OA
ATOM     34  H   UNL     1     -27.092 -14.561   0.257  1.00  0.00     0.211 HD
ENDBRANCH  23  33
BRANCH  24  35
ATOM     35  O   UNL     1     -26.018 -14.329   2.318  1.00  0.00    -0.390 OA
ATOM     36  H   UNL     1     -26.982 -14.133   2.174  1.00  0.00     0.211 HD
ENDBRANCH  24  35
TORSDOF 4
ENDMDL
