MODEL 1
REMARK VINA RESULT:    -6.171      0.000      0.000
REMARK INTER + INTRA:          -8.540
REMARK INTER:                  -7.794
REMARK INTRA:                  -0.746
REMARK UNBOUND:                -0.746
REMARK SMILES Oc1ccc(CCc2cc(O)cc(O)c2)cc1
REMARK SMILES IDX 6 1 5 2 4 3 3 4 2 5 16 6 17 7 1 8 7 10 8 11 15 12 9 13 13 14
REMARK SMILES IDX 10 15 12 16 14 17 11 19
REMARK H PARENT 1 9 14 18 11 20
REMARK Flexibility Score: inf
ROOT
ATOM      1  C   UNL     1      -6.656 -21.582 -19.130  1.00  0.00     0.040 C 
ENDROOT
BRANCH   1   2
ATOM      2  C   UNL     1      -6.319 -23.019 -19.419  1.00  0.00    -0.047 A 
ATOM      3  C   UNL     1      -6.969 -24.052 -18.725  1.00  0.00     0.007 A 
ATOM      4  C   UNL     1      -6.632 -25.388 -18.970  1.00  0.00     0.046 A 
ATOM      5  C   UNL     1      -5.636 -25.702 -19.904  1.00  0.00     0.115 A 
ATOM      6  C   UNL     1      -5.311 -23.339 -20.343  1.00  0.00     0.007 A 
ATOM      7  C   UNL     1      -4.976 -24.675 -20.587  1.00  0.00     0.046 A 
BRANCH   5   8
ATOM      8  O   UNL     1      -5.292 -27.028 -20.157  1.00  0.00    -0.508 OA
ATOM      9  H   UNL     1      -4.668 -27.277 -20.916  1.00  0.00     0.293 HD
ENDBRANCH   5   8
ENDBRANCH   1   2
BRANCH   1  10
ATOM     10  C   UNL     1      -8.032 -21.226 -19.701  1.00  0.00     0.040 C 
BRANCH  10  11
ATOM     11  C   UNL     1      -8.015 -21.300 -21.204  1.00  0.00    -0.040 A 
ATOM     12  C   UNL     1      -8.743 -22.298 -21.872  1.00  0.00     0.050 A 
ATOM     13  C   UNL     1      -7.226 -20.407 -21.948  1.00  0.00     0.050 A 
ATOM     14  C   UNL     1      -8.702 -22.387 -23.271  1.00  0.00     0.119 A 
ATOM     15  C   UNL     1      -7.184 -20.496 -23.346  1.00  0.00     0.119 A 
ATOM     16  C   UNL     1      -7.926 -21.484 -24.003  1.00  0.00     0.092 A 
BRANCH  14  17
ATOM     17  O   UNL     1      -9.427 -23.370 -23.941  1.00  0.00    -0.508 OA
ATOM     18  H   UNL     1     -10.383 -23.214 -24.236  1.00  0.00     0.293 HD
ENDBRANCH  14  17
BRANCH  15  19
ATOM     19  O   UNL     1      -6.410 -19.609 -24.091  1.00  0.00    -0.508 OA
ATOM     20  H   UNL     1      -6.143 -19.814 -25.047  1.00  0.00     0.293 HD
ENDBRANCH  15  19
ENDBRANCH  10  11
ENDBRANCH   1  10
TORSDOF 6
ENDMDL
MODEL 2
REMARK VINA RESULT:    -6.154      0.045      2.031
REMARK INTER + INTRA:          -8.519
REMARK INTER:                  -7.807
REMARK INTRA:                  -0.712
REMARK UNBOUND:                -0.746
REMARK SMILES Oc1ccc(CCc2cc(O)cc(O)c2)cc1
REMARK SMILES IDX 6 1 5 2 4 3 3 4 2 5 16 6 17 7 1 8 7 10 8 11 15 12 9 13 13 14
REMARK SMILES IDX 10 15 12 16 14 17 11 19
REMARK H PARENT 1 9 14 18 11 20
REMARK Flexibility Score: inf
ROOT
ATOM      1  C   UNL     1      -6.654 -21.588 -19.126  1.00  0.00     0.040 C 
ENDROOT
BRANCH   1   2
ATOM      2  C   UNL     1      -6.319 -23.027 -19.410  1.00  0.00    -0.047 A 
ATOM      3  C   UNL     1      -6.963 -24.056 -18.703  1.00  0.00     0.007 A 
ATOM      4  C   UNL     1      -6.628 -25.393 -18.943  1.00  0.00     0.046 A 
ATOM      5  C   UNL     1      -5.640 -25.712 -19.884  1.00  0.00     0.115 A 
ATOM      6  C   UNL     1      -5.320 -23.353 -20.342  1.00  0.00     0.007 A 
ATOM      7  C   UNL     1      -4.987 -24.690 -20.580  1.00  0.00     0.046 A 
BRANCH   5   8
ATOM      8  O   UNL     1      -5.299 -27.040 -20.132  1.00  0.00    -0.508 OA
ATOM      9  H   UNL     1      -5.768 -27.583 -20.847  1.00  0.00     0.293 HD
ENDBRANCH   5   8
ENDBRANCH   1   2
BRANCH   1  10
ATOM     10  C   UNL     1      -8.014 -21.223 -19.729  1.00  0.00     0.040 C 
BRANCH  10  11
ATOM     11  C   UNL     1      -7.976 -21.342 -21.229  1.00  0.00    -0.040 A 
ATOM     12  C   UNL     1      -7.236 -20.424 -21.993  1.00  0.00     0.050 A 
ATOM     13  C   UNL     1      -8.724 -22.336 -21.880  1.00  0.00     0.050 A 
ATOM     14  C   UNL     1      -7.226 -20.514 -23.392  1.00  0.00     0.119 A 
ATOM     15  C   UNL     1      -8.714 -22.427 -23.279  1.00  0.00     0.119 A 
ATOM     16  C   UNL     1      -7.962 -21.517 -24.030  1.00  0.00     0.092 A 
BRANCH  14  17
ATOM     17  O   UNL     1      -6.489 -19.611 -24.156  1.00  0.00    -0.508 OA
ATOM     18  H   UNL     1      -6.713 -19.433 -25.128  1.00  0.00     0.293 HD
ENDBRANCH  14  17
BRANCH  15  19
ATOM     19  O   UNL     1      -9.448 -23.415 -23.932  1.00  0.00    -0.508 OA
ATOM     20  H   UNL     1      -9.453 -24.374 -23.604  1.00  0.00     0.293 HD
ENDBRANCH  15  19
ENDBRANCH  10  11
ENDBRANCH   1  10
TORSDOF 6
ENDMDL
MODEL 3
REMARK VINA RESULT:    -5.934      4.806      6.434
REMARK INTER + INTRA:          -8.241
REMARK INTER:                  -7.602
REMARK INTRA:                  -0.638
REMARK UNBOUND:                -0.746
REMARK SMILES Oc1ccc(CCc2cc(O)cc(O)c2)cc1
REMARK SMILES IDX 6 1 5 2 4 3 3 4 2 5 16 6 17 7 1 8 7 10 8 11 15 12 9 13 13 14
REMARK SMILES IDX 10 15 12 16 14 17 11 19
REMARK H PARENT 1 9 14 18 11 20
REMARK Flexibility Score: inf
ROOT
ATOM      1  C   UNL     1      -3.677 -22.256 -23.964  1.00  0.00     0.040 C 
ENDROOT
BRANCH   1   2
ATOM      2  C   UNL     1      -5.119 -22.272 -23.537  1.00  0.00    -0.047 A 
ATOM      3  C   UNL     1      -6.067 -21.490 -24.217  1.00  0.00     0.007 A 
ATOM      4  C   UNL     1      -7.402 -21.479 -23.799  1.00  0.00     0.046 A 
ATOM      5  C   UNL     1      -7.799 -22.242 -22.693  1.00  0.00     0.115 A 
ATOM      6  C   UNL     1      -5.520 -23.024 -22.421  1.00  0.00     0.007 A 
ATOM      7  C   UNL     1      -6.856 -23.012 -22.005  1.00  0.00     0.046 A 
BRANCH   5   8
ATOM      8  O   UNL     1      -9.126 -22.240 -22.268  1.00  0.00    -0.508 OA
ATOM      9  H   UNL     1      -9.380 -21.965 -21.326  1.00  0.00     0.293 HD
ENDBRANCH   5   8
ENDBRANCH   1   2
BRANCH   1  10
ATOM     10  C   UNL     1      -3.546 -21.744 -25.402  1.00  0.00     0.040 C 
BRANCH  10  11
ATOM     11  C   UNL     1      -3.444 -22.895 -26.366  1.00  0.00    -0.040 A 
ATOM     12  C   UNL     1      -3.938 -22.769 -27.675  1.00  0.00     0.050 A 
ATOM     13  C   UNL     1      -2.906 -24.123 -25.948  1.00  0.00     0.050 A 
ATOM     14  C   UNL     1      -3.872 -23.851 -28.563  1.00  0.00     0.119 A 
ATOM     15  C   UNL     1      -2.840 -25.206 -26.835  1.00  0.00     0.119 A 
ATOM     16  C   UNL     1      -3.321 -25.064 -28.142  1.00  0.00     0.092 A 
BRANCH  14  17
ATOM     17  O   UNL     1      -4.354 -23.731 -29.865  1.00  0.00    -0.508 OA
ATOM     18  H   UNL     1      -5.323 -23.503 -30.052  1.00  0.00     0.293 HD
ENDBRANCH  14  17
BRANCH  15  19
ATOM     19  O   UNL     1      -2.301 -26.425 -26.430  1.00  0.00    -0.508 OA
ATOM     20  H   UNL     1      -2.843 -27.092 -25.893  1.00  0.00     0.293 HD
ENDBRANCH  15  19
ENDBRANCH  10  11
ENDBRANCH   1  10
TORSDOF 6
ENDMDL
MODEL 4
REMARK VINA RESULT:    -5.927      4.835      6.404
REMARK INTER + INTRA:          -8.231
REMARK INTER:                  -7.598
REMARK INTRA:                  -0.633
REMARK UNBOUND:                -0.746
REMARK SMILES Oc1ccc(CCc2cc(O)cc(O)c2)cc1
REMARK SMILES IDX 6 1 5 2 4 3 3 4 2 5 16 6 17 7 1 8 7 10 8 11 15 12 9 13 13 14
REMARK SMILES IDX 10 15 12 16 14 17 11 19
REMARK H PARENT 1 9 14 18 11 20
REMARK Flexibility Score: inf
ROOT
ATOM      1  C   UNL     1      -3.669 -22.273 -23.968  1.00  0.00     0.040 C 
ENDROOT
BRANCH   1   2
ATOM      2  C   UNL     1      -5.109 -22.280 -23.535  1.00  0.00    -0.047 A 
ATOM      3  C   UNL     1      -6.055 -21.490 -24.209  1.00  0.00     0.007 A 
ATOM      4  C   UNL     1      -7.388 -21.471 -23.784  1.00  0.00     0.046 A 
ATOM      5  C   UNL     1      -7.785 -22.233 -22.678  1.00  0.00     0.115 A 
ATOM      6  C   UNL     1      -5.510 -23.031 -22.418  1.00  0.00     0.007 A 
ATOM      7  C   UNL     1      -6.844 -23.010 -21.996  1.00  0.00     0.046 A 
BRANCH   5   8
ATOM      8  O   UNL     1      -9.110 -22.222 -22.247  1.00  0.00    -0.508 OA
ATOM      9  H   UNL     1      -9.795 -22.867 -22.624  1.00  0.00     0.293 HD
ENDBRANCH   5   8
ENDBRANCH   1   2
BRANCH   1  10
ATOM     10  C   UNL     1      -3.544 -21.785 -25.415  1.00  0.00     0.040 C 
BRANCH  10  11
ATOM     11  C   UNL     1      -3.468 -22.953 -26.362  1.00  0.00    -0.040 A 
ATOM     12  C   UNL     1      -2.840 -24.145 -25.965  1.00  0.00     0.050 A 
ATOM     13  C   UNL     1      -3.973 -22.840 -27.667  1.00  0.00     0.050 A 
ATOM     14  C   UNL     1      -2.740 -25.222 -26.857  1.00  0.00     0.119 A 
ATOM     15  C   UNL     1      -3.873 -23.917 -28.559  1.00  0.00     0.119 A 
ATOM     16  C   UNL     1      -3.259 -25.106 -28.150  1.00  0.00     0.092 A 
BRANCH  14  17
ATOM     17  O   UNL     1      -2.124 -26.410 -26.469  1.00  0.00    -0.508 OA
ATOM     18  H   UNL     1      -2.311 -27.284 -26.945  1.00  0.00     0.293 HD
ENDBRANCH  14  17
BRANCH  15  19
ATOM     19  O   UNL     1      -4.378 -23.816 -29.854  1.00  0.00    -0.508 OA
ATOM     20  H   UNL     1      -4.968 -23.040 -30.133  1.00  0.00     0.293 HD
ENDBRANCH  15  19
ENDBRANCH  10  11
ENDBRANCH   1  10
TORSDOF 6
ENDMDL
MODEL 5
REMARK VINA RESULT:    -5.858      6.148      8.919
REMARK INTER + INTRA:          -8.144
REMARK INTER:                  -7.547
REMARK INTRA:                  -0.598
REMARK UNBOUND:                -0.746
REMARK SMILES Oc1ccc(CCc2cc(O)cc(O)c2)cc1
REMARK SMILES IDX 6 1 5 2 4 3 3 4 2 5 16 6 17 7 1 8 7 10 8 11 15 12 9 13 13 14
REMARK SMILES IDX 10 15 12 16 14 17 11 19
REMARK H PARENT 1 9 14 18 11 20
REMARK Flexibility Score: inf
ROOT
ATOM      1  C   UNL     1      -2.155 -27.035 -26.489  1.00  0.00     0.040 C 
ENDROOT
BRANCH   1   2
ATOM      2  C   UNL     1      -2.676 -25.680 -26.885  1.00  0.00    -0.047 A 
ATOM      3  C   UNL     1      -2.753 -24.647 -25.937  1.00  0.00     0.007 A 
ATOM      4  C   UNL     1      -3.267 -23.397 -26.297  1.00  0.00     0.046 A 
ATOM      5  C   UNL     1      -3.719 -23.172 -27.604  1.00  0.00     0.115 A 
ATOM      6  C   UNL     1      -3.143 -25.453 -28.190  1.00  0.00     0.007 A 
ATOM      7  C   UNL     1      -3.657 -24.203 -28.547  1.00  0.00     0.046 A 
BRANCH   5   8
ATOM      8  O   UNL     1      -4.233 -21.932 -27.974  1.00  0.00    -0.508 OA
ATOM      9  H   UNL     1      -3.752 -21.335 -28.638  1.00  0.00     0.293 HD
ENDBRANCH   5   8
ENDBRANCH   1   2
BRANCH   1  10
ATOM     10  C   UNL     1      -1.985 -27.123 -24.969  1.00  0.00     0.040 C 
BRANCH  10  11
ATOM     11  C   UNL     1      -2.996 -28.071 -24.379  1.00  0.00    -0.040 A 
ATOM     12  C   UNL     1      -3.476 -29.154 -25.134  1.00  0.00     0.050 A 
ATOM     13  C   UNL     1      -3.508 -27.847 -23.091  1.00  0.00     0.050 A 
ATOM     14  C   UNL     1      -4.441 -30.017 -24.597  1.00  0.00     0.119 A 
ATOM     15  C   UNL     1      -4.473 -28.711 -22.554  1.00  0.00     0.119 A 
ATOM     16  C   UNL     1      -4.933 -29.795 -23.308  1.00  0.00     0.092 A 
BRANCH  14  17
ATOM     17  O   UNL     1      -4.916 -31.097 -25.338  1.00  0.00    -0.508 OA
ATOM     18  H   UNL     1      -4.475 -31.381 -26.205  1.00  0.00     0.293 HD
ENDBRANCH  14  17
BRANCH  15  19
ATOM     19  O   UNL     1      -4.981 -28.500 -21.273  1.00  0.00    -0.508 OA
ATOM     20  H   UNL     1      -5.946 -28.228 -21.125  1.00  0.00     0.293 HD
ENDBRANCH  15  19
ENDBRANCH  10  11
ENDBRANCH   1  10
TORSDOF 6
ENDMDL
MODEL 6
REMARK VINA RESULT:    -5.838      6.141      9.015
REMARK INTER + INTRA:          -8.120
REMARK INTER:                  -7.524
REMARK INTRA:                  -0.596
REMARK UNBOUND:                -0.746
REMARK SMILES Oc1ccc(CCc2cc(O)cc(O)c2)cc1
REMARK SMILES IDX 6 1 5 2 4 3 3 4 2 5 16 6 17 7 1 8 7 10 8 11 15 12 9 13 13 14
REMARK SMILES IDX 10 15 12 16 14 17 11 19
REMARK H PARENT 1 9 14 18 11 20
REMARK Flexibility Score: inf
ROOT
ATOM      1  C   UNL     1      -2.137 -27.027 -26.503  1.00  0.00     0.040 C 
ENDROOT
BRANCH   1   2
ATOM      2  C   UNL     1      -2.669 -25.678 -26.903  1.00  0.00    -0.047 A 
ATOM      3  C   UNL     1      -2.756 -24.643 -25.958  1.00  0.00     0.007 A 
ATOM      4  C   UNL     1      -3.281 -23.398 -26.323  1.00  0.00     0.046 A 
ATOM      5  C   UNL     1      -3.733 -23.181 -27.631  1.00  0.00     0.115 A 
ATOM      6  C   UNL     1      -3.135 -25.459 -28.210  1.00  0.00     0.007 A 
ATOM      7  C   UNL     1      -3.660 -24.214 -28.571  1.00  0.00     0.046 A 
BRANCH   5   8
ATOM      8  O   UNL     1      -4.257 -21.946 -28.006  1.00  0.00    -0.508 OA
ATOM      9  H   UNL     1      -4.221 -21.625 -28.967  1.00  0.00     0.293 HD
ENDBRANCH   5   8
ENDBRANCH   1   2
BRANCH   1  10
ATOM     10  C   UNL     1      -1.984 -27.116 -24.981  1.00  0.00     0.040 C 
BRANCH  10  11
ATOM     11  C   UNL     1      -3.024 -28.035 -24.398  1.00  0.00    -0.040 A 
ATOM     12  C   UNL     1      -3.526 -27.806 -23.106  1.00  0.00     0.050 A 
ATOM     13  C   UNL     1      -3.459 -29.159 -25.118  1.00  0.00     0.050 A 
ATOM     14  C   UNL     1      -4.471 -28.680 -22.550  1.00  0.00     0.119 A 
ATOM     15  C   UNL     1      -4.404 -30.033 -24.562  1.00  0.00     0.119 A 
ATOM     16  C   UNL     1      -4.909 -29.788 -23.280  1.00  0.00     0.092 A 
BRANCH  14  17
ATOM     17  O   UNL     1      -4.978 -28.456 -21.271  1.00  0.00    -0.508 OA
ATOM     18  H   UNL     1      -5.951 -28.626 -21.050  1.00  0.00     0.293 HD
ENDBRANCH  14  17
BRANCH  15  19
ATOM     19  O   UNL     1      -4.846 -31.146 -25.273  1.00  0.00    -0.508 OA
ATOM     20  H   UNL     1      -4.409 -32.054 -25.161  1.00  0.00     0.293 HD
ENDBRANCH  15  19
ENDBRANCH  10  11
ENDBRANCH   1  10
TORSDOF 6
ENDMDL
MODEL 7
REMARK VINA RESULT:    -5.689      3.133      4.988
REMARK INTER + INTRA:          -7.931
REMARK INTER:                  -7.322
REMARK INTRA:                  -0.609
REMARK UNBOUND:                -0.746
REMARK SMILES Oc1ccc(CCc2cc(O)cc(O)c2)cc1
REMARK SMILES IDX 6 1 5 2 4 3 3 4 2 5 16 6 17 7 1 8 7 10 8 11 15 12 9 13 13 14
REMARK SMILES IDX 10 15 12 16 14 17 11 19
REMARK H PARENT 1 9 14 18 11 20
REMARK Flexibility Score: inf
ROOT
ATOM      1  C   UNL     1      -7.560 -22.172 -22.631  1.00  0.00     0.040 C 
ENDROOT
BRANCH   1   2
ATOM      2  C   UNL     1      -7.510 -21.344 -21.376  1.00  0.00    -0.047 A 
ATOM      3  C   UNL     1      -7.639 -19.947 -21.443  1.00  0.00     0.007 A 
ATOM      4  C   UNL     1      -7.559 -19.175 -20.280  1.00  0.00     0.046 A 
ATOM      5  C   UNL     1      -7.340 -19.791 -19.041  1.00  0.00     0.115 A 
ATOM      6  C   UNL     1      -7.277 -21.955 -20.133  1.00  0.00     0.007 A 
ATOM      7  C   UNL     1      -7.197 -21.180 -18.971  1.00  0.00     0.046 A 
BRANCH   5   8
ATOM      8  O   UNL     1      -7.259 -19.032 -17.875  1.00  0.00    -0.508 OA
ATOM      9  H   UNL     1      -8.076 -18.853 -17.302  1.00  0.00     0.293 HD
ENDBRANCH   5   8
ENDBRANCH   1   2
BRANCH   1  10
ATOM     10  C   UNL     1      -6.957 -21.401 -23.810  1.00  0.00     0.040 C 
BRANCH  10  11
ATOM     11  C   UNL     1      -5.509 -21.765 -23.993  1.00  0.00    -0.040 A 
ATOM     12  C   UNL     1      -4.953 -22.839 -23.278  1.00  0.00     0.050 A 
ATOM     13  C   UNL     1      -4.688 -21.001 -24.838  1.00  0.00     0.050 A 
ATOM     14  C   UNL     1      -3.596 -23.159 -23.425  1.00  0.00     0.119 A 
ATOM     15  C   UNL     1      -3.331 -21.321 -24.985  1.00  0.00     0.119 A 
ATOM     16  C   UNL     1      -2.791 -22.402 -24.279  1.00  0.00     0.092 A 
BRANCH  14  17
ATOM     17  O   UNL     1      -3.039 -24.227 -22.724  1.00  0.00    -0.508 OA
ATOM     18  H   UNL     1      -2.710 -25.059 -23.199  1.00  0.00     0.293 HD
ENDBRANCH  14  17
BRANCH  15  19
ATOM     19  O   UNL     1      -2.511 -20.572 -25.826  1.00  0.00    -0.508 OA
ATOM     20  H   UNL     1      -1.504 -20.560 -25.712  1.00  0.00     0.293 HD
ENDBRANCH  15  19
ENDBRANCH  10  11
ENDBRANCH   1  10
TORSDOF 6
ENDMDL
MODEL 8
REMARK VINA RESULT:    -5.643      5.725      7.317
REMARK INTER + INTRA:          -7.873
REMARK INTER:                  -7.275
REMARK INTRA:                  -0.597
REMARK UNBOUND:                -0.746
REMARK SMILES Oc1ccc(CCc2cc(O)cc(O)c2)cc1
REMARK SMILES IDX 6 1 5 2 4 3 3 4 2 5 16 6 17 7 1 8 7 10 8 11 15 12 9 13 13 14
REMARK SMILES IDX 10 15 12 16 14 17 11 19
REMARK H PARENT 1 9 14 18 11 20
REMARK Flexibility Score: inf
ROOT
ATOM      1  C   UNL     1      -2.114 -28.574 -24.400  1.00  0.00     0.040 C 
ENDROOT
BRANCH   1   2
ATOM      2  C   UNL     1      -3.358 -29.344 -24.046  1.00  0.00    -0.047 A 
ATOM      3  C   UNL     1      -3.607 -29.711 -22.713  1.00  0.00     0.007 A 
ATOM      4  C   UNL     1      -4.747 -30.455 -22.389  1.00  0.00     0.046 A 
ATOM      5  C   UNL     1      -5.641 -30.847 -23.394  1.00  0.00     0.115 A 
ATOM      6  C   UNL     1      -4.250 -29.751 -25.051  1.00  0.00     0.007 A 
ATOM      7  C   UNL     1      -5.389 -30.494 -24.724  1.00  0.00     0.046 A 
BRANCH   5   8
ATOM      8  O   UNL     1      -6.779 -31.587 -23.083  1.00  0.00    -0.508 OA
ATOM      9  H   UNL     1      -7.522 -31.725 -23.759  1.00  0.00     0.293 HD
ENDBRANCH   5   8
ENDBRANCH   1   2
BRANCH   1  10
ATOM     10  C   UNL     1      -1.954 -27.358 -23.482  1.00  0.00     0.040 C 
BRANCH  10  11
ATOM     11  C   UNL     1      -2.352 -26.097 -24.202  1.00  0.00    -0.040 A 
ATOM     12  C   UNL     1      -2.359 -26.057 -25.607  1.00  0.00     0.050 A 
ATOM     13  C   UNL     1      -2.665 -24.937 -23.477  1.00  0.00     0.050 A 
ATOM     14  C   UNL     1      -2.698 -24.873 -26.277  1.00  0.00     0.119 A 
ATOM     15  C   UNL     1      -3.005 -23.754 -24.148  1.00  0.00     0.119 A 
ATOM     16  C   UNL     1      -3.023 -23.727 -25.547  1.00  0.00     0.092 A 
BRANCH  14  17
ATOM     17  O   UNL     1      -2.713 -24.827 -27.670  1.00  0.00    -0.508 OA
ATOM     18  H   UNL     1      -2.691 -25.672 -28.228  1.00  0.00     0.293 HD
ENDBRANCH  14  17
BRANCH  15  19
ATOM     19  O   UNL     1      -3.324 -22.599 -23.435  1.00  0.00    -0.508 OA
ATOM     20  H   UNL     1      -4.020 -21.945 -23.773  1.00  0.00     0.293 HD
ENDBRANCH  15  19
ENDBRANCH  10  11
ENDBRANCH   1  10
TORSDOF 6
ENDMDL
MODEL 9
REMARK VINA RESULT:    -5.634      5.680      7.375
REMARK INTER + INTRA:          -7.861
REMARK INTER:                  -7.265
REMARK INTRA:                  -0.596
REMARK UNBOUND:                -0.746
REMARK SMILES Oc1ccc(CCc2cc(O)cc(O)c2)cc1
REMARK SMILES IDX 6 1 5 2 4 3 3 4 2 5 16 6 17 7 1 8 7 10 8 11 15 12 9 13 13 14
REMARK SMILES IDX 10 15 12 16 14 17 11 19
REMARK H PARENT 1 9 14 18 11 20
REMARK Flexibility Score: inf
ROOT
ATOM      1  C   UNL     1      -2.132 -28.548 -24.420  1.00  0.00     0.040 C 
ENDROOT
BRANCH   1   2
ATOM      2  C   UNL     1      -3.369 -29.330 -24.070  1.00  0.00    -0.047 A 
ATOM      3  C   UNL     1      -3.619 -29.702 -22.739  1.00  0.00     0.007 A 
ATOM      4  C   UNL     1      -4.752 -30.457 -22.419  1.00  0.00     0.046 A 
ATOM      5  C   UNL     1      -5.640 -30.856 -23.427  1.00  0.00     0.115 A 
ATOM      6  C   UNL     1      -4.255 -29.744 -25.078  1.00  0.00     0.007 A 
ATOM      7  C   UNL     1      -5.387 -30.499 -24.755  1.00  0.00     0.046 A 
BRANCH   5   8
ATOM      8  O   UNL     1      -6.771 -31.608 -23.120  1.00  0.00    -0.508 OA
ATOM      9  H   UNL     1      -7.151 -31.634 -22.181  1.00  0.00     0.293 HD
ENDBRANCH   5   8
ENDBRANCH   1   2
BRANCH   1  10
ATOM     10  C   UNL     1      -1.978 -27.341 -23.489  1.00  0.00     0.040 C 
BRANCH  10  11
ATOM     11  C   UNL     1      -2.335 -26.069 -24.211  1.00  0.00    -0.040 A 
ATOM     12  C   UNL     1      -2.716 -24.927 -23.487  1.00  0.00     0.050 A 
ATOM     13  C   UNL     1      -2.346 -26.031 -25.615  1.00  0.00     0.050 A 
ATOM     14  C   UNL     1      -3.080 -23.752 -24.160  1.00  0.00     0.119 A 
ATOM     15  C   UNL     1      -2.710 -24.856 -26.288  1.00  0.00     0.119 A 
ATOM     16  C   UNL     1      -3.073 -23.720 -25.557  1.00  0.00     0.092 A 
BRANCH  14  17
ATOM     17  O   UNL     1      -3.453 -22.614 -23.447  1.00  0.00    -0.508 OA
ATOM     18  H   UNL     1      -3.638 -21.734 -23.914  1.00  0.00     0.293 HD
ENDBRANCH  14  17
BRANCH  15  19
ATOM     19  O   UNL     1      -2.716 -24.808 -27.680  1.00  0.00    -0.508 OA
ATOM     20  H   UNL     1      -3.219 -24.085 -28.182  1.00  0.00     0.293 HD
ENDBRANCH  15  19
ENDBRANCH  10  11
ENDBRANCH   1  10
TORSDOF 6
ENDMDL
