MODEL 1
REMARK VINA RESULT:    -3.685      0.000      0.000
REMARK INTER + INTRA:          -4.496
REMARK INTER:                  -4.440
REMARK INTRA:                  -0.056
REMARK UNBOUND:                -0.056
REMARK SMILES CC[C@H](C)[C@H]([NH3+])C(=O)[O-]
REMARK SMILES IDX 3 1 4 2 5 3 6 4 7 8 8 9 9 10 2 11 1 12
REMARK H PARENT 6 5 6 6 6 7
REMARK Flexibility Score: inf
ROOT
ATOM      1  C   UNL     1    -476.030 283.710  -1.212  1.00  0.00     0.050 C 
ATOM      2  C   UNL     1    -477.008 284.272  -2.265  1.00  0.00     0.014 C 
ENDROOT
BRANCH   1   3
ATOM      3  C   UNL     1    -476.042 284.521   0.121  1.00  0.00     0.230 C 
BRANCH   3   4
ATOM      4  N   UNL     1    -475.137 283.944   1.127  1.00  0.00    -0.350 N 
ATOM      5  H   UNL     1    -474.138 283.999   0.824  1.00  0.00     0.345 HD
ATOM      6  H   UNL     1    -475.248 284.443   2.039  1.00  0.00     0.345 HD
ATOM      7  H   UNL     1    -475.380 282.938   1.277  1.00  0.00     0.345 HD
ENDBRANCH   3   4
BRANCH   3   8
ATOM      8  C   UNL     1    -477.433 284.694   0.684  1.00  0.00     0.099 C 
ATOM      9  O   UNL     1    -478.028 285.801   0.602  1.00  0.00    -0.544 OA
ATOM     10  O   UNL     1    -478.054 283.632   1.329  1.00  0.00    -0.544 OA
ENDBRANCH   3   8
ENDBRANCH   1   3
BRANCH   1  11
ATOM     11  C   UNL     1    -474.592 283.613  -1.780  1.00  0.00     0.006 C 
ATOM     12  C   UNL     1    -474.025 282.193  -1.739  1.00  0.00     0.004 C 
ENDBRANCH   1  11
TORSDOF 4
ENDMDL
MODEL 2
REMARK VINA RESULT:    -3.681      0.436      1.159
REMARK INTER + INTRA:          -4.490
REMARK INTER:                  -4.414
REMARK INTRA:                  -0.077
REMARK UNBOUND:                -0.056
REMARK SMILES CC[C@H](C)[C@H]([NH3+])C(=O)[O-]
REMARK SMILES IDX 3 1 4 2 5 3 6 4 7 8 8 9 9 10 2 11 1 12
REMARK H PARENT 6 5 6 6 6 7
REMARK Flexibility Score: inf
ROOT
ATOM      1  C   UNL     1    -475.891 283.559  -1.257  1.00  0.00     0.050 C 
ATOM      2  C   UNL     1    -476.588 284.185  -2.482  1.00  0.00     0.014 C 
ENDROOT
BRANCH   1   3
ATOM      3  C   UNL     1    -475.925 284.483   0.001  1.00  0.00     0.230 C 
BRANCH   3   4
ATOM      4  N   UNL     1    -475.054 283.986   1.077  1.00  0.00    -0.350 N 
ATOM      5  H   UNL     1    -474.459 284.748   1.473  1.00  0.00     0.345 HD
ATOM      6  H   UNL     1    -475.630 283.566   1.841  1.00  0.00     0.345 HD
ATOM      7  H   UNL     1    -474.425 283.242   0.698  1.00  0.00     0.345 HD
ENDBRANCH   3   4
BRANCH   3   8
ATOM      8  C   UNL     1    -477.329 284.720   0.509  1.00  0.00     0.099 C 
ATOM      9  O   UNL     1    -477.926 283.841   1.185  1.00  0.00    -0.544 OA
ATOM     10  O   UNL     1    -477.984 285.905   0.200  1.00  0.00    -0.544 OA
ENDBRANCH   3   8
ENDBRANCH   1   3
BRANCH   1  11
ATOM     11  C   UNL     1    -474.435 283.148  -1.592  1.00  0.00     0.006 C 
ATOM     12  C   UNL     1    -474.352 281.956  -2.548  1.00  0.00     0.004 C 
ENDBRANCH   1  11
TORSDOF 4
ENDMDL
MODEL 3
REMARK VINA RESULT:    -3.494      9.905     10.711
REMARK INTER + INTRA:          -4.265
REMARK INTER:                  -4.237
REMARK INTRA:                  -0.028
REMARK UNBOUND:                -0.056
REMARK SMILES CC[C@H](C)[C@H]([NH3+])C(=O)[O-]
REMARK SMILES IDX 3 1 4 2 5 3 6 4 7 8 8 9 9 10 2 11 1 12
REMARK H PARENT 6 5 6 6 6 7
REMARK Flexibility Score: inf
ROOT
ATOM      1  C   UNL     1    -478.038 295.060  -1.055  1.00  0.00     0.050 C 
ATOM      2  C   UNL     1    -478.112 296.545  -1.467  1.00  0.00     0.014 C 
ENDROOT
BRANCH   1   3
ATOM      3  C   UNL     1    -477.161 294.825   0.215  1.00  0.00     0.230 C 
BRANCH   3   4
ATOM      4  N   UNL     1    -475.814 295.397   0.071  1.00  0.00    -0.350 N 
ATOM      5  H   UNL     1    -475.816 296.239  -0.548  1.00  0.00     0.345 HD
ATOM      6  H   UNL     1    -475.432 295.658   1.008  1.00  0.00     0.345 HD
ATOM      7  H   UNL     1    -475.177 294.682  -0.350  1.00  0.00     0.345 HD
ENDBRANCH   3   4
BRANCH   3   8
ATOM      8  C   UNL     1    -477.090 293.368   0.609  1.00  0.00     0.099 C 
ATOM      9  O   UNL     1    -478.125 292.651   0.619  1.00  0.00    -0.544 OA
ATOM     10  O   UNL     1    -475.875 292.817   0.997  1.00  0.00    -0.544 OA
ENDBRANCH   3   8
ENDBRANCH   1   3
BRANCH   1  11
ATOM     11  C   UNL     1    -477.545 294.179  -2.230  1.00  0.00     0.006 C 
ATOM     12  C   UNL     1    -476.945 294.990  -3.380  1.00  0.00     0.004 C 
ENDBRANCH   1  11
TORSDOF 4
ENDMDL
MODEL 4
REMARK VINA RESULT:    -3.382     10.060     11.053
REMARK INTER + INTRA:          -4.130
REMARK INTER:                  -4.039
REMARK INTRA:                  -0.091
REMARK UNBOUND:                -0.056
REMARK SMILES CC[C@H](C)[C@H]([NH3+])C(=O)[O-]
REMARK SMILES IDX 3 1 4 2 5 3 6 4 7 8 8 9 9 10 2 11 1 12
REMARK H PARENT 6 5 6 6 6 7
REMARK Flexibility Score: inf
ROOT
ATOM      1  C   UNL     1    -476.804 294.422  -0.251  1.00  0.00     0.050 C 
ATOM      2  C   UNL     1    -476.485 295.846   0.250  1.00  0.00     0.014 C 
ENDROOT
BRANCH   1   3
ATOM      3  C   UNL     1    -477.860 294.404  -1.400  1.00  0.00     0.230 C 
BRANCH   3   4
ATOM      4  N   UNL     1    -478.125 293.042  -1.887  1.00  0.00    -0.350 N 
ATOM      5  H   UNL     1    -478.886 293.029  -2.603  1.00  0.00     0.345 HD
ATOM      6  H   UNL     1    -477.257 292.632  -2.300  1.00  0.00     0.345 HD
ATOM      7  H   UNL     1    -478.418 292.437  -1.085  1.00  0.00     0.345 HD
ENDBRANCH   3   4
BRANCH   3   8
ATOM      8  C   UNL     1    -477.491 295.322  -2.542  1.00  0.00     0.099 C 
ATOM      9  O   UNL     1    -476.594 295.000  -3.365  1.00  0.00    -0.544 OA
ATOM     10  O   UNL     1    -478.124 296.553  -2.670  1.00  0.00    -0.544 OA
ENDBRANCH   3   8
ENDBRANCH   1   3
BRANCH   1  11
ATOM     11  C   UNL     1    -477.250 293.505   0.915  1.00  0.00     0.006 C 
ATOM     12  C   UNL     1    -476.246 292.394   1.225  1.00  0.00     0.004 C 
ENDBRANCH   1  11
TORSDOF 4
ENDMDL
MODEL 5
REMARK VINA RESULT:    -3.262     12.057     12.994
REMARK INTER + INTRA:          -3.986
REMARK INTER:                  -3.866
REMARK INTRA:                  -0.120
REMARK UNBOUND:                -0.056
REMARK SMILES CC[C@H](C)[C@H]([NH3+])C(=O)[O-]
REMARK SMILES IDX 3 1 4 2 5 3 6 4 7 8 8 9 9 10 2 11 1 12
REMARK H PARENT 6 5 6 6 6 7
REMARK Flexibility Score: inf
ROOT
ATOM      1  C   UNL     1    -478.086 295.427  -3.298  1.00  0.00     0.050 C 
ATOM      2  C   UNL     1    -478.125 293.936  -2.907  1.00  0.00     0.014 C 
ENDROOT
BRANCH   1   3
ATOM      3  C   UNL     1    -476.993 295.747  -4.366  1.00  0.00     0.230 C 
BRANCH   3   4
ATOM      4  N   UNL     1    -475.640 295.425  -3.887  1.00  0.00    -0.350 N 
ATOM      5  H   UNL     1    -475.479 294.393  -3.853  1.00  0.00     0.345 HD
ATOM      6  H   UNL     1    -474.924 295.866  -4.508  1.00  0.00     0.345 HD
ATOM      7  H   UNL     1    -475.513 295.809  -2.923  1.00  0.00     0.345 HD
ENDBRANCH   3   4
BRANCH   3   8
ATOM      8  C   UNL     1    -477.065 297.173  -4.861  1.00  0.00     0.099 C 
ATOM      9  O   UNL     1    -478.006 297.550  -5.608  1.00  0.00    -0.544 OA
ATOM     10  O   UNL     1    -476.064 298.074  -4.518  1.00  0.00    -0.544 OA
ENDBRANCH   3   8
ENDBRANCH   1   3
BRANCH   1  11
ATOM     11  C   UNL     1    -477.909 296.328  -2.050  1.00  0.00     0.006 C 
ATOM     12  C   UNL     1    -477.583 295.539  -0.781  1.00  0.00     0.004 C 
ENDBRANCH   1  11
TORSDOF 4
ENDMDL
MODEL 6
REMARK VINA RESULT:    -3.206      3.131      4.282
REMARK INTER + INTRA:          -3.919
REMARK INTER:                  -3.867
REMARK INTRA:                  -0.052
REMARK UNBOUND:                -0.056
REMARK SMILES CC[C@H](C)[C@H]([NH3+])C(=O)[O-]
REMARK SMILES IDX 3 1 4 2 5 3 6 4 7 8 8 9 9 10 2 11 1 12
REMARK H PARENT 6 5 6 6 6 7
REMARK Flexibility Score: inf
ROOT
ATOM      1  C   UNL     1    -476.259 283.776  -1.013  1.00  0.00     0.050 C 
ATOM      2  C   UNL     1    -475.887 284.324   0.381  1.00  0.00     0.014 C 
ENDROOT
BRANCH   1   3
ATOM      3  C   UNL     1    -475.054 283.772  -2.005  1.00  0.00     0.230 C 
BRANCH   3   4
ATOM      4  N   UNL     1    -475.453 284.179  -3.361  1.00  0.00    -0.350 N 
ATOM      5  H   UNL     1    -475.445 283.372  -4.025  1.00  0.00     0.345 HD
ATOM      6  H   UNL     1    -476.410 284.601  -3.344  1.00  0.00     0.345 HD
ATOM      7  H   UNL     1    -474.787 284.902  -3.717  1.00  0.00     0.345 HD
ENDBRANCH   3   4
BRANCH   3   8
ATOM      8  C   UNL     1    -474.329 282.447  -2.031  1.00  0.00     0.099 C 
ATOM      9  O   UNL     1    -474.273 281.763  -3.087  1.00  0.00    -0.544 OA
ATOM     10  O   UNL     1    -473.742 281.959  -0.870  1.00  0.00    -0.544 OA
ENDBRANCH   3   8
ENDBRANCH   1   3
BRANCH   1  11
ATOM     11  C   UNL     1    -477.460 284.549  -1.615  1.00  0.00     0.006 C 
ATOM     12  C   UNL     1    -478.069 285.563  -0.645  1.00  0.00     0.004 C 
ENDBRANCH   1  11
TORSDOF 4
ENDMDL
MODEL 7
REMARK VINA RESULT:    -3.190      1.821      2.167
REMARK INTER + INTRA:          -3.900
REMARK INTER:                  -3.858
REMARK INTRA:                  -0.041
REMARK UNBOUND:                -0.056
REMARK SMILES CC[C@H](C)[C@H]([NH3+])C(=O)[O-]
REMARK SMILES IDX 3 1 4 2 5 3 6 4 7 8 8 9 9 10 2 11 1 12
REMARK H PARENT 6 5 6 6 6 7
REMARK Flexibility Score: inf
ROOT
ATOM      1  C   UNL     1    -475.206 283.893  -1.538  1.00  0.00     0.050 C 
ATOM      2  C   UNL     1    -474.353 282.676  -1.122  1.00  0.00     0.014 C 
ENDROOT
BRANCH   1   3
ATOM      3  C   UNL     1    -476.628 283.887  -0.893  1.00  0.00     0.230 C 
BRANCH   3   4
ATOM      4  N   UNL     1    -477.640 284.483  -1.779  1.00  0.00    -0.350 N 
ATOM      5  H   UNL     1    -478.490 283.880  -1.852  1.00  0.00     0.345 HD
ATOM      6  H   UNL     1    -477.916 285.427  -1.426  1.00  0.00     0.345 HD
ATOM      7  H   UNL     1    -477.236 284.600  -2.736  1.00  0.00     0.345 HD
ENDBRANCH   3   4
BRANCH   3   8
ATOM      8  C   UNL     1    -476.650 284.543   0.468  1.00  0.00     0.099 C 
ATOM      9  O   UNL     1    -477.216 285.654   0.640  1.00  0.00    -0.544 OA
ATOM     10  O   UNL     1    -476.009 283.931   1.539  1.00  0.00    -0.544 OA
ENDBRANCH   3   8
ENDBRANCH   1   3
BRANCH   1  11
ATOM     11  C   UNL     1    -475.307 284.004  -3.080  1.00  0.00     0.006 C 
ATOM     12  C   UNL     1    -475.176 282.655  -3.789  1.00  0.00     0.004 C 
ENDBRANCH   1  11
TORSDOF 4
ENDMDL
MODEL 8
REMARK VINA RESULT:    -3.058     10.768     11.548
REMARK INTER + INTRA:          -3.741
REMARK INTER:                  -3.646
REMARK INTRA:                  -0.095
REMARK UNBOUND:                -0.056
REMARK SMILES CC[C@H](C)[C@H]([NH3+])C(=O)[O-]
REMARK SMILES IDX 3 1 4 2 5 3 6 4 7 8 8 9 9 10 2 11 1 12
REMARK H PARENT 6 5 6 6 6 7
REMARK Flexibility Score: inf
ROOT
ATOM      1  C   UNL     1    -477.550 294.967  -1.807  1.00  0.00     0.050 C 
ATOM      2  C   UNL     1    -477.981 296.418  -1.512  1.00  0.00     0.014 C 
ENDROOT
BRANCH   1   3
ATOM      3  C   UNL     1    -478.051 294.453  -3.193  1.00  0.00     0.230 C 
BRANCH   3   4
ATOM      4  N   UNL     1    -478.125 292.985  -3.245  1.00  0.00    -0.350 N 
ATOM      5  H   UNL     1    -478.456 292.648  -4.177  1.00  0.00     0.345 HD
ATOM      6  H   UNL     1    -477.187 292.570  -3.042  1.00  0.00     0.345 HD
ATOM      7  H   UNL     1    -478.794 292.645  -2.516  1.00  0.00     0.345 HD
ENDBRANCH   3   4
BRANCH   3   8
ATOM      8  C   UNL     1    -477.233 294.993  -4.342  1.00  0.00     0.099 C 
ATOM      9  O   UNL     1    -477.781 295.301  -5.434  1.00  0.00    -0.544 OA
ATOM     10  O   UNL     1    -475.856 295.122  -4.209  1.00  0.00    -0.544 OA
ENDBRANCH   3   8
ENDBRANCH   1   3
BRANCH   1  11
ATOM     11  C   UNL     1    -478.000 294.010  -0.674  1.00  0.00     0.006 C 
ATOM     12  C   UNL     1    -477.003 293.939   0.484  1.00  0.00     0.004 C 
ENDBRANCH   1  11
TORSDOF 4
ENDMDL
