MODEL 1
REMARK VINA RESULT:    -6.846      0.000      0.000
REMARK INTER + INTRA:          -7.335
REMARK INTER:                  -7.246
REMARK INTRA:                  -0.089
REMARK UNBOUND:                -0.089
REMARK SMILES C=C(C)[C@@H]1CC=C(C)C(=O)C1
REMARK SMILES IDX 8 1 7 2 6 3 5 4 4 5 11 6 9 7 10 8 2 9 1 10 3 11
REMARK H PARENT
REMARK Flexibility Score: inf
ROOT
ATOM      1  C   UNL     1     -13.292  10.544   1.493  1.00  0.00     0.048 C 
ATOM      2  C   UNL     1     -13.914  11.908   1.370  1.00  0.00    -0.012 C 
ATOM      3  C   UNL     1     -14.312  12.356   0.167  1.00  0.00    -0.019 C 
ATOM      4  C   UNL     1     -14.957  13.704  -0.008  1.00  0.00     0.036 C 
ATOM      5  C   UNL     1     -14.403  14.722   1.008  1.00  0.00     0.025 C 
ATOM      6  C   UNL     1     -14.558  14.183   2.442  1.00  0.00     0.089 C 
ATOM      7  C   UNL     1     -13.974  12.802   2.554  1.00  0.00     0.158 C 
ATOM      8  O   UNL     1     -13.567  12.397   3.677  1.00  0.00    -0.295 OA
ENDROOT
BRANCH   5   9
ATOM      9  C   UNL     1     -15.054  16.089   0.847  1.00  0.00    -0.077 C 
ATOM     10  C   UNL     1     -14.321  17.186   0.590  1.00  0.00     0.008 C 
ATOM     11  C   UNL     1     -16.549  16.234   0.974  1.00  0.00     0.039 C 
ENDBRANCH   5   9
TORSDOF 1
ENDMDL
MODEL 2
REMARK VINA RESULT:    -6.802      1.402      2.053
REMARK INTER + INTRA:          -7.289
REMARK INTER:                  -7.196
REMARK INTRA:                  -0.093
REMARK UNBOUND:                -0.089
REMARK SMILES C=C(C)[C@@H]1CC=C(C)C(=O)C1
REMARK SMILES IDX 8 1 7 2 6 3 5 4 4 5 11 6 9 7 10 8 2 9 1 10 3 11
REMARK H PARENT
REMARK Flexibility Score: inf
ROOT
ATOM      1  C   UNL     1     -13.937  10.788   2.352  1.00  0.00     0.048 C 
ATOM      2  C   UNL     1     -14.043  12.230   1.938  1.00  0.00    -0.012 C 
ATOM      3  C   UNL     1     -14.018  13.197   2.871  1.00  0.00    -0.019 C 
ATOM      4  C   UNL     1     -14.102  14.656   2.510  1.00  0.00     0.036 C 
ATOM      5  C   UNL     1     -14.971  14.869   1.256  1.00  0.00     0.025 C 
ATOM      6  C   UNL     1     -14.447  14.009   0.091  1.00  0.00     0.089 C 
ATOM      7  C   UNL     1     -14.300  12.575   0.517  1.00  0.00     0.158 C 
ATOM      8  O   UNL     1     -14.360  11.666  -0.355  1.00  0.00    -0.295 OA
ENDROOT
BRANCH   5   9
ATOM      9  C   UNL     1     -15.058  16.341   0.874  1.00  0.00    -0.077 C 
ATOM     10  C   UNL     1     -13.965  17.035   0.513  1.00  0.00     0.008 C 
ATOM     11  C   UNL     1     -16.388  17.051   0.895  1.00  0.00     0.039 C 
ENDBRANCH   5   9
TORSDOF 1
ENDMDL
MODEL 3
REMARK VINA RESULT:    -5.979      1.910      4.848
REMARK INTER + INTRA:          -6.417
REMARK INTER:                  -6.322
REMARK INTRA:                  -0.095
REMARK UNBOUND:                -0.089
REMARK SMILES C=C(C)[C@@H]1CC=C(C)C(=O)C1
REMARK SMILES IDX 8 1 7 2 6 3 5 4 4 5 11 6 9 7 10 8 2 9 1 10 3 11
REMARK H PARENT
REMARK Flexibility Score: inf
ROOT
ATOM      1  C   UNL     1     -15.119  16.077   1.125  1.00  0.00     0.048 C 
ATOM      2  C   UNL     1     -14.752  14.753   1.737  1.00  0.00    -0.012 C 
ATOM      3  C   UNL     1     -14.693  14.627   3.074  1.00  0.00    -0.019 C 
ATOM      4  C   UNL     1     -14.348  13.320   3.737  1.00  0.00     0.036 C 
ATOM      5  C   UNL     1     -13.363  12.504   2.879  1.00  0.00     0.025 C 
ATOM      6  C   UNL     1     -13.927  12.306   1.460  1.00  0.00     0.089 C 
ATOM      7  C   UNL     1     -14.335  13.626   0.865  1.00  0.00     0.158 C 
ATOM      8  O   UNL     1     -14.354  13.753  -0.390  1.00  0.00    -0.295 OA
ENDROOT
BRANCH   5   9
ATOM      9  C   UNL     1     -13.012  11.175   3.535  1.00  0.00    -0.077 C 
ATOM     10  C   UNL     1     -12.932  11.055   4.872  1.00  0.00     0.008 C 
ATOM     11  C   UNL     1     -12.747   9.959   2.685  1.00  0.00     0.039 C 
ENDBRANCH   5   9
TORSDOF 1
ENDMDL
MODEL 4
REMARK VINA RESULT:    -5.767      1.690      2.754
REMARK INTER + INTRA:          -6.193
REMARK INTER:                  -6.097
REMARK INTRA:                  -0.096
REMARK UNBOUND:                -0.089
REMARK SMILES C=C(C)[C@@H]1CC=C(C)C(=O)C1
REMARK SMILES IDX 8 1 7 2 6 3 5 4 4 5 11 6 9 7 10 8 2 9 1 10 3 11
REMARK H PARENT
REMARK Flexibility Score: inf
ROOT
ATOM      1  C   UNL     1     -12.514  10.138   5.037  1.00  0.00     0.048 C 
ATOM      2  C   UNL     1     -13.134  11.019   3.988  1.00  0.00    -0.012 C 
ATOM      3  C   UNL     1     -13.304  10.553   2.739  1.00  0.00    -0.019 C 
ATOM      4  C   UNL     1     -13.937  11.386   1.656  1.00  0.00     0.036 C 
ATOM      5  C   UNL     1     -13.613  12.880   1.845  1.00  0.00     0.025 C 
ATOM      6  C   UNL     1     -14.029  13.343   3.254  1.00  0.00     0.089 C 
ATOM      7  C   UNL     1     -13.443  12.437   4.302  1.00  0.00     0.158 C 
ATOM      8  O   UNL     1     -13.250  12.886   5.464  1.00  0.00    -0.295 OA
ENDROOT
BRANCH   5   9
ATOM      9  C   UNL     1     -14.255  13.736   0.761  1.00  0.00    -0.077 C 
ATOM     10  C   UNL     1     -14.624  13.209  -0.419  1.00  0.00     0.008 C 
ATOM     11  C   UNL     1     -14.490  15.206   0.997  1.00  0.00     0.039 C 
ENDBRANCH   5   9
TORSDOF 1
ENDMDL
MODEL 5
REMARK VINA RESULT:    -5.763      2.128      4.558
REMARK INTER + INTRA:          -6.189
REMARK INTER:                  -6.095
REMARK INTRA:                  -0.094
REMARK UNBOUND:                -0.089
REMARK SMILES C=C(C)[C@@H]1CC=C(C)C(=O)C1
REMARK SMILES IDX 8 1 7 2 6 3 5 4 4 5 11 6 9 7 10 8 2 9 1 10 3 11
REMARK H PARENT
REMARK Flexibility Score: inf
ROOT
ATOM      1  C   UNL     1     -15.040  13.236  -0.602  1.00  0.00     0.048 C 
ATOM      2  C   UNL     1     -14.382  12.764   0.666  1.00  0.00    -0.012 C 
ATOM      3  C   UNL     1     -14.017  11.477   0.791  1.00  0.00    -0.019 C 
ATOM      4  C   UNL     1     -13.340  10.957   2.031  1.00  0.00     0.036 C 
ATOM      5  C   UNL     1     -13.825  11.707   3.286  1.00  0.00     0.025 C 
ATOM      6  C   UNL     1     -13.632  13.225   3.108  1.00  0.00     0.089 C 
ATOM      7  C   UNL     1     -14.252  13.690   1.820  1.00  0.00     0.158 C 
ATOM      8  O   UNL     1     -14.628  14.889   1.717  1.00  0.00    -0.295 OA
ENDROOT
BRANCH   5   9
ATOM      9  C   UNL     1     -13.140  11.196   4.546  1.00  0.00    -0.077 C 
ATOM     10  C   UNL     1     -13.054   9.882   4.811  1.00  0.00     0.008 C 
ATOM     11  C   UNL     1     -12.541  12.170   5.529  1.00  0.00     0.039 C 
ENDBRANCH   5   9
TORSDOF 1
ENDMDL
MODEL 6
REMARK VINA RESULT:    -5.702      1.920      3.583
REMARK INTER + INTRA:          -6.124
REMARK INTER:                  -6.027
REMARK INTRA:                  -0.096
REMARK UNBOUND:                -0.089
REMARK SMILES C=C(C)[C@@H]1CC=C(C)C(=O)C1
REMARK SMILES IDX 8 1 7 2 6 3 5 4 4 5 11 6 9 7 10 8 2 9 1 10 3 11
REMARK H PARENT
REMARK Flexibility Score: inf
ROOT
ATOM      1  C   UNL     1     -13.079  12.188   6.270  1.00  0.00     0.048 C 
ATOM      2  C   UNL     1     -13.223  12.401   4.787  1.00  0.00    -0.012 C 
ATOM      3  C   UNL     1     -13.700  13.568   4.322  1.00  0.00    -0.019 C 
ATOM      4  C   UNL     1     -13.847  13.839   2.849  1.00  0.00     0.036 C 
ATOM      5  C   UNL     1     -14.183  12.548   2.077  1.00  0.00     0.025 C 
ATOM      6  C   UNL     1     -13.131  11.463   2.368  1.00  0.00     0.089 C 
ATOM      7  C   UNL     1     -12.956  11.280   3.851  1.00  0.00     0.158 C 
ATOM      8  O   UNL     1     -12.543  10.172   4.289  1.00  0.00    -0.295 OA
ENDROOT
BRANCH   5   9
ATOM      9  C   UNL     1     -14.326  12.807   0.583  1.00  0.00    -0.077 C 
ATOM     10  C   UNL     1     -14.212  14.046   0.074  1.00  0.00     0.008 C 
ATOM     11  C   UNL     1     -14.600  11.663  -0.360  1.00  0.00     0.039 C 
ENDBRANCH   5   9
TORSDOF 1
ENDMDL
MODEL 7
REMARK VINA RESULT:    -5.593      2.256      4.531
REMARK INTER + INTRA:          -6.008
REMARK INTER:                  -5.915
REMARK INTRA:                  -0.093
REMARK UNBOUND:                -0.089
REMARK SMILES C=C(C)[C@@H]1CC=C(C)C(=O)C1
REMARK SMILES IDX 8 1 7 2 6 3 5 4 4 5 11 6 9 7 10 8 2 9 1 10 3 11
REMARK H PARENT
REMARK Flexibility Score: inf
ROOT
ATOM      1  C   UNL     1     -14.554  13.730  -0.324  1.00  0.00     0.048 C 
ATOM      2  C   UNL     1     -14.341  13.254   1.086  1.00  0.00    -0.012 C 
ATOM      3  C   UNL     1     -14.328  14.140   2.097  1.00  0.00    -0.019 C 
ATOM      4  C   UNL     1     -14.137  13.715   3.528  1.00  0.00     0.036 C 
ATOM      5  C   UNL     1     -13.221  12.480   3.623  1.00  0.00     0.025 C 
ATOM      6  C   UNL     1     -13.769  11.340   2.745  1.00  0.00     0.089 C 
ATOM      7  C   UNL     1     -14.023  11.827   1.345  1.00  0.00     0.158 C 
ATOM      8  O   UNL     1     -13.999  11.000   0.393  1.00  0.00    -0.295 OA
ENDROOT
BRANCH   5   9
ATOM      9  C   UNL     1     -13.027  12.033   5.066  1.00  0.00    -0.077 C 
ATOM     10  C   UNL     1     -12.552  12.875   6.000  1.00  0.00     0.008 C 
ATOM     11  C   UNL     1     -13.370  10.623   5.475  1.00  0.00     0.039 C 
ENDBRANCH   5   9
TORSDOF 1
ENDMDL
MODEL 8
REMARK VINA RESULT:    -5.385      1.328      4.552
REMARK INTER + INTRA:          -5.788
REMARK INTER:                  -5.694
REMARK INTRA:                  -0.094
REMARK UNBOUND:                -0.089
REMARK SMILES C=C(C)[C@@H]1CC=C(C)C(=O)C1
REMARK SMILES IDX 8 1 7 2 6 3 5 4 4 5 11 6 9 7 10 8 2 9 1 10 3 11
REMARK H PARENT
REMARK Flexibility Score: inf
ROOT
ATOM      1  C   UNL     1     -15.586  15.487   0.753  1.00  0.00     0.048 C 
ATOM      2  C   UNL     1     -14.795  14.270   1.150  1.00  0.00    -0.012 C 
ATOM      3  C   UNL     1     -14.684  13.237   0.298  1.00  0.00    -0.019 C 
ATOM      4  C   UNL     1     -13.890  12.005   0.639  1.00  0.00     0.036 C 
ATOM      5  C   UNL     1     -13.944  11.708   2.149  1.00  0.00     0.025 C 
ATOM      6  C   UNL     1     -13.483  12.939   2.952  1.00  0.00     0.089 C 
ATOM      7  C   UNL     1     -14.244  14.163   2.525  1.00  0.00     0.158 C 
ATOM      8  O   UNL     1     -14.379  15.118   3.339  1.00  0.00    -0.295 OA
ENDROOT
BRANCH   5   9
ATOM      9  C   UNL     1     -13.136  10.468   2.509  1.00  0.00    -0.077 C 
ATOM     10  C   UNL     1     -13.261   9.875   3.709  1.00  0.00     0.008 C 
ATOM     11  C   UNL     1     -12.172   9.878   1.511  1.00  0.00     0.039 C 
ENDBRANCH   5   9
TORSDOF 1
ENDMDL
MODEL 9
REMARK VINA RESULT:    -4.980      3.931      6.045
REMARK INTER + INTRA:          -5.360
REMARK INTER:                  -5.265
REMARK INTRA:                  -0.095
REMARK UNBOUND:                -0.089
REMARK SMILES C=C(C)[C@@H]1CC=C(C)C(=O)C1
REMARK SMILES IDX 8 1 7 2 6 3 5 4 4 5 11 6 9 7 10 8 2 9 1 10 3 11
REMARK H PARENT
REMARK Flexibility Score: inf
ROOT
ATOM      1  C   UNL     1     -13.668  11.683   1.976  1.00  0.00     0.048 C 
ATOM      2  C   UNL     1     -13.323  11.621   3.439  1.00  0.00    -0.012 C 
ATOM      3  C   UNL     1     -13.043  10.438   4.011  1.00  0.00    -0.019 C 
ATOM      4  C   UNL     1     -12.674  10.323   5.466  1.00  0.00     0.036 C 
ATOM      5  C   UNL     1     -13.395  11.393   6.308  1.00  0.00     0.025 C 
ATOM      6  C   UNL     1     -13.111  12.797   5.743  1.00  0.00     0.089 C 
ATOM      7  C   UNL     1     -13.415  12.847   4.271  1.00  0.00     0.158 C 
ATOM      8  O   UNL     1     -13.714  13.952   3.743  1.00  0.00    -0.295 OA
ENDROOT
BRANCH   5   9
ATOM      9  C   UNL     1     -13.024  11.294   7.781  1.00  0.00    -0.077 C 
ATOM     10  C   UNL     1     -11.849  10.773   8.173  1.00  0.00     0.008 C 
ATOM     11  C   UNL     1     -13.982  11.784   8.837  1.00  0.00     0.039 C 
ENDBRANCH   5   9
TORSDOF 1
ENDMDL
