MODEL 1
REMARK VINA RESULT:    -4.778      0.000      0.000
REMARK INTER + INTRA:         -12.399
REMARK INTER:                 -10.364
REMARK INTRA:                  -2.035
REMARK UNBOUND:                -2.035
REMARK SMILES CCCCCCCCCCCCCCCCCCCCCC(=O)[O-]
REMARK SMILES IDX 12 1 11 2 10 3 9 4 8 5 7 6 6 7 5 8 4 9 3 10 2 11 1 12 13 13
REMARK SMILES IDX 14 14 15 15 16 16 17 17 18 18 19 19 20 20 21 21 22 22 23 23
REMARK SMILES IDX 24 24
REMARK H PARENT
REMARK Flexibility Score: inf
ROOT
ATOM      1  C   UNL     1      12.701  11.003  13.357  1.00  0.00     0.000 C 
ENDROOT
BRANCH   1   2
ATOM      2  C   UNL     1      13.741  11.941  13.995  1.00  0.00     0.000 C 
BRANCH   2   3
ATOM      3  C   UNL     1      14.588  11.241  15.071  1.00  0.00     0.000 C 
BRANCH   3   4
ATOM      4  C   UNL     1      14.532  11.967  16.426  1.00  0.00    -0.000 C 
BRANCH   4   5
ATOM      5  C   UNL     1      15.926  12.328  16.965  1.00  0.00    -0.000 C 
BRANCH   5   6
ATOM      6  C   UNL     1      16.042  12.135  18.485  1.00  0.00    -0.000 C 
BRANCH   6   7
ATOM      7  C   UNL     1      17.447  11.659  18.875  1.00  0.00    -0.000 C 
BRANCH   7   8
ATOM      8  C   UNL     1      18.522  12.584  18.285  1.00  0.00    -0.000 C 
BRANCH   8   9
ATOM      9  C   UNL     1      19.357  11.902  17.189  1.00  0.00    -0.000 C 
BRANCH   9  10
ATOM     10  C   UNL     1      19.243  12.619  15.832  1.00  0.00    -0.000 C 
BRANCH  10  11
ATOM     11  C   UNL     1      18.701  11.700  14.726  1.00  0.00    -0.003 C 
ATOM     12  C   UNL     1      18.293  12.466  13.467  1.00  0.00     0.004 C 
ENDBRANCH  10  11
ENDBRANCH   9  10
ENDBRANCH   8   9
ENDBRANCH   7   8
ENDBRANCH   6   7
ENDBRANCH   5   6
ENDBRANCH   4   5
ENDBRANCH   3   4
ENDBRANCH   2   3
ENDBRANCH   1   2
BRANCH   1  13
ATOM     13  C   UNL     1      11.261  11.499  13.564  1.00  0.00     0.000 C 
BRANCH  13  14
ATOM     14  C   UNL     1      10.357  11.194  12.357  1.00  0.00     0.000 C 
BRANCH  14  15
ATOM     15  C   UNL     1       9.201  12.196  12.217  1.00  0.00     0.000 C 
BRANCH  15  16
ATOM     16  C   UNL     1       9.330  13.383  13.187  1.00  0.00     0.000 C 
BRANCH  16  17
ATOM     17  C   UNL     1       9.404  14.732  12.448  1.00  0.00     0.000 C 
BRANCH  17  18
ATOM     18  C   UNL     1      10.831  15.094  11.976  1.00  0.00     0.000 C 
BRANCH  18  19
ATOM     19  C   UNL     1      11.113  14.716  10.509  1.00  0.00     0.000 C 
BRANCH  19  20
ATOM     20  C   UNL     1      12.599  14.502  10.175  1.00  0.00     0.006 C 
BRANCH  20  21
ATOM     21  C   UNL     1      13.081  13.079  10.491  1.00  0.00     0.053 C 
BRANCH  21  22
ATOM     22  C   UNL     1      12.625  12.128   9.430  1.00  0.00     0.041 C 
ATOM     23  O   UNL     1      12.297  12.557   8.292  1.00  0.00    -0.550 OA
ATOM     24  O   UNL     1      12.601  10.761   9.685  1.00  0.00    -0.550 OA
ENDBRANCH  21  22
ENDBRANCH  20  21
ENDBRANCH  19  20
ENDBRANCH  18  19
ENDBRANCH  17  18
ENDBRANCH  16  17
ENDBRANCH  15  16
ENDBRANCH  14  15
ENDBRANCH  13  14
ENDBRANCH   1  13
TORSDOF 20
ENDMDL
MODEL 2
REMARK VINA RESULT:    -4.691      2.225      8.237
REMARK INTER + INTRA:         -12.211
REMARK INTER:                  -9.863
REMARK INTRA:                  -2.348
REMARK UNBOUND:                -2.035
REMARK SMILES CCCCCCCCCCCCCCCCCCCCCC(=O)[O-]
REMARK SMILES IDX 12 1 11 2 10 3 9 4 8 5 7 6 6 7 5 8 4 9 3 10 2 11 1 12 13 13
REMARK SMILES IDX 14 14 15 15 16 16 17 17 18 18 19 19 20 20 21 21 22 22 23 23
REMARK SMILES IDX 24 24
REMARK H PARENT
REMARK Flexibility Score: inf
ROOT
ATOM      1  C   UNL     1      13.861  11.978  13.948  1.00  0.00     0.000 C 
ENDROOT
BRANCH   1   2
ATOM      2  C   UNL     1      12.814  11.059  13.295  1.00  0.00     0.000 C 
BRANCH   2   3
ATOM      3  C   UNL     1      11.372  11.514  13.572  1.00  0.00     0.000 C 
BRANCH   3   4
ATOM      4  C   UNL     1      10.366  10.923  12.568  1.00  0.00    -0.000 C 
BRANCH   4   5
ATOM      5  C   UNL     1       9.446  11.988  11.951  1.00  0.00    -0.000 C 
BRANCH   5   6
ATOM      6  C   UNL     1       9.533  13.340  12.677  1.00  0.00    -0.000 C 
BRANCH   6   7
ATOM      7  C   UNL     1       9.676  14.495  11.678  1.00  0.00    -0.000 C 
BRANCH   7   8
ATOM      8  C   UNL     1      11.089  15.093  11.731  1.00  0.00    -0.000 C 
BRANCH   8   9
ATOM      9  C   UNL     1      11.823  15.003  10.383  1.00  0.00    -0.000 C 
BRANCH   9  10
ATOM     10  C   UNL     1      11.075  14.126   9.363  1.00  0.00    -0.000 C 
BRANCH  10  11
ATOM     11  C   UNL     1      11.819  12.818   9.054  1.00  0.00    -0.003 C 
ATOM     12  C   UNL     1      13.005  12.576   9.988  1.00  0.00     0.004 C 
ENDBRANCH  10  11
ENDBRANCH   9  10
ENDBRANCH   8   9
ENDBRANCH   7   8
ENDBRANCH   6   7
ENDBRANCH   5   6
ENDBRANCH   4   5
ENDBRANCH   3   4
ENDBRANCH   2   3
ENDBRANCH   1   2
BRANCH   1  13
ATOM     13  C   UNL     1      14.633  11.277  15.077  1.00  0.00     0.000 C 
BRANCH  13  14
ATOM     14  C   UNL     1      14.466  11.987  16.431  1.00  0.00     0.000 C 
BRANCH  14  15
ATOM     15  C   UNL     1      15.810  12.292  17.109  1.00  0.00     0.000 C 
BRANCH  15  16
ATOM     16  C   UNL     1      15.790  11.989  18.617  1.00  0.00     0.000 C 
BRANCH  16  17
ATOM     17  C   UNL     1      17.208  11.852  19.201  1.00  0.00     0.000 C 
BRANCH  17  18
ATOM     18  C   UNL     1      18.292  12.551  18.349  1.00  0.00     0.000 C 
BRANCH  18  19
ATOM     19  C   UNL     1      19.389  11.596  17.839  1.00  0.00     0.000 C 
BRANCH  19  20
ATOM     20  C   UNL     1      19.441  11.436  16.310  1.00  0.00     0.006 C 
BRANCH  20  21
ATOM     21  C   UNL     1      19.075  12.727  15.563  1.00  0.00     0.053 C 
BRANCH  21  22
ATOM     22  C   UNL     1      18.518  12.407  14.212  1.00  0.00     0.041 C 
ATOM     23  O   UNL     1      18.591  13.252  13.281  1.00  0.00    -0.550 OA
ATOM     24  O   UNL     1      17.956  11.159  13.969  1.00  0.00    -0.550 OA
ENDBRANCH  21  22
ENDBRANCH  20  21
ENDBRANCH  19  20
ENDBRANCH  18  19
ENDBRANCH  17  18
ENDBRANCH  16  17
ENDBRANCH  15  16
ENDBRANCH  14  15
ENDBRANCH  13  14
ENDBRANCH   1  13
TORSDOF 20
ENDMDL
MODEL 3
REMARK VINA RESULT:    -4.616      3.169      8.531
REMARK INTER + INTRA:         -12.048
REMARK INTER:                  -9.532
REMARK INTRA:                  -2.516
REMARK UNBOUND:                -2.035
REMARK SMILES CCCCCCCCCCCCCCCCCCCCCC(=O)[O-]
REMARK SMILES IDX 12 1 11 2 10 3 9 4 8 5 7 6 6 7 5 8 4 9 3 10 2 11 1 12 13 13
REMARK SMILES IDX 14 14 15 15 16 16 17 17 18 18 19 19 20 20 21 21 22 22 23 23
REMARK SMILES IDX 24 24
REMARK H PARENT
REMARK Flexibility Score: inf
ROOT
ATOM      1  C   UNL     1      12.428  10.543  12.878  1.00  0.00     0.000 C 
ENDROOT
BRANCH   1   2
ATOM      2  C   UNL     1      10.913  10.814  12.856  1.00  0.00     0.000 C 
BRANCH   2   3
ATOM      3  C   UNL     1      10.443  11.647  14.059  1.00  0.00     0.000 C 
BRANCH   3   4
ATOM      4  C   UNL     1       9.406  12.714  13.666  1.00  0.00    -0.000 C 
BRANCH   4   5
ATOM      5  C   UNL     1       9.002  12.633  12.185  1.00  0.00    -0.000 C 
BRANCH   5   6
ATOM      6  C   UNL     1       9.098  13.989  11.469  1.00  0.00    -0.000 C 
BRANCH   6   7
ATOM      7  C   UNL     1      10.223  14.848  12.062  1.00  0.00    -0.000 C 
BRANCH   7   8
ATOM      8  C   UNL     1      11.376  15.006  11.060  1.00  0.00    -0.000 C 
BRANCH   8   9
ATOM      9  C   UNL     1      12.290  13.770  11.005  1.00  0.00    -0.000 C 
BRANCH   9  10
ATOM     10  C   UNL     1      12.585  13.320   9.564  1.00  0.00    -0.000 C 
BRANCH  10  11
ATOM     11  C   UNL     1      12.468  11.798   9.388  1.00  0.00    -0.003 C 
ATOM     12  C   UNL     1      11.018  11.318   9.321  1.00  0.00     0.004 C 
ENDBRANCH  10  11
ENDBRANCH   9  10
ENDBRANCH   8   9
ENDBRANCH   7   8
ENDBRANCH   6   7
ENDBRANCH   5   6
ENDBRANCH   4   5
ENDBRANCH   3   4
ENDBRANCH   2   3
ENDBRANCH   1   2
BRANCH   1  13
ATOM     13  C   UNL     1      13.197  11.582  13.708  1.00  0.00     0.000 C 
BRANCH  13  14
ATOM     14  C   UNL     1      14.191  10.934  14.686  1.00  0.00     0.000 C 
BRANCH  14  15
ATOM     15  C   UNL     1      15.299  11.900  15.131  1.00  0.00     0.000 C 
BRANCH  15  16
ATOM     16  C   UNL     1      16.624  11.659  14.386  1.00  0.00     0.000 C 
BRANCH  16  17
ATOM     17  C   UNL     1      17.765  12.536  14.931  1.00  0.00     0.000 C 
BRANCH  17  18
ATOM     18  C   UNL     1      19.015  11.728  15.347  1.00  0.00     0.000 C 
BRANCH  18  19
ATOM     19  C   UNL     1      19.655  12.210  16.664  1.00  0.00     0.000 C 
BRANCH  19  20
ATOM     20  C   UNL     1      18.971  11.686  17.939  1.00  0.00     0.006 C 
BRANCH  20  21
ATOM     21  C   UNL     1      17.947  12.675  18.514  1.00  0.00     0.053 C 
BRANCH  21  22
ATOM     22  C   UNL     1      16.807  11.938  19.140  1.00  0.00     0.041 C 
ATOM     23  O   UNL     1      16.971  11.322  20.227  1.00  0.00    -0.550 OA
ATOM     24  O   UNL     1      15.550  11.966  18.547  1.00  0.00    -0.550 OA
ENDBRANCH  21  22
ENDBRANCH  20  21
ENDBRANCH  19  20
ENDBRANCH  18  19
ENDBRANCH  17  18
ENDBRANCH  16  17
ENDBRANCH  15  16
ENDBRANCH  14  15
ENDBRANCH  13  14
ENDBRANCH   1  13
TORSDOF 20
ENDMDL
MODEL 4
REMARK VINA RESULT:    -4.601      0.972      2.064
REMARK INTER + INTRA:         -12.015
REMARK INTER:                  -9.724
REMARK INTRA:                  -2.291
REMARK UNBOUND:                -2.035
REMARK SMILES CCCCCCCCCCCCCCCCCCCCCC(=O)[O-]
REMARK SMILES IDX 12 1 11 2 10 3 9 4 8 5 7 6 6 7 5 8 4 9 3 10 2 11 1 12 13 13
REMARK SMILES IDX 14 14 15 15 16 16 17 17 18 18 19 19 20 20 21 21 22 22 23 23
REMARK SMILES IDX 24 24
REMARK H PARENT
REMARK Flexibility Score: inf
ROOT
ATOM      1  C   UNL     1      14.493  11.051  14.868  1.00  0.00     0.000 C 
ENDROOT
BRANCH   1   2
ATOM      2  C   UNL     1      15.197  11.999  15.855  1.00  0.00     0.000 C 
BRANCH   2   3
ATOM      3  C   UNL     1      14.521  12.025  17.235  1.00  0.00     0.000 C 
BRANCH   3   4
ATOM      4  C   UNL     1      15.401  12.692  18.307  1.00  0.00    -0.000 C 
BRANCH   4   5
ATOM      5  C   UNL     1      16.038  11.677  19.269  1.00  0.00    -0.000 C 
BRANCH   5   6
ATOM      6  C   UNL     1      17.540  11.924  19.483  1.00  0.00    -0.000 C 
BRANCH   6   7
ATOM      7  C   UNL     1      18.208  12.411  18.192  1.00  0.00    -0.000 C 
BRANCH   7   8
ATOM      8  C   UNL     1      19.421  11.537  17.839  1.00  0.00    -0.000 C 
BRANCH   8   9
ATOM      9  C   UNL     1      19.602  11.356  16.323  1.00  0.00    -0.000 C 
BRANCH   9  10
ATOM     10  C   UNL     1      18.796  12.383  15.508  1.00  0.00    -0.000 C 
BRANCH  10  11
ATOM     11  C   UNL     1      18.366  11.839  14.137  1.00  0.00    -0.003 C 
ATOM     12  C   UNL     1      17.924  12.941  13.174  1.00  0.00     0.004 C 
ENDBRANCH  10  11
ENDBRANCH   9  10
ENDBRANCH   8   9
ENDBRANCH   7   8
ENDBRANCH   6   7
ENDBRANCH   5   6
ENDBRANCH   4   5
ENDBRANCH   3   4
ENDBRANCH   2   3
ENDBRANCH   1   2
BRANCH   1  13
ATOM     13  C   UNL     1      13.683  11.809  13.804  1.00  0.00     0.000 C 
BRANCH  13  14
ATOM     14  C   UNL     1      12.613  10.926  13.141  1.00  0.00     0.000 C 
BRANCH  14  15
ATOM     15  C   UNL     1      11.184  11.349  13.513  1.00  0.00     0.000 C 
BRANCH  15  16
ATOM     16  C   UNL     1      10.189  11.137  12.358  1.00  0.00     0.000 C 
BRANCH  16  17
ATOM     17  C   UNL     1       9.100  12.225  12.322  1.00  0.00     0.000 C 
BRANCH  17  18
ATOM     18  C   UNL     1       9.562  13.573  12.920  1.00  0.00     0.000 C 
BRANCH  18  19
ATOM     19  C   UNL     1       9.677  14.705  11.880  1.00  0.00     0.000 C 
BRANCH  19  20
ATOM     20  C   UNL     1      11.109  14.987  11.394  1.00  0.00     0.006 C 
BRANCH  20  21
ATOM     21  C   UNL     1      11.470  14.205  10.123  1.00  0.00     0.053 C 
BRANCH  21  22
ATOM     22  C   UNL     1      12.698  13.381  10.350  1.00  0.00     0.041 C 
ATOM     23  O   UNL     1      12.805  12.243   9.820  1.00  0.00    -0.550 OA
ATOM     24  O   UNL     1      13.744  13.887  11.113  1.00  0.00    -0.550 OA
ENDBRANCH  21  22
ENDBRANCH  20  21
ENDBRANCH  19  20
ENDBRANCH  18  19
ENDBRANCH  17  18
ENDBRANCH  16  17
ENDBRANCH  15  16
ENDBRANCH  14  15
ENDBRANCH  13  14
ENDBRANCH   1  13
TORSDOF 20
ENDMDL
MODEL 5
REMARK VINA RESULT:    -4.588      3.229      8.765
REMARK INTER + INTRA:         -11.987
REMARK INTER:                  -9.306
REMARK INTRA:                  -2.681
REMARK UNBOUND:                -2.035
REMARK SMILES CCCCCCCCCCCCCCCCCCCCCC(=O)[O-]
REMARK SMILES IDX 12 1 11 2 10 3 9 4 8 5 7 6 6 7 5 8 4 9 3 10 2 11 1 12 13 13
REMARK SMILES IDX 14 14 15 15 16 16 17 17 18 18 19 19 20 20 21 21 22 22 23 23
REMARK SMILES IDX 24 24
REMARK H PARENT
REMARK Flexibility Score: inf
ROOT
ATOM      1  C   UNL     1      12.699  11.457  13.811  1.00  0.00     0.000 C 
ENDROOT
BRANCH   1   2
ATOM      2  C   UNL     1      13.037  11.941  12.390  1.00  0.00     0.000 C 
BRANCH   2   3
ATOM      3  C   UNL     1      12.307  11.137  11.302  1.00  0.00     0.000 C 
BRANCH   3   4
ATOM      4  C   UNL     1      11.078  10.389  11.850  1.00  0.00    -0.000 C 
BRANCH   4   5
ATOM      5  C   UNL     1       9.847  10.522  10.940  1.00  0.00    -0.000 C 
BRANCH   5   6
ATOM      6  C   UNL     1       8.934  11.691  11.344  1.00  0.00    -0.000 C 
BRANCH   6   7
ATOM      7  C   UNL     1       8.948  11.901  12.864  1.00  0.00    -0.000 C 
BRANCH   7   8
ATOM      8  C   UNL     1       9.429  13.316  13.216  1.00  0.00    -0.000 C 
BRANCH   8   9
ATOM      9  C   UNL     1       9.428  14.263  12.005  1.00  0.00    -0.000 C 
BRANCH   9  10
ATOM     10  C   UNL     1      10.770  14.995  11.829  1.00  0.00    -0.000 C 
BRANCH  10  11
ATOM     11  C   UNL     1      11.438  14.681  10.481  1.00  0.00    -0.003 C 
ATOM     12  C   UNL     1      10.509  14.915   9.290  1.00  0.00     0.004 C 
ENDBRANCH  10  11
ENDBRANCH   9  10
ENDBRANCH   8   9
ENDBRANCH   7   8
ENDBRANCH   6   7
ENDBRANCH   5   6
ENDBRANCH   4   5
ENDBRANCH   3   4
ENDBRANCH   2   3
ENDBRANCH   1   2
BRANCH   1  13
ATOM     13  C   UNL     1      13.751  11.893  14.843  1.00  0.00     0.000 C 
BRANCH  13  14
ATOM     14  C   UNL     1      15.054  11.083  14.731  1.00  0.00     0.000 C 
BRANCH  14  15
ATOM     15  C   UNL     1      16.301  11.925  15.040  1.00  0.00     0.000 C 
BRANCH  15  16
ATOM     16  C   UNL     1      17.124  12.243  13.780  1.00  0.00     0.000 C 
BRANCH  16  17
ATOM     17  C   UNL     1      18.634  12.303  14.071  1.00  0.00     0.000 C 
BRANCH  17  18
ATOM     18  C   UNL     1      19.005  11.808  15.488  1.00  0.00     0.000 C 
BRANCH  18  19
ATOM     19  C   UNL     1      19.589  12.908  16.395  1.00  0.00     0.000 C 
BRANCH  19  20
ATOM     20  C   UNL     1      18.835  13.115  17.720  1.00  0.00     0.006 C 
BRANCH  20  21
ATOM     21  C   UNL     1      18.297  11.803  18.310  1.00  0.00     0.053 C 
BRANCH  21  22
ATOM     22  C   UNL     1      17.016  12.048  19.041  1.00  0.00     0.041 C 
ATOM     23  O   UNL     1      15.930  12.130  18.407  1.00  0.00    -0.550 OA
ATOM     24  O   UNL     1      17.013  12.144  20.428  1.00  0.00    -0.550 OA
ENDBRANCH  21  22
ENDBRANCH  20  21
ENDBRANCH  19  20
ENDBRANCH  18  19
ENDBRANCH  17  18
ENDBRANCH  16  17
ENDBRANCH  15  16
ENDBRANCH  14  15
ENDBRANCH  13  14
ENDBRANCH   1  13
TORSDOF 20
ENDMDL
MODEL 6
REMARK VINA RESULT:    -4.569      2.350      8.405
REMARK INTER + INTRA:         -11.946
REMARK INTER:                  -9.596
REMARK INTRA:                  -2.350
REMARK UNBOUND:                -2.035
REMARK SMILES CCCCCCCCCCCCCCCCCCCCCC(=O)[O-]
REMARK SMILES IDX 12 1 11 2 10 3 9 4 8 5 7 6 6 7 5 8 4 9 3 10 2 11 1 12 13 13
REMARK SMILES IDX 14 14 15 15 16 16 17 17 18 18 19 19 20 20 21 21 22 22 23 23
REMARK SMILES IDX 24 24
REMARK H PARENT
REMARK Flexibility Score: inf
ROOT
ATOM      1  C   UNL     1      13.273  11.896  13.315  1.00  0.00     0.000 C 
ENDROOT
BRANCH   1   2
ATOM      2  C   UNL     1      12.522  10.880  12.437  1.00  0.00     0.000 C 
BRANCH   2   3
ATOM      3  C   UNL     1      10.995  11.014  12.552  1.00  0.00     0.000 C 
BRANCH   3   4
ATOM      4  C   UNL     1      10.277  10.706  11.226  1.00  0.00    -0.000 C 
BRANCH   4   5
ATOM      5  C   UNL     1      11.197  10.851  10.004  1.00  0.00    -0.000 C 
BRANCH   5   6
ATOM      6  C   UNL     1      10.590  11.736   8.905  1.00  0.00    -0.000 C 
BRANCH   6   7
ATOM      7  C   UNL     1      11.524  12.900   8.555  1.00  0.00    -0.000 C 
BRANCH   7   8
ATOM      8  C   UNL     1      12.671  13.007   9.571  1.00  0.00    -0.000 C 
BRANCH   8   9
ATOM      9  C   UNL     1      12.529  14.224  10.500  1.00  0.00    -0.000 C 
BRANCH   9  10
ATOM     10  C   UNL     1      11.078  14.725  10.597  1.00  0.00    -0.000 C 
BRANCH  10  11
ATOM     11  C   UNL     1      10.723  15.232  12.003  1.00  0.00    -0.003 C 
ATOM     12  C   UNL     1       9.549  14.476  12.627  1.00  0.00     0.004 C 
ENDBRANCH  10  11
ENDBRANCH   9  10
ENDBRANCH   8   9
ENDBRANCH   7   8
ENDBRANCH   6   7
ENDBRANCH   5   6
ENDBRANCH   4   5
ENDBRANCH   3   4
ENDBRANCH   2   3
ENDBRANCH   1   2
BRANCH   1  13
ATOM     13  C   UNL     1      14.124  11.217  14.400  1.00  0.00     0.000 C 
BRANCH  13  14
ATOM     14  C   UNL     1      14.061  11.959  15.746  1.00  0.00     0.000 C 
BRANCH  14  15
ATOM     15  C   UNL     1      15.408  11.957  16.486  1.00  0.00     0.000 C 
BRANCH  15  16
ATOM     16  C   UNL     1      15.264  12.339  17.969  1.00  0.00     0.000 C 
BRANCH  16  17
ATOM     17  C   UNL     1      16.475  11.887  18.805  1.00  0.00     0.000 C 
BRANCH  17  18
ATOM     18  C   UNL     1      17.791  12.596  18.411  1.00  0.00     0.000 C 
BRANCH  18  19
ATOM     19  C   UNL     1      18.948  11.626  18.100  1.00  0.00     0.000 C 
BRANCH  19  20
ATOM     20  C   UNL     1      19.431  11.650  16.640  1.00  0.00     0.006 C 
BRANCH  20  21
ATOM     21  C   UNL     1      18.821  12.804  15.831  1.00  0.00     0.053 C 
BRANCH  21  22
ATOM     22  C   UNL     1      18.631  12.396  14.404  1.00  0.00     0.041 C 
ATOM     23  O   UNL     1      19.147  13.075  13.477  1.00  0.00    -0.550 OA
ATOM     24  O   UNL     1      17.919  11.242  14.099  1.00  0.00    -0.550 OA
ENDBRANCH  21  22
ENDBRANCH  20  21
ENDBRANCH  19  20
ENDBRANCH  18  19
ENDBRANCH  17  18
ENDBRANCH  16  17
ENDBRANCH  15  16
ENDBRANCH  14  15
ENDBRANCH  13  14
ENDBRANCH   1  13
TORSDOF 20
ENDMDL
MODEL 7
REMARK VINA RESULT:    -4.568      3.176      8.827
REMARK INTER + INTRA:         -11.944
REMARK INTER:                  -9.452
REMARK INTRA:                  -2.492
REMARK UNBOUND:                -2.035
REMARK SMILES CCCCCCCCCCCCCCCCCCCCCC(=O)[O-]
REMARK SMILES IDX 12 1 11 2 10 3 9 4 8 5 7 6 6 7 5 8 4 9 3 10 2 11 1 12 13 13
REMARK SMILES IDX 14 14 15 15 16 16 17 17 18 18 19 19 20 20 21 21 22 22 23 23
REMARK SMILES IDX 24 24
REMARK H PARENT
REMARK Flexibility Score: inf
ROOT
ATOM      1  C   UNL     1      12.749  11.187  13.395  1.00  0.00     0.000 C 
ENDROOT
BRANCH   1   2
ATOM      2  C   UNL     1      11.307  11.571  13.774  1.00  0.00     0.000 C 
BRANCH   2   3
ATOM      3  C   UNL     1      10.259  10.666  13.108  1.00  0.00     0.000 C 
BRANCH   3   4
ATOM      4  C   UNL     1       9.702  11.270  11.807  1.00  0.00    -0.000 C 
BRANCH   4   5
ATOM      5  C   UNL     1      10.299  10.623  10.547  1.00  0.00    -0.000 C 
BRANCH   5   6
ATOM      6  C   UNL     1      10.158  11.510   9.300  1.00  0.00    -0.000 C 
BRANCH   6   7
ATOM      7  C   UNL     1      11.527  11.806   8.675  1.00  0.00    -0.000 C 
BRANCH   7   8
ATOM      8  C   UNL     1      12.589  12.029   9.762  1.00  0.00    -0.000 C 
BRANCH   8   9
ATOM      9  C   UNL     1      12.907  13.516   9.985  1.00  0.00    -0.000 C 
BRANCH   9  10
ATOM     10  C   UNL     1      12.362  14.041  11.325  1.00  0.00    -0.000 C 
BRANCH  10  11
ATOM     11  C   UNL     1      11.170  14.993  11.143  1.00  0.00    -0.003 C 
ATOM     12  C   UNL     1      10.108  14.828  12.230  1.00  0.00     0.004 C 
ENDBRANCH  10  11
ENDBRANCH   9  10
ENDBRANCH   8   9
ENDBRANCH   7   8
ENDBRANCH   6   7
ENDBRANCH   5   6
ENDBRANCH   4   5
ENDBRANCH   3   4
ENDBRANCH   2   3
ENDBRANCH   1   2
BRANCH   1  13
ATOM     13  C   UNL     1      13.795  12.003  14.169  1.00  0.00     0.000 C 
BRANCH  13  14
ATOM     14  C   UNL     1      14.925  11.125  14.734  1.00  0.00     0.000 C 
BRANCH  14  15
ATOM     15  C   UNL     1      16.108  11.950  15.261  1.00  0.00     0.000 C 
BRANCH  15  16
ATOM     16  C   UNL     1      17.256  12.051  14.241  1.00  0.00     0.000 C 
BRANCH  16  17
ATOM     17  C   UNL     1      18.612  11.651  14.850  1.00  0.00     0.000 C 
BRANCH  17  18
ATOM     18  C   UNL     1      19.243  12.760  15.722  1.00  0.00     0.000 C 
BRANCH  18  19
ATOM     19  C   UNL     1      19.904  12.233  17.012  1.00  0.00     0.000 C 
BRANCH  19  20
ATOM     20  C   UNL     1      18.924  11.642  18.040  1.00  0.00     0.006 C 
BRANCH  20  21
ATOM     21  C   UNL     1      17.866  12.654  18.504  1.00  0.00     0.053 C 
BRANCH  21  22
ATOM     22  C   UNL     1      16.708  11.946  19.132  1.00  0.00     0.041 C 
ATOM     23  O   UNL     1      16.866  11.298  20.201  1.00  0.00    -0.550 OA
ATOM     24  O   UNL     1      15.444  12.035  18.561  1.00  0.00    -0.550 OA
ENDBRANCH  21  22
ENDBRANCH  20  21
ENDBRANCH  19  20
ENDBRANCH  18  19
ENDBRANCH  17  18
ENDBRANCH  16  17
ENDBRANCH  15  16
ENDBRANCH  14  15
ENDBRANCH  13  14
ENDBRANCH   1  13
TORSDOF 20
ENDMDL
MODEL 8
REMARK VINA RESULT:    -4.507      1.129      3.080
REMARK INTER + INTRA:         -11.812
REMARK INTER:                  -9.589
REMARK INTRA:                  -2.223
REMARK UNBOUND:                -2.035
REMARK SMILES CCCCCCCCCCCCCCCCCCCCCC(=O)[O-]
REMARK SMILES IDX 12 1 11 2 10 3 9 4 8 5 7 6 6 7 5 8 4 9 3 10 2 11 1 12 13 13
REMARK SMILES IDX 14 14 15 15 16 16 17 17 18 18 19 19 20 20 21 21 22 22 23 23
REMARK SMILES IDX 24 24
REMARK H PARENT
REMARK Flexibility Score: inf
ROOT
ATOM      1  C   UNL     1      13.966  11.897  13.945  1.00  0.00     0.000 C 
ENDROOT
BRANCH   1   2
ATOM      2  C   UNL     1      14.750  11.194  15.067  1.00  0.00     0.000 C 
BRANCH   2   3
ATOM      3  C   UNL     1      16.044  11.936  15.439  1.00  0.00     0.000 C 
BRANCH   3   4
ATOM      4  C   UNL     1      17.066  11.947  14.288  1.00  0.00    -0.000 C 
BRANCH   4   5
ATOM      5  C   UNL     1      18.505  11.696  14.768  1.00  0.00    -0.000 C 
BRANCH   5   6
ATOM      6  C   UNL     1      19.255  12.995  15.099  1.00  0.00    -0.000 C 
BRANCH   6   7
ATOM      7  C   UNL     1      19.723  13.005  16.560  1.00  0.00    -0.000 C 
BRANCH   7   8
ATOM      8  C   UNL     1      19.713  11.586  17.148  1.00  0.00    -0.000 C 
BRANCH   8   9
ATOM      9  C   UNL     1      18.846  11.473  18.412  1.00  0.00    -0.000 C 
BRANCH   9  10
ATOM     10  C   UNL     1      17.863  12.648  18.559  1.00  0.00    -0.000 C 
BRANCH  10  11
ATOM     11  C   UNL     1      16.532  12.225  19.200  1.00  0.00    -0.003 C 
ATOM     12  C   UNL     1      16.709  11.170  20.293  1.00  0.00     0.004 C 
ENDBRANCH  10  11
ENDBRANCH   9  10
ENDBRANCH   8   9
ENDBRANCH   7   8
ENDBRANCH   6   7
ENDBRANCH   5   6
ENDBRANCH   4   5
ENDBRANCH   3   4
ENDBRANCH   2   3
ENDBRANCH   1   2
BRANCH   1  13
ATOM     13  C   UNL     1      12.670  11.154  13.583  1.00  0.00     0.000 C 
BRANCH  13  14
ATOM     14  C   UNL     1      12.501  10.975  12.065  1.00  0.00     0.000 C 
BRANCH  14  15
ATOM     15  C   UNL     1      11.318  10.063  11.705  1.00  0.00     0.000 C 
BRANCH  15  16
ATOM     16  C   UNL     1      10.188  10.820  10.986  1.00  0.00     0.000 C 
BRANCH  16  17
ATOM     17  C   UNL     1       9.275  11.572  11.971  1.00  0.00     0.000 C 
BRANCH  17  18
ATOM     18  C   UNL     1       9.250  13.100  11.738  1.00  0.00     0.000 C 
BRANCH  18  19
ATOM     19  C   UNL     1      10.588  13.796  12.055  1.00  0.00     0.000 C 
BRANCH  19  20
ATOM     20  C   UNL     1      10.997  14.888  11.051  1.00  0.00     0.006 C 
BRANCH  20  21
ATOM     21  C   UNL     1      12.277  14.536  10.279  1.00  0.00     0.053 C 
BRANCH  21  22
ATOM     22  C   UNL     1      11.982  13.522   9.219  1.00  0.00     0.041 C 
ATOM     23  O   UNL     1      12.762  12.549   9.038  1.00  0.00    -0.550 OA
ATOM     24  O   UNL     1      10.824  13.628   8.458  1.00  0.00    -0.550 OA
ENDBRANCH  21  22
ENDBRANCH  20  21
ENDBRANCH  19  20
ENDBRANCH  18  19
ENDBRANCH  17  18
ENDBRANCH  16  17
ENDBRANCH  15  16
ENDBRANCH  14  15
ENDBRANCH  13  14
ENDBRANCH   1  13
TORSDOF 20
ENDMDL
MODEL 9
REMARK VINA RESULT:    -4.504      2.613      4.403
REMARK INTER + INTRA:         -11.804
REMARK INTER:                  -9.820
REMARK INTRA:                  -1.984
REMARK UNBOUND:                -2.035
REMARK SMILES CCCCCCCCCCCCCCCCCCCCCC(=O)[O-]
REMARK SMILES IDX 12 1 11 2 10 3 9 4 8 5 7 6 6 7 5 8 4 9 3 10 2 11 1 12 13 13
REMARK SMILES IDX 14 14 15 15 16 16 17 17 18 18 19 19 20 20 21 21 22 22 23 23
REMARK SMILES IDX 24 24
REMARK H PARENT
REMARK Flexibility Score: inf
ROOT
ATOM      1  C   UNL     1      13.246  12.496  12.367  1.00  0.00     0.000 C 
ENDROOT
BRANCH   1   2
ATOM      2  C   UNL     1      12.978  11.637  13.616  1.00  0.00     0.000 C 
BRANCH   2   3
ATOM      3  C   UNL     1      14.269  11.099  14.252  1.00  0.00     0.000 C 
BRANCH   3   4
ATOM      4  C   UNL     1      14.620  11.817  15.567  1.00  0.00    -0.000 C 
BRANCH   4   5
ATOM      5  C   UNL     1      16.135  11.984  15.768  1.00  0.00    -0.000 C 
BRANCH   5   6
ATOM      6  C   UNL     1      16.937  11.702  14.488  1.00  0.00    -0.000 C 
BRANCH   6   7
ATOM      7  C   UNL     1      18.446  11.767  14.758  1.00  0.00    -0.000 C 
BRANCH   7   8
ATOM      8  C   UNL     1      18.765  12.814  15.835  1.00  0.00    -0.000 C 
BRANCH   8   9
ATOM      9  C   UNL     1      19.776  12.306  16.876  1.00  0.00    -0.000 C 
BRANCH   9  10
ATOM     10  C   UNL     1      19.094  11.615  18.070  1.00  0.00    -0.000 C 
BRANCH  10  11
ATOM     11  C   UNL     1      17.828  12.353  18.534  1.00  0.00    -0.003 C 
ATOM     12  C   UNL     1      17.195  11.723  19.774  1.00  0.00     0.004 C 
ENDBRANCH  10  11
ENDBRANCH   9  10
ENDBRANCH   8   9
ENDBRANCH   7   8
ENDBRANCH   6   7
ENDBRANCH   5   6
ENDBRANCH   4   5
ENDBRANCH   3   4
ENDBRANCH   2   3
ENDBRANCH   1   2
BRANCH   1  13
ATOM     13  C   UNL     1      12.592  11.913  11.104  1.00  0.00     0.000 C 
BRANCH  13  14
ATOM     14  C   UNL     1      12.449  12.956   9.983  1.00  0.00     0.000 C 
BRANCH  14  15
ATOM     15  C   UNL     1      12.497  14.399  10.508  1.00  0.00     0.000 C 
BRANCH  15  16
ATOM     16  C   UNL     1      11.095  15.013  10.670  1.00  0.00     0.000 C 
BRANCH  16  17
ATOM     17  C   UNL     1      10.588  14.927  12.120  1.00  0.00     0.000 C 
BRANCH  17  18
ATOM     18  C   UNL     1       9.253  14.159  12.258  1.00  0.00     0.000 C 
BRANCH  18  19
ATOM     19  C   UNL     1       9.411  12.745  12.850  1.00  0.00     0.000 C 
BRANCH  19  20
ATOM     20  C   UNL     1       9.115  12.642  14.356  1.00  0.00     0.006 C 
BRANCH  20  21
ATOM     21  C   UNL     1       8.895  11.195  14.821  1.00  0.00     0.053 C 
BRANCH  21  22
ATOM     22  C   UNL     1       9.270  11.049  16.262  1.00  0.00     0.041 C 
ATOM     23  O   UNL     1       8.875  10.051  16.922  1.00  0.00    -0.550 OA
ATOM     24  O   UNL     1      10.091  11.994  16.867  1.00  0.00    -0.550 OA
ENDBRANCH  21  22
ENDBRANCH  20  21
ENDBRANCH  19  20
ENDBRANCH  18  19
ENDBRANCH  17  18
ENDBRANCH  16  17
ENDBRANCH  15  16
ENDBRANCH  14  15
ENDBRANCH  13  14
ENDBRANCH   1  13
TORSDOF 20
ENDMDL
