MODEL 1
REMARK VINA RESULT:    -8.060      0.000      0.000
REMARK INTER + INTRA:         -11.177
REMARK INTER:                 -10.180
REMARK INTRA:                  -0.997
REMARK UNBOUND:                -0.997
REMARK SMILES CC(C)[C@H](C)C=C[C@@H](C)[C@H]1CC[C@H]2C3=CC=C4C[C@H](O)CC[C@]4(C)[C@H]3CC[C@@]12C
REMARK SMILES IDX 8 1 9 2 7 3 6 4 4 5 5 6 2 7 1 8 3 9 10 10 11 11 28 12 12 13
REMARK SMILES IDX 13 14 27 15 29 16 14 17 26 18 25 19 15 20 23 21 16 22 17 23
REMARK SMILES IDX 22 24 24 25 18 26 21 27 19 28 20 29
REMARK H PARENT 20 30
REMARK Flexibility Score: inf
ROOT
ATOM      1  C   UNL     1      14.060 -31.899  21.282  1.00  0.00     0.012 C 
ATOM      2  C   UNL     1      13.142 -31.958  20.054  1.00  0.00     0.012 C 
ENDROOT
BRANCH   1   3
ATOM      3  C   UNL     1      13.914 -30.527  21.907  1.00  0.00    -0.028 C 
ATOM      4  C   UNL     1      13.214 -30.334  23.037  1.00  0.00    -0.028 C 
BRANCH   4   5
ATOM      5  C   UNL     1      13.124 -28.969  23.686  1.00  0.00     0.011 C 
ATOM      6  C   UNL     1      14.204 -28.042  23.101  1.00  0.00     0.012 C 
BRANCH   5   7
ATOM      7  C   UNL     1      11.682 -28.387  23.572  1.00  0.00    -0.011 C 
ATOM      8  C   UNL     1      10.875 -28.976  22.402  1.00  0.00     0.008 C 
ATOM      9  C   UNL     1      11.684 -26.853  23.497  1.00  0.00     0.008 C 
ENDBRANCH   5   7
ENDBRANCH   4   5
ENDBRANCH   1   3
BRANCH   1  10
ATOM     10  C   UNL     1      15.561 -32.167  20.930  1.00  0.00     0.002 C 
ATOM     11  C   UNL     1      16.469 -31.021  21.394  1.00  0.00     0.005 C 
ATOM     12  C   UNL     1      16.217 -33.466  21.504  1.00  0.00    -0.023 C 
ATOM     13  C   UNL     1      17.828 -31.626  21.715  1.00  0.00     0.009 C 
ATOM     14  C   UNL     1      17.737 -33.138  21.442  1.00  0.00     0.021 C 
ATOM     15  C   UNL     1      15.806 -33.708  23.000  1.00  0.00     0.008 C 
ATOM     16  C   UNL     1      15.870 -34.698  20.608  1.00  0.00     0.012 C 
ATOM     17  C   UNL     1      18.576 -33.973  22.409  1.00  0.00    -0.063 C 
ATOM     18  C   UNL     1      16.679 -34.724  23.787  1.00  0.00     0.009 C 
ATOM     19  C   UNL     1      17.944 -35.199  23.032  1.00  0.00     0.025 C 
ATOM     20  C   UNL     1      19.763 -33.524  22.837  1.00  0.00    -0.000 C 
ATOM     21  C   UNL     1      18.950 -36.123  23.849  1.00  0.00    -0.005 C 
ATOM     22  C   UNL     1      20.484 -34.161  23.940  1.00  0.00    -0.000 C 
ATOM     23  C   UNL     1      20.102 -35.334  24.464  1.00  0.00    -0.061 C 
ATOM     24  C   UNL     1      19.621 -37.142  22.876  1.00  0.00     0.014 C 
ATOM     25  C   UNL     1      18.180 -36.913  24.945  1.00  0.00     0.017 C 
ATOM     26  C   UNL     1      21.139 -36.122  25.229  1.00  0.00     0.063 C 
ATOM     27  C   UNL     1      20.746 -37.985  23.529  1.00  0.00     0.033 C 
ATOM     28  C   UNL     1      21.799 -37.129  24.267  1.00  0.00     0.118 C 
BRANCH  28  29
ATOM     29  O   UNL     1      22.588 -36.454  23.322  1.00  0.00    -0.393 OA
ATOM     30  H   UNL     1      22.294 -35.505  23.328  1.00  0.00     0.210 HD
ENDBRANCH  28  29
ENDBRANCH   1  10
TORSDOF 5
ENDMDL
MODEL 2
REMARK VINA RESULT:    -7.907      2.349      3.041
REMARK INTER + INTRA:         -10.983
REMARK INTER:                  -9.962
REMARK INTRA:                  -1.021
REMARK UNBOUND:                -0.997
REMARK SMILES CC(C)[C@H](C)C=C[C@@H](C)[C@H]1CC[C@H]2C3=CC=C4C[C@H](O)CC[C@]4(C)[C@H]3CC[C@@]12C
REMARK SMILES IDX 8 1 9 2 7 3 6 4 4 5 5 6 2 7 1 8 3 9 10 10 11 11 28 12 12 13
REMARK SMILES IDX 13 14 27 15 29 16 14 17 26 18 25 19 15 20 23 21 16 22 17 23
REMARK SMILES IDX 22 24 24 25 18 26 21 27 19 28 20 29
REMARK H PARENT 20 30
REMARK Flexibility Score: inf
ROOT
ATOM      1  C   UNL     1      14.933 -31.379  22.012  1.00  0.00     0.012 C 
ATOM      2  C   UNL     1      13.871 -32.039  21.124  1.00  0.00     0.012 C 
ENDROOT
BRANCH   1   3
ATOM      3  C   UNL     1      14.393 -30.040  22.468  1.00  0.00    -0.028 C 
ATOM      4  C   UNL     1      13.374 -29.946  23.338  1.00  0.00    -0.028 C 
BRANCH   4   5
ATOM      5  C   UNL     1      12.880 -28.602  23.833  1.00  0.00     0.011 C 
ATOM      6  C   UNL     1      13.786 -27.483  23.291  1.00  0.00     0.012 C 
BRANCH   5   7
ATOM      7  C   UNL     1      11.372 -28.397  23.492  1.00  0.00    -0.011 C 
ATOM      8  C   UNL     1      10.876 -29.297  22.347  1.00  0.00     0.008 C 
ATOM      9  C   UNL     1      11.045 -26.927  23.193  1.00  0.00     0.008 C 
ENDBRANCH   5   7
ENDBRANCH   4   5
ENDBRANCH   1   3
BRANCH   1  10
ATOM     10  C   UNL     1      16.300 -31.180  21.277  1.00  0.00     0.002 C 
ATOM     11  C   UNL     1      16.760 -29.717  21.315  1.00  0.00     0.005 C 
ATOM     12  C   UNL     1      17.525 -32.006  21.791  1.00  0.00    -0.023 C 
ATOM     13  C   UNL     1      18.282 -29.723  21.300  1.00  0.00     0.009 C 
ATOM     14  C   UNL     1      18.736 -31.193  21.252  1.00  0.00     0.021 C 
ATOM     15  C   UNL     1      17.584 -32.036  23.359  1.00  0.00     0.008 C 
ATOM     16  C   UNL     1      17.503 -33.449  21.191  1.00  0.00     0.012 C 
ATOM     17  C   UNL     1      20.029 -31.446  22.030  1.00  0.00    -0.063 C 
ATOM     18  C   UNL     1      18.938 -32.482  23.978  1.00  0.00     0.009 C 
ATOM     19  C   UNL     1      20.086 -32.643  22.953  1.00  0.00     0.025 C 
ATOM     20  C   UNL     1      21.005 -30.529  22.037  1.00  0.00    -0.000 C 
ATOM     21  C   UNL     1      21.529 -32.952  23.551  1.00  0.00    -0.005 C 
ATOM     22  C   UNL     1      22.143 -30.613  22.953  1.00  0.00    -0.000 C 
ATOM     23  C   UNL     1      22.381 -31.697  23.706  1.00  0.00    -0.061 C 
ATOM     24  C   UNL     1      22.314 -33.864  22.558  1.00  0.00     0.014 C 
ATOM     25  C   UNL     1      21.396 -33.695  24.911  1.00  0.00     0.017 C 
ATOM     26  C   UNL     1      23.785 -31.882  24.228  1.00  0.00     0.063 C 
ATOM     27  C   UNL     1      23.795 -34.096  22.955  1.00  0.00     0.033 C 
ATOM     28  C   UNL     1      24.559 -32.785  23.246  1.00  0.00     0.118 C 
BRANCH  28  29
ATOM     29  O   UNL     1      24.787 -32.106  22.038  1.00  0.00    -0.393 OA
ATOM     30  H   UNL     1      25.450 -31.392  22.231  1.00  0.00     0.210 HD
ENDBRANCH  28  29
ENDBRANCH   1  10
TORSDOF 5
ENDMDL
MODEL 3
REMARK VINA RESULT:    -7.791      4.716      8.606
REMARK INTER + INTRA:         -10.837
REMARK INTER:                  -9.854
REMARK INTRA:                  -0.983
REMARK UNBOUND:                -0.997
REMARK SMILES CC(C)[C@H](C)C=C[C@@H](C)[C@H]1CC[C@H]2C3=CC=C4C[C@H](O)CC[C@]4(C)[C@H]3CC[C@@]12C
REMARK SMILES IDX 8 1 9 2 7 3 6 4 4 5 5 6 2 7 1 8 3 9 10 10 11 11 28 12 12 13
REMARK SMILES IDX 13 14 27 15 29 16 14 17 26 18 25 19 15 20 23 21 16 22 17 23
REMARK SMILES IDX 22 24 24 25 18 26 21 27 19 28 20 29
REMARK H PARENT 20 30
REMARK Flexibility Score: inf
ROOT
ATOM      1  C   UNL     1      20.601 -34.238  23.627  1.00  0.00     0.012 C 
ATOM      2  C   UNL     1      21.537 -35.439  23.447  1.00  0.00     0.012 C 
ENDROOT
BRANCH   1   3
ATOM      3  C   UNL     1      19.236 -34.765  24.018  1.00  0.00    -0.028 C 
ATOM      4  C   UNL     1      18.917 -35.026  25.296  1.00  0.00    -0.028 C 
BRANCH   4   5
ATOM      5  C   UNL     1      17.530 -35.496  25.683  1.00  0.00     0.011 C 
ATOM      6  C   UNL     1      16.542 -35.202  24.540  1.00  0.00     0.012 C 
BRANCH   5   7
ATOM      7  C   UNL     1      17.546 -36.994  26.117  1.00  0.00    -0.011 C 
ATOM      8  C   UNL     1      16.178 -37.503  26.605  1.00  0.00     0.008 C 
ATOM      9  C   UNL     1      18.625 -37.276  27.172  1.00  0.00     0.008 C 
ENDBRANCH   5   7
ENDBRANCH   4   5
ENDBRANCH   1   3
BRANCH   1  10
ATOM     10  C   UNL     1      20.483 -33.361  22.335  1.00  0.00     0.002 C 
ATOM     11  C   UNL     1      19.022 -33.033  22.000  1.00  0.00     0.005 C 
ATOM     12  C   UNL     1      21.225 -31.984  22.325  1.00  0.00    -0.023 C 
ATOM     13  C   UNL     1      19.015 -31.682  21.299  1.00  0.00     0.009 C 
ATOM     14  C   UNL     1      20.475 -31.200  21.211  1.00  0.00     0.021 C 
ATOM     15  C   UNL     1      21.053 -31.227  23.690  1.00  0.00     0.008 C 
ATOM     16  C   UNL     1      22.733 -32.176  21.963  1.00  0.00     0.012 C 
ATOM     17  C   UNL     1      20.613 -29.682  21.342  1.00  0.00    -0.063 C 
ATOM     18  C   UNL     1      21.402 -29.713  23.673  1.00  0.00     0.009 C 
ATOM     19  C   UNL     1      21.682 -29.138  22.264  1.00  0.00     0.025 C 
ATOM     20  C   UNL     1      19.693 -28.870  20.806  1.00  0.00    -0.000 C 
ATOM     21  C   UNL     1      21.897 -27.563  22.174  1.00  0.00    -0.005 C 
ATOM     22  C   UNL     1      19.647 -27.440  21.111  1.00  0.00    -0.000 C 
ATOM     23  C   UNL     1      20.623 -26.818  21.787  1.00  0.00    -0.061 C 
ATOM     24  C   UNL     1      22.920 -27.247  21.038  1.00  0.00     0.014 C 
ATOM     25  C   UNL     1      22.461 -27.022  23.518  1.00  0.00     0.017 C 
ATOM     26  C   UNL     1      20.726 -25.320  21.633  1.00  0.00     0.063 C 
ATOM     27  C   UNL     1      23.084 -25.733  20.745  1.00  0.00     0.033 C 
ATOM     28  C   UNL     1      21.739 -25.009  20.513  1.00  0.00     0.118 C 
BRANCH  28  29
ATOM     29  O   UNL     1      21.218 -25.392  19.266  1.00  0.00    -0.393 OA
ATOM     30  H   UNL     1      20.453 -24.787  19.077  1.00  0.00     0.210 HD
ENDBRANCH  28  29
ENDBRANCH   1  10
TORSDOF 5
ENDMDL
MODEL 4
REMARK VINA RESULT:    -7.789      1.434      1.814
REMARK INTER + INTRA:         -10.835
REMARK INTER:                  -9.770
REMARK INTRA:                  -1.065
REMARK UNBOUND:                -0.997
REMARK SMILES CC(C)[C@H](C)C=C[C@@H](C)[C@H]1CC[C@H]2C3=CC=C4C[C@H](O)CC[C@]4(C)[C@H]3CC[C@@]12C
REMARK SMILES IDX 8 1 9 2 7 3 6 4 4 5 5 6 2 7 1 8 3 9 10 10 11 11 28 12 12 13
REMARK SMILES IDX 13 14 27 15 29 16 14 17 26 18 25 19 15 20 23 21 16 22 17 23
REMARK SMILES IDX 22 24 24 25 18 26 21 27 19 28 20 29
REMARK H PARENT 20 30
REMARK Flexibility Score: inf
ROOT
ATOM      1  C   UNL     1      15.241 -33.252  20.876  1.00  0.00     0.012 C 
ATOM      2  C   UNL     1      14.249 -33.503  19.733  1.00  0.00     0.012 C 
ENDROOT
BRANCH   1   3
ATOM      3  C   UNL     1      15.033 -31.836  21.370  1.00  0.00    -0.028 C 
ATOM      4  C   UNL     1      14.467 -31.577  22.561  1.00  0.00    -0.028 C 
BRANCH   4   5
ATOM      5  C   UNL     1      14.319 -30.159  23.071  1.00  0.00     0.011 C 
ATOM      6  C   UNL     1      15.051 -29.186  22.130  1.00  0.00     0.012 C 
BRANCH   5   7
ATOM      7  C   UNL     1      12.818 -29.795  23.292  1.00  0.00    -0.011 C 
ATOM      8  C   UNL     1      11.907 -30.235  22.133  1.00  0.00     0.008 C 
ATOM      9  C   UNL     1      12.625 -28.300  23.582  1.00  0.00     0.008 C 
ENDBRANCH   5   7
ENDBRANCH   4   5
ENDBRANCH   1   3
BRANCH   1  10
ATOM     10  C   UNL     1      16.731 -33.451  20.441  1.00  0.00     0.002 C 
ATOM     11  C   UNL     1      17.524 -32.140  20.505  1.00  0.00     0.005 C 
ATOM     12  C   UNL     1      17.586 -34.486  21.243  1.00  0.00    -0.023 C 
ATOM     13  C   UNL     1      18.969 -32.503  20.817  1.00  0.00     0.009 C 
ATOM     14  C   UNL     1      19.043 -34.036  20.937  1.00  0.00     0.021 C 
ATOM     15  C   UNL     1      17.329 -34.374  22.788  1.00  0.00     0.008 C 
ATOM     16  C   UNL     1      17.324 -35.936  20.724  1.00  0.00     0.012 C 
ATOM     17  C   UNL     1      20.055 -34.506  21.985  1.00  0.00    -0.063 C 
ATOM     18  C   UNL     1      18.381 -35.060  23.703  1.00  0.00     0.009 C 
ATOM     19  C   UNL     1      19.630 -35.586  22.956  1.00  0.00     0.025 C 
ATOM     20  C   UNL     1      21.207 -33.846  22.156  1.00  0.00    -0.000 C 
ATOM     21  C   UNL     1      20.805 -36.162  23.862  1.00  0.00    -0.005 C 
ATOM     22  C   UNL     1      22.087 -34.102  23.297  1.00  0.00    -0.000 C 
ATOM     23  C   UNL     1      21.896 -35.131  24.134  1.00  0.00    -0.061 C 
ATOM     24  C   UNL     1      21.517 -37.326  23.104  1.00  0.00     0.014 C 
ATOM     25  C   UNL     1      20.229 -36.715  25.196  1.00  0.00     0.017 C 
ATOM     26  C   UNL     1      23.080 -35.588  24.953  1.00  0.00     0.063 C 
ATOM     27  C   UNL     1      22.786 -37.856  23.820  1.00  0.00     0.033 C 
ATOM     28  C   UNL     1      23.780 -36.739  24.204  1.00  0.00     0.118 C 
BRANCH  28  29
ATOM     29  O   UNL     1      24.402 -36.255  23.041  1.00  0.00    -0.393 OA
ATOM     30  H   UNL     1      25.302 -36.674  23.001  1.00  0.00     0.210 HD
ENDBRANCH  28  29
ENDBRANCH   1  10
TORSDOF 5
ENDMDL
MODEL 5
REMARK VINA RESULT:    -7.681      2.732      3.930
REMARK INTER + INTRA:         -10.699
REMARK INTER:                  -9.877
REMARK INTRA:                  -0.822
REMARK UNBOUND:                -0.997
REMARK SMILES CC(C)[C@H](C)C=C[C@@H](C)[C@H]1CC[C@H]2C3=CC=C4C[C@H](O)CC[C@]4(C)[C@H]3CC[C@@]12C
REMARK SMILES IDX 8 1 9 2 7 3 6 4 4 5 5 6 2 7 1 8 3 9 10 10 11 11 28 12 12 13
REMARK SMILES IDX 13 14 27 15 29 16 14 17 26 18 25 19 15 20 23 21 16 22 17 23
REMARK SMILES IDX 22 24 24 25 18 26 21 27 19 28 20 29
REMARK H PARENT 20 30
REMARK Flexibility Score: inf
ROOT
ATOM      1  C   UNL     1      15.924 -33.329  20.752  1.00  0.00     0.012 C 
ATOM      2  C   UNL     1      15.036 -33.648  19.542  1.00  0.00     0.012 C 
ENDROOT
BRANCH   1   3
ATOM      3  C   UNL     1      15.067 -32.629  21.786  1.00  0.00    -0.028 C 
ATOM      4  C   UNL     1      13.980 -31.918  21.442  1.00  0.00    -0.028 C 
BRANCH   4   5
ATOM      5  C   UNL     1      13.097 -31.272  22.489  1.00  0.00     0.011 C 
ATOM      6  C   UNL     1      13.499 -31.768  23.889  1.00  0.00     0.012 C 
BRANCH   5   7
ATOM      7  C   UNL     1      13.111 -29.718  22.356  1.00  0.00    -0.011 C 
ATOM      8  C   UNL     1      14.465 -29.086  22.722  1.00  0.00     0.008 C 
ATOM      9  C   UNL     1      11.982 -29.061  23.162  1.00  0.00     0.008 C 
ENDBRANCH   5   7
ENDBRANCH   4   5
ENDBRANCH   1   3
BRANCH   1  10
ATOM     10  C   UNL     1      17.153 -32.432  20.383  1.00  0.00     0.002 C 
ATOM     11  C   UNL     1      16.966 -30.986  20.858  1.00  0.00     0.005 C 
ATOM     12  C   UNL     1      18.553 -32.865  20.929  1.00  0.00    -0.023 C 
ATOM     13  C   UNL     1      18.351 -30.429  21.158  1.00  0.00     0.009 C 
ATOM     14  C   UNL     1      19.370 -31.543  20.860  1.00  0.00     0.021 C 
ATOM     15  C   UNL     1      18.468 -33.337  22.424  1.00  0.00     0.008 C 
ATOM     16  C   UNL     1      19.182 -33.966  20.016  1.00  0.00     0.012 C 
ATOM     17  C   UNL     1      20.572 -31.524  21.806  1.00  0.00    -0.063 C 
ATOM     18  C   UNL     1      19.820 -33.418  23.187  1.00  0.00     0.009 C 
ATOM     19  C   UNL     1      21.026 -32.834  22.413  1.00  0.00     0.025 C 
ATOM     20  C   UNL     1      21.080 -30.361  22.231  1.00  0.00    -0.000 C 
ATOM     21  C   UNL     1      22.404 -32.755  23.207  1.00  0.00    -0.005 C 
ATOM     22  C   UNL     1      22.059 -30.290  23.317  1.00  0.00    -0.000 C 
ATOM     23  C   UNL     1      22.647 -31.383  23.825  1.00  0.00    -0.061 C 
ATOM     24  C   UNL     1      23.585 -32.975  22.211  1.00  0.00     0.014 C 
ATOM     25  C   UNL     1      22.457 -33.864  24.296  1.00  0.00     0.017 C 
ATOM     26  C   UNL     1      23.947 -31.187  24.567  1.00  0.00     0.063 C 
ATOM     27  C   UNL     1      24.985 -32.754  22.840  1.00  0.00     0.033 C 
ATOM     28  C   UNL     1      25.113 -31.406  23.583  1.00  0.00     0.118 C 
BRANCH  28  29
ATOM     29  O   UNL     1      25.158 -30.364  22.643  1.00  0.00    -0.393 OA
ATOM     30  H   UNL     1      24.227 -30.035  22.533  1.00  0.00     0.210 HD
ENDBRANCH  28  29
ENDBRANCH   1  10
TORSDOF 5
ENDMDL
MODEL 6
REMARK VINA RESULT:    -7.382      2.969      4.165
REMARK INTER + INTRA:         -10.321
REMARK INTER:                  -9.405
REMARK INTRA:                  -0.916
REMARK UNBOUND:                -0.997
REMARK SMILES CC(C)[C@H](C)C=C[C@@H](C)[C@H]1CC[C@H]2C3=CC=C4C[C@H](O)CC[C@]4(C)[C@H]3CC[C@@]12C
REMARK SMILES IDX 8 1 9 2 7 3 6 4 4 5 5 6 2 7 1 8 3 9 10 10 11 11 28 12 12 13
REMARK SMILES IDX 13 14 27 15 29 16 14 17 26 18 25 19 15 20 23 21 16 22 17 23
REMARK SMILES IDX 22 24 24 25 18 26 21 27 19 28 20 29
REMARK H PARENT 20 30
REMARK Flexibility Score: inf
ROOT
ATOM      1  C   UNL     1      15.688 -32.570  21.914  1.00  0.00     0.012 C 
ATOM      2  C   UNL     1      15.087 -33.881  21.392  1.00  0.00     0.012 C 
ENDROOT
BRANCH   1   3
ATOM      3  C   UNL     1      14.707 -31.456  21.611  1.00  0.00    -0.028 C 
ATOM      4  C   UNL     1      13.732 -31.118  22.471  1.00  0.00    -0.028 C 
BRANCH   4   5
ATOM      5  C   UNL     1      12.794 -29.964  22.185  1.00  0.00     0.011 C 
ATOM      6  C   UNL     1      11.399 -30.503  21.824  1.00  0.00     0.012 C 
BRANCH   5   7
ATOM      7  C   UNL     1      12.778 -28.946  23.367  1.00  0.00    -0.011 C 
ATOM      8  C   UNL     1      11.441 -28.201  23.513  1.00  0.00     0.008 C 
ATOM      9  C   UNL     1      13.939 -27.945  23.279  1.00  0.00     0.008 C 
ENDBRANCH   5   7
ENDBRANCH   4   5
ENDBRANCH   1   3
BRANCH   1  10
ATOM     10  C   UNL     1      17.079 -32.243  21.275  1.00  0.00     0.002 C 
ATOM     11  C   UNL     1      17.164 -30.784  20.810  1.00  0.00     0.005 C 
ATOM     12  C   UNL     1      18.351 -32.466  22.158  1.00  0.00    -0.023 C 
ATOM     13  C   UNL     1      18.621 -30.359  20.927  1.00  0.00     0.009 C 
ATOM     14  C   UNL     1      19.412 -31.567  21.462  1.00  0.00     0.021 C 
ATOM     15  C   UNL     1      18.130 -31.956  23.626  1.00  0.00     0.008 C 
ATOM     16  C   UNL     1      18.780 -33.968  22.133  1.00  0.00     0.012 C 
ATOM     17  C   UNL     1      20.565 -31.167  22.384  1.00  0.00    -0.063 C 
ATOM     18  C   UNL     1      19.415 -31.764  24.478  1.00  0.00     0.009 C 
ATOM     19  C   UNL     1      20.735 -31.921  23.685  1.00  0.00     0.025 C 
ATOM     20  C   UNL     1      21.277 -30.061  22.136  1.00  0.00    -0.000 C 
ATOM     21  C   UNL     1      22.077 -31.587  24.474  1.00  0.00    -0.005 C 
ATOM     22  C   UNL     1      22.217 -29.506  23.111  1.00  0.00    -0.000 C 
ATOM     23  C   UNL     1      22.565 -30.164  24.227  1.00  0.00    -0.061 C 
ATOM     24  C   UNL     1      23.223 -32.512  23.956  1.00  0.00     0.014 C 
ATOM     25  C   UNL     1      21.881 -31.842  25.996  1.00  0.00     0.017 C 
ATOM     26  C   UNL     1      23.855 -29.756  24.897  1.00  0.00     0.063 C 
ATOM     27  C   UNL     1      24.619 -32.165  24.535  1.00  0.00     0.033 C 
ATOM     28  C   UNL     1      24.985 -30.672  24.386  1.00  0.00     0.118 C 
BRANCH  28  29
ATOM     29  O   UNL     1      25.261 -30.396  23.036  1.00  0.00    -0.393 OA
ATOM     30  H   UNL     1      24.428 -30.026  22.643  1.00  0.00     0.210 HD
ENDBRANCH  28  29
ENDBRANCH   1  10
TORSDOF 5
ENDMDL
MODEL 7
REMARK VINA RESULT:    -7.229      2.798      4.515
REMARK INTER + INTRA:         -10.128
REMARK INTER:                  -9.309
REMARK INTRA:                  -0.819
REMARK UNBOUND:                -0.997
REMARK SMILES CC(C)[C@H](C)C=C[C@@H](C)[C@H]1CC[C@H]2C3=CC=C4C[C@H](O)CC[C@]4(C)[C@H]3CC[C@@]12C
REMARK SMILES IDX 8 1 9 2 7 3 6 4 4 5 5 6 2 7 1 8 3 9 10 10 11 11 28 12 12 13
REMARK SMILES IDX 13 14 27 15 29 16 14 17 26 18 25 19 15 20 23 21 16 22 17 23
REMARK SMILES IDX 22 24 24 25 18 26 21 27 19 28 20 29
REMARK H PARENT 20 30
REMARK Flexibility Score: inf
ROOT
ATOM      1  C   UNL     1      16.570 -34.628  20.873  1.00  0.00     0.012 C 
ATOM      2  C   UNL     1      16.123 -35.580  19.757  1.00  0.00     0.012 C 
ENDROOT
BRANCH   1   3
ATOM      3  C   UNL     1      15.795 -33.336  20.721  1.00  0.00    -0.028 C 
ATOM      4  C   UNL     1      14.755 -33.035  21.517  1.00  0.00    -0.028 C 
BRANCH   4   5
ATOM      5  C   UNL     1      14.024 -31.714  21.395  1.00  0.00     0.011 C 
ATOM      6  C   UNL     1      13.090 -31.746  20.173  1.00  0.00     0.012 C 
BRANCH   5   7
ATOM      7  C   UNL     1      13.293 -31.353  22.725  1.00  0.00    -0.011 C 
ATOM      8  C   UNL     1      13.330 -29.850  23.053  1.00  0.00     0.008 C 
ATOM      9  C   UNL     1      13.821 -32.169  23.912  1.00  0.00     0.008 C 
ENDBRANCH   5   7
ENDBRANCH   4   5
ENDBRANCH   1   3
BRANCH   1  10
ATOM     10  C   UNL     1      18.107 -34.334  20.840  1.00  0.00     0.002 C 
ATOM     11  C   UNL     1      18.445 -33.168  19.903  1.00  0.00     0.005 C 
ATOM     12  C   UNL     1      18.806 -33.985  22.195  1.00  0.00    -0.023 C 
ATOM     13  C   UNL     1      19.687 -32.487  20.461  1.00  0.00     0.009 C 
ATOM     14  C   UNL     1      20.096 -33.248  21.735  1.00  0.00     0.021 C 
ATOM     15  C   UNL     1      17.935 -33.003  23.057  1.00  0.00     0.008 C 
ATOM     16  C   UNL     1      19.151 -35.287  22.986  1.00  0.00     0.012 C 
ATOM     17  C   UNL     1      20.690 -32.338  22.812  1.00  0.00    -0.063 C 
ATOM     18  C   UNL     1      18.673 -32.287  24.222  1.00  0.00     0.009 C 
ATOM     19  C   UNL     1      20.205 -32.503  24.236  1.00  0.00     0.025 C 
ATOM     20  C   UNL     1      21.468 -31.304  22.469  1.00  0.00    -0.000 C 
ATOM     21  C   UNL     1      21.027 -31.671  25.316  1.00  0.00    -0.005 C 
ATOM     22  C   UNL     1      21.854 -30.270  23.430  1.00  0.00    -0.000 C 
ATOM     23  C   UNL     1      21.616 -30.386  24.744  1.00  0.00    -0.061 C 
ATOM     24  C   UNL     1      22.253 -32.512  25.790  1.00  0.00     0.014 C 
ATOM     25  C   UNL     1      20.129 -31.361  26.548  1.00  0.00     0.017 C 
ATOM     26  C   UNL     1      22.450 -29.541  25.677  1.00  0.00     0.063 C 
ATOM     27  C   UNL     1      23.222 -31.739  26.721  1.00  0.00     0.033 C 
ATOM     28  C   UNL     1      23.660 -30.374  26.146  1.00  0.00     0.118 C 
BRANCH  28  29
ATOM     29  O   UNL     1      24.547 -30.587  25.078  1.00  0.00    -0.393 OA
ATOM     30  H   UNL     1      24.427 -29.826  24.450  1.00  0.00     0.210 HD
ENDBRANCH  28  29
ENDBRANCH   1  10
TORSDOF 5
ENDMDL
MODEL 8
REMARK VINA RESULT:    -6.997      2.140      4.054
REMARK INTER + INTRA:          -9.835
REMARK INTER:                  -9.461
REMARK INTRA:                  -0.374
REMARK UNBOUND:                -0.997
REMARK SMILES CC(C)[C@H](C)C=C[C@@H](C)[C@H]1CC[C@H]2C3=CC=C4C[C@H](O)CC[C@]4(C)[C@H]3CC[C@@]12C
REMARK SMILES IDX 8 1 9 2 7 3 6 4 4 5 5 6 2 7 1 8 3 9 10 10 11 11 28 12 12 13
REMARK SMILES IDX 13 14 27 15 29 16 14 17 26 18 25 19 15 20 23 21 16 22 17 23
REMARK SMILES IDX 22 24 24 25 18 26 21 27 19 28 20 29
REMARK H PARENT 20 30
REMARK Flexibility Score: inf
ROOT
ATOM      1  C   UNL     1      15.011 -34.207  20.870  1.00  0.00     0.012 C 
ATOM      2  C   UNL     1      15.449 -33.984  19.418  1.00  0.00     0.012 C 
ENDROOT
BRANCH   1   3
ATOM      3  C   UNL     1      14.528 -32.882  21.420  1.00  0.00    -0.028 C 
ATOM      4  C   UNL     1      13.928 -31.967  20.640  1.00  0.00    -0.028 C 
BRANCH   4   5
ATOM      5  C   UNL     1      13.396 -30.669  21.212  1.00  0.00     0.011 C 
ATOM      6  C   UNL     1      11.863 -30.739  21.324  1.00  0.00     0.012 C 
BRANCH   5   7
ATOM      7  C   UNL     1      14.100 -30.319  22.559  1.00  0.00    -0.011 C 
ATOM      8  C   UNL     1      13.180 -29.596  23.559  1.00  0.00     0.008 C 
ATOM      9  C   UNL     1      15.387 -29.511  22.342  1.00  0.00     0.008 C 
ENDBRANCH   5   7
ENDBRANCH   4   5
ENDBRANCH   1   3
BRANCH   1  10
ATOM     10  C   UNL     1      16.159 -34.771  21.771  1.00  0.00     0.002 C 
ATOM     11  C   UNL     1      17.004 -35.816  21.031  1.00  0.00     0.005 C 
ATOM     12  C   UNL     1      17.190 -33.749  22.353  1.00  0.00    -0.023 C 
ATOM     13  C   UNL     1      18.414 -35.740  21.601  1.00  0.00     0.009 C 
ATOM     14  C   UNL     1      18.413 -34.650  22.688  1.00  0.00     0.021 C 
ATOM     15  C   UNL     1      17.616 -32.685  21.280  1.00  0.00     0.008 C 
ATOM     16  C   UNL     1      16.622 -33.069  23.640  1.00  0.00     0.012 C 
ATOM     17  C   UNL     1      19.731 -33.877  22.762  1.00  0.00    -0.063 C 
ATOM     18  C   UNL     1      18.898 -31.870  21.605  1.00  0.00     0.009 C 
ATOM     19  C   UNL     1      19.673 -32.368  22.849  1.00  0.00     0.025 C 
ATOM     20  C   UNL     1      20.896 -34.506  22.560  1.00  0.00    -0.000 C 
ATOM     21  C   UNL     1      21.071 -31.665  23.139  1.00  0.00    -0.005 C 
ATOM     22  C   UNL     1      22.152 -33.777  22.377  1.00  0.00    -0.000 C 
ATOM     23  C   UNL     1      22.251 -32.456  22.584  1.00  0.00    -0.061 C 
ATOM     24  C   UNL     1      21.306 -31.600  24.681  1.00  0.00     0.014 C 
ATOM     25  C   UNL     1      21.069 -30.216  22.574  1.00  0.00     0.017 C 
ATOM     26  C   UNL     1      23.631 -31.897  22.840  1.00  0.00     0.063 C 
ATOM     27  C   UNL     1      22.713 -31.086  25.080  1.00  0.00     0.033 C 
ATOM     28  C   UNL     1      23.860 -31.832  24.363  1.00  0.00     0.118 C 
BRANCH  28  29
ATOM     29  O   UNL     1      23.971 -33.128  24.894  1.00  0.00    -0.393 OA
ATOM     30  H   UNL     1      23.440 -33.140  25.733  1.00  0.00     0.210 HD
ENDBRANCH  28  29
ENDBRANCH   1  10
TORSDOF 5
ENDMDL
MODEL 9
REMARK VINA RESULT:    -6.943      3.951      5.569
REMARK INTER + INTRA:          -9.766
REMARK INTER:                  -8.869
REMARK INTRA:                  -0.897
REMARK UNBOUND:                -0.997
REMARK SMILES CC(C)[C@H](C)C=C[C@@H](C)[C@H]1CC[C@H]2C3=CC=C4C[C@H](O)CC[C@]4(C)[C@H]3CC[C@@]12C
REMARK SMILES IDX 8 1 9 2 7 3 6 4 4 5 5 6 2 7 1 8 3 9 10 10 11 11 28 12 12 13
REMARK SMILES IDX 13 14 27 15 29 16 14 17 26 18 25 19 15 20 23 21 16 22 17 23
REMARK SMILES IDX 22 24 24 25 18 26 21 27 19 28 20 29
REMARK H PARENT 20 30
REMARK Flexibility Score: inf
ROOT
ATOM      1  C   UNL     1      18.203 -32.664  20.946  1.00  0.00     0.012 C 
ATOM      2  C   UNL     1      18.070 -33.521  19.681  1.00  0.00     0.012 C 
ENDROOT
BRANCH   1   3
ATOM      3  C   UNL     1      17.044 -31.689  20.971  1.00  0.00    -0.028 C 
ATOM      4  C   UNL     1      15.803 -32.071  21.314  1.00  0.00    -0.028 C 
BRANCH   4   5
ATOM      5  C   UNL     1      14.665 -31.076  21.393  1.00  0.00     0.011 C 
ATOM      6  C   UNL     1      13.459 -31.598  20.592  1.00  0.00     0.012 C 
BRANCH   5   7
ATOM      7  C   UNL     1      14.321 -30.732  22.875  1.00  0.00    -0.011 C 
ATOM      8  C   UNL     1      13.875 -31.954  23.698  1.00  0.00     0.008 C 
ATOM      9  C   UNL     1      13.277 -29.612  22.978  1.00  0.00     0.008 C 
ENDBRANCH   5   7
ENDBRANCH   4   5
ENDBRANCH   1   3
BRANCH   1  10
ATOM     10  C   UNL     1      19.558 -31.883  21.010  1.00  0.00     0.002 C 
ATOM     11  C   UNL     1      19.351 -30.369  20.868  1.00  0.00     0.005 C 
ATOM     12  C   UNL     1      20.434 -32.058  22.293  1.00  0.00    -0.023 C 
ATOM     13  C   UNL     1      20.465 -29.689  21.652  1.00  0.00     0.009 C 
ATOM     14  C   UNL     1      21.343 -30.796  22.262  1.00  0.00     0.021 C 
ATOM     15  C   UNL     1      19.560 -32.027  23.597  1.00  0.00     0.008 C 
ATOM     16  C   UNL     1      21.283 -33.366  22.204  1.00  0.00     0.012 C 
ATOM     17  C   UNL     1      21.909 -30.423  23.633  1.00  0.00    -0.063 C 
ATOM     18  C   UNL     1      20.332 -31.803  24.926  1.00  0.00     0.009 C 
ATOM     19  C   UNL     1      21.827 -31.448  24.744  1.00  0.00     0.025 C 
ATOM     20  C   UNL     1      22.287 -29.165  23.890  1.00  0.00    -0.000 C 
ATOM     21  C   UNL     1      22.628 -31.061  26.064  1.00  0.00    -0.005 C 
ATOM     22  C   UNL     1      22.599 -28.708  25.245  1.00  0.00    -0.000 C 
ATOM     23  C   UNL     1      22.710 -29.554  26.280  1.00  0.00    -0.061 C 
ATOM     24  C   UNL     1      24.108 -31.539  25.928  1.00  0.00     0.014 C 
ATOM     25  C   UNL     1      21.991 -31.757  27.300  1.00  0.00     0.017 C 
ATOM     26  C   UNL     1      23.485 -29.076  27.484  1.00  0.00     0.063 C 
ATOM     27  C   UNL     1      25.027 -31.070  27.085  1.00  0.00     0.033 C 
ATOM     28  C   UNL     1      24.945 -29.551  27.350  1.00  0.00     0.118 C 
BRANCH  28  29
ATOM     29  O   UNL     1      25.585 -28.865  26.304  1.00  0.00    -0.393 OA
ATOM     30  H   UNL     1      25.333 -29.326  25.461  1.00  0.00     0.210 HD
ENDBRANCH  28  29
ENDBRANCH   1  10
TORSDOF 5
ENDMDL
