MODEL 1
REMARK VINA RESULT:    -4.713      0.000      0.000
REMARK INTER + INTRA:          -7.054
REMARK INTER:                  -6.642
REMARK INTRA:                  -0.412
REMARK UNBOUND:                -0.412
REMARK SMILES CC(=O)OCC[C@H](C)CCC=C(C)C
REMARK SMILES IDX 8 1 7 2 9 3 10 4 11 5 12 6 13 7 14 8 6 9 5 10 4 11 2 12 3 13
REMARK SMILES IDX 1 14
REMARK H PARENT
REMARK Flexibility Score: inf
ROOT
ATOM      1  C   UNL     1      67.242  50.347  19.092  1.00  0.00     0.008 C 
ATOM      2  C   UNL     1      68.559  50.800  18.439  1.00  0.00    -0.011 C 
ENDROOT
BRANCH   2   3
ATOM      3  C   UNL     1      69.689  50.927  19.491  1.00  0.00     0.007 C 
BRANCH   3   4
ATOM      4  C   UNL     1      69.195  51.331  20.898  1.00  0.00     0.027 C 
BRANCH   4   5
ATOM      5  C   UNL     1      70.207  51.015  21.974  1.00  0.00    -0.028 C 
ATOM      6  C   UNL     1      69.994  50.153  22.993  1.00  0.00    -0.080 C 
ATOM      7  C   UNL     1      71.104  49.928  23.987  1.00  0.00     0.039 C 
ATOM      8  C   UNL     1      68.673  49.442  23.177  1.00  0.00     0.039 C 
ENDBRANCH   4   5
ENDBRANCH   3   4
ENDBRANCH   2   3
BRANCH   2   9
ATOM      9  C   UNL     1      68.384  52.156  17.707  1.00  0.00     0.045 C 
BRANCH   9  10
ATOM     10  C   UNL     1      69.553  53.128  17.904  1.00  0.00     0.233 C 
BRANCH  10  11
ATOM     11  O   UNL     1      70.374  53.157  16.740  1.00  0.00    -0.466 OA
BRANCH  11  12
ATOM     12  C   UNL     1      71.579  53.863  16.684  1.00  0.00     0.302 C 
ATOM     13  O   UNL     1      72.424  53.771  17.615  1.00  0.00    -0.253 OA
ATOM     14  C   UNL     1      71.842  54.775  15.534  1.00  0.00     0.139 C 
ENDBRANCH  11  12
ENDBRANCH  10  11
ENDBRANCH   9  10
ENDBRANCH   2   9
TORSDOF 7
ENDMDL
MODEL 2
REMARK VINA RESULT:    -4.666      3.311      6.147
REMARK INTER + INTRA:          -6.988
REMARK INTER:                  -6.280
REMARK INTRA:                  -0.708
REMARK UNBOUND:                -0.412
REMARK SMILES CC(=O)OCC[C@H](C)CCC=C(C)C
REMARK SMILES IDX 8 1 7 2 9 3 10 4 11 5 12 6 13 7 14 8 6 9 5 10 4 11 2 12 3 13
REMARK SMILES IDX 1 14
REMARK H PARENT
REMARK Flexibility Score: inf
ROOT
ATOM      1  C   UNL     1      69.706  50.573  21.629  1.00  0.00     0.008 C 
ATOM      2  C   UNL     1      69.904  51.964  21.002  1.00  0.00    -0.011 C 
ENDROOT
BRANCH   2   3
ATOM      3  C   UNL     1      70.343  51.850  19.520  1.00  0.00     0.007 C 
BRANCH   3   4
ATOM      4  C   UNL     1      69.425  50.953  18.661  1.00  0.00     0.027 C 
BRANCH   4   5
ATOM      5  C   UNL     1      68.075  51.584  18.413  1.00  0.00    -0.028 C 
ATOM      6  C   UNL     1      66.897  51.037  18.788  1.00  0.00    -0.080 C 
ATOM      7  C   UNL     1      65.628  51.790  18.484  1.00  0.00     0.039 C 
ATOM      8  C   UNL     1      66.820  49.690  19.467  1.00  0.00     0.039 C 
ENDBRANCH   4   5
ENDBRANCH   3   4
ENDBRANCH   2   3
BRANCH   2   9
ATOM      9  C   UNL     1      70.958  52.787  21.787  1.00  0.00     0.045 C 
BRANCH   9  10
ATOM     10  C   UNL     1      70.895  52.595  23.307  1.00  0.00     0.233 C 
BRANCH  10  11
ATOM     11  O   UNL     1      72.040  51.880  23.763  1.00  0.00    -0.466 OA
BRANCH  11  12
ATOM     12  C   UNL     1      72.039  51.127  24.940  1.00  0.00     0.302 C 
ATOM     13  O   UNL     1      72.152  51.686  26.064  1.00  0.00    -0.253 OA
ATOM     14  C   UNL     1      71.954  49.641  24.859  1.00  0.00     0.139 C 
ENDBRANCH  11  12
ENDBRANCH  10  11
ENDBRANCH   9  10
ENDBRANCH   2   9
TORSDOF 7
ENDMDL
MODEL 3
REMARK VINA RESULT:    -4.579      2.714      6.047
REMARK INTER + INTRA:          -6.865
REMARK INTER:                  -6.478
REMARK INTRA:                  -0.387
REMARK UNBOUND:                -0.412
REMARK SMILES CC(=O)OCC[C@H](C)CCC=C(C)C
REMARK SMILES IDX 8 1 7 2 9 3 10 4 11 5 12 6 13 7 14 8 6 9 5 10 4 11 2 12 3 13
REMARK SMILES IDX 1 14
REMARK H PARENT
REMARK Flexibility Score: inf
ROOT
ATOM      1  C   UNL     1      67.351  50.394  19.086  1.00  0.00     0.008 C 
ATOM      2  C   UNL     1      68.600  51.135  19.592  1.00  0.00    -0.011 C 
ENDROOT
BRANCH   2   3
ATOM      3  C   UNL     1      69.732  51.107  18.533  1.00  0.00     0.007 C 
BRANCH   3   4
ATOM      4  C   UNL     1      69.989  52.470  17.853  1.00  0.00     0.027 C 
BRANCH   4   5
ATOM      5  C   UNL     1      71.390  52.978  18.099  1.00  0.00    -0.028 C 
ATOM      6  C   UNL     1      72.064  53.796  17.260  1.00  0.00    -0.080 C 
ATOM      7  C   UNL     1      73.454  54.232  17.645  1.00  0.00     0.039 C 
ATOM      8  C   UNL     1      71.477  54.254  15.945  1.00  0.00     0.039 C 
ENDBRANCH   4   5
ENDBRANCH   3   4
ENDBRANCH   2   3
BRANCH   2   9
ATOM      9  C   UNL     1      69.121  50.518  20.916  1.00  0.00     0.045 C 
BRANCH   9  10
ATOM     10  C   UNL     1      70.179  51.368  21.628  1.00  0.00     0.233 C 
BRANCH  10  11
ATOM     11  O   UNL     1      70.179  51.089  23.025  1.00  0.00    -0.466 OA
BRANCH  11  12
ATOM     12  C   UNL     1      71.346  51.096  23.795  1.00  0.00     0.302 C 
ATOM     13  O   UNL     1      72.123  52.088  23.778  1.00  0.00    -0.253 OA
ATOM     14  C   UNL     1      71.697  49.896  24.606  1.00  0.00     0.139 C 
ENDBRANCH  11  12
ENDBRANCH  10  11
ENDBRANCH   9  10
ENDBRANCH   2   9
TORSDOF 7
ENDMDL
MODEL 4
REMARK VINA RESULT:    -4.561      2.789      5.538
REMARK INTER + INTRA:          -6.840
REMARK INTER:                  -5.908
REMARK INTRA:                  -0.932
REMARK UNBOUND:                -0.412
REMARK SMILES CC(=O)OCC[C@H](C)CCC=C(C)C
REMARK SMILES IDX 8 1 7 2 9 3 10 4 11 5 12 6 13 7 14 8 6 9 5 10 4 11 2 12 3 13
REMARK SMILES IDX 1 14
REMARK H PARENT
REMARK Flexibility Score: inf
ROOT
ATOM      1  C   UNL     1      70.408  54.793  18.780  1.00  0.00     0.008 C 
ATOM      2  C   UNL     1      70.960  53.534  19.472  1.00  0.00    -0.011 C 
ENDROOT
BRANCH   2   3
ATOM      3  C   UNL     1      70.906  52.309  18.524  1.00  0.00     0.007 C 
BRANCH   3   4
ATOM      4  C   UNL     1      69.559  52.142  17.789  1.00  0.00     0.027 C 
BRANCH   4   5
ATOM      5  C   UNL     1      68.770  50.959  18.299  1.00  0.00    -0.028 C 
ATOM      6  C   UNL     1      67.570  51.050  18.913  1.00  0.00    -0.080 C 
ATOM      7  C   UNL     1      66.893  49.779  19.359  1.00  0.00     0.039 C 
ATOM      8  C   UNL     1      66.910  52.381  19.191  1.00  0.00     0.039 C 
ENDBRANCH   4   5
ENDBRANCH   3   4
ENDBRANCH   2   3
BRANCH   2   9
ATOM      9  C   UNL     1      70.171  53.215  20.768  1.00  0.00     0.045 C 
BRANCH   9  10
ATOM     10  C   UNL     1      70.721  52.021  21.556  1.00  0.00     0.233 C 
BRANCH  10  11
ATOM     11  O   UNL     1      69.738  50.993  21.645  1.00  0.00    -0.466 OA
BRANCH  11  12
ATOM     12  C   UNL     1      69.662  50.116  22.731  1.00  0.00     0.302 C 
ATOM     13  O   UNL     1      68.644  49.393  22.906  1.00  0.00    -0.253 OA
ATOM     14  C   UNL     1      70.777  50.074  23.720  1.00  0.00     0.139 C 
ENDBRANCH  11  12
ENDBRANCH  10  11
ENDBRANCH   9  10
ENDBRANCH   2   9
TORSDOF 7
ENDMDL
MODEL 5
REMARK VINA RESULT:    -4.547      1.103      1.850
REMARK INTER + INTRA:          -6.820
REMARK INTER:                  -6.004
REMARK INTRA:                  -0.816
REMARK UNBOUND:                -0.412
REMARK SMILES CC(=O)OCC[C@H](C)CCC=C(C)C
REMARK SMILES IDX 8 1 7 2 9 3 10 4 11 5 12 6 13 7 14 8 6 9 5 10 4 11 2 12 3 13
REMARK SMILES IDX 1 14
REMARK H PARENT
REMARK Flexibility Score: inf
ROOT
ATOM      1  C   UNL     1      68.029  53.680  19.466  1.00  0.00     0.008 C 
ATOM      2  C   UNL     1      67.923  52.446  18.554  1.00  0.00    -0.011 C 
ENDROOT
BRANCH   2   3
ATOM      3  C   UNL     1      67.904  51.138  19.384  1.00  0.00     0.007 C 
BRANCH   3   4
ATOM      4  C   UNL     1      69.306  50.560  19.679  1.00  0.00     0.027 C 
BRANCH   4   5
ATOM      5  C   UNL     1      69.546  50.366  21.158  1.00  0.00    -0.028 C 
ATOM      6  C   UNL     1      70.316  51.176  21.919  1.00  0.00    -0.080 C 
ATOM      7  C   UNL     1      70.454  50.864  23.387  1.00  0.00     0.039 C 
ATOM      8  C   UNL     1      71.060  52.354  21.335  1.00  0.00     0.039 C 
ENDBRANCH   4   5
ENDBRANCH   3   4
ENDBRANCH   2   3
BRANCH   2   9
ATOM      9  C   UNL     1      69.097  52.394  17.542  1.00  0.00     0.045 C 
BRANCH   9  10
ATOM     10  C   UNL     1      70.014  53.622  17.585  1.00  0.00     0.233 C 
BRANCH  10  11
ATOM     11  O   UNL     1      71.361  53.243  17.320  1.00  0.00    -0.466 OA
BRANCH  11  12
ATOM     12  C   UNL     1      72.256  54.070  16.634  1.00  0.00     0.302 C 
ATOM     13  O   UNL     1      73.392  54.330  17.116  1.00  0.00    -0.253 OA
ATOM     14  C   UNL     1      71.840  54.690  15.344  1.00  0.00     0.139 C 
ENDBRANCH  11  12
ENDBRANCH  10  11
ENDBRANCH   9  10
ENDBRANCH   2   9
TORSDOF 7
ENDMDL
MODEL 6
REMARK VINA RESULT:    -4.515      2.433      5.632
REMARK INTER + INTRA:          -6.775
REMARK INTER:                  -6.201
REMARK INTRA:                  -0.574
REMARK UNBOUND:                -0.412
REMARK SMILES CC(=O)OCC[C@H](C)CCC=C(C)C
REMARK SMILES IDX 8 1 7 2 9 3 10 4 11 5 12 6 13 7 14 8 6 9 5 10 4 11 2 12 3 13
REMARK SMILES IDX 1 14
REMARK H PARENT
REMARK Flexibility Score: inf
ROOT
ATOM      1  C   UNL     1      67.258  50.447  18.987  1.00  0.00     0.008 C 
ATOM      2  C   UNL     1      68.395  51.453  19.237  1.00  0.00    -0.011 C 
ENDROOT
BRANCH   2   3
ATOM      3  C   UNL     1      68.791  52.182  17.929  1.00  0.00     0.007 C 
BRANCH   3   4
ATOM      4  C   UNL     1      70.296  52.516  17.827  1.00  0.00     0.027 C 
BRANCH   4   5
ATOM      5  C   UNL     1      70.583  53.548  16.762  1.00  0.00    -0.028 C 
ATOM      6  C   UNL     1      71.757  54.205  16.633  1.00  0.00    -0.080 C 
ATOM      7  C   UNL     1      71.903  55.202  15.512  1.00  0.00     0.039 C 
ATOM      8  C   UNL     1      72.904  53.992  17.594  1.00  0.00     0.039 C 
ENDBRANCH   4   5
ENDBRANCH   3   4
ENDBRANCH   2   3
BRANCH   2   9
ATOM      9  C   UNL     1      69.643  50.752  19.833  1.00  0.00     0.045 C 
BRANCH   9  10
ATOM     10  C   UNL     1      69.546  50.475  21.337  1.00  0.00     0.233 C 
BRANCH  10  11
ATOM     11  O   UNL     1      69.921  51.632  22.079  1.00  0.00    -0.466 OA
BRANCH  11  12
ATOM     12  C   UNL     1      71.248  52.053  22.197  1.00  0.00     0.302 C 
ATOM     13  O   UNL     1      71.985  51.614  23.121  1.00  0.00    -0.253 OA
ATOM     14  C   UNL     1      71.781  53.072  21.248  1.00  0.00     0.139 C 
ENDBRANCH  11  12
ENDBRANCH  10  11
ENDBRANCH   9  10
ENDBRANCH   2   9
TORSDOF 7
ENDMDL
MODEL 7
REMARK VINA RESULT:    -4.501      3.424      6.567
REMARK INTER + INTRA:          -6.756
REMARK INTER:                  -6.137
REMARK INTRA:                  -0.618
REMARK UNBOUND:                -0.412
REMARK SMILES CC(=O)OCC[C@H](C)CCC=C(C)C
REMARK SMILES IDX 8 1 7 2 9 3 10 4 11 5 12 6 13 7 14 8 6 9 5 10 4 11 2 12 3 13
REMARK SMILES IDX 1 14
REMARK H PARENT
REMARK Flexibility Score: inf
ROOT
ATOM      1  C   UNL     1      71.337  49.683  24.151  1.00  0.00     0.008 C 
ATOM      2  C   UNL     1      70.294  50.578  23.460  1.00  0.00    -0.011 C 
ENDROOT
BRANCH   2   3
ATOM      3  C   UNL     1      69.537  49.799  22.354  1.00  0.00     0.007 C 
BRANCH   3   4
ATOM      4  C   UNL     1      69.690  50.405  20.942  1.00  0.00     0.027 C 
BRANCH   4   5
ATOM      5  C   UNL     1      68.359  50.605  20.256  1.00  0.00    -0.028 C 
ATOM      6  C   UNL     1      68.210  51.119  19.015  1.00  0.00    -0.080 C 
ATOM      7  C   UNL     1      66.817  51.248  18.455  1.00  0.00     0.039 C 
ATOM      8  C   UNL     1      69.388  51.594  18.197  1.00  0.00     0.039 C 
ENDBRANCH   4   5
ENDBRANCH   3   4
ENDBRANCH   2   3
BRANCH   2   9
ATOM      9  C   UNL     1      70.956  51.836  22.841  1.00  0.00     0.045 C 
BRANCH   9  10
ATOM     10  C   UNL     1      72.199  52.323  23.594  1.00  0.00     0.233 C 
BRANCH  10  11
ATOM     11  O   UNL     1      71.878  53.456  24.396  1.00  0.00    -0.466 OA
BRANCH  11  12
ATOM     12  C   UNL     1      71.140  53.358  25.579  1.00  0.00     0.302 C 
ATOM     13  O   UNL     1      69.960  53.799  25.642  1.00  0.00    -0.253 OA
ATOM     14  C   UNL     1      71.775  52.768  26.792  1.00  0.00     0.139 C 
ENDBRANCH  11  12
ENDBRANCH  10  11
ENDBRANCH   9  10
ENDBRANCH   2   9
TORSDOF 7
ENDMDL
MODEL 8
REMARK VINA RESULT:    -4.479      1.822      2.776
REMARK INTER + INTRA:          -6.724
REMARK INTER:                  -5.702
REMARK INTRA:                  -1.022
REMARK UNBOUND:                -0.412
REMARK SMILES CC(=O)OCC[C@H](C)CCC=C(C)C
REMARK SMILES IDX 8 1 7 2 9 3 10 4 11 5 12 6 13 7 14 8 6 9 5 10 4 11 2 12 3 13
REMARK SMILES IDX 1 14
REMARK H PARENT
REMARK Flexibility Score: inf
ROOT
ATOM      1  C   UNL     1      67.204  50.485  19.109  1.00  0.00     0.008 C 
ATOM      2  C   UNL     1      68.602  50.741  18.520  1.00  0.00    -0.011 C 
ENDROOT
BRANCH   2   3
ATOM      3  C   UNL     1      69.664  50.870  19.641  1.00  0.00     0.007 C 
BRANCH   3   4
ATOM      4  C   UNL     1      69.145  51.559  20.922  1.00  0.00     0.027 C 
BRANCH   4   5
ATOM      5  C   UNL     1      69.669  52.969  21.066  1.00  0.00    -0.028 C 
ATOM      6  C   UNL     1      68.936  54.082  20.843  1.00  0.00    -0.080 C 
ATOM      7  C   UNL     1      69.591  55.425  21.039  1.00  0.00     0.039 C 
ATOM      8  C   UNL     1      67.501  54.016  20.374  1.00  0.00     0.039 C 
ENDBRANCH   4   5
ENDBRANCH   3   4
ENDBRANCH   2   3
BRANCH   2   9
ATOM      9  C   UNL     1      68.617  52.023  17.648  1.00  0.00     0.045 C 
BRANCH   9  10
ATOM     10  C   UNL     1      70.014  52.617  17.435  1.00  0.00     0.233 C 
BRANCH  10  11
ATOM     11  O   UNL     1      69.967  54.038  17.529  1.00  0.00    -0.466 OA
BRANCH  11  12
ATOM     12  C   UNL     1      70.964  54.862  16.999  1.00  0.00     0.302 C 
ATOM     13  O   UNL     1      71.225  55.979  17.523  1.00  0.00    -0.253 OA
ATOM     14  C   UNL     1      71.692  54.435  15.770  1.00  0.00     0.139 C 
ENDBRANCH  11  12
ENDBRANCH  10  11
ENDBRANCH   9  10
ENDBRANCH   2   9
TORSDOF 7
ENDMDL
MODEL 9
REMARK VINA RESULT:    -4.364      1.995      2.899
REMARK INTER + INTRA:          -6.562
REMARK INTER:                  -5.877
REMARK INTRA:                  -0.685
REMARK UNBOUND:                -0.412
REMARK SMILES CC(=O)OCC[C@H](C)CCC=C(C)C
REMARK SMILES IDX 8 1 7 2 9 3 10 4 11 5 12 6 13 7 14 8 6 9 5 10 4 11 2 12 3 13
REMARK SMILES IDX 1 14
REMARK H PARENT
REMARK Flexibility Score: inf
ROOT
ATOM      1  C   UNL     1      67.433  50.482  18.895  1.00  0.00     0.008 C 
ATOM      2  C   UNL     1      68.891  50.862  18.587  1.00  0.00    -0.011 C 
ENDROOT
BRANCH   2   3
ATOM      3  C   UNL     1      69.757  50.835  19.873  1.00  0.00     0.007 C 
BRANCH   3   4
ATOM      4  C   UNL     1      68.955  50.565  21.164  1.00  0.00     0.027 C 
BRANCH   4   5
ATOM      5  C   UNL     1      69.800  49.922  22.239  1.00  0.00    -0.028 C 
ATOM      6  C   UNL     1      70.519  50.607  23.156  1.00  0.00    -0.080 C 
ATOM      7  C   UNL     1      71.307  49.828  24.178  1.00  0.00     0.039 C 
ATOM      8  C   UNL     1      70.579  52.117  23.163  1.00  0.00     0.039 C 
ENDBRANCH   4   5
ENDBRANCH   3   4
ENDBRANCH   2   3
BRANCH   2   9
ATOM      9  C   UNL     1      68.980  52.267  17.938  1.00  0.00     0.045 C 
BRANCH   9  10
ATOM     10  C   UNL     1      69.762  53.291  18.768  1.00  0.00     0.233 C 
BRANCH  10  11
ATOM     11  O   UNL     1      69.169  54.581  18.648  1.00  0.00    -0.466 OA
BRANCH  11  12
ATOM     12  C   UNL     1      68.201  55.052  19.540  1.00  0.00     0.302 C 
ATOM     13  O   UNL     1      67.797  56.245  19.483  1.00  0.00    -0.253 OA
ATOM     14  C   UNL     1      67.681  54.145  20.603  1.00  0.00     0.139 C 
ENDBRANCH  11  12
ENDBRANCH  10  11
ENDBRANCH   9  10
ENDBRANCH   2   9
TORSDOF 7
ENDMDL
