MODEL 1
REMARK VINA RESULT:    -5.459      0.000      0.000
REMARK INTER + INTRA:          -6.049
REMARK INTER:                  -5.778
REMARK INTRA:                  -0.271
REMARK UNBOUND:                -0.271
REMARK SMILES CC1=C[C@@H]2C(=C(C)CC[C@H]2C(C)C)CC1
REMARK SMILES IDX 1 1 2 2 3 3 4 4 10 5 9 6 8 7 6 8 5 9 14 10 15 11 7 12 11 13
REMARK SMILES IDX 12 14 13 15
REMARK H PARENT
REMARK Flexibility Score: inf
ROOT
ATOM      1  C   UNL     1      26.846  24.121  13.010  1.00  0.00     0.039 C 
ATOM      2  C   UNL     1      28.307  23.938  12.697  1.00  0.00    -0.076 C 
ATOM      3  C   UNL     1      28.963  22.879  13.222  1.00  0.00    -0.020 C 
ATOM      4  C   UNL     1      30.450  22.616  13.005  1.00  0.00     0.041 C 
ATOM      5  C   UNL     1      30.746  21.086  12.952  1.00  0.00     0.003 C 
ATOM      6  C   UNL     1      32.103  20.831  12.268  1.00  0.00     0.009 C 
ATOM      7  C   UNL     1      32.076  21.370  10.844  1.00  0.00     0.031 C 
ATOM      8  C   UNL     1      31.704  22.834  10.802  1.00  0.00    -0.073 C 
ATOM      9  C   UNL     1      30.937  23.392  11.782  1.00  0.00    -0.064 C 
ATOM     10  C   UNL     1      30.486  24.836  11.757  1.00  0.00     0.036 C 
ATOM     11  C   UNL     1      28.960  24.874  11.695  1.00  0.00     0.035 C 
ATOM     12  C   UNL     1      32.125  23.615   9.580  1.00  0.00     0.039 C 
ENDROOT
BRANCH   5  13
ATOM     13  C   UNL     1      30.654  20.399  14.359  1.00  0.00    -0.013 C 
ATOM     14  C   UNL     1      31.905  20.593  15.237  1.00  0.00     0.007 C 
ATOM     15  C   UNL     1      30.333  18.901  14.232  1.00  0.00     0.007 C 
ENDBRANCH   5  13
TORSDOF 1
ENDMDL
MODEL 2
REMARK VINA RESULT:    -4.677      1.473      5.287
REMARK INTER + INTRA:          -5.222
REMARK INTER:                  -4.954
REMARK INTRA:                  -0.267
REMARK UNBOUND:                -0.271
REMARK SMILES CC1=C[C@@H]2C(=C(C)CC[C@H]2C(C)C)CC1
REMARK SMILES IDX 1 1 2 2 3 3 4 4 10 5 9 6 8 7 6 8 5 9 14 10 15 11 7 12 11 13
REMARK SMILES IDX 12 14 13 15
REMARK H PARENT
REMARK Flexibility Score: inf
ROOT
ATOM      1  C   UNL     1      32.121  20.490  12.155  1.00  0.00     0.039 C 
ATOM      2  C   UNL     1      31.237  21.623  12.603  1.00  0.00    -0.076 C 
ATOM      3  C   UNL     1      31.492  22.872  12.151  1.00  0.00    -0.020 C 
ATOM      4  C   UNL     1      30.689  24.100  12.569  1.00  0.00     0.041 C 
ATOM      5  C   UNL     1      30.590  25.129  11.401  1.00  0.00     0.003 C 
ATOM      6  C   UNL     1      29.418  26.097  11.644  1.00  0.00     0.009 C 
ATOM      7  C   UNL     1      28.109  25.320  11.719  1.00  0.00     0.031 C 
ATOM      8  C   UNL     1      28.157  24.236  12.770  1.00  0.00    -0.073 C 
ATOM      9  C   UNL     1      29.339  23.663  13.136  1.00  0.00    -0.064 C 
ATOM     10  C   UNL     1      29.435  22.535  14.139  1.00  0.00     0.036 C 
ATOM     11  C   UNL     1      30.012  21.304  13.440  1.00  0.00     0.035 C 
ATOM     12  C   UNL     1      26.835  23.746  13.312  1.00  0.00     0.039 C 
ENDROOT
BRANCH   5  13
ATOM     13  C   UNL     1      31.939  25.886  11.142  1.00  0.00    -0.013 C 
ATOM     14  C   UNL     1      32.116  27.162  11.985  1.00  0.00     0.007 C 
ATOM     15  C   UNL     1      32.120  26.216   9.651  1.00  0.00     0.007 C 
ENDBRANCH   5  13
TORSDOF 1
ENDMDL
MODEL 3
REMARK VINA RESULT:    -4.073      1.650      4.154
REMARK INTER + INTRA:          -4.581
REMARK INTER:                  -4.933
REMARK INTRA:                   0.351
REMARK UNBOUND:                -0.271
REMARK SMILES CC1=C[C@@H]2C(=C(C)CC[C@H]2C(C)C)CC1
REMARK SMILES IDX 1 1 2 2 3 3 4 4 10 5 9 6 8 7 6 8 5 9 14 10 15 11 7 12 11 13
REMARK SMILES IDX 12 14 13 15
REMARK H PARENT
REMARK Flexibility Score: inf
ROOT
ATOM      1  C   UNL     1      29.761  28.095  10.888  1.00  0.00     0.039 C 
ATOM      2  C   UNL     1      29.318  26.706  11.261  1.00  0.00    -0.076 C 
ATOM      3  C   UNL     1      30.182  25.677  11.108  1.00  0.00    -0.020 C 
ATOM      4  C   UNL     1      29.829  24.225  11.415  1.00  0.00     0.041 C 
ATOM      5  C   UNL     1      31.068  23.449  11.956  1.00  0.00     0.003 C 
ATOM      6  C   UNL     1      30.617  22.180  12.701  1.00  0.00     0.009 C 
ATOM      7  C   UNL     1      29.728  22.557  13.880  1.00  0.00     0.031 C 
ATOM      8  C   UNL     1      28.547  23.394  13.449  1.00  0.00    -0.073 C 
ATOM      9  C   UNL     1      28.608  24.176  12.333  1.00  0.00    -0.064 C 
ATOM     10  C   UNL     1      27.476  25.078  11.892  1.00  0.00     0.036 C 
ATOM     11  C   UNL     1      27.962  26.526  11.920  1.00  0.00     0.035 C 
ATOM     12  C   UNL     1      27.345  23.408  14.364  1.00  0.00     0.039 C 
ENDROOT
BRANCH   5  13
ATOM     13  C   UNL     1      32.125  23.136  10.839  1.00  0.00    -0.013 C 
ATOM     14  C   UNL     1      31.970  23.992   9.569  1.00  0.00     0.007 C 
ATOM     15  C   UNL     1      32.122  21.645  10.467  1.00  0.00     0.007 C 
ENDBRANCH   5  13
TORSDOF 1
ENDMDL
MODEL 4
REMARK VINA RESULT:    -4.039      1.578      4.610
REMARK INTER + INTRA:          -4.546
REMARK INTER:                  -4.450
REMARK INTRA:                  -0.096
REMARK UNBOUND:                -0.271
REMARK SMILES CC1=C[C@@H]2C(=C(C)CC[C@H]2C(C)C)CC1
REMARK SMILES IDX 1 1 2 2 3 3 4 4 10 5 9 6 8 7 6 8 5 9 14 10 15 11 7 12 11 13
REMARK SMILES IDX 12 14 13 15
REMARK H PARENT
REMARK Flexibility Score: inf
ROOT
ATOM      1  C   UNL     1      31.671  21.368  12.587  1.00  0.00     0.039 C 
ATOM      2  C   UNL     1      31.176  22.570  11.829  1.00  0.00    -0.076 C 
ATOM      3  C   UNL     1      29.949  23.065  12.110  1.00  0.00    -0.020 C 
ATOM      4  C   UNL     1      29.330  24.252  11.379  1.00  0.00     0.041 C 
ATOM      5  C   UNL     1      28.432  25.093  12.337  1.00  0.00     0.003 C 
ATOM      6  C   UNL     1      28.215  26.504  11.759  1.00  0.00     0.009 C 
ATOM      7  C   UNL     1      29.554  27.213  11.601  1.00  0.00     0.031 C 
ATOM      8  C   UNL     1      30.519  26.414  10.758  1.00  0.00    -0.073 C 
ATOM      9  C   UNL     1      30.427  25.055  10.681  1.00  0.00    -0.064 C 
ATOM     10  C   UNL     1      31.403  24.203   9.900  1.00  0.00     0.036 C 
ATOM     11  C   UNL     1      32.124  23.267  10.869  1.00  0.00     0.035 C 
ATOM     12  C   UNL     1      31.646  27.172  10.097  1.00  0.00     0.039 C 
ENDROOT
BRANCH   5  13
ATOM     13  C   UNL     1      27.078  24.381  12.683  1.00  0.00    -0.013 C 
ATOM     14  C   UNL     1      27.145  23.473  13.925  1.00  0.00     0.007 C 
ATOM     15  C   UNL     1      26.539  23.586  11.483  1.00  0.00     0.007 C 
ENDBRANCH   5  13
TORSDOF 1
ENDMDL
MODEL 5
REMARK VINA RESULT:    -4.016      2.561      4.193
REMARK INTER + INTRA:          -4.521
REMARK INTER:                  -4.282
REMARK INTRA:                  -0.239
REMARK UNBOUND:                -0.271
REMARK SMILES CC1=C[C@@H]2C(=C(C)CC[C@H]2C(C)C)CC1
REMARK SMILES IDX 1 1 2 2 3 3 4 4 10 5 9 6 8 7 6 8 5 9 14 10 15 11 7 12 11 13
REMARK SMILES IDX 12 14 13 15
REMARK H PARENT
REMARK Flexibility Score: inf
ROOT
ATOM      1  C   UNL     1      26.436  28.893  11.501  1.00  0.00     0.039 C 
ATOM      2  C   UNL     1      27.797  28.252  11.543  1.00  0.00    -0.076 C 
ATOM      3  C   UNL     1      27.908  26.977  11.979  1.00  0.00    -0.020 C 
ATOM      4  C   UNL     1      29.239  26.241  12.102  1.00  0.00     0.041 C 
ATOM      5  C   UNL     1      29.068  24.721  11.800  1.00  0.00     0.003 C 
ATOM      6  C   UNL     1      30.430  24.092  11.451  1.00  0.00     0.009 C 
ATOM      7  C   UNL     1      31.015  24.769  10.218  1.00  0.00     0.031 C 
ATOM      8  C   UNL     1      31.127  26.265  10.397  1.00  0.00    -0.073 C 
ATOM      9  C   UNL     1      30.293  26.937  11.242  1.00  0.00    -0.064 C 
ATOM     10  C   UNL     1      30.324  28.439  11.412  1.00  0.00     0.036 C 
ATOM     11  C   UNL     1      28.978  29.012  10.968  1.00  0.00     0.035 C 
ATOM     12  C   UNL     1      32.123  26.989   9.522  1.00  0.00     0.039 C 
ENDROOT
BRANCH   5  13
ATOM     13  C   UNL     1      28.339  23.949  12.954  1.00  0.00    -0.013 C 
ATOM     14  C   UNL     1      29.117  22.733  13.488  1.00  0.00     0.007 C 
ATOM     15  C   UNL     1      26.923  23.520  12.535  1.00  0.00     0.007 C 
ENDBRANCH   5  13
TORSDOF 1
ENDMDL
MODEL 6
REMARK VINA RESULT:    -3.977      2.390      5.452
REMARK INTER + INTRA:          -4.480
REMARK INTER:                  -4.212
REMARK INTRA:                  -0.269
REMARK UNBOUND:                -0.271
REMARK SMILES CC1=C[C@@H]2C(=C(C)CC[C@H]2C(C)C)CC1
REMARK SMILES IDX 1 1 2 2 3 3 4 4 10 5 9 6 8 7 6 8 5 9 14 10 15 11 7 12 11 13
REMARK SMILES IDX 12 14 13 15
REMARK H PARENT
REMARK Flexibility Score: inf
ROOT
ATOM      1  C   UNL     1      26.499  24.146  11.696  1.00  0.00     0.039 C 
ATOM      2  C   UNL     1      27.991  24.212  11.879  1.00  0.00    -0.076 C 
ATOM      3  C   UNL     1      28.640  25.358  11.572  1.00  0.00    -0.020 C 
ATOM      4  C   UNL     1      30.153  25.525  11.679  1.00  0.00     0.041 C 
ATOM      5  C   UNL     1      30.528  26.982  12.090  1.00  0.00     0.003 C 
ATOM      6  C   UNL     1      31.958  27.023  12.658  1.00  0.00     0.009 C 
ATOM      7  C   UNL     1      32.055  26.131  13.889  1.00  0.00     0.031 C 
ATOM      8  C   UNL     1      31.617  24.716  13.596  1.00  0.00    -0.073 C 
ATOM      9  C   UNL     1      30.726  24.448  12.598  1.00  0.00    -0.064 C 
ATOM     10  C   UNL     1      30.211  23.057  12.303  1.00  0.00     0.036 C 
ATOM     11  C   UNL     1      28.699  23.035  12.526  1.00  0.00     0.035 C 
ATOM     12  C   UNL     1      32.125  23.634  14.520  1.00  0.00     0.039 C 
ENDROOT
BRANCH   5  13
ATOM     13  C   UNL     1      30.323  28.014  10.926  1.00  0.00    -0.013 C 
ATOM     14  C   UNL     1      31.533  28.146   9.983  1.00  0.00     0.007 C 
ATOM     15  C   UNL     1      29.929  29.398  11.466  1.00  0.00     0.007 C 
ENDBRANCH   5  13
TORSDOF 1
ENDMDL
MODEL 7
REMARK VINA RESULT:    -3.356      2.754      5.437
REMARK INTER + INTRA:          -3.823
REMARK INTER:                  -3.623
REMARK INTRA:                  -0.200
REMARK UNBOUND:                -0.271
REMARK SMILES CC1=C[C@@H]2C(=C(C)CC[C@H]2C(C)C)CC1
REMARK SMILES IDX 1 1 2 2 3 3 4 4 10 5 9 6 8 7 6 8 5 9 14 10 15 11 7 12 11 13
REMARK SMILES IDX 12 14 13 15
REMARK H PARENT
REMARK Flexibility Score: inf
ROOT
ATOM      1  C   UNL     1      27.536  23.577  14.052  1.00  0.00     0.039 C 
ATOM      2  C   UNL     1      28.287  24.040  12.833  1.00  0.00    -0.076 C 
ATOM      3  C   UNL     1      28.504  25.364  12.660  1.00  0.00    -0.020 C 
ATOM      4  C   UNL     1      29.216  25.950  11.444  1.00  0.00     0.041 C 
ATOM      5  C   UNL     1      30.039  27.216  11.834  1.00  0.00     0.003 C 
ATOM      6  C   UNL     1      31.107  27.506  10.764  1.00  0.00     0.009 C 
ATOM      7  C   UNL     1      32.061  26.324  10.648  1.00  0.00     0.031 C 
ATOM      8  C   UNL     1      31.329  25.034  10.362  1.00  0.00    -0.073 C 
ATOM      9  C   UNL     1      30.034  24.860  10.753  1.00  0.00    -0.064 C 
ATOM     10  C   UNL     1      29.275  23.568  10.544  1.00  0.00     0.036 C 
ATOM     11  C   UNL     1      28.890  22.998  11.909  1.00  0.00     0.035 C 
ATOM     12  C   UNL     1      32.125  23.919   9.727  1.00  0.00     0.039 C 
ENDROOT
BRANCH   5  13
ATOM     13  C   UNL     1      29.134  28.465  12.120  1.00  0.00    -0.013 C 
ATOM     14  C   UNL     1      27.810  28.476  11.334  1.00  0.00     0.007 C 
ATOM     15  C   UNL     1      29.896  29.778  11.878  1.00  0.00     0.007 C 
ENDBRANCH   5  13
TORSDOF 1
ENDMDL
MODEL 8
REMARK VINA RESULT:    -3.262      2.600      5.204
REMARK INTER + INTRA:          -3.724
REMARK INTER:                  -3.674
REMARK INTRA:                  -0.050
REMARK UNBOUND:                -0.271
REMARK SMILES CC1=C[C@@H]2C(=C(C)CC[C@H]2C(C)C)CC1
REMARK SMILES IDX 1 1 2 2 3 3 4 4 10 5 9 6 8 7 6 8 5 9 14 10 15 11 7 12 11 13
REMARK SMILES IDX 12 14 13 15
REMARK H PARENT
REMARK Flexibility Score: inf
ROOT
ATOM      1  C   UNL     1      26.746  28.201  11.882  1.00  0.00     0.039 C 
ATOM      2  C   UNL     1      27.624  26.980  11.845  1.00  0.00    -0.076 C 
ATOM      3  C   UNL     1      28.952  27.132  11.638  1.00  0.00    -0.020 C 
ATOM      4  C   UNL     1      29.929  25.964  11.542  1.00  0.00     0.041 C 
ATOM      5  C   UNL     1      31.323  26.351  12.126  1.00  0.00     0.003 C 
ATOM      6  C   UNL     1      32.125  25.082  12.470  1.00  0.00     0.009 C 
ATOM      7  C   UNL     1      31.375  24.259  13.509  1.00  0.00     0.031 C 
ATOM      8  C   UNL     1      29.974  23.920  13.055  1.00  0.00    -0.073 C 
ATOM      9  C   UNL     1      29.308  24.720  12.174  1.00  0.00    -0.064 C 
ATOM     10  C   UNL     1      27.885  24.458  11.734  1.00  0.00     0.036 C 
ATOM     11  C   UNL     1      27.010  25.631  12.175  1.00  0.00     0.035 C 
ATOM     12  C   UNL     1      29.313  22.725  13.701  1.00  0.00     0.039 C 
ENDROOT
BRANCH   5  13
ATOM     13  C   UNL     1      32.125  27.324  11.193  1.00  0.00    -0.013 C 
ATOM     14  C   UNL     1      31.708  28.801  11.316  1.00  0.00     0.007 C 
ATOM     15  C   UNL     1      32.049  26.881   9.723  1.00  0.00     0.007 C 
ENDBRANCH   5  13
TORSDOF 1
ENDMDL
MODEL 9
REMARK VINA RESULT:    -3.197      2.967      4.398
REMARK INTER + INTRA:          -3.655
REMARK INTER:                  -3.389
REMARK INTRA:                  -0.265
REMARK UNBOUND:                -0.271
REMARK SMILES CC1=C[C@@H]2C(=C(C)CC[C@H]2C(C)C)CC1
REMARK SMILES IDX 1 1 2 2 3 3 4 4 10 5 9 6 8 7 6 8 5 9 14 10 15 11 7 12 11 13
REMARK SMILES IDX 12 14 13 15
REMARK H PARENT
REMARK Flexibility Score: inf
ROOT
ATOM      1  C   UNL     1      26.499  28.427  11.872  1.00  0.00     0.039 C 
ATOM      2  C   UNL     1      27.982  28.236  11.702  1.00  0.00    -0.076 C 
ATOM      3  C   UNL     1      28.554  27.098  12.158  1.00  0.00    -0.020 C 
ATOM      4  C   UNL     1      30.051  26.815  12.076  1.00  0.00     0.041 C 
ATOM      5  C   UNL     1      30.322  25.294  11.861  1.00  0.00     0.003 C 
ATOM      6  C   UNL     1      31.742  25.081  11.306  1.00  0.00     0.009 C 
ATOM      7  C   UNL     1      31.890  25.794   9.967  1.00  0.00     0.031 C 
ATOM      8  C   UNL     1      31.552  27.263  10.071  1.00  0.00    -0.073 C 
ATOM      9  C   UNL     1      30.688  27.720  11.023  1.00  0.00    -0.064 C 
ATOM     10  C   UNL     1      30.272  29.170  11.132  1.00  0.00     0.036 C 
ATOM     11  C   UNL     1      28.763  29.266  10.906  1.00  0.00     0.035 C 
ATOM     12  C   UNL     1      32.125  28.176   9.013  1.00  0.00     0.039 C 
ENDROOT
BRANCH   5  13
ATOM     13  C   UNL     1      30.057  24.441  13.151  1.00  0.00    -0.013 C 
ATOM     14  C   UNL     1      31.324  23.820  13.765  1.00  0.00     0.007 C 
ATOM     15  C   UNL     1      29.010  23.345  12.893  1.00  0.00     0.007 C 
ENDBRANCH   5  13
TORSDOF 1
ENDMDL
