MODEL 1
REMARK VINA RESULT:    -2.800      0.000      0.000
REMARK INTER + INTRA:          -6.057
REMARK INTER:                  -4.846
REMARK INTRA:                  -1.211
REMARK UNBOUND:                -1.211
REMARK SMILES CCCCCCCCCCCCCCO
REMARK SMILES IDX 8 1 7 2 6 3 5 4 4 5 3 6 2 7 1 8 9 9 10 10 11 11 12 12 13 13
REMARK SMILES IDX 14 14 15 15
REMARK H PARENT 15 16
REMARK Flexibility Score: inf
ROOT
ATOM      1  C   UNL     1      34.187 -16.648 -28.007  1.00  0.00     0.000 C 
ENDROOT
BRANCH   1   2
ATOM      2  C   UNL     1      34.105 -18.181 -27.895  1.00  0.00    -0.000 C 
BRANCH   2   3
ATOM      3  C   UNL     1      32.674 -18.754 -27.883  1.00  0.00    -0.000 C 
BRANCH   3   4
ATOM      4  C   UNL     1      31.663 -18.012 -28.782  1.00  0.00    -0.000 C 
BRANCH   4   5
ATOM      5  C   UNL     1      30.966 -18.886 -29.840  1.00  0.00    -0.000 C 
BRANCH   5   6
ATOM      6  C   UNL     1      31.718 -20.198 -30.120  1.00  0.00    -0.000 C 
BRANCH   6   7
ATOM      7  C   UNL     1      32.611 -20.109 -31.367  1.00  0.00    -0.003 C 
ATOM      8  C   UNL     1      34.076 -19.829 -31.030  1.00  0.00     0.004 C 
ENDBRANCH   6   7
ENDBRANCH   5   6
ENDBRANCH   4   5
ENDBRANCH   3   4
ENDBRANCH   2   3
ENDBRANCH   1   2
BRANCH   1   9
ATOM      9  C   UNL     1      35.142 -16.186 -29.121  1.00  0.00     0.000 C 
BRANCH   9  10
ATOM     10  C   UNL     1      36.354 -17.117 -29.287  1.00  0.00     0.000 C 
BRANCH  10  11
ATOM     11  C   UNL     1      36.960 -17.048 -30.700  1.00  0.00     0.000 C 
BRANCH  11  12
ATOM     12  C   UNL     1      37.374 -18.430 -31.232  1.00  0.00     0.002 C 
BRANCH  12  13
ATOM     13  C   UNL     1      37.438 -19.496 -30.127  1.00  0.00     0.028 C 
BRANCH  13  14
ATOM     14  C   UNL     1      38.871 -19.967 -29.877  1.00  0.00     0.156 C 
BRANCH  14  15
ATOM     15  O   UNL     1      39.149 -21.103 -30.649  1.00  0.00    -0.396 OA
ATOM     16  H   UNL     1      38.513 -21.080 -31.411  1.00  0.00     0.210 HD
ENDBRANCH  14  15
ENDBRANCH  13  14
ENDBRANCH  12  13
ENDBRANCH  11  12
ENDBRANCH  10  11
ENDBRANCH   9  10
ENDBRANCH   1   9
TORSDOF 13
ENDMDL
MODEL 2
REMARK VINA RESULT:    -2.416      0.768      3.234
REMARK INTER + INTRA:          -5.393
REMARK INTER:                  -4.241
REMARK INTRA:                  -1.152
REMARK UNBOUND:                -1.211
REMARK SMILES CCCCCCCCCCCCCCO
REMARK SMILES IDX 8 1 7 2 6 3 5 4 4 5 3 6 2 7 1 8 9 9 10 10 11 11 12 12 13 13
REMARK SMILES IDX 14 14 15 15
REMARK H PARENT 15 16
REMARK Flexibility Score: inf
ROOT
ATOM      1  C   UNL     1      32.699 -20.644 -30.786  1.00  0.00     0.000 C 
ENDROOT
BRANCH   1   2
ATOM      2  C   UNL     1      31.430 -20.088 -30.115  1.00  0.00    -0.000 C 
BRANCH   2   3
ATOM      3  C   UNL     1      31.449 -18.569 -29.851  1.00  0.00    -0.000 C 
BRANCH   3   4
ATOM      4  C   UNL     1      31.737 -18.161 -28.392  1.00  0.00    -0.000 C 
BRANCH   4   5
ATOM      5  C   UNL     1      33.004 -18.782 -27.777  1.00  0.00    -0.000 C 
BRANCH   5   6
ATOM      6  C   UNL     1      34.244 -17.887 -27.935  1.00  0.00    -0.000 C 
BRANCH   6   7
ATOM      7  C   UNL     1      33.893 -16.391 -27.944  1.00  0.00    -0.003 C 
ATOM      8  C   UNL     1      34.823 -15.569 -28.836  1.00  0.00     0.004 C 
ENDBRANCH   6   7
ENDBRANCH   5   6
ENDBRANCH   4   5
ENDBRANCH   3   4
ENDBRANCH   2   3
ENDBRANCH   1   2
BRANCH   1   9
ATOM      9  C   UNL     1      33.598 -19.537 -31.363  1.00  0.00     0.000 C 
BRANCH   9  10
ATOM     10  C   UNL     1      34.974 -19.476 -30.681  1.00  0.00     0.000 C 
BRANCH  10  11
ATOM     11  C   UNL     1      35.830 -18.301 -31.185  1.00  0.00     0.000 C 
BRANCH  11  12
ATOM     12  C   UNL     1      37.040 -18.021 -30.279  1.00  0.00     0.002 C 
BRANCH  12  13
ATOM     13  C   UNL     1      38.279 -18.840 -30.674  1.00  0.00     0.028 C 
BRANCH  13  14
ATOM     14  C   UNL     1      38.353 -20.160 -29.905  1.00  0.00     0.156 C 
BRANCH  14  15
ATOM     15  O   UNL     1      39.201 -21.058 -30.567  1.00  0.00    -0.396 OA
ATOM     16  H   UNL     1      39.055 -20.909 -31.537  1.00  0.00     0.210 HD
ENDBRANCH  14  15
ENDBRANCH  13  14
ENDBRANCH  12  13
ENDBRANCH  11  12
ENDBRANCH  10  11
ENDBRANCH   9  10
ENDBRANCH   1   9
TORSDOF 13
ENDMDL
MODEL 3
REMARK VINA RESULT:    -2.229      1.405      5.055
REMARK INTER + INTRA:          -5.069
REMARK INTER:                  -4.152
REMARK INTRA:                  -0.917
REMARK UNBOUND:                -1.211
REMARK SMILES CCCCCCCCCCCCCCO
REMARK SMILES IDX 8 1 7 2 6 3 5 4 4 5 3 6 2 7 1 8 9 9 10 10 11 11 12 12 13 13
REMARK SMILES IDX 14 14 15 15
REMARK H PARENT 15 16
REMARK Flexibility Score: inf
ROOT
ATOM      1  C   UNL     1      34.387 -18.284 -28.109  1.00  0.00     0.000 C 
ENDROOT
BRANCH   1   2
ATOM      2  C   UNL     1      34.347 -16.751 -28.242  1.00  0.00    -0.000 C 
BRANCH   2   3
ATOM      3  C   UNL     1      35.423 -16.154 -29.170  1.00  0.00    -0.000 C 
BRANCH   3   4
ATOM      4  C   UNL     1      36.577 -17.109 -29.538  1.00  0.00    -0.000 C 
BRANCH   4   5
ATOM      5  C   UNL     1      36.686 -17.455 -31.034  1.00  0.00    -0.000 C 
BRANCH   5   6
ATOM      6  C   UNL     1      37.508 -18.729 -31.292  1.00  0.00    -0.000 C 
BRANCH   6   7
ATOM      7  C   UNL     1      38.031 -19.366 -29.995  1.00  0.00    -0.003 C 
ATOM      8  C   UNL     1      38.931 -20.575 -30.249  1.00  0.00     0.004 C 
ENDBRANCH   6   7
ENDBRANCH   5   6
ENDBRANCH   4   5
ENDBRANCH   3   4
ENDBRANCH   2   3
ENDBRANCH   1   2
BRANCH   1   9
ATOM      9  C   UNL     1      33.001 -18.891 -27.829  1.00  0.00     0.000 C 
BRANCH   9  10
ATOM     10  C   UNL     1      31.851 -17.979 -28.286  1.00  0.00     0.000 C 
BRANCH  10  11
ATOM     11  C   UNL     1      31.285 -18.388 -29.657  1.00  0.00     0.000 C 
BRANCH  11  12
ATOM     12  C   UNL     1      31.025 -19.899 -29.762  1.00  0.00     0.002 C 
BRANCH  12  13
ATOM     13  C   UNL     1      32.116 -20.635 -30.556  1.00  0.00     0.028 C 
BRANCH  13  14
ATOM     14  C   UNL     1      32.977 -19.666 -31.367  1.00  0.00     0.156 C 
BRANCH  14  15
ATOM     15  O   UNL     1      34.336 -19.909 -31.125  1.00  0.00    -0.396 OA
ATOM     16  H   UNL     1      34.836 -19.292 -31.721  1.00  0.00     0.210 HD
ENDBRANCH  14  15
ENDBRANCH  13  14
ENDBRANCH  12  13
ENDBRANCH  11  12
ENDBRANCH  10  11
ENDBRANCH   9  10
ENDBRANCH   1   9
TORSDOF 13
ENDMDL
MODEL 4
REMARK VINA RESULT:    -1.764      2.102      5.188
REMARK INTER + INTRA:          -4.263
REMARK INTER:                  -3.243
REMARK INTRA:                  -1.020
REMARK UNBOUND:                -1.211
REMARK SMILES CCCCCCCCCCCCCCO
REMARK SMILES IDX 8 1 7 2 6 3 5 4 4 5 3 6 2 7 1 8 9 9 10 10 11 11 12 12 13 13
REMARK SMILES IDX 14 14 15 15
REMARK H PARENT 15 16
REMARK Flexibility Score: inf
ROOT
ATOM      1  C   UNL     1      31.537 -20.238 -30.247  1.00  0.00     0.000 C 
ENDROOT
BRANCH   1   2
ATOM      2  C   UNL     1      32.932 -20.657 -30.743  1.00  0.00    -0.000 C 
BRANCH   2   3
ATOM      3  C   UNL     1      33.724 -19.546 -31.463  1.00  0.00    -0.000 C 
BRANCH   3   4
ATOM      4  C   UNL     1      35.065 -19.165 -30.805  1.00  0.00    -0.000 C 
BRANCH   4   5
ATOM      5  C   UNL     1      35.983 -18.273 -31.661  1.00  0.00    -0.000 C 
BRANCH   5   6
ATOM      6  C   UNL     1      37.270 -17.864 -30.927  1.00  0.00    -0.000 C 
BRANCH   6   7
ATOM      7  C   UNL     1      37.609 -18.807 -29.763  1.00  0.00    -0.003 C 
ATOM      8  C   UNL     1      38.537 -19.950 -30.176  1.00  0.00     0.004 C 
ENDBRANCH   6   7
ENDBRANCH   5   6
ENDBRANCH   4   5
ENDBRANCH   3   4
ENDBRANCH   2   3
ENDBRANCH   1   2
BRANCH   1   9
ATOM      9  C   UNL     1      31.395 -18.715 -30.091  1.00  0.00     0.000 C 
BRANCH   9  10
ATOM     10  C   UNL     1      31.433 -18.263 -28.622  1.00  0.00     0.000 C 
BRANCH  10  11
ATOM     11  C   UNL     1      32.519 -18.991 -27.810  1.00  0.00     0.000 C 
BRANCH  11  12
ATOM     12  C   UNL     1      33.903 -18.341 -27.959  1.00  0.00     0.002 C 
BRANCH  12  13
ATOM     13  C   UNL     1      33.839 -16.805 -27.975  1.00  0.00     0.028 C 
BRANCH  13  14
ATOM     14  C   UNL     1      35.089 -16.193 -28.607  1.00  0.00     0.156 C 
BRANCH  14  15
ATOM     15  O   UNL     1      34.782 -14.953 -29.183  1.00  0.00    -0.396 OA
ATOM     16  H   UNL     1      34.021 -15.117 -29.799  1.00  0.00     0.210 HD
ENDBRANCH  14  15
ENDBRANCH  13  14
ENDBRANCH  12  13
ENDBRANCH  11  12
ENDBRANCH  10  11
ENDBRANCH   9  10
ENDBRANCH   1   9
TORSDOF 13
ENDMDL
MODEL 5
REMARK VINA RESULT:    -1.734      0.869      1.729
REMARK INTER + INTRA:          -4.213
REMARK INTER:                  -3.295
REMARK INTRA:                  -0.917
REMARK UNBOUND:                -1.211
REMARK SMILES CCCCCCCCCCCCCCO
REMARK SMILES IDX 8 1 7 2 6 3 5 4 4 5 3 6 2 7 1 8 9 9 10 10 11 11 12 12 13 13
REMARK SMILES IDX 14 14 15 15
REMARK H PARENT 15 16
REMARK Flexibility Score: inf
ROOT
ATOM      1  C   UNL     1      34.627 -16.258 -28.140  1.00  0.00     0.000 C 
ENDROOT
BRANCH   1   2
ATOM      2  C   UNL     1      33.660 -17.447 -28.292  1.00  0.00    -0.000 C 
BRANCH   2   3
ATOM      3  C   UNL     1      34.331 -18.835 -28.264  1.00  0.00    -0.000 C 
BRANCH   3   4
ATOM      4  C   UNL     1      34.552 -19.484 -29.646  1.00  0.00    -0.000 C 
BRANCH   4   5
ATOM      5  C   UNL     1      33.369 -19.358 -30.623  1.00  0.00    -0.000 C 
BRANCH   5   6
ATOM      6  C   UNL     1      32.236 -20.353 -30.320  1.00  0.00    -0.000 C 
BRANCH   6   7
ATOM      7  C   UNL     1      31.068 -19.701 -29.563  1.00  0.00    -0.003 C 
ATOM      8  C   UNL     1      30.924 -18.209 -29.865  1.00  0.00     0.004 C 
ENDBRANCH   6   7
ENDBRANCH   5   6
ENDBRANCH   4   5
ENDBRANCH   3   4
ENDBRANCH   2   3
ENDBRANCH   1   2
BRANCH   1   9
ATOM      9  C   UNL     1      35.293 -15.863 -29.469  1.00  0.00     0.000 C 
BRANCH   9  10
ATOM     10  C   UNL     1      36.559 -16.684 -29.765  1.00  0.00     0.000 C 
BRANCH  10  11
ATOM     11  C   UNL     1      36.631 -17.146 -31.231  1.00  0.00     0.000 C 
BRANCH  11  12
ATOM     12  C   UNL     1      37.304 -18.520 -31.384  1.00  0.00     0.002 C 
BRANCH  12  13
ATOM     13  C   UNL     1      38.219 -18.867 -30.198  1.00  0.00     0.028 C 
BRANCH  13  14
ATOM     14  C   UNL     1      38.210 -20.366 -29.897  1.00  0.00     0.156 C 
BRANCH  14  15
ATOM     15  O   UNL     1      39.221 -21.011 -30.624  1.00  0.00    -0.396 OA
ATOM     16  H   UNL     1      39.176 -20.641 -31.544  1.00  0.00     0.210 HD
ENDBRANCH  14  15
ENDBRANCH  13  14
ENDBRANCH  12  13
ENDBRANCH  11  12
ENDBRANCH  10  11
ENDBRANCH   9  10
ENDBRANCH   1   9
TORSDOF 13
ENDMDL
MODEL 6
REMARK VINA RESULT:    -1.536      2.213      5.255
REMARK INTER + INTRA:          -3.870
REMARK INTER:                  -3.652
REMARK INTRA:                  -0.217
REMARK UNBOUND:                -1.211
REMARK SMILES CCCCCCCCCCCCCCO
REMARK SMILES IDX 8 1 7 2 6 3 5 4 4 5 3 6 2 7 1 8 9 9 10 10 11 11 12 12 13 13
REMARK SMILES IDX 14 14 15 15
REMARK H PARENT 15 16
REMARK Flexibility Score: inf
ROOT
ATOM      1  C   UNL     1      31.933 -20.235 -30.322  1.00  0.00     0.000 C 
ENDROOT
BRANCH   1   2
ATOM      2  C   UNL     1      33.139 -20.327 -31.273  1.00  0.00    -0.000 C 
BRANCH   2   3
ATOM      3  C   UNL     1      34.258 -19.302 -31.001  1.00  0.00    -0.000 C 
BRANCH   3   4
ATOM      4  C   UNL     1      35.078 -19.550 -29.719  1.00  0.00    -0.000 C 
BRANCH   4   5
ATOM      5  C   UNL     1      36.591 -19.294 -29.851  1.00  0.00    -0.000 C 
BRANCH   5   6
ATOM      6  C   UNL     1      36.975 -17.833 -29.564  1.00  0.00    -0.000 C 
BRANCH   6   7
ATOM      7  C   UNL     1      37.292 -17.046 -30.844  1.00  0.00    -0.003 C 
ATOM      8  C   UNL     1      36.962 -17.825 -32.117  1.00  0.00     0.004 C 
ENDBRANCH   6   7
ENDBRANCH   5   6
ENDBRANCH   4   5
ENDBRANCH   3   4
ENDBRANCH   2   3
ENDBRANCH   1   2
BRANCH   1   9
ATOM      9  C   UNL     1      31.343 -18.816 -30.248  1.00  0.00     0.000 C 
BRANCH   9  10
ATOM     10  C   UNL     1      31.260 -18.283 -28.808  1.00  0.00     0.000 C 
BRANCH  10  11
ATOM     11  C   UNL     1      32.258 -18.977 -27.865  1.00  0.00     0.000 C 
BRANCH  11  12
ATOM     12  C   UNL     1      33.553 -18.169 -27.679  1.00  0.00     0.002 C 
BRANCH  12  13
ATOM     13  C   UNL     1      33.396 -16.695 -28.088  1.00  0.00     0.028 C 
BRANCH  13  14
ATOM     14  C   UNL     1      34.752 -16.004 -28.241  1.00  0.00     0.156 C 
BRANCH  14  15
ATOM     15  O   UNL     1      34.639 -14.906 -29.105  1.00  0.00    -0.396 OA
ATOM     16  H   UNL     1      35.456 -14.916 -29.669  1.00  0.00     0.210 HD
ENDBRANCH  14  15
ENDBRANCH  13  14
ENDBRANCH  12  13
ENDBRANCH  11  12
ENDBRANCH  10  11
ENDBRANCH   9  10
ENDBRANCH   1   9
TORSDOF 13
ENDMDL
MODEL 7
REMARK VINA RESULT:    -0.641      1.465      3.414
REMARK INTER + INTRA:          -2.321
REMARK INTER:                  -1.847
REMARK INTRA:                  -0.473
REMARK UNBOUND:                -1.211
REMARK SMILES CCCCCCCCCCCCCCO
REMARK SMILES IDX 8 1 7 2 6 3 5 4 4 5 3 6 2 7 1 8 9 9 10 10 11 11 12 12 13 13
REMARK SMILES IDX 14 14 15 15
REMARK H PARENT 15 16
REMARK Flexibility Score: inf
ROOT
ATOM      1  C   UNL     1      33.505 -19.495 -31.243  1.00  0.00     0.000 C 
ENDROOT
BRANCH   1   2
ATOM      2  C   UNL     1      32.584 -20.598 -30.691  1.00  0.00    -0.000 C 
BRANCH   2   3
ATOM      3  C   UNL     1      31.242 -20.096 -30.121  1.00  0.00    -0.000 C 
BRANCH   3   4
ATOM      4  C   UNL     1      31.325 -18.796 -29.295  1.00  0.00    -0.000 C 
BRANCH   4   5
ATOM      5  C   UNL     1      31.897 -18.960 -27.875  1.00  0.00    -0.000 C 
BRANCH   5   6
ATOM      6  C   UNL     1      33.224 -18.210 -27.676  1.00  0.00    -0.000 C 
BRANCH   6   7
ATOM      7  C   UNL     1      33.230 -16.834 -28.360  1.00  0.00    -0.003 C 
ATOM      8  C   UNL     1      34.548 -16.083 -28.170  1.00  0.00     0.004 C 
ENDBRANCH   6   7
ENDBRANCH   5   6
ENDBRANCH   4   5
ENDBRANCH   3   4
ENDBRANCH   2   3
ENDBRANCH   1   2
BRANCH   1   9
ATOM      9  C   UNL     1      34.970 -19.673 -30.807  1.00  0.00     0.000 C 
BRANCH   9  10
ATOM     10  C   UNL     1      35.175 -19.426 -29.303  1.00  0.00     0.000 C 
BRANCH  10  11
ATOM     11  C   UNL     1      36.634 -19.085 -28.956  1.00  0.00     0.000 C 
BRANCH  11  12
ATOM     12  C   UNL     1      37.465 -18.717 -30.196  1.00  0.00     0.002 C 
BRANCH  12  13
ATOM     13  C   UNL     1      37.302 -17.243 -30.603  1.00  0.00     0.028 C 
BRANCH  13  14
ATOM     14  C   UNL     1      36.709 -17.107 -32.006  1.00  0.00     0.156 C 
BRANCH  14  15
ATOM     15  O   UNL     1      37.219 -18.106 -32.846  1.00  0.00    -0.396 OA
ATOM     16  H   UNL     1      38.098 -18.365 -32.463  1.00  0.00     0.210 HD
ENDBRANCH  14  15
ENDBRANCH  13  14
ENDBRANCH  12  13
ENDBRANCH  11  12
ENDBRANCH  10  11
ENDBRANCH   9  10
ENDBRANCH   1   9
TORSDOF 13
ENDMDL
MODEL 8
REMARK VINA RESULT:    -0.278      1.627      2.141
REMARK INTER + INTRA:          -1.691
REMARK INTER:                  -0.814
REMARK INTRA:                  -0.877
REMARK UNBOUND:                -1.211
REMARK SMILES CCCCCCCCCCCCCCO
REMARK SMILES IDX 8 1 7 2 6 3 5 4 4 5 3 6 2 7 1 8 9 9 10 10 11 11 12 12 13 13
REMARK SMILES IDX 14 14 15 15
REMARK H PARENT 15 16
REMARK Flexibility Score: inf
ROOT
ATOM      1  C   UNL     1      33.744 -17.046 -28.388  1.00  0.00     0.000 C 
ENDROOT
BRANCH   1   2
ATOM      2  C   UNL     1      32.290 -17.428 -28.056  1.00  0.00    -0.000 C 
BRANCH   2   3
ATOM      3  C   UNL     1      32.100 -18.870 -27.546  1.00  0.00    -0.000 C 
BRANCH   3   4
ATOM      4  C   UNL     1      31.045 -19.701 -28.305  1.00  0.00    -0.000 C 
BRANCH   4   5
ATOM      5  C   UNL     1      31.072 -19.548 -29.837  1.00  0.00    -0.000 C 
BRANCH   5   6
ATOM      6  C   UNL     1      32.038 -20.533 -30.517  1.00  0.00    -0.000 C 
BRANCH   6   7
ATOM      7  C   UNL     1      33.394 -19.892 -30.848  1.00  0.00    -0.003 C 
ATOM      8  C   UNL     1      33.698 -19.888 -32.346  1.00  0.00     0.004 C 
ENDBRANCH   6   7
ENDBRANCH   5   6
ENDBRANCH   4   5
ENDBRANCH   3   4
ENDBRANCH   2   3
ENDBRANCH   1   2
BRANCH   1   9
ATOM      9  C   UNL     1      34.737 -18.184 -28.097  1.00  0.00     0.000 C 
BRANCH   9  10
ATOM     10  C   UNL     1      35.916 -18.208 -29.083  1.00  0.00     0.000 C 
BRANCH  10  11
ATOM     11  C   UNL     1      36.566 -19.599 -29.190  1.00  0.00     0.000 C 
BRANCH  11  12
ATOM     12  C   UNL     1      37.905 -19.568 -29.944  1.00  0.00     0.002 C 
BRANCH  12  13
ATOM     13  C   UNL     1      38.037 -18.347 -30.869  1.00  0.00     0.028 C 
BRANCH  13  14
ATOM     14  C   UNL     1      37.016 -18.387 -32.007  1.00  0.00     0.156 C 
BRANCH  14  15
ATOM     15  O   UNL     1      36.677 -17.085 -32.398  1.00  0.00    -0.396 OA
ATOM     16  H   UNL     1      36.931 -16.496 -31.641  1.00  0.00     0.210 HD
ENDBRANCH  14  15
ENDBRANCH  13  14
ENDBRANCH  12  13
ENDBRANCH  11  12
ENDBRANCH  10  11
ENDBRANCH   9  10
ENDBRANCH   1   9
TORSDOF 13
ENDMDL
MODEL 9
REMARK VINA RESULT:    -0.231      1.648      5.127
REMARK INTER + INTRA:          -1.611
REMARK INTER:                  -1.132
REMARK INTRA:                  -0.478
REMARK UNBOUND:                -1.211
REMARK SMILES CCCCCCCCCCCCCCO
REMARK SMILES IDX 8 1 7 2 6 3 5 4 4 5 3 6 2 7 1 8 9 9 10 10 11 11 12 12 13 13
REMARK SMILES IDX 14 14 15 15
REMARK H PARENT 15 16
REMARK Flexibility Score: inf
ROOT
ATOM      1  C   UNL     1      34.183 -18.739 -27.993  1.00  0.00     0.000 C 
ENDROOT
BRANCH   1   2
ATOM      2  C   UNL     1      35.592 -18.456 -28.544  1.00  0.00    -0.000 C 
BRANCH   2   3
ATOM      3  C   UNL     1      36.215 -19.611 -29.354  1.00  0.00    -0.000 C 
BRANCH   3   4
ATOM      4  C   UNL     1      37.579 -19.296 -30.002  1.00  0.00    -0.000 C 
BRANCH   4   5
ATOM      5  C   UNL     1      37.523 -18.940 -31.499  1.00  0.00    -0.000 C 
BRANCH   5   6
ATOM      6  C   UNL     1      36.761 -17.632 -31.773  1.00  0.00    -0.000 C 
BRANCH   6   7
ATOM      7  C   UNL     1      37.169 -16.502 -30.815  1.00  0.00    -0.003 C 
ATOM      8  C   UNL     1      35.983 -15.924 -30.041  1.00  0.00     0.004 C 
ENDBRANCH   6   7
ENDBRANCH   5   6
ENDBRANCH   4   5
ENDBRANCH   3   4
ENDBRANCH   2   3
ENDBRANCH   1   2
BRANCH   1   9
ATOM      9  C   UNL     1      33.238 -17.534 -28.133  1.00  0.00     0.000 C 
BRANCH   9  10
ATOM     10  C   UNL     1      31.757 -17.944 -28.178  1.00  0.00     0.000 C 
BRANCH  10  11
ATOM     11  C   UNL     1      31.315 -18.403 -29.579  1.00  0.00     0.000 C 
BRANCH  11  12
ATOM     12  C   UNL     1      31.187 -19.931 -29.685  1.00  0.00     0.002 C 
BRANCH  12  13
ATOM     13  C   UNL     1      32.231 -20.550 -30.629  1.00  0.00     0.028 C 
BRANCH  13  14
ATOM     14  C   UNL     1      33.067 -19.478 -31.329  1.00  0.00     0.156 C 
BRANCH  14  15
ATOM     15  O   UNL     1      34.193 -20.058 -31.928  1.00  0.00    -0.396 OA
ATOM     16  H   UNL     1      34.832 -20.242 -31.192  1.00  0.00     0.210 HD
ENDBRANCH  14  15
ENDBRANCH  13  14
ENDBRANCH  12  13
ENDBRANCH  11  12
ENDBRANCH  10  11
ENDBRANCH   9  10
ENDBRANCH   1   9
TORSDOF 13
ENDMDL
