MODEL 1
REMARK VINA RESULT:    -5.698      0.000      0.000
REMARK INTER + INTRA:         -12.127
REMARK INTER:                 -11.028
REMARK INTRA:                  -1.100
REMARK UNBOUND:                -1.100
REMARK SMILES CCCCCCCCCCCCCCCCCC(=O)[O-]
REMARK SMILES IDX 10 1 11 2 12 3 13 4 14 5 15 6 16 7 17 8 18 9 19 10 20 11
REMARK SMILES IDX 9 12 8 13 7 14 6 15 5 16 4 17 3 18 2 19 1 20
REMARK H PARENT
REMARK Flexibility Score: inf
ROOT
ATOM      1  C   UNL     1      13.432   7.418 -20.398  1.00  0.00     0.000 C 
ENDROOT
BRANCH   1   2
ATOM      2  C   UNL     1      14.563   6.481 -20.851  1.00  0.00     0.000 C 
BRANCH   2   3
ATOM      3  C   UNL     1      15.578   7.219 -21.741  1.00  0.00     0.000 C 
BRANCH   3   4
ATOM      4  C   UNL     1      15.176   8.681 -22.016  1.00  0.00     0.000 C 
BRANCH   4   5
ATOM      5  C   UNL     1      16.347   9.680 -21.941  1.00  0.00     0.000 C 
BRANCH   5   6
ATOM      6  C   UNL     1      17.201   9.493 -20.674  1.00  0.00     0.000 C 
BRANCH   6   7
ATOM      7  C   UNL     1      18.405  10.455 -20.634  1.00  0.00     0.006 C 
BRANCH   7   8
ATOM      8  C   UNL     1      18.120  11.817 -21.279  1.00  0.00     0.053 C 
BRANCH   8   9
ATOM      9  C   UNL     1      17.795  12.858 -20.257  1.00  0.00     0.041 C 
ATOM     10  O   UNL     1      16.598  13.189 -20.046  1.00  0.00    -0.550 OA
ATOM     11  O   UNL     1      18.811  13.444 -19.521  1.00  0.00    -0.550 OA
ENDBRANCH   8   9
ENDBRANCH   7   8
ENDBRANCH   6   7
ENDBRANCH   5   6
ENDBRANCH   4   5
ENDBRANCH   3   4
ENDBRANCH   2   3
ENDBRANCH   1   2
BRANCH   1  12
ATOM     12  C   UNL     1      13.096   7.252 -18.906  1.00  0.00     0.000 C 
BRANCH  12  13
ATOM     13  C   UNL     1      12.352   8.470 -18.332  1.00  0.00    -0.000 C 
BRANCH  13  14
ATOM     14  C   UNL     1      11.574   9.253 -19.402  1.00  0.00    -0.000 C 
BRANCH  14  15
ATOM     15  C   UNL     1      10.743  10.434 -18.869  1.00  0.00    -0.000 C 
BRANCH  15  16
ATOM     16  C   UNL     1      10.430  11.508 -19.932  1.00  0.00    -0.000 C 
BRANCH  16  17
ATOM     17  C   UNL     1       9.523  12.625 -19.389  1.00  0.00    -0.000 C 
BRANCH  17  18
ATOM     18  C   UNL     1       9.957  13.118 -17.998  1.00  0.00    -0.000 C 
BRANCH  18  19
ATOM     19  C   UNL     1       9.561  14.581 -17.739  1.00  0.00    -0.003 C 
ATOM     20  C   UNL     1       9.116  15.264 -19.030  1.00  0.00     0.004 C 
ENDBRANCH  18  19
ENDBRANCH  17  18
ENDBRANCH  16  17
ENDBRANCH  15  16
ENDBRANCH  14  15
ENDBRANCH  13  14
ENDBRANCH  12  13
ENDBRANCH   1  12
TORSDOF 16
ENDMDL
MODEL 2
REMARK VINA RESULT:    -5.659      2.486      3.815
REMARK INTER + INTRA:         -12.052
REMARK INTER:                 -11.293
REMARK INTRA:                  -0.760
REMARK UNBOUND:                -1.100
REMARK SMILES CCCCCCCCCCCCCCCCCC(=O)[O-]
REMARK SMILES IDX 10 1 11 2 12 3 13 4 14 5 15 6 16 7 17 8 18 9 19 10 20 11
REMARK SMILES IDX 9 12 8 13 7 14 6 15 5 16 4 17 3 18 2 19 1 20
REMARK H PARENT
REMARK Flexibility Score: inf
ROOT
ATOM      1  C   UNL     1      11.140   9.680 -19.349  1.00  0.00     0.000 C 
ENDROOT
BRANCH   1   2
ATOM      2  C   UNL     1      11.991   8.477 -18.912  1.00  0.00     0.000 C 
BRANCH   2   3
ATOM      3  C   UNL     1      12.647   7.788 -20.120  1.00  0.00     0.000 C 
BRANCH   3   4
ATOM      4  C   UNL     1      13.917   7.002 -19.739  1.00  0.00     0.000 C 
BRANCH   4   5
ATOM      5  C   UNL     1      14.809   6.631 -20.940  1.00  0.00     0.000 C 
BRANCH   5   6
ATOM      6  C   UNL     1      15.502   7.856 -21.561  1.00  0.00     0.000 C 
BRANCH   6   7
ATOM      7  C   UNL     1      16.771   8.265 -20.786  1.00  0.00     0.006 C 
BRANCH   7   8
ATOM      8  C   UNL     1      17.191   9.721 -21.026  1.00  0.00     0.053 C 
BRANCH   8   9
ATOM      9  C   UNL     1      17.595  10.399 -19.757  1.00  0.00     0.041 C 
ATOM     10  O   UNL     1      17.780  11.645 -19.734  1.00  0.00    -0.550 OA
ATOM     11  O   UNL     1      17.743   9.659 -18.595  1.00  0.00    -0.550 OA
ENDBRANCH   8   9
ENDBRANCH   7   8
ENDBRANCH   6   7
ENDBRANCH   5   6
ENDBRANCH   4   5
ENDBRANCH   3   4
ENDBRANCH   2   3
ENDBRANCH   1   2
BRANCH   1  12
ATOM     12  C   UNL     1      10.895  10.674 -18.200  1.00  0.00     0.000 C 
BRANCH  12  13
ATOM     13  C   UNL     1      10.404  12.043 -18.701  1.00  0.00    -0.000 C 
BRANCH  13  14
ATOM     14  C   UNL     1      10.036  12.035 -20.194  1.00  0.00    -0.000 C 
BRANCH  14  15
ATOM     15  C   UNL     1       8.678  12.676 -20.532  1.00  0.00    -0.000 C 
BRANCH  15  16
ATOM     16  C   UNL     1       8.670  14.216 -20.423  1.00  0.00    -0.000 C 
BRANCH  16  17
ATOM     17  C   UNL     1       7.412  14.842 -21.050  1.00  0.00    -0.000 C 
BRANCH  17  18
ATOM     18  C   UNL     1       6.469  13.793 -21.662  1.00  0.00    -0.000 C 
BRANCH  18  19
ATOM     19  C   UNL     1       5.108  14.384 -22.064  1.00  0.00    -0.003 C 
ATOM     20  C   UNL     1       4.381  13.468 -23.045  1.00  0.00     0.004 C 
ENDBRANCH  18  19
ENDBRANCH  17  18
ENDBRANCH  16  17
ENDBRANCH  15  16
ENDBRANCH  14  15
ENDBRANCH  13  14
ENDBRANCH  12  13
ENDBRANCH   1  12
TORSDOF 16
ENDMDL
MODEL 3
REMARK VINA RESULT:    -5.644      1.715      3.364
REMARK INTER + INTRA:         -12.023
REMARK INTER:                 -11.146
REMARK INTRA:                  -0.877
REMARK UNBOUND:                -1.100
REMARK SMILES CCCCCCCCCCCCCCCCCC(=O)[O-]
REMARK SMILES IDX 10 1 11 2 12 3 13 4 14 5 15 6 16 7 17 8 18 9 19 10 20 11
REMARK SMILES IDX 9 12 8 13 7 14 6 15 5 16 4 17 3 18 2 19 1 20
REMARK H PARENT
REMARK Flexibility Score: inf
ROOT
ATOM      1  C   UNL     1      11.678   9.072 -19.400  1.00  0.00     0.000 C 
ENDROOT
BRANCH   1   2
ATOM      2  C   UNL     1      12.507   8.364 -18.317  1.00  0.00     0.000 C 
BRANCH   2   3
ATOM      3  C   UNL     1      13.243   7.140 -18.886  1.00  0.00     0.000 C 
BRANCH   3   4
ATOM      4  C   UNL     1      13.563   7.282 -20.387  1.00  0.00     0.000 C 
BRANCH   4   5
ATOM      5  C   UNL     1      14.911   6.663 -20.804  1.00  0.00     0.000 C 
BRANCH   5   6
ATOM      6  C   UNL     1      15.691   7.554 -21.785  1.00  0.00     0.000 C 
BRANCH   6   7
ATOM      7  C   UNL     1      16.495   8.654 -21.064  1.00  0.00     0.006 C 
BRANCH   7   8
ATOM      8  C   UNL     1      16.798   8.325 -19.596  1.00  0.00     0.053 C 
BRANCH   8   9
ATOM      9  C   UNL     1      17.754   9.303 -18.994  1.00  0.00     0.041 C 
ATOM     10  O   UNL     1      17.689  10.524 -19.298  1.00  0.00    -0.550 OA
ATOM     11  O   UNL     1      18.700   8.871 -18.079  1.00  0.00    -0.550 OA
ENDBRANCH   8   9
ENDBRANCH   7   8
ENDBRANCH   6   7
ENDBRANCH   5   6
ENDBRANCH   4   5
ENDBRANCH   3   4
ENDBRANCH   2   3
ENDBRANCH   1   2
BRANCH   1  12
ATOM     12  C   UNL     1      10.748  10.150 -18.817  1.00  0.00     0.000 C 
BRANCH  12  13
ATOM     13  C   UNL     1      10.813  11.471 -19.603  1.00  0.00    -0.000 C 
BRANCH  13  14
ATOM     14  C   UNL     1       9.492  11.807 -20.314  1.00  0.00    -0.000 C 
BRANCH  14  15
ATOM     15  C   UNL     1       8.942  13.217 -20.031  1.00  0.00    -0.000 C 
BRANCH  15  16
ATOM     16  C   UNL     1       9.549  13.884 -18.778  1.00  0.00    -0.000 C 
BRANCH  16  17
ATOM     17  C   UNL     1       9.145  15.363 -18.646  1.00  0.00    -0.000 C 
BRANCH  17  18
ATOM     18  C   UNL     1       9.258  15.884 -17.204  1.00  0.00    -0.000 C 
BRANCH  18  19
ATOM     19  C   UNL     1       8.987  14.791 -16.158  1.00  0.00    -0.003 C 
ATOM     20  C   UNL     1      10.144  14.681 -15.168  1.00  0.00     0.004 C 
ENDBRANCH  18  19
ENDBRANCH  17  18
ENDBRANCH  16  17
ENDBRANCH  15  16
ENDBRANCH  14  15
ENDBRANCH  13  14
ENDBRANCH  12  13
ENDBRANCH   1  12
TORSDOF 16
ENDMDL
MODEL 4
REMARK VINA RESULT:    -5.457      3.190      7.253
REMARK INTER + INTRA:         -11.660
REMARK INTER:                 -10.501
REMARK INTRA:                  -1.159
REMARK UNBOUND:                -1.100
REMARK SMILES CCCCCCCCCCCCCCCCCC(=O)[O-]
REMARK SMILES IDX 10 1 11 2 12 3 13 4 14 5 15 6 16 7 17 8 18 9 19 10 20 11
REMARK SMILES IDX 9 12 8 13 7 14 6 15 5 16 4 17 3 18 2 19 1 20
REMARK H PARENT
REMARK Flexibility Score: inf
ROOT
ATOM      1  C   UNL     1      14.505   6.470 -20.831  1.00  0.00     0.000 C 
ENDROOT
BRANCH   1   2
ATOM      2  C   UNL     1      13.449   7.482 -20.359  1.00  0.00     0.000 C 
BRANCH   2   3
ATOM      3  C   UNL     1      13.256   7.418 -18.835  1.00  0.00     0.000 C 
BRANCH   3   4
ATOM      4  C   UNL     1      12.221   8.438 -18.323  1.00  0.00     0.000 C 
BRANCH   4   5
ATOM      5  C   UNL     1      11.487   9.203 -19.441  1.00  0.00     0.000 C 
BRANCH   5   6
ATOM      6  C   UNL     1      10.794  10.477 -18.927  1.00  0.00     0.000 C 
BRANCH   6   7
ATOM      7  C   UNL     1      10.349  11.404 -20.075  1.00  0.00     0.006 C 
BRANCH   7   8
ATOM      8  C   UNL     1       9.593  12.650 -19.596  1.00  0.00     0.053 C 
BRANCH   8   9
ATOM      9  C   UNL     1       8.535  13.065 -20.566  1.00  0.00     0.041 C 
ATOM     10  O   UNL     1       8.285  14.286 -20.750  1.00  0.00    -0.550 OA
ATOM     11  O   UNL     1       7.843  12.105 -21.286  1.00  0.00    -0.550 OA
ENDBRANCH   8   9
ENDBRANCH   7   8
ENDBRANCH   6   7
ENDBRANCH   5   6
ENDBRANCH   4   5
ENDBRANCH   3   4
ENDBRANCH   2   3
ENDBRANCH   1   2
BRANCH   1  12
ATOM     12  C   UNL     1      15.581   7.117 -21.721  1.00  0.00     0.000 C 
BRANCH  12  13
ATOM     13  C   UNL     1      15.290   8.599 -22.011  1.00  0.00    -0.000 C 
BRANCH  13  14
ATOM     14  C   UNL     1      16.475   9.517 -21.668  1.00  0.00    -0.000 C 
BRANCH  14  15
ATOM     15  C   UNL     1      17.357   9.033 -20.502  1.00  0.00    -0.000 C 
BRANCH  15  16
ATOM     16  C   UNL     1      18.644   9.863 -20.307  1.00  0.00    -0.000 C 
BRANCH  16  17
ATOM     17  C   UNL     1      18.829  10.925 -21.403  1.00  0.00    -0.000 C 
BRANCH  17  18
ATOM     18  C   UNL     1      18.866  12.357 -20.843  1.00  0.00    -0.000 C 
BRANCH  18  19
ATOM     19  C   UNL     1      17.529  12.780 -20.213  1.00  0.00    -0.003 C 
ATOM     20  C   UNL     1      17.571  14.240 -19.769  1.00  0.00     0.004 C 
ENDBRANCH  18  19
ENDBRANCH  17  18
ENDBRANCH  16  17
ENDBRANCH  15  16
ENDBRANCH  14  15
ENDBRANCH  13  14
ENDBRANCH  12  13
ENDBRANCH   1  12
TORSDOF 16
ENDMDL
MODEL 5
REMARK VINA RESULT:    -5.447      1.192      3.321
REMARK INTER + INTRA:         -11.641
REMARK INTER:                 -10.121
REMARK INTRA:                  -1.520
REMARK UNBOUND:                -1.100
REMARK SMILES CCCCCCCCCCCCCCCCCC(=O)[O-]
REMARK SMILES IDX 10 1 11 2 12 3 13 4 14 5 15 6 16 7 17 8 18 9 19 10 20 11
REMARK SMILES IDX 9 12 8 13 7 14 6 15 5 16 4 17 3 18 2 19 1 20
REMARK H PARENT
REMARK Flexibility Score: inf
ROOT
ATOM      1  C   UNL     1      16.084   8.699 -21.078  1.00  0.00     0.000 C 
ENDROOT
BRANCH   1   2
ATOM      2  C   UNL     1      16.808   8.285 -19.787  1.00  0.00     0.000 C 
BRANCH   2   3
ATOM      3  C   UNL     1      17.853   9.334 -19.371  1.00  0.00     0.000 C 
BRANCH   3   4
ATOM      4  C   UNL     1      19.198   9.157 -20.102  1.00  0.00     0.000 C 
BRANCH   4   5
ATOM      5  C   UNL     1      19.758  10.457 -20.711  1.00  0.00     0.000 C 
BRANCH   5   6
ATOM      6  C   UNL     1      18.943  10.939 -21.924  1.00  0.00     0.000 C 
BRANCH   6   7
ATOM      7  C   UNL     1      18.487  12.404 -21.776  1.00  0.00     0.006 C 
BRANCH   7   8
ATOM      8  C   UNL     1      17.477  12.617 -20.641  1.00  0.00     0.053 C 
BRANCH   8   9
ATOM      9  C   UNL     1      17.968  13.616 -19.643  1.00  0.00     0.041 C 
ATOM     10  O   UNL     1      19.203  13.751 -19.434  1.00  0.00    -0.550 OA
ATOM     11  O   UNL     1      17.063  14.414 -18.962  1.00  0.00    -0.550 OA
ENDBRANCH   8   9
ENDBRANCH   7   8
ENDBRANCH   6   7
ENDBRANCH   5   6
ENDBRANCH   4   5
ENDBRANCH   3   4
ENDBRANCH   2   3
ENDBRANCH   1   2
BRANCH   1  12
ATOM     12  C   UNL     1      15.496   7.494 -21.833  1.00  0.00     0.000 C 
BRANCH  12  13
ATOM     13  C   UNL     1      14.771   6.511 -20.897  1.00  0.00    -0.000 C 
BRANCH  13  14
ATOM     14  C   UNL     1      13.442   7.069 -20.361  1.00  0.00    -0.000 C 
BRANCH  14  15
ATOM     15  C   UNL     1      13.341   7.148 -18.826  1.00  0.00    -0.000 C 
BRANCH  15  16
ATOM     16  C   UNL     1      12.495   8.334 -18.316  1.00  0.00    -0.000 C 
BRANCH  16  17
ATOM     17  C   UNL     1      11.802   9.094 -19.460  1.00  0.00    -0.000 C 
BRANCH  17  18
ATOM     18  C   UNL     1      10.739  10.085 -18.956  1.00  0.00    -0.000 C 
BRANCH  18  19
ATOM     19  C   UNL     1      10.715  11.390 -19.769  1.00  0.00    -0.003 C 
ATOM     20  C   UNL     1      10.162  12.543 -18.935  1.00  0.00     0.004 C 
ENDBRANCH  18  19
ENDBRANCH  17  18
ENDBRANCH  16  17
ENDBRANCH  15  16
ENDBRANCH  14  15
ENDBRANCH  13  14
ENDBRANCH  12  13
ENDBRANCH   1  12
TORSDOF 16
ENDMDL
MODEL 6
REMARK VINA RESULT:    -5.395      1.278      2.165
REMARK INTER + INTRA:         -11.542
REMARK INTER:                 -10.456
REMARK INTRA:                  -1.086
REMARK UNBOUND:                -1.100
REMARK SMILES CCCCCCCCCCCCCCCCCC(=O)[O-]
REMARK SMILES IDX 10 1 11 2 12 3 13 4 14 5 15 6 16 7 17 8 18 9 19 10 20 11
REMARK SMILES IDX 9 12 8 13 7 14 6 15 5 16 4 17 3 18 2 19 1 20
REMARK H PARENT
REMARK Flexibility Score: inf
ROOT
ATOM      1  C   UNL     1      15.127   7.448 -21.533  1.00  0.00     0.000 C 
ENDROOT
BRANCH   1   2
ATOM      2  C   UNL     1      16.459   8.166 -21.262  1.00  0.00     0.000 C 
BRANCH   2   3
ATOM      3  C   UNL     1      16.692   8.363 -19.755  1.00  0.00     0.000 C 
BRANCH   3   4
ATOM      4  C   UNL     1      17.631   9.545 -19.447  1.00  0.00     0.000 C 
BRANCH   4   5
ATOM      5  C   UNL     1      19.025   9.425 -20.094  1.00  0.00     0.000 C 
BRANCH   5   6
ATOM      6  C   UNL     1      19.328  10.584 -21.060  1.00  0.00     0.000 C 
BRANCH   6   7
ATOM      7  C   UNL     1      18.069  11.402 -21.405  1.00  0.00     0.006 C 
BRANCH   7   8
ATOM      8  C   UNL     1      18.301  12.919 -21.382  1.00  0.00     0.053 C 
BRANCH   8   9
ATOM      9  C   UNL     1      18.096  13.491 -20.017  1.00  0.00     0.041 C 
ATOM     10  O   UNL     1      16.933  13.616 -19.548  1.00  0.00    -0.550 OA
ATOM     11  O   UNL     1      19.190  13.863 -19.252  1.00  0.00    -0.550 OA
ENDBRANCH   8   9
ENDBRANCH   7   8
ENDBRANCH   6   7
ENDBRANCH   5   6
ENDBRANCH   4   5
ENDBRANCH   3   4
ENDBRANCH   2   3
ENDBRANCH   1   2
BRANCH   1  12
ATOM     12  C   UNL     1      14.339   7.167 -20.242  1.00  0.00     0.000 C 
BRANCH  12  13
ATOM     13  C   UNL     1      12.844   7.501 -20.380  1.00  0.00    -0.000 C 
BRANCH  13  14
ATOM     14  C   UNL     1      12.293   8.281 -19.175  1.00  0.00    -0.000 C 
BRANCH  14  15
ATOM     15  C   UNL     1      11.417   9.496 -19.532  1.00  0.00    -0.000 C 
BRANCH  15  16
ATOM     16  C   UNL     1      10.991  10.339 -18.311  1.00  0.00    -0.000 C 
BRANCH  16  17
ATOM     17  C   UNL     1      10.477  11.732 -18.711  1.00  0.00    -0.000 C 
BRANCH  17  18
ATOM     18  C   UNL     1      10.112  11.826 -20.202  1.00  0.00    -0.000 C 
BRANCH  18  19
ATOM     19  C   UNL     1       8.721  12.437 -20.432  1.00  0.00    -0.003 C 
ATOM     20  C   UNL     1       8.822  13.933 -20.720  1.00  0.00     0.004 C 
ENDBRANCH  18  19
ENDBRANCH  17  18
ENDBRANCH  16  17
ENDBRANCH  15  16
ENDBRANCH  14  15
ENDBRANCH  13  14
ENDBRANCH  12  13
ENDBRANCH   1  12
TORSDOF 16
ENDMDL
MODEL 7
REMARK VINA RESULT:    -5.387      3.401      7.987
REMARK INTER + INTRA:         -11.526
REMARK INTER:                 -10.414
REMARK INTRA:                  -1.112
REMARK UNBOUND:                -1.100
REMARK SMILES CCCCCCCCCCCCCCCCCC(=O)[O-]
REMARK SMILES IDX 10 1 11 2 12 3 13 4 14 5 15 6 16 7 17 8 18 9 19 10 20 11
REMARK SMILES IDX 9 12 8 13 7 14 6 15 5 16 4 17 3 18 2 19 1 20
REMARK H PARENT
REMARK Flexibility Score: inf
ROOT
ATOM      1  C   UNL     1      11.699   9.091 -19.387  1.00  0.00     0.000 C 
ENDROOT
BRANCH   1   2
ATOM      2  C   UNL     1      10.747  10.184 -18.874  1.00  0.00     0.000 C 
BRANCH   2   3
ATOM      3  C   UNL     1      11.042  10.539 -17.407  1.00  0.00     0.000 C 
BRANCH   3   4
ATOM      4  C   UNL     1      10.602  11.969 -17.041  1.00  0.00     0.000 C 
BRANCH   4   5
ATOM      5  C   UNL     1      10.356  12.882 -18.258  1.00  0.00     0.000 C 
BRANCH   5   6
ATOM      6  C   UNL     1       9.540  14.136 -17.899  1.00  0.00     0.000 C 
BRANCH   6   7
ATOM      7  C   UNL     1       8.883  14.779 -19.136  1.00  0.00     0.006 C 
BRANCH   7   8
ATOM      8  C   UNL     1       9.199  14.045 -20.446  1.00  0.00     0.053 C 
BRANCH   8   9
ATOM      9  C   UNL     1       8.042  13.223 -20.915  1.00  0.00     0.041 C 
ATOM     10  O   UNL     1       8.113  11.965 -20.908  1.00  0.00    -0.550 OA
ATOM     11  O   UNL     1       6.877  13.844 -21.335  1.00  0.00    -0.550 OA
ENDBRANCH   8   9
ENDBRANCH   7   8
ENDBRANCH   6   7
ENDBRANCH   5   6
ENDBRANCH   4   5
ENDBRANCH   3   4
ENDBRANCH   2   3
ENDBRANCH   1   2
BRANCH   1  12
ATOM     12  C   UNL     1      12.428   8.364 -18.244  1.00  0.00     0.000 C 
BRANCH  12  13
ATOM     13  C   UNL     1      13.276   7.182 -18.745  1.00  0.00    -0.000 C 
BRANCH  13  14
ATOM     14  C   UNL     1      13.409   7.151 -20.276  1.00  0.00    -0.000 C 
BRANCH  14  15
ATOM     15  C   UNL     1      14.804   6.760 -20.800  1.00  0.00    -0.000 C 
BRANCH  15  16
ATOM     16  C   UNL     1      15.395   7.764 -21.812  1.00  0.00    -0.000 C 
BRANCH  16  17
ATOM     17  C   UNL     1      16.618   8.510 -21.253  1.00  0.00    -0.000 C 
BRANCH  17  18
ATOM     18  C   UNL     1      16.696   8.455 -19.718  1.00  0.00    -0.000 C 
BRANCH  18  19
ATOM     19  C   UNL     1      17.769   9.396 -19.146  1.00  0.00    -0.003 C 
ATOM     20  C   UNL     1      19.139   8.724 -19.138  1.00  0.00     0.004 C 
ENDBRANCH  18  19
ENDBRANCH  17  18
ENDBRANCH  16  17
ENDBRANCH  15  16
ENDBRANCH  14  15
ENDBRANCH  13  14
ENDBRANCH  12  13
ENDBRANCH   1  12
TORSDOF 16
ENDMDL
MODEL 8
REMARK VINA RESULT:    -5.264      3.089      6.956
REMARK INTER + INTRA:         -11.287
REMARK INTER:                  -9.666
REMARK INTRA:                  -1.621
REMARK UNBOUND:                -1.100
REMARK SMILES CCCCCCCCCCCCCCCCCC(=O)[O-]
REMARK SMILES IDX 10 1 11 2 12 3 13 4 14 5 15 6 16 7 17 8 18 9 19 10 20 11
REMARK SMILES IDX 9 12 8 13 7 14 6 15 5 16 4 17 3 18 2 19 1 20
REMARK H PARENT
REMARK Flexibility Score: inf
ROOT
ATOM      1  C   UNL     1      16.759   8.484 -19.693  1.00  0.00     0.000 C 
ENDROOT
BRANCH   1   2
ATOM      2  C   UNL     1      16.597   8.673 -21.209  1.00  0.00     0.000 C 
BRANCH   2   3
ATOM      3  C   UNL     1      15.505   7.750 -21.774  1.00  0.00     0.000 C 
BRANCH   3   4
ATOM      4  C   UNL     1      14.869   6.850 -20.696  1.00  0.00     0.000 C 
BRANCH   4   5
ATOM      5  C   UNL     1      13.398   7.186 -20.385  1.00  0.00     0.000 C 
BRANCH   5   6
ATOM      6  C   UNL     1      13.114   7.250 -18.875  1.00  0.00     0.000 C 
BRANCH   6   7
ATOM      7  C   UNL     1      12.325   8.514 -18.481  1.00  0.00     0.006 C 
BRANCH   7   8
ATOM      8  C   UNL     1      11.554   9.141 -19.650  1.00  0.00     0.053 C 
BRANCH   8   9
ATOM      9  C   UNL     1      10.833  10.384 -19.237  1.00  0.00     0.041 C 
ATOM     10  O   UNL     1      10.197  11.061 -20.088  1.00  0.00    -0.550 OA
ATOM     11  O   UNL     1      10.843  10.779 -17.910  1.00  0.00    -0.550 OA
ENDBRANCH   8   9
ENDBRANCH   7   8
ENDBRANCH   6   7
ENDBRANCH   5   6
ENDBRANCH   4   5
ENDBRANCH   3   4
ENDBRANCH   2   3
ENDBRANCH   1   2
BRANCH   1  12
ATOM     12  C   UNL     1      18.098   9.035 -19.173  1.00  0.00     0.000 C 
BRANCH  12  13
ATOM     13  C   UNL     1      19.163   9.134 -20.279  1.00  0.00    -0.000 C 
BRANCH  13  14
ATOM     14  C   UNL     1      19.677  10.568 -20.485  1.00  0.00    -0.000 C 
BRANCH  14  15
ATOM     15  C   UNL     1      19.350  11.186 -21.857  1.00  0.00    -0.000 C 
BRANCH  15  16
ATOM     16  C   UNL     1      18.365  12.373 -21.788  1.00  0.00    -0.000 C 
BRANCH  16  17
ATOM     17  C   UNL     1      17.572  12.402 -20.471  1.00  0.00    -0.000 C 
BRANCH  17  18
ATOM     18  C   UNL     1      17.698  13.744 -19.731  1.00  0.00    -0.000 C 
BRANCH  18  19
ATOM     19  C   UNL     1      19.159  14.200 -19.578  1.00  0.00    -0.003 C 
ATOM     20  C   UNL     1      19.235  15.593 -18.960  1.00  0.00     0.004 C 
ENDBRANCH  18  19
ENDBRANCH  17  18
ENDBRANCH  16  17
ENDBRANCH  15  16
ENDBRANCH  14  15
ENDBRANCH  13  14
ENDBRANCH  12  13
ENDBRANCH   1  12
TORSDOF 16
ENDMDL
MODEL 9
REMARK VINA RESULT:    -5.262      0.962      1.816
REMARK INTER + INTRA:         -11.283
REMARK INTER:                 -10.343
REMARK INTRA:                  -0.940
REMARK UNBOUND:                -1.100
REMARK SMILES CCCCCCCCCCCCCCCCCC(=O)[O-]
REMARK SMILES IDX 10 1 11 2 12 3 13 4 14 5 15 6 16 7 17 8 18 9 19 10 20 11
REMARK SMILES IDX 9 12 8 13 7 14 6 15 5 16 4 17 3 18 2 19 1 20
REMARK H PARENT
REMARK Flexibility Score: inf
ROOT
ATOM      1  C   UNL     1      13.291   7.460 -18.792  1.00  0.00     0.000 C 
ENDROOT
BRANCH   1   2
ATOM      2  C   UNL     1      13.369   7.502 -20.326  1.00  0.00     0.000 C 
BRANCH   2   3
ATOM      3  C   UNL     1      14.405   6.500 -20.861  1.00  0.00     0.000 C 
BRANCH   3   4
ATOM      4  C   UNL     1      15.622   7.189 -21.509  1.00  0.00     0.000 C 
BRANCH   4   5
ATOM      5  C   UNL     1      15.905   8.603 -20.965  1.00  0.00     0.000 C 
BRANCH   5   6
ATOM      6  C   UNL     1      17.402   8.957 -20.995  1.00  0.00     0.000 C 
BRANCH   6   7
ATOM      7  C   UNL     1      17.722  10.213 -20.161  1.00  0.00     0.006 C 
BRANCH   7   8
ATOM      8  C   UNL     1      17.674  11.514 -20.973  1.00  0.00     0.053 C 
BRANCH   8   9
ATOM      9  C   UNL     1      17.827  12.718 -20.101  1.00  0.00     0.041 C 
ATOM     10  O   UNL     1      18.966  13.062 -19.687  1.00  0.00    -0.550 OA
ATOM     11  O   UNL     1      16.716  13.475 -19.767  1.00  0.00    -0.550 OA
ENDBRANCH   8   9
ENDBRANCH   7   8
ENDBRANCH   6   7
ENDBRANCH   5   6
ENDBRANCH   4   5
ENDBRANCH   3   4
ENDBRANCH   2   3
ENDBRANCH   1   2
BRANCH   1  12
ATOM     12  C   UNL     1      12.240   8.434 -18.231  1.00  0.00     0.000 C 
BRANCH  12  13
ATOM     13  C   UNL     1      11.476   9.178 -19.341  1.00  0.00    -0.000 C 
BRANCH  13  14
ATOM     14  C   UNL     1      10.814  10.473 -18.843  1.00  0.00    -0.000 C 
BRANCH  14  15
ATOM     15  C   UNL     1      11.111  10.834 -17.376  1.00  0.00    -0.000 C 
BRANCH  15  16
ATOM     16  C   UNL     1      10.395  12.112 -16.890  1.00  0.00    -0.000 C 
BRANCH  16  17
ATOM     17  C   UNL     1       9.995  13.038 -18.051  1.00  0.00    -0.000 C 
BRANCH  17  18
ATOM     18  C   UNL     1       9.805  14.498 -17.609  1.00  0.00    -0.000 C 
BRANCH  18  19
ATOM     19  C   UNL     1       9.247  14.616 -16.181  1.00  0.00    -0.003 C 
ATOM     20  C   UNL     1      10.146  15.492 -15.312  1.00  0.00     0.004 C 
ENDBRANCH  18  19
ENDBRANCH  17  18
ENDBRANCH  16  17
ENDBRANCH  15  16
ENDBRANCH  14  15
ENDBRANCH  13  14
ENDBRANCH  12  13
ENDBRANCH   1  12
TORSDOF 16
ENDMDL
