MODEL 1
REMARK VINA RESULT:    -3.989      0.000      0.000
REMARK INTER + INTRA:          -5.633
REMARK INTER:                  -5.389
REMARK INTRA:                  -0.245
REMARK UNBOUND:                -0.245
REMARK SMILES CCCCCCCC(=O)[O-]
REMARK SMILES IDX 5 1 6 2 7 3 8 4 9 5 10 6 4 7 3 8 2 9 1 10
REMARK H PARENT
REMARK Flexibility Score: inf
ROOT
ATOM      1  C   UNL     1       4.634  24.500 -53.123  1.00  0.00     0.000 C 
ENDROOT
BRANCH   1   2
ATOM      2  C   UNL     1       3.629  24.959 -52.056  1.00  0.00     0.006 C 
BRANCH   2   3
ATOM      3  C   UNL     1       3.607  24.025 -50.839  1.00  0.00     0.053 C 
BRANCH   3   4
ATOM      4  C   UNL     1       2.519  24.392 -49.876  1.00  0.00     0.041 C 
ATOM      5  O   UNL     1       2.580  24.012 -48.677  1.00  0.00    -0.550 OA
ATOM      6  O   UNL     1       1.422  25.125 -50.310  1.00  0.00    -0.550 OA
ENDBRANCH   3   4
ENDBRANCH   2   3
ENDBRANCH   1   2
BRANCH   1   7
ATOM      7  C   UNL     1       5.074  23.052 -52.877  1.00  0.00     0.000 C 
BRANCH   7   8
ATOM      8  C   UNL     1       5.071  22.247 -54.182  1.00  0.00    -0.000 C 
BRANCH   8   9
ATOM      9  C   UNL     1       5.863  20.943 -54.024  1.00  0.00    -0.003 C 
ATOM     10  C   UNL     1       7.026  21.120 -53.051  1.00  0.00     0.004 C 
ENDBRANCH   8   9
ENDBRANCH   7   8
ENDBRANCH   1   7
TORSDOF 6
ENDMDL
MODEL 2
REMARK VINA RESULT:    -3.978      3.431      5.299
REMARK INTER + INTRA:          -5.618
REMARK INTER:                  -5.352
REMARK INTRA:                  -0.266
REMARK UNBOUND:                -0.245
REMARK SMILES CCCCCCCC(=O)[O-]
REMARK SMILES IDX 5 1 6 2 7 3 8 4 9 5 10 6 4 7 3 8 2 9 1 10
REMARK H PARENT
REMARK Flexibility Score: inf
ROOT
ATOM      1  C   UNL     1       4.344  24.472 -52.896  1.00  0.00     0.000 C 
ENDROOT
BRANCH   1   2
ATOM      2  C   UNL     1       5.054  23.359 -53.681  1.00  0.00     0.006 C 
BRANCH   2   3
ATOM      3  C   UNL     1       5.359  22.136 -52.807  1.00  0.00     0.053 C 
BRANCH   3   4
ATOM      4  C   UNL     1       6.351  21.221 -53.457  1.00  0.00     0.041 C 
ATOM      5  O   UNL     1       5.992  20.460 -54.394  1.00  0.00    -0.550 OA
ATOM      6  O   UNL     1       7.665  21.184 -53.006  1.00  0.00    -0.550 OA
ENDBRANCH   3   4
ENDBRANCH   2   3
ENDBRANCH   1   2
BRANCH   1   7
ATOM      7  C   UNL     1       3.888  23.970 -51.521  1.00  0.00     0.000 C 
BRANCH   7   8
ATOM      8  C   UNL     1       3.110  25.056 -50.768  1.00  0.00    -0.000 C 
BRANCH   8   9
ATOM      9  C   UNL     1       2.654  24.553 -49.394  1.00  0.00    -0.003 C 
ATOM     10  C   UNL     1       3.147  23.131 -49.137  1.00  0.00     0.004 C 
ENDBRANCH   8   9
ENDBRANCH   7   8
ENDBRANCH   1   7
TORSDOF 6
ENDMDL
MODEL 3
REMARK VINA RESULT:    -3.929     18.787     19.855
REMARK INTER + INTRA:          -5.552
REMARK INTER:                  -5.171
REMARK INTRA:                  -0.381
REMARK UNBOUND:                -0.245
REMARK SMILES CCCCCCCC(=O)[O-]
REMARK SMILES IDX 5 1 6 2 7 3 8 4 9 5 10 6 4 7 3 8 2 9 1 10
REMARK H PARENT
REMARK Flexibility Score: inf
ROOT
ATOM      1  C   UNL     1      -4.184   6.623 -59.434  1.00  0.00     0.000 C 
ENDROOT
BRANCH   1   2
ATOM      2  C   UNL     1      -2.764   6.217 -59.857  1.00  0.00     0.006 C 
BRANCH   2   3
ATOM      3  C   UNL     1      -1.688   7.062 -59.164  1.00  0.00     0.053 C 
BRANCH   3   4
ATOM      4  C   UNL     1      -1.178   6.401 -57.919  1.00  0.00     0.041 C 
ATOM      5  O   UNL     1      -1.696   6.668 -56.803  1.00  0.00    -0.550 OA
ATOM      6  O   UNL     1      -0.109   5.516 -57.988  1.00  0.00    -0.550 OA
ENDBRANCH   3   4
ENDBRANCH   2   3
ENDBRANCH   1   2
BRANCH   1   7
ATOM      7  C   UNL     1      -4.258   8.123 -59.126  1.00  0.00     0.000 C 
BRANCH   7   8
ATOM      8  C   UNL     1      -5.277   8.408 -58.017  1.00  0.00    -0.000 C 
BRANCH   8   9
ATOM      9  C   UNL     1      -6.150   7.177 -57.744  1.00  0.00    -0.003 C 
ATOM     10  C   UNL     1      -7.631   7.500 -57.930  1.00  0.00     0.004 C 
ENDBRANCH   8   9
ENDBRANCH   7   8
ENDBRANCH   1   7
TORSDOF 6
ENDMDL
MODEL 4
REMARK VINA RESULT:    -3.911     17.898     19.484
REMARK INTER + INTRA:          -5.528
REMARK INTER:                  -4.934
REMARK INTRA:                  -0.594
REMARK UNBOUND:                -0.245
REMARK SMILES CCCCCCCC(=O)[O-]
REMARK SMILES IDX 5 1 6 2 7 3 8 4 9 5 10 6 4 7 3 8 2 9 1 10
REMARK H PARENT
REMARK Flexibility Score: inf
ROOT
ATOM      1  C   UNL     1      -4.135   6.670 -59.894  1.00  0.00     0.000 C 
ENDROOT
BRANCH   1   2
ATOM      2  C   UNL     1      -2.815   5.886 -59.848  1.00  0.00     0.006 C 
BRANCH   2   3
ATOM      3  C   UNL     1      -1.639   6.754 -59.381  1.00  0.00     0.053 C 
BRANCH   3   4
ATOM      4  C   UNL     1      -1.116   6.312 -58.049  1.00  0.00     0.041 C 
ATOM      5  O   UNL     1      -0.118   5.548 -57.982  1.00  0.00    -0.550 OA
ATOM      6  O   UNL     1      -1.752   6.718 -56.882  1.00  0.00    -0.550 OA
ENDBRANCH   3   4
ENDBRANCH   2   3
ENDBRANCH   1   2
BRANCH   1   7
ATOM      7  C   UNL     1      -4.853   6.619 -58.540  1.00  0.00     0.000 C 
BRANCH   7   8
ATOM      8  C   UNL     1      -5.252   8.024 -58.075  1.00  0.00    -0.000 C 
BRANCH   8   9
ATOM      9  C   UNL     1      -4.459   9.098 -58.827  1.00  0.00    -0.003 C 
ATOM     10  C   UNL     1      -3.375   9.705 -57.939  1.00  0.00     0.004 C 
ENDBRANCH   8   9
ENDBRANCH   7   8
ENDBRANCH   1   7
TORSDOF 6
ENDMDL
MODEL 5
REMARK VINA RESULT:    -3.896     17.603     18.795
REMARK INTER + INTRA:          -5.507
REMARK INTER:                  -4.973
REMARK INTRA:                  -0.535
REMARK UNBOUND:                -0.245
REMARK SMILES CCCCCCCC(=O)[O-]
REMARK SMILES IDX 5 1 6 2 7 3 8 4 9 5 10 6 4 7 3 8 2 9 1 10
REMARK H PARENT
REMARK Flexibility Score: inf
ROOT
ATOM      1  C   UNL     1      -3.665   6.276 -59.018  1.00  0.00     0.000 C 
ENDROOT
BRANCH   1   2
ATOM      2  C   UNL     1      -4.593   7.403 -59.494  1.00  0.00     0.006 C 
BRANCH   2   3
ATOM      3  C   UNL     1      -5.024   8.325 -58.347  1.00  0.00     0.053 C 
BRANCH   3   4
ATOM      4  C   UNL     1      -3.850   8.994 -57.700  1.00  0.00     0.041 C 
ATOM      5  O   UNL     1      -3.130   9.787 -58.361  1.00  0.00    -0.550 OA
ATOM      6  O   UNL     1      -3.532   8.717 -56.376  1.00  0.00    -0.550 OA
ENDBRANCH   3   4
ENDBRANCH   2   3
ENDBRANCH   1   2
BRANCH   1   7
ATOM      7  C   UNL     1      -2.374   6.240 -59.844  1.00  0.00     0.000 C 
BRANCH   7   8
ATOM      8  C   UNL     1      -1.207   6.864 -59.070  1.00  0.00    -0.000 C 
BRANCH   8   9
ATOM      9  C   UNL     1      -1.123   6.293 -57.649  1.00  0.00    -0.003 C 
ATOM     10  C   UNL     1      -0.125   5.139 -57.578  1.00  0.00     0.004 C 
ENDBRANCH   8   9
ENDBRANCH   7   8
ENDBRANCH   1   7
TORSDOF 6
ENDMDL
MODEL 6
REMARK VINA RESULT:    -3.818     17.975     19.212
REMARK INTER + INTRA:          -5.402
REMARK INTER:                  -4.791
REMARK INTRA:                  -0.610
REMARK UNBOUND:                -0.245
REMARK SMILES CCCCCCCC(=O)[O-]
REMARK SMILES IDX 5 1 6 2 7 3 8 4 9 5 10 6 4 7 3 8 2 9 1 10
REMARK H PARENT
REMARK Flexibility Score: inf
ROOT
ATOM      1  C   UNL     1      -2.632   6.521 -57.077  1.00  0.00     0.000 C 
ENDROOT
BRANCH   1   2
ATOM      2  C   UNL     1      -3.086   7.915 -56.619  1.00  0.00     0.006 C 
BRANCH   2   3
ATOM      3  C   UNL     1      -4.578   8.156 -56.882  1.00  0.00     0.053 C 
BRANCH   3   4
ATOM      4  C   UNL     1      -4.840   8.521 -58.311  1.00  0.00     0.041 C 
ATOM      5  O   UNL     1      -5.722   7.909 -58.970  1.00  0.00    -0.550 OA
ATOM      6  O   UNL     1      -4.087   9.513 -58.926  1.00  0.00    -0.550 OA
ENDBRANCH   3   4
ENDBRANCH   2   3
ENDBRANCH   1   2
BRANCH   1   7
ATOM      7  C   UNL     1      -1.461   6.620 -58.062  1.00  0.00     0.000 C 
BRANCH   7   8
ATOM      8  C   UNL     1      -1.958   6.614 -59.512  1.00  0.00    -0.000 C 
BRANCH   8   9
ATOM      9  C   UNL     1      -3.029   5.539 -59.721  1.00  0.00    -0.003 C 
ATOM     10  C   UNL     1      -3.738   5.721 -61.061  1.00  0.00     0.004 C 
ENDBRANCH   8   9
ENDBRANCH   7   8
ENDBRANCH   1   7
TORSDOF 6
ENDMDL
MODEL 7
REMARK VINA RESULT:    -3.810     18.436     19.697
REMARK INTER + INTRA:          -5.390
REMARK INTER:                  -4.841
REMARK INTRA:                  -0.550
REMARK UNBOUND:                -0.245
REMARK SMILES CCCCCCCC(=O)[O-]
REMARK SMILES IDX 5 1 6 2 7 3 8 4 9 5 10 6 4 7 3 8 2 9 1 10
REMARK H PARENT
REMARK Flexibility Score: inf
ROOT
ATOM      1  C   UNL     1      -3.188   8.733 -58.297  1.00  0.00     0.000 C 
ENDROOT
BRANCH   1   2
ATOM      2  C   UNL     1      -4.546   8.741 -57.580  1.00  0.00     0.006 C 
BRANCH   2   3
ATOM      3  C   UNL     1      -5.645   8.065 -58.410  1.00  0.00     0.053 C 
BRANCH   3   4
ATOM      4  C   UNL     1      -6.330   6.975 -57.644  1.00  0.00     0.041 C 
ATOM      5  O   UNL     1      -7.585   6.883 -57.658  1.00  0.00    -0.550 OA
ATOM      6  O   UNL     1      -5.583   6.080 -56.887  1.00  0.00    -0.550 OA
ENDBRANCH   3   4
ENDBRANCH   2   3
ENDBRANCH   1   2
BRANCH   1   7
ATOM      7  C   UNL     1      -2.448   7.411 -58.060  1.00  0.00     0.000 C 
BRANCH   7   8
ATOM      8  C   UNL     1      -2.075   6.741 -59.388  1.00  0.00    -0.000 C 
BRANCH   8   9
ATOM      9  C   UNL     1      -2.955   5.513 -59.650  1.00  0.00    -0.003 C 
ATOM     10  C   UNL     1      -3.797   5.698 -60.910  1.00  0.00     0.004 C 
ENDBRANCH   8   9
ENDBRANCH   7   8
ENDBRANCH   1   7
TORSDOF 6
ENDMDL
MODEL 8
REMARK VINA RESULT:    -3.804     19.115     19.975
REMARK INTER + INTRA:          -5.382
REMARK INTER:                  -4.978
REMARK INTRA:                  -0.404
REMARK UNBOUND:                -0.245
REMARK SMILES CCCCCCCC(=O)[O-]
REMARK SMILES IDX 5 1 6 2 7 3 8 4 9 5 10 6 4 7 3 8 2 9 1 10
REMARK H PARENT
REMARK Flexibility Score: inf
ROOT
ATOM      1  C   UNL     1      -4.268   8.081 -58.906  1.00  0.00     0.000 C 
ENDROOT
BRANCH   1   2
ATOM      2  C   UNL     1      -5.207   8.011 -57.693  1.00  0.00     0.006 C 
BRANCH   2   3
ATOM      3  C   UNL     1      -5.997   6.697 -57.646  1.00  0.00     0.053 C 
BRANCH   3   4
ATOM      4  C   UNL     1      -7.470   6.928 -57.788  1.00  0.00     0.041 C 
ATOM      5  O   UNL     1      -7.913   8.090 -57.986  1.00  0.00    -0.550 OA
ATOM      6  O   UNL     1      -8.358   5.866 -57.669  1.00  0.00    -0.550 OA
ENDBRANCH   3   4
ENDBRANCH   2   3
ENDBRANCH   1   2
BRANCH   1   7
ATOM      7  C   UNL     1      -4.261   6.754 -59.674  1.00  0.00     0.000 C 
BRANCH   7   8
ATOM      8  C   UNL     1      -2.835   6.212 -59.825  1.00  0.00    -0.000 C 
BRANCH   8   9
ATOM      9  C   UNL     1      -1.821   7.138 -59.143  1.00  0.00    -0.003 C 
ATOM     10  C   UNL     1      -0.934   6.362 -58.172  1.00  0.00     0.004 C 
ENDBRANCH   8   9
ENDBRANCH   7   8
ENDBRANCH   1   7
TORSDOF 6
ENDMDL
MODEL 9
REMARK VINA RESULT:    -3.745     18.038     19.301
REMARK INTER + INTRA:          -5.303
REMARK INTER:                  -4.852
REMARK INTRA:                  -0.451
REMARK UNBOUND:                -0.245
REMARK SMILES CCCCCCCC(=O)[O-]
REMARK SMILES IDX 5 1 6 2 7 3 8 4 9 5 10 6 4 7 3 8 2 9 1 10
REMARK H PARENT
REMARK Flexibility Score: inf
ROOT
ATOM      1  C   UNL     1      -2.773   6.049 -59.831  1.00  0.00     0.000 C 
ENDROOT
BRANCH   1   2
ATOM      2  C   UNL     1      -1.664   6.773 -59.054  1.00  0.00     0.006 C 
BRANCH   2   3
ATOM      3  C   UNL     1      -0.913   5.834 -58.101  1.00  0.00     0.053 C 
BRANCH   3   4
ATOM      4  C   UNL     1      -0.931   6.341 -56.692  1.00  0.00     0.041 C 
ATOM      5  O   UNL     1       0.039   6.111 -55.924  1.00  0.00    -0.550 OA
ATOM      6  O   UNL     1      -2.035   7.039 -56.216  1.00  0.00    -0.550 OA
ENDBRANCH   3   4
ENDBRANCH   2   3
ENDBRANCH   1   2
BRANCH   1   7
ATOM      7  C   UNL     1      -4.072   6.863 -59.821  1.00  0.00     0.000 C 
BRANCH   7   8
ATOM      8  C   UNL     1      -4.683   6.909 -58.416  1.00  0.00    -0.000 C 
BRANCH   8   9
ATOM      9  C   UNL     1      -5.115   8.334 -58.052  1.00  0.00    -0.003 C 
ATOM     10  C   UNL     1      -4.241   9.371 -58.753  1.00  0.00     0.004 C 
ENDBRANCH   8   9
ENDBRANCH   7   8
ENDBRANCH   1   7
TORSDOF 6
ENDMDL
