MODEL 1
REMARK VINA RESULT:    -5.488      0.000      0.000
REMARK INTER + INTRA:          -8.364
REMARK INTER:                  -8.375
REMARK INTRA:                   0.011
REMARK UNBOUND:                 0.011
REMARK SMILES CC1=CCC[C@@H](C)C(=O)C[C@@H](C(C)C)C(=O)C1
REMARK SMILES IDX 8 1 9 2 6 3 7 4 5 5 4 6 3 7 2 8 1 9 10 11 11 12 15 13 16 14
REMARK SMILES IDX 17 15 12 17 13 18 14 19
REMARK H PARENT
REMARK Flexibility Score: 70.00
ROOT
ATOM      1  C   UNL     1      -8.439  30.825  42.860  1.00  0.00     0.136 C 
ATOM      2  O   UNL     1      -8.978  31.309  43.845  1.00  0.00    -0.299 OA
ENDROOT
BRANCH   1   3
ATOM      3  C   UNL     1      -8.396  29.319  42.695  1.00  0.00     0.053 C 
ATOM      4  C   UNL     1      -7.488  28.718  43.773  1.00  0.00     0.016 C 
BRANCH   3   5
ATOM      5  C   UNL     1      -7.902  28.897  41.289  1.00  0.00     0.015 C 
BRANCH   5   6
ATOM      6  C   UNL     1      -9.001  28.880  40.213  1.00  0.00     0.028 C 
BRANCH   6   7
ATOM      7  C   UNL     1      -8.558  29.590  38.956  1.00  0.00    -0.028 C 
ATOM      8  C   UNL     1      -8.946  30.832  38.586  1.00  0.00    -0.070 CG0
ATOM      9  C   UNL     1      -8.413  31.383  37.287  1.00  0.00     0.039 C 
ATOM     10  G   UNL     1      -9.897  31.682  39.411  1.00  0.00     0.000 G0
ENDBRANCH   6   7
ENDBRANCH   5   6
ENDBRANCH   3   5
ENDBRANCH   1   3
BRANCH   1  11
ATOM     11  C   UNL     1      -7.873  31.749  41.805  1.00  0.00     0.087 C 
BRANCH  11  12
ATOM     12  C   UNL     1      -8.807  32.944  41.478  1.00  0.00     0.066 C 
BRANCH  12  13
ATOM     13  C   UNL     1      -9.281  32.901  40.032  1.00  0.00     0.140 C 
ATOM     14  O   UNL     1      -9.218  33.913  39.350  1.00  0.00    -0.299 OA
BRANCH  13  15
ATOM     15  C   UNL     1      -9.899  31.663  39.418  1.00  0.00     0.106 CG0
ATOM     16  G   UNL     1      -8.936  30.850  38.569  1.00  0.00     0.000 G0
ENDBRANCH  13  15
ENDBRANCH  12  13
BRANCH  12  17
ATOM     17  C   UNL     1      -8.193  34.337  41.816  1.00  0.00    -0.006 C 
ATOM     18  C   UNL     1      -9.020  35.084  42.874  1.00  0.00     0.008 C 
ATOM     19  C   UNL     1      -6.716  34.289  42.242  1.00  0.00     0.008 C 
ENDBRANCH  12  17
ENDBRANCH  11  12
ENDBRANCH   1  11
TORSDOF 1
ENDMDL
MODEL 2
REMARK VINA RESULT:    -4.969      1.554      3.933
REMARK INTER + INTRA:          -7.573
REMARK INTER:                  -7.270
REMARK INTRA:                  -0.302
REMARK UNBOUND:                 0.011
REMARK SMILES CC1=CCC[C@@H](C)C(=O)C[C@@H](C(C)C)C(=O)C1
REMARK SMILES IDX 8 1 9 2 6 3 7 4 5 5 4 6 3 7 2 8 1 9 10 11 11 12 15 13 16 14
REMARK SMILES IDX 17 15 12 17 13 18 14 19
REMARK H PARENT
REMARK Flexibility Score: 70.00
ROOT
ATOM      1  C   UNL     1      -9.566  33.470  40.028  1.00  0.00     0.136 C 
ATOM      2  O   UNL     1     -10.020  34.590  40.207  1.00  0.00    -0.299 OA
ENDROOT
BRANCH   1   3
ATOM      3  C   UNL     1      -8.809  33.164  38.751  1.00  0.00     0.053 C 
ATOM      4  C   UNL     1      -9.039  34.296  37.744  1.00  0.00     0.016 C 
BRANCH   3   5
ATOM      5  C   UNL     1      -9.228  31.808  38.131  1.00  0.00     0.015 C 
BRANCH   5   6
ATOM      6  C   UNL     1      -8.140  30.722  38.195  1.00  0.00     0.028 C 
BRANCH   6   7
ATOM      7  C   UNL     1      -8.704  29.400  38.657  1.00  0.00    -0.028 C 
ATOM      8  C   UNL     1      -8.495  28.847  39.874  1.00  0.00    -0.070 CG0
ATOM      9  C   UNL     1      -9.127  27.509  40.163  1.00  0.00     0.039 C 
ATOM     10  G   UNL     1      -7.649  29.509  40.949  1.00  0.00     0.000 G0
ENDBRANCH   6   7
ENDBRANCH   5   6
ENDBRANCH   3   5
ENDBRANCH   1   3
BRANCH   1  11
ATOM     11  C   UNL     1      -9.729  32.429  41.114  1.00  0.00     0.087 C 
BRANCH  11  12
ATOM     12  C   UNL     1      -8.377  31.935  41.691  1.00  0.00     0.066 C 
BRANCH  12  13
ATOM     13  C   UNL     1      -8.376  30.426  41.895  1.00  0.00     0.140 C 
ATOM     14  O   UNL     1      -8.950  29.952  42.865  1.00  0.00    -0.299 OA
BRANCH  13  15
ATOM     15  C   UNL     1      -7.626  29.484  40.978  1.00  0.00     0.106 CG0
ATOM     16  G   UNL     1      -8.489  28.871  39.888  1.00  0.00     0.000 G0
ENDBRANCH  13  15
ENDBRANCH  12  13
BRANCH  12  17
ATOM     17  C   UNL     1      -7.941  32.669  42.997  1.00  0.00    -0.006 C 
ATOM     18  C   UNL     1      -7.035  33.874  42.700  1.00  0.00     0.008 C 
ATOM     19  C   UNL     1      -9.111  33.101  43.897  1.00  0.00     0.008 C 
ENDBRANCH  12  17
ENDBRANCH  11  12
ENDBRANCH   1  11
TORSDOF 1
ENDMDL
MODEL 3
REMARK VINA RESULT:    -4.968      1.931      3.741
REMARK INTER + INTRA:          -7.571
REMARK INTER:                  -7.207
REMARK INTRA:                  -0.365
REMARK UNBOUND:                 0.011
REMARK SMILES CC1=CCC[C@@H](C)C(=O)C[C@@H](C(C)C)C(=O)C1
REMARK SMILES IDX 8 1 9 2 6 3 7 4 5 5 4 6 3 7 2 8 1 9 10 11 11 12 15 13 16 14
REMARK SMILES IDX 17 15 12 17 13 18 14 19
REMARK H PARENT
REMARK Flexibility Score: 70.00
ROOT
ATOM      1  C   UNL     1      -7.542  33.671  41.833  1.00  0.00     0.136 C 
ATOM      2  O   UNL     1      -6.499  34.162  42.241  1.00  0.00    -0.299 OA
ENDROOT
BRANCH   1   3
ATOM      3  C   UNL     1      -8.764  33.659  42.729  1.00  0.00     0.053 C 
ATOM      4  C   UNL     1      -8.998  35.068  43.285  1.00  0.00     0.016 C 
BRANCH   3   5
ATOM      5  C   UNL     1      -8.630  32.645  43.892  1.00  0.00     0.015 C 
BRANCH   5   6
ATOM      6  C   UNL     1      -9.368  31.316  43.658  1.00  0.00     0.028 C 
BRANCH   6   7
ATOM      7  C   UNL     1      -8.476  30.297  42.990  1.00  0.00    -0.028 C 
ATOM      8  C   UNL     1      -8.603  29.869  41.713  1.00  0.00    -0.070 CG0
ATOM      9  C   UNL     1      -7.629  28.834  41.212  1.00  0.00     0.039 C 
ATOM     10  G   UNL     1      -9.685  30.376  40.774  1.00  0.00     0.000 G0
ENDBRANCH   6   7
ENDBRANCH   5   6
ENDBRANCH   3   5
ENDBRANCH   1   3
BRANCH   1  11
ATOM     11  C   UNL     1      -7.596  33.130  40.422  1.00  0.00     0.087 C 
BRANCH  11  12
ATOM     12  C   UNL     1      -9.039  32.813  39.947  1.00  0.00     0.066 C 
BRANCH  12  13
ATOM     13  C   UNL     1      -9.229  31.323  39.698  1.00  0.00     0.140 C 
ATOM     14  O   UNL     1      -9.054  30.876  38.574  1.00  0.00    -0.299 OA
BRANCH  13  15
ATOM     15  C   UNL     1      -9.699  30.374  40.780  1.00  0.00     0.106 CG0
ATOM     16  G   UNL     1      -8.587  29.881  41.691  1.00  0.00     0.000 G0
ENDBRANCH  13  15
ENDBRANCH  12  13
BRANCH  12  17
ATOM     17  C   UNL     1      -9.493  33.642  38.706  1.00  0.00    -0.006 C 
ATOM     18  C   UNL     1     -10.112  34.988  39.114  1.00  0.00     0.008 C 
ATOM     19  C   UNL     1      -8.388  33.868  37.661  1.00  0.00     0.008 C 
ENDBRANCH  12  17
ENDBRANCH  11  12
ENDBRANCH   1  11
TORSDOF 1
ENDMDL
MODEL 4
REMARK VINA RESULT:    -4.685      1.781      4.170
REMARK INTER + INTRA:          -7.138
REMARK INTER:                  -7.100
REMARK INTRA:                  -0.039
REMARK UNBOUND:                 0.011
REMARK SMILES CC1=CCC[C@@H](C)C(=O)C[C@@H](C(C)C)C(=O)C1
REMARK SMILES IDX 8 1 9 2 6 3 7 4 5 5 4 6 3 7 2 8 1 9 10 11 11 12 15 13 16 14
REMARK SMILES IDX 17 15 12 17 13 18 14 19
REMARK H PARENT
REMARK Flexibility Score: 70.00
ROOT
ATOM      1  C   UNL     1      -8.383  29.747  43.142  1.00  0.00     0.136 C 
ATOM      2  O   UNL     1      -7.851  28.664  43.336  1.00  0.00    -0.299 OA
ENDROOT
BRANCH   1   3
ATOM      3  C   UNL     1      -8.091  30.902  44.078  1.00  0.00     0.053 C 
ATOM      4  C   UNL     1      -7.392  30.372  45.333  1.00  0.00     0.016 C 
BRANCH   3   5
ATOM      5  C   UNL     1      -9.373  31.678  44.471  1.00  0.00     0.015 C 
BRANCH   5   6
ATOM      6  C   UNL     1      -9.538  33.028  43.753  1.00  0.00     0.028 C 
BRANCH   6   7
ATOM      7  C   UNL     1      -8.312  33.381  42.946  1.00  0.00    -0.028 C 
ATOM      8  C   UNL     1      -8.190  33.229  41.608  1.00  0.00    -0.070 CG0
ATOM      9  C   UNL     1      -6.884  33.623  40.965  1.00  0.00     0.039 C 
ATOM     10  G   UNL     1      -9.301  32.672  40.734  1.00  0.00     0.000 G0
ENDBRANCH   6   7
ENDBRANCH   5   6
ENDBRANCH   3   5
ENDBRANCH   1   3
BRANCH   1  11
ATOM     11  C   UNL     1      -9.283  29.918  41.938  1.00  0.00     0.087 C 
BRANCH  11  12
ATOM     12  C   UNL     1      -8.498  30.132  40.617  1.00  0.00     0.066 C 
BRANCH  12  13
ATOM     13  C   UNL     1      -8.898  31.434  39.936  1.00  0.00     0.140 C 
ATOM     14  O   UNL     1      -8.835  31.518  38.718  1.00  0.00    -0.299 OA
BRANCH  13  15
ATOM     15  C   UNL     1      -9.307  32.665  40.717  1.00  0.00     0.106 CG0
ATOM     16  G   UNL     1      -8.210  33.221  41.608  1.00  0.00     0.000 G0
ENDBRANCH  13  15
ENDBRANCH  12  13
BRANCH  12  17
ATOM     17  C   UNL     1      -8.597  28.936  39.621  1.00  0.00    -0.006 C 
ATOM     18  C   UNL     1      -7.212  28.384  39.252  1.00  0.00     0.008 C 
ATOM     19  C   UNL     1      -9.507  27.792  40.099  1.00  0.00     0.008 C 
ENDBRANCH  12  17
ENDBRANCH  11  12
ENDBRANCH   1  11
TORSDOF 1
ENDMDL
MODEL 5
REMARK VINA RESULT:    -4.407      1.941      4.013
REMARK INTER + INTRA:          -6.715
REMARK INTER:                  -7.132
REMARK INTRA:                   0.417
REMARK UNBOUND:                 0.011
REMARK SMILES CC1=CCC[C@@H](C)C(=O)C[C@@H](C(C)C)C(=O)C1
REMARK SMILES IDX 8 1 9 2 6 3 7 4 5 5 4 6 3 7 2 8 1 9 10 11 11 12 15 13 16 14
REMARK SMILES IDX 17 15 12 17 13 18 14 19
REMARK H PARENT
REMARK Flexibility Score: 70.00
ROOT
ATOM      1  C   UNL     1      -8.813  30.181  40.840  1.00  0.00     0.136 C 
ATOM      2  O   UNL     1      -8.466  29.205  40.192  1.00  0.00    -0.299 OA
ENDROOT
BRANCH   1   3
ATOM      3  C   UNL     1      -8.399  30.300  42.293  1.00  0.00     0.053 C 
ATOM      4  C   UNL     1      -7.801  28.970  42.760  1.00  0.00     0.016 C 
BRANCH   3   5
ATOM      5  C   UNL     1      -9.582  30.702  43.209  1.00  0.00     0.015 C 
BRANCH   5   6
ATOM      6  C   UNL     1      -9.334  31.970  44.041  1.00  0.00     0.028 C 
BRANCH   6   7
ATOM      7  C   UNL     1      -8.107  32.713  43.567  1.00  0.00    -0.028 C 
ATOM      8  C   UNL     1      -8.079  33.596  42.543  1.00  0.00    -0.070 CG0
ATOM      9  C   UNL     1      -6.760  34.238  42.197  1.00  0.00     0.039 C 
ATOM     10  G   UNL     1      -9.309  33.957  41.728  1.00  0.00     0.000 G0
ENDBRANCH   6   7
ENDBRANCH   5   6
ENDBRANCH   3   5
ENDBRANCH   1   3
BRANCH   1  11
ATOM     11  C   UNL     1      -9.607  31.272  40.156  1.00  0.00     0.087 C 
BRANCH  11  12
ATOM     12  C   UNL     1      -8.719  32.420  39.609  1.00  0.00     0.066 C 
BRANCH  12  13
ATOM     13  C   UNL     1      -9.099  33.760  40.224  1.00  0.00     0.140 C 
ATOM     14  O   UNL     1      -9.186  34.746  39.506  1.00  0.00    -0.299 OA
BRANCH  13  15
ATOM     15  C   UNL     1      -9.308  33.940  41.713  1.00  0.00     0.106 CG0
ATOM     16  G   UNL     1      -8.088  33.597  42.551  1.00  0.00     0.000 G0
ENDBRANCH  13  15
ENDBRANCH  12  13
BRANCH  12  17
ATOM     17  C   UNL     1      -8.693  32.514  38.053  1.00  0.00    -0.006 C 
ATOM     18  C   UNL     1      -8.111  31.244  37.413  1.00  0.00     0.008 C 
ATOM     19  C   UNL     1     -10.055  32.843  37.419  1.00  0.00     0.008 C 
ENDBRANCH  12  17
ENDBRANCH  11  12
ENDBRANCH   1  11
TORSDOF 1
ENDMDL
MODEL 6
REMARK VINA RESULT:    -4.368      1.814      2.779
REMARK INTER + INTRA:          -6.655
REMARK INTER:                  -7.052
REMARK INTRA:                   0.397
REMARK UNBOUND:                 0.011
REMARK SMILES CC1=CCC[C@@H](C)C(=O)C[C@@H](C(C)C)C(=O)C1
REMARK SMILES IDX 8 1 9 2 6 3 7 4 5 5 4 6 3 7 2 8 1 9 10 11 11 12 15 13 16 14
REMARK SMILES IDX 17 15 12 17 13 18 14 19
REMARK H PARENT
REMARK Flexibility Score: 70.00
ROOT
ATOM      1  C   UNL     1      -7.780  29.681  41.271  1.00  0.00     0.136 C 
ATOM      2  O   UNL     1      -7.139  28.745  41.724  1.00  0.00    -0.299 OA
ENDROOT
BRANCH   1   3
ATOM      3  C   UNL     1      -8.891  29.415  40.275  1.00  0.00     0.053 C 
ATOM      4  C   UNL     1      -9.002  27.907  40.032  1.00  0.00     0.016 C 
BRANCH   3   5
ATOM      5  C   UNL     1      -8.665  30.154  38.932  1.00  0.00     0.015 C 
BRANCH   5   6
ATOM      6  C   UNL     1      -9.798  31.119  38.545  1.00  0.00     0.028 C 
BRANCH   6   7
ATOM      7  C   UNL     1      -9.256  32.408  37.973  1.00  0.00    -0.028 C 
ATOM      8  C   UNL     1      -9.161  33.579  38.644  1.00  0.00    -0.070 CG0
ATOM      9  C   UNL     1      -8.606  34.773  37.910  1.00  0.00     0.039 C 
ATOM     10  G   UNL     1      -9.598  33.741  40.090  1.00  0.00     0.000 G0
ENDBRANCH   6   7
ENDBRANCH   5   6
ENDBRANCH   3   5
ENDBRANCH   1   3
BRANCH   1  11
ATOM     11  C   UNL     1      -7.478  31.081  41.756  1.00  0.00     0.087 C 
BRANCH  11  12
ATOM     12  C   UNL     1      -8.744  31.970  41.877  1.00  0.00     0.066 C 
BRANCH  12  13
ATOM     13  C   UNL     1      -8.581  33.278  41.116  1.00  0.00     0.140 C 
ATOM     14  O   UNL     1      -7.627  34.002  41.363  1.00  0.00    -0.299 OA
BRANCH  13  15
ATOM     15  C   UNL     1      -9.599  33.761  40.105  1.00  0.00     0.106 CG0
ATOM     16  G   UNL     1      -9.163  33.587  38.660  1.00  0.00     0.000 G0
ENDBRANCH  13  15
ENDBRANCH  12  13
BRANCH  12  17
ATOM     17  C   UNL     1      -9.191  32.238  43.347  1.00  0.00    -0.006 C 
ATOM     18  C   UNL     1      -8.380  31.405  44.352  1.00  0.00     0.008 C 
ATOM     19  C   UNL     1      -9.164  33.721  43.753  1.00  0.00     0.008 C 
ENDBRANCH  12  17
ENDBRANCH  11  12
ENDBRANCH   1  11
TORSDOF 1
ENDMDL
MODEL 7
REMARK VINA RESULT:    -4.290      1.930      4.061
REMARK INTER + INTRA:          -6.537
REMARK INTER:                  -7.620
REMARK INTRA:                   1.083
REMARK UNBOUND:                 0.011
REMARK SMILES CC1=CCC[C@@H](C)C(=O)C[C@@H](C(C)C)C(=O)C1
REMARK SMILES IDX 8 1 9 2 6 3 7 4 5 5 4 6 3 7 2 8 1 9 10 11 11 12 15 13 16 14
REMARK SMILES IDX 17 15 12 17 13 18 14 19
REMARK H PARENT
REMARK Flexibility Score: 70.00
ROOT
ATOM      1  C   UNL     1      -8.745  31.454  39.685  1.00  0.00     0.136 C 
ATOM      2  O   UNL     1      -8.433  32.017  38.646  1.00  0.00    -0.299 OA
ENDROOT
BRANCH   1   3
ATOM      3  C   UNL     1      -8.321  30.017  39.915  1.00  0.00     0.053 C 
ATOM      4  C   UNL     1      -8.608  29.197  38.653  1.00  0.00     0.016 C 
BRANCH   3   5
ATOM      5  C   UNL     1      -9.034  29.383  41.135  1.00  0.00     0.015 C 
BRANCH   5   6
ATOM      6  C   UNL     1      -8.203  28.315  41.866  1.00  0.00     0.028 C 
BRANCH   6   7
ATOM      7  C   UNL     1      -7.658  28.838  43.174  1.00  0.00    -0.028 C 
ATOM      8  C   UNL     1      -8.217  29.823  43.913  1.00  0.00    -0.070 CG0
ATOM      9  C   UNL     1      -7.527  30.229  45.191  1.00  0.00     0.039 C 
ATOM     10  G   UNL     1      -9.493  30.540  43.506  1.00  0.00     0.000 G0
ENDBRANCH   6   7
ENDBRANCH   5   6
ENDBRANCH   3   5
ENDBRANCH   1   3
BRANCH   1  11
ATOM     11  C   UNL     1      -9.507  32.228  40.739  1.00  0.00     0.087 C 
BRANCH  11  12
ATOM     12  C   UNL     1      -8.645  32.574  41.981  1.00  0.00     0.066 C 
BRANCH  12  13
ATOM     13  C   UNL     1      -9.278  32.050  43.263  1.00  0.00     0.140 C 
ATOM     14  O   UNL     1      -9.577  32.837  44.149  1.00  0.00    -0.299 OA
BRANCH  13  15
ATOM     15  C   UNL     1      -9.490  30.573  43.518  1.00  0.00     0.106 CG0
ATOM     16  G   UNL     1      -8.227  29.831  43.920  1.00  0.00     0.000 G0
ENDBRANCH  13  15
ENDBRANCH  12  13
BRANCH  12  17
ATOM     17  C   UNL     1      -8.307  34.091  42.113  1.00  0.00    -0.006 C 
ATOM     18  C   UNL     1      -6.796  34.351  42.009  1.00  0.00     0.008 C 
ATOM     19  C   UNL     1      -9.063  34.994  41.124  1.00  0.00     0.008 C 
ENDBRANCH  12  17
ENDBRANCH  11  12
ENDBRANCH   1  11
TORSDOF 1
ENDMDL
MODEL 8
REMARK VINA RESULT:    -3.934      2.008      5.320
REMARK INTER + INTRA:          -5.993
REMARK INTER:                  -7.625
REMARK INTRA:                   1.632
REMARK UNBOUND:                 0.011
REMARK SMILES CC1=CCC[C@@H](C)C(=O)C[C@@H](C(C)C)C(=O)C1
REMARK SMILES IDX 8 1 9 2 6 3 7 4 5 5 4 6 3 7 2 8 1 9 10 11 11 12 15 13 16 14
REMARK SMILES IDX 17 15 12 17 13 18 14 19
REMARK H PARENT
REMARK Flexibility Score: 70.00
ROOT
ATOM      1  C   UNL     1      -9.458  31.944  39.645  1.00  0.00     0.136 C 
ATOM      2  O   UNL     1      -9.699  31.384  38.585  1.00  0.00    -0.299 OA
ENDROOT
BRANCH   1   3
ATOM      3  C   UNL     1      -8.624  33.210  39.650  1.00  0.00     0.053 C 
ATOM      4  C   UNL     1      -7.841  33.305  38.337  1.00  0.00     0.016 C 
BRANCH   3   5
ATOM      5  C   UNL     1      -7.652  33.267  40.854  1.00  0.00     0.015 C 
BRANCH   5   6
ATOM      6  C   UNL     1      -7.957  34.390  41.859  1.00  0.00     0.028 C 
BRANCH   6   7
ATOM      7  C   UNL     1      -8.860  33.910  42.970  1.00  0.00    -0.028 C 
ATOM      8  C   UNL     1      -8.851  32.664  43.497  1.00  0.00    -0.070 CG0
ATOM      9  C   UNL     1      -9.835  32.352  44.596  1.00  0.00     0.039 C 
ATOM     10  G   UNL     1      -7.907  31.572  43.023  1.00  0.00     0.000 G0
ENDBRANCH   6   7
ENDBRANCH   5   6
ENDBRANCH   3   5
ENDBRANCH   1   3
BRANCH   1  11
ATOM     11  C   UNL     1     -10.044  31.383  40.922  1.00  0.00     0.087 C 
BRANCH  11  12
ATOM     12  C   UNL     1      -9.367  30.062  41.372  1.00  0.00     0.066 C 
BRANCH  12  13
ATOM     13  C   UNL     1      -8.597  30.246  42.672  1.00  0.00     0.140 C 
ATOM     14  O   UNL     1      -8.574  29.338  43.490  1.00  0.00    -0.299 OA
BRANCH  13  15
ATOM     15  C   UNL     1      -7.908  31.546  43.030  1.00  0.00     0.106 CG0
ATOM     16  G   UNL     1      -8.858  32.637  43.497  1.00  0.00     0.000 G0
ENDBRANCH  13  15
ENDBRANCH  12  13
BRANCH  12  17
ATOM     17  C   UNL     1      -8.462  29.411  40.281  1.00  0.00    -0.006 C 
ATOM     18  C   UNL     1      -7.061  29.085  40.822  1.00  0.00     0.008 C 
ATOM     19  C   UNL     1      -9.072  28.165  39.618  1.00  0.00     0.008 C 
ENDBRANCH  12  17
ENDBRANCH  11  12
ENDBRANCH   1  11
TORSDOF 1
ENDMDL
MODEL 9
REMARK VINA RESULT:    -3.166      1.871      5.098
REMARK INTER + INTRA:          -4.820
REMARK INTER:                  -6.181
REMARK INTRA:                   1.361
REMARK UNBOUND:                 0.011
REMARK SMILES CC1=CCC[C@@H](C)C(=O)C[C@@H](C(C)C)C(=O)C1
REMARK SMILES IDX 8 1 9 2 6 3 7 4 5 5 4 6 3 7 2 8 1 9 10 11 11 12 15 13 16 14
REMARK SMILES IDX 17 15 12 17 13 18 14 19
REMARK H PARENT
REMARK Flexibility Score: 70.00
ROOT
ATOM      1  C   UNL     1      -9.214  30.920  38.793  1.00  0.00     0.136 C 
ATOM      2  O   UNL     1      -8.832  29.861  38.317  1.00  0.00    -0.299 OA
ENDROOT
BRANCH   1   3
ATOM      3  C   UNL     1      -9.028  32.204  38.008  1.00  0.00     0.053 C 
ATOM      4  C   UNL     1      -7.530  32.478  37.835  1.00  0.00     0.016 C 
BRANCH   3   5
ATOM      5  C   UNL     1      -9.715  33.413  38.688  1.00  0.00     0.015 C 
BRANCH   5   6
ATOM      6  C   UNL     1      -8.741  34.402  39.350  1.00  0.00     0.028 C 
BRANCH   6   7
ATOM      7  C   UNL     1      -9.012  34.540  40.830  1.00  0.00    -0.028 C 
ATOM      8  C   UNL     1      -8.570  33.690  41.785  1.00  0.00    -0.070 CG0
ATOM      9  C   UNL     1      -8.947  33.975  43.216  1.00  0.00     0.039 C 
ATOM     10  G   UNL     1      -7.727  32.465  41.476  1.00  0.00     0.000 G0
ENDBRANCH   6   7
ENDBRANCH   5   6
ENDBRANCH   3   5
ENDBRANCH   1   3
BRANCH   1  11
ATOM     11  C   UNL     1      -9.910  30.914  40.136  1.00  0.00     0.087 C 
BRANCH  11  12
ATOM     12  C   UNL     1      -9.101  30.178  41.236  1.00  0.00     0.066 C 
BRANCH  12  13
ATOM     13  C   UNL     1      -8.258  31.148  42.051  1.00  0.00     0.140 C 
ATOM     14  O   UNL     1      -8.051  30.916  43.234  1.00  0.00    -0.299 OA
BRANCH  13  15
ATOM     15  C   UNL     1      -7.717  32.438  41.472  1.00  0.00     0.106 CG0
ATOM     16  G   UNL     1      -8.563  33.659  41.791  1.00  0.00     0.000 G0
ENDBRANCH  13  15
ENDBRANCH  12  13
BRANCH  12  17
ATOM     17  C   UNL     1      -8.226  29.003  40.699  1.00  0.00    -0.006 C 
ATOM     18  C   UNL     1      -6.928  28.842  41.505  1.00  0.00     0.008 C 
ATOM     19  C   UNL     1      -8.962  27.656  40.615  1.00  0.00     0.008 C 
ENDBRANCH  12  17
ENDBRANCH  11  12
ENDBRANCH   1  11
TORSDOF 1
ENDMDL
