MODEL 1
REMARK VINA RESULT:    -2.759      0.000      0.000
REMARK INTER + INTRA:          -4.409
REMARK INTER:                  -4.210
REMARK INTRA:                  -0.199
REMARK UNBOUND:                -0.199
REMARK SMILES CC1=CCC[C@H](C)C(=O)C[C@@H](C(C)C)C(=O)C1
REMARK SMILES IDX 8 1 9 2 6 3 7 4 5 5 4 6 3 7 2 8 1 9 10 11 11 12 15 13 16 14
REMARK SMILES IDX 17 15 12 17 13 18 14 19
REMARK H PARENT
REMARK Flexibility Score: 70.00
ROOT
ATOM      1  C   UNL     1      21.228  42.198  92.057  1.00  0.00     0.136 C 
ATOM      2  O   UNL     1      22.407  42.366  92.338  1.00  0.00    -0.299 OA
ENDROOT
BRANCH   1   3
ATOM      3  C   UNL     1      20.894  41.887  90.605  1.00  0.00     0.053 C 
ATOM      4  C   UNL     1      21.370  42.985  89.644  1.00  0.00     0.016 C 
BRANCH   3   5
ATOM      5  C   UNL     1      21.367  40.482  90.173  1.00  0.00     0.015 C 
BRANCH   5   6
ATOM      6  C   UNL     1      20.848  39.370  91.114  1.00  0.00     0.028 C 
BRANCH   6   7
ATOM      7  C   UNL     1      19.363  39.146  90.995  1.00  0.00    -0.028 C 
ATOM      8  C   UNL     1      18.523  38.942  92.038  1.00  0.00    -0.070 CG0
ATOM      9  C   UNL     1      17.050  38.811  91.742  1.00  0.00     0.039 C 
ATOM     10  G   UNL     1      18.994  38.778  93.476  1.00  0.00     0.000 G0
ENDBRANCH   6   7
ENDBRANCH   5   6
ENDBRANCH   3   5
ENDBRANCH   1   3
BRANCH   1  11
ATOM     11  C   UNL     1      20.233  42.225  93.203  1.00  0.00     0.087 C 
BRANCH  11  12
ATOM     12  C   UNL     1      20.248  41.046  94.221  1.00  0.00     0.066 C 
BRANCH  12  13
ATOM     13  C   UNL     1      19.035  40.111  94.204  1.00  0.00     0.140 C 
ATOM     14  O   UNL     1      18.037  40.474  94.813  1.00  0.00    -0.299 OA
BRANCH  13  15
ATOM     15  C   UNL     1      18.965  38.777  93.495  1.00  0.00     0.106 CG0
ATOM     16  G   UNL     1      18.509  38.964  92.054  1.00  0.00     0.000 G0
ENDBRANCH  13  15
ENDBRANCH  12  13
BRANCH  12  17
ATOM     17  C   UNL     1      20.502  41.544  95.684  1.00  0.00    -0.006 C 
ATOM     18  C   UNL     1      21.087  42.964  95.749  1.00  0.00     0.008 C 
ATOM     19  C   UNL     1      21.366  40.572  96.504  1.00  0.00     0.008 C 
ENDBRANCH  12  17
ENDBRANCH  11  12
ENDBRANCH   1  11
TORSDOF 1
ENDMDL
MODEL 2
REMARK VINA RESULT:    -2.690      2.443      5.831
REMARK INTER + INTRA:          -4.304
REMARK INTER:                  -4.068
REMARK INTRA:                  -0.236
REMARK UNBOUND:                -0.199
REMARK SMILES CC1=CCC[C@H](C)C(=O)C[C@@H](C(C)C)C(=O)C1
REMARK SMILES IDX 8 1 9 2 6 3 7 4 5 5 4 6 3 7 2 8 1 9 10 11 11 12 15 13 16 14
REMARK SMILES IDX 17 15 12 17 13 18 14 19
REMARK H PARENT
REMARK Flexibility Score: 70.00
ROOT
ATOM      1  C   UNL     1      15.965  38.362  92.715  1.00  0.00     0.136 C 
ATOM      2  O   UNL     1      15.337  37.321  92.581  1.00  0.00    -0.299 OA
ENDROOT
BRANCH   1   3
ATOM      3  C   UNL     1      15.944  39.019  94.088  1.00  0.00     0.053 C 
ATOM      4  C   UNL     1      14.521  39.335  94.566  1.00  0.00     0.016 C 
BRANCH   3   5
ATOM      5  C   UNL     1      16.756  38.230  95.137  1.00  0.00     0.015 C 
BRANCH   5   6
ATOM      6  C   UNL     1      18.279  38.470  95.007  1.00  0.00     0.028 C 
BRANCH   6   7
ATOM      7  C   UNL     1      18.637  39.930  94.910  1.00  0.00    -0.028 C 
ATOM      8  C   UNL     1      19.419  40.475  93.946  1.00  0.00    -0.070 CG0
ATOM      9  C   UNL     1      19.612  41.970  93.956  1.00  0.00     0.039 C 
ATOM     10  G   UNL     1      20.157  39.652  92.900  1.00  0.00     0.000 G0
ENDBRANCH   6   7
ENDBRANCH   5   6
ENDBRANCH   3   5
ENDBRANCH   1   3
BRANCH   1  11
ATOM     11  C   UNL     1      16.776  38.839  91.522  1.00  0.00     0.087 C 
BRANCH  11  12
ATOM     12  C   UNL     1      18.268  38.403  91.424  1.00  0.00     0.066 C 
BRANCH  12  13
ATOM     13  C   UNL     1      19.318  39.495  91.648  1.00  0.00     0.140 C 
ATOM     14  O   UNL     1      19.491  40.303  90.745  1.00  0.00    -0.299 OA
BRANCH  13  15
ATOM     15  C   UNL     1      20.158  39.660  92.896  1.00  0.00     0.106 CG0
ATOM     16  G   UNL     1      19.411  40.486  93.934  1.00  0.00     0.000 G0
ENDBRANCH  13  15
ENDBRANCH  12  13
BRANCH  12  17
ATOM     17  C   UNL     1      18.568  37.660  90.077  1.00  0.00    -0.006 C 
ATOM     18  C   UNL     1      17.309  37.089  89.405  1.00  0.00     0.008 C 
ATOM     19  C   UNL     1      19.639  36.567  90.224  1.00  0.00     0.008 C 
ENDBRANCH  12  17
ENDBRANCH  11  12
ENDBRANCH   1  11
TORSDOF 1
ENDMDL
MODEL 3
REMARK VINA RESULT:    -2.583      1.883      4.336
REMARK INTER + INTRA:          -4.142
REMARK INTER:                  -3.973
REMARK INTRA:                  -0.168
REMARK UNBOUND:                -0.199
REMARK SMILES CC1=CCC[C@H](C)C(=O)C[C@@H](C(C)C)C(=O)C1
REMARK SMILES IDX 8 1 9 2 6 3 7 4 5 5 4 6 3 7 2 8 1 9 10 11 11 12 15 13 16 14
REMARK SMILES IDX 17 15 12 17 13 18 14 19
REMARK H PARENT
REMARK Flexibility Score: 70.00
ROOT
ATOM      1  C   UNL     1      20.812  41.246  92.451  1.00  0.00     0.136 C 
ATOM      2  O   UNL     1      20.234  42.221  91.992  1.00  0.00    -0.299 OA
ENDROOT
BRANCH   1   3
ATOM      3  C   UNL     1      20.921  41.147  93.966  1.00  0.00     0.053 C 
ATOM      4  C   UNL     1      21.541  42.402  94.594  1.00  0.00     0.016 C 
BRANCH   3   5
ATOM      5  C   UNL     1      19.586  40.753  94.634  1.00  0.00     0.015 C 
BRANCH   5   6
ATOM      6  C   UNL     1      19.154  39.310  94.282  1.00  0.00     0.028 C 
BRANCH   6   7
ATOM      7  C   UNL     1      17.946  39.262  93.382  1.00  0.00    -0.028 C 
ATOM      8  C   UNL     1      17.890  38.620  92.191  1.00  0.00    -0.070 CG0
ATOM      9  C   UNL     1      16.573  38.610  91.455  1.00  0.00     0.039 C 
ATOM     10  G   UNL     1      19.097  37.966  91.532  1.00  0.00     0.000 G0
ENDBRANCH   6   7
ENDBRANCH   5   6
ENDBRANCH   3   5
ENDBRANCH   1   3
BRANCH   1  11
ATOM     11  C   UNL     1      21.278  40.191  91.463  1.00  0.00     0.087 C 
BRANCH  11  12
ATOM     12  C   UNL     1      20.393  39.910  90.212  1.00  0.00     0.066 C 
BRANCH  12  13
ATOM     13  C   UNL     1      19.512  38.658  90.261  1.00  0.00     0.140 C 
ATOM     14  O   UNL     1      19.112  38.211  89.194  1.00  0.00    -0.299 OA
BRANCH  13  15
ATOM     15  C   UNL     1      19.099  37.926  91.518  1.00  0.00     0.106 CG0
ATOM     16  G   UNL     1      17.911  38.619  92.171  1.00  0.00     0.000 G0
ENDBRANCH  13  15
ENDBRANCH  12  13
BRANCH  12  17
ATOM     17  C   UNL     1      21.239  39.901  88.893  1.00  0.00    -0.006 C 
ATOM     18  C   UNL     1      22.468  38.980  88.966  1.00  0.00     0.008 C 
ATOM     19  C   UNL     1      21.652  41.310  88.439  1.00  0.00     0.008 C 
ENDBRANCH  12  17
ENDBRANCH  11  12
ENDBRANCH   1  11
TORSDOF 1
ENDMDL
MODEL 4
REMARK VINA RESULT:    -2.500      4.642      7.425
REMARK INTER + INTRA:          -4.015
REMARK INTER:                  -3.916
REMARK INTRA:                  -0.099
REMARK UNBOUND:                -0.199
REMARK SMILES CC1=CCC[C@H](C)C(=O)C[C@@H](C(C)C)C(=O)C1
REMARK SMILES IDX 8 1 9 2 6 3 7 4 5 5 4 6 3 7 2 8 1 9 10 11 11 12 15 13 16 14
REMARK SMILES IDX 17 15 12 17 13 18 14 19
REMARK H PARENT
REMARK Flexibility Score: 70.00
ROOT
ATOM      1  C   UNL     1      13.297  38.057  91.692  1.00  0.00     0.136 C 
ATOM      2  O   UNL     1      12.629  39.081  91.716  1.00  0.00    -0.299 OA
ENDROOT
BRANCH   1   3
ATOM      3  C   UNL     1      12.547  36.733  91.723  1.00  0.00     0.053 C 
ATOM      4  C   UNL     1      12.778  35.897  90.457  1.00  0.00     0.016 C 
BRANCH   3   5
ATOM      5  C   UNL     1      12.813  35.929  93.014  1.00  0.00     0.015 C 
BRANCH   5   6
ATOM      6  C   UNL     1      12.289  36.652  94.277  1.00  0.00     0.028 C 
BRANCH   6   7
ATOM      7  C   UNL     1      13.282  36.648  95.411  1.00  0.00    -0.028 C 
ATOM      8  C   UNL     1      14.127  37.665  95.706  1.00  0.00    -0.070 CG0
ATOM      9  C   UNL     1      15.002  37.523  96.926  1.00  0.00     0.039 C 
ATOM     10  G   UNL     1      14.281  38.906  94.839  1.00  0.00     0.000 G0
ENDBRANCH   6   7
ENDBRANCH   5   6
ENDBRANCH   3   5
ENDBRANCH   1   3
BRANCH   1  11
ATOM     11  C   UNL     1      14.800  38.215  91.540  1.00  0.00     0.087 C 
BRANCH  11  12
ATOM     12  C   UNL     1      15.700  37.928  92.779  1.00  0.00     0.066 C 
BRANCH  12  13
ATOM     13  C   UNL     1      15.514  38.847  93.990  1.00  0.00     0.140 C 
ATOM     14  O   UNL     1      16.446  39.585  94.283  1.00  0.00    -0.299 OA
BRANCH  13  15
ATOM     15  C   UNL     1      14.274  38.922  94.852  1.00  0.00     0.106 CG0
ATOM     16  G   UNL     1      14.154  37.677  95.721  1.00  0.00     0.000 G0
ENDBRANCH  13  15
ENDBRANCH  12  13
BRANCH  12  17
ATOM     17  C   UNL     1      17.217  37.873  92.394  1.00  0.00    -0.006 C 
ATOM     18  C   UNL     1      17.558  38.704  91.146  1.00  0.00     0.008 C 
ATOM     19  C   UNL     1      17.742  36.436  92.239  1.00  0.00     0.008 C 
ENDBRANCH  12  17
ENDBRANCH  11  12
ENDBRANCH   1  11
TORSDOF 1
ENDMDL
MODEL 5
REMARK VINA RESULT:    -2.483      2.105      5.351
REMARK INTER + INTRA:          -3.989
REMARK INTER:                  -3.975
REMARK INTRA:                  -0.014
REMARK UNBOUND:                -0.199
REMARK SMILES CC1=CCC[C@H](C)C(=O)C[C@@H](C(C)C)C(=O)C1
REMARK SMILES IDX 8 1 9 2 6 3 7 4 5 5 4 6 3 7 2 8 1 9 10 11 11 12 15 13 16 14
REMARK SMILES IDX 17 15 12 17 13 18 14 19
REMARK H PARENT
REMARK Flexibility Score: 70.00
ROOT
ATOM      1  C   UNL     1      18.440  39.221  92.394  1.00  0.00     0.136 C 
ATOM      2  O   UNL     1      18.060  38.065  92.274  1.00  0.00    -0.299 OA
ENDROOT
BRANCH   1   3
ATOM      3  C   UNL     1      18.534  39.783  93.805  1.00  0.00     0.053 C 
ATOM      4  C   UNL     1      17.181  39.788  94.528  1.00  0.00     0.016 C 
BRANCH   3   5
ATOM      5  C   UNL     1      19.644  39.110  94.641  1.00  0.00     0.015 C 
BRANCH   5   6
ATOM      6  C   UNL     1      21.059  39.591  94.239  1.00  0.00     0.028 C 
BRANCH   6   7
ATOM      7  C   UNL     1      21.296  41.046  94.555  1.00  0.00    -0.028 C 
ATOM      8  C   UNL     1      21.729  41.972  93.666  1.00  0.00    -0.070 CG0
ATOM      9  C   UNL     1      21.839  43.401  94.134  1.00  0.00     0.039 C 
ATOM     10  G   UNL     1      22.166  41.634  92.248  1.00  0.00     0.000 G0
ENDBRANCH   6   7
ENDBRANCH   5   6
ENDBRANCH   3   5
ENDBRANCH   1   3
BRANCH   1  11
ATOM     11  C   UNL     1      18.867  39.942  91.127  1.00  0.00     0.087 C 
BRANCH  11  12
ATOM     12  C   UNL     1      20.391  40.139  90.869  1.00  0.00     0.066 C 
BRANCH  12  13
ATOM     13  C   UNL     1      20.993  41.477  91.305  1.00  0.00     0.140 C 
ATOM     14  O   UNL     1      20.470  42.497  90.874  1.00  0.00    -0.299 OA
BRANCH  13  15
ATOM     15  C   UNL     1      22.179  41.646  92.228  1.00  0.00     0.106 CG0
ATOM     16  G   UNL     1      21.712  41.952  93.644  1.00  0.00     0.000 G0
ENDBRANCH  13  15
ENDBRANCH  12  13
BRANCH  12  17
ATOM     17  C   UNL     1      20.766  39.860  89.374  1.00  0.00    -0.006 C 
ATOM     18  C   UNL     1      20.232  38.516  88.853  1.00  0.00     0.008 C 
ATOM     19  C   UNL     1      22.276  39.976  89.106  1.00  0.00     0.008 C 
ENDBRANCH  12  17
ENDBRANCH  11  12
ENDBRANCH   1  11
TORSDOF 1
ENDMDL
MODEL 6
REMARK VINA RESULT:    -2.450      1.785      2.287
REMARK INTER + INTRA:          -3.939
REMARK INTER:                  -3.881
REMARK INTRA:                  -0.058
REMARK UNBOUND:                -0.199
REMARK SMILES CC1=CCC[C@H](C)C(=O)C[C@@H](C(C)C)C(=O)C1
REMARK SMILES IDX 8 1 9 2 6 3 7 4 5 5 4 6 3 7 2 8 1 9 10 11 11 12 15 13 16 14
REMARK SMILES IDX 17 15 12 17 13 18 14 19
REMARK H PARENT
REMARK Flexibility Score: 70.00
ROOT
ATOM      1  C   UNL     1      21.704  43.131  91.027  1.00  0.00     0.136 C 
ATOM      2  O   UNL     1      22.476  43.911  91.567  1.00  0.00    -0.299 OA
ENDROOT
BRANCH   1   3
ATOM      3  C   UNL     1      21.918  42.847  89.548  1.00  0.00     0.053 C 
ATOM      4  C   UNL     1      22.905  43.825  88.897  1.00  0.00     0.016 C 
BRANCH   3   5
ATOM      5  C   UNL     1      22.284  41.372  89.272  1.00  0.00     0.015 C 
BRANCH   5   6
ATOM      6  C   UNL     1      21.113  40.581  88.643  1.00  0.00     0.028 C 
BRANCH   6   7
ATOM      7  C   UNL     1      21.047  39.153  89.120  1.00  0.00    -0.028 C 
ATOM      8  C   UNL     1      20.309  38.718  90.170  1.00  0.00    -0.070 CG0
ATOM      9  C   UNL     1      20.299  37.239  90.461  1.00  0.00     0.039 C 
ATOM     10  G   UNL     1      19.546  39.649  91.102  1.00  0.00     0.000 G0
ENDBRANCH   6   7
ENDBRANCH   5   6
ENDBRANCH   3   5
ENDBRANCH   1   3
BRANCH   1  11
ATOM     11  C   UNL     1      20.669  42.459  91.913  1.00  0.00     0.087 C 
BRANCH  11  12
ATOM     12  C   UNL     1      21.094  41.188  92.708  1.00  0.00     0.066 C 
BRANCH  12  13
ATOM     13  C   UNL     1      20.343  39.893  92.382  1.00  0.00     0.140 C 
ATOM     14  O   UNL     1      20.394  38.992  93.209  1.00  0.00    -0.299 OA
BRANCH  13  15
ATOM     15  C   UNL     1      19.542  39.637  91.126  1.00  0.00     0.106 CG0
ATOM     16  G   UNL     1      20.314  38.731  90.177  1.00  0.00     0.000 G0
ENDBRANCH  13  15
ENDBRANCH  12  13
BRANCH  12  17
ATOM     17  C   UNL     1      21.063  41.433  94.255  1.00  0.00    -0.006 C 
ATOM     18  C   UNL     1      20.229  42.661  94.659  1.00  0.00     0.008 C 
ATOM     19  C   UNL     1      22.467  41.513  94.875  1.00  0.00     0.008 C 
ENDBRANCH  12  17
ENDBRANCH  11  12
ENDBRANCH   1  11
TORSDOF 1
ENDMDL
MODEL 7
REMARK VINA RESULT:    -2.358      1.983      4.803
REMARK INTER + INTRA:          -3.798
REMARK INTER:                  -3.607
REMARK INTRA:                  -0.191
REMARK UNBOUND:                -0.199
REMARK SMILES CC1=CCC[C@H](C)C(=O)C[C@@H](C(C)C)C(=O)C1
REMARK SMILES IDX 8 1 9 2 6 3 7 4 5 5 4 6 3 7 2 8 1 9 10 11 11 12 15 13 16 14
REMARK SMILES IDX 17 15 12 17 13 18 14 19
REMARK H PARENT
REMARK Flexibility Score: 70.00
ROOT
ATOM      1  C   UNL     1      18.634  40.536  94.050  1.00  0.00     0.136 C 
ATOM      2  O   UNL     1      17.620  40.214  94.652  1.00  0.00    -0.299 OA
ENDROOT
BRANCH   1   3
ATOM      3  C   UNL     1      19.707  41.279  94.833  1.00  0.00     0.053 C 
ATOM      4  C   UNL     1      20.848  40.359  95.286  1.00  0.00     0.016 C 
BRANCH   3   5
ATOM      5  C   UNL     1      20.222  42.534  94.095  1.00  0.00     0.015 C 
BRANCH   5   6
ATOM      6  C   UNL     1      21.610  42.311  93.451  1.00  0.00     0.028 C 
BRANCH   6   7
ATOM      7  C   UNL     1      21.569  42.335  91.944  1.00  0.00    -0.028 C 
ATOM      8  C   UNL     1      21.655  41.243  91.148  1.00  0.00    -0.070 CG0
ATOM      9  C   UNL     1      21.520  41.443  89.659  1.00  0.00     0.039 C 
ATOM     10  G   UNL     1      21.943  39.843  91.671  1.00  0.00     0.000 G0
ENDBRANCH   6   7
ENDBRANCH   5   6
ENDBRANCH   3   5
ENDBRANCH   1   3
BRANCH   1  11
ATOM     11  C   UNL     1      18.755  40.080  92.606  1.00  0.00     0.087 C 
BRANCH  11  12
ATOM     12  C   UNL     1      19.553  38.774  92.311  1.00  0.00     0.066 C 
BRANCH  12  13
ATOM     13  C   UNL     1      20.787  38.913  91.414  1.00  0.00     0.140 C 
ATOM     14  O   UNL     1      20.830  38.217  90.407  1.00  0.00    -0.299 OA
BRANCH  13  15
ATOM     15  C   UNL     1      21.954  39.841  91.665  1.00  0.00     0.106 CG0
ATOM     16  G   UNL     1      21.645  41.238  91.147  1.00  0.00     0.000 G0
ENDBRANCH  13  15
ENDBRANCH  12  13
BRANCH  12  17
ATOM     17  C   UNL     1      18.627  37.641  91.752  1.00  0.00    -0.006 C 
ATOM     18  C   UNL     1      17.150  38.058  91.652  1.00  0.00     0.008 C 
ATOM     19  C   UNL     1      18.759  36.323  92.532  1.00  0.00     0.008 C 
ENDBRANCH  12  17
ENDBRANCH  11  12
ENDBRANCH   1  11
TORSDOF 1
ENDMDL
MODEL 8
REMARK VINA RESULT:    -2.346      1.924      3.673
REMARK INTER + INTRA:          -3.779
REMARK INTER:                  -3.626
REMARK INTRA:                  -0.153
REMARK UNBOUND:                -0.199
REMARK SMILES CC1=CCC[C@H](C)C(=O)C[C@@H](C(C)C)C(=O)C1
REMARK SMILES IDX 8 1 9 2 6 3 7 4 5 5 4 6 3 7 2 8 1 9 10 11 11 12 15 13 16 14
REMARK SMILES IDX 17 15 12 17 13 18 14 19
REMARK H PARENT
REMARK Flexibility Score: 70.00
ROOT
ATOM      1  C   UNL     1      20.319  42.043  93.897  1.00  0.00     0.136 C 
ATOM      2  O   UNL     1      20.122  43.168  93.459  1.00  0.00    -0.299 OA
ENDROOT
BRANCH   1   3
ATOM      3  C   UNL     1      21.721  41.720  94.393  1.00  0.00     0.053 C 
ATOM      4  C   UNL     1      21.723  41.126  95.808  1.00  0.00     0.016 C 
BRANCH   3   5
ATOM      5  C   UNL     1      22.522  40.859  93.393  1.00  0.00     0.015 C 
BRANCH   5   6
ATOM      6  C   UNL     1      22.450  41.410  91.949  1.00  0.00     0.028 C 
BRANCH   6   7
ATOM      7  C   UNL     1      22.226  40.333  90.920  1.00  0.00    -0.028 C 
ATOM      8  C   UNL     1      21.034  40.050  90.340  1.00  0.00    -0.070 CG0
ATOM      9  C   UNL     1      21.005  38.988  89.270  1.00  0.00     0.039 C 
ATOM     10  G   UNL     1      19.723  40.702  90.755  1.00  0.00     0.000 G0
ENDBRANCH   6   7
ENDBRANCH   5   6
ENDBRANCH   3   5
ENDBRANCH   1   3
BRANCH   1  11
ATOM     11  C   UNL     1      19.119  41.116  93.986  1.00  0.00     0.087 C 
BRANCH  11  12
ATOM     12  C   UNL     1      19.183  39.753  93.233  1.00  0.00     0.066 C 
BRANCH  12  13
ATOM     13  C   UNL     1      18.971  39.796  91.717  1.00  0.00     0.140 C 
ATOM     14  O   UNL     1      18.128  39.043  91.246  1.00  0.00    -0.299 OA
BRANCH  13  15
ATOM     15  C   UNL     1      19.713  40.695  90.753  1.00  0.00     0.106 CG0
ATOM     16  G   UNL     1      21.022  40.048  90.324  1.00  0.00     0.000 G0
ENDBRANCH  13  15
ENDBRANCH  12  13
BRANCH  12  17
ATOM     17  C   UNL     1      18.215  38.696  93.865  1.00  0.00    -0.006 C 
ATOM     18  C   UNL     1      17.388  39.252  95.036  1.00  0.00     0.008 C 
ATOM     19  C   UNL     1      18.935  37.404  94.285  1.00  0.00     0.008 C 
ENDBRANCH  12  17
ENDBRANCH  11  12
ENDBRANCH   1  11
TORSDOF 1
ENDMDL
MODEL 9
REMARK VINA RESULT:    -2.304      1.618      3.946
REMARK INTER + INTRA:          -3.715
REMARK INTER:                  -3.850
REMARK INTRA:                   0.135
REMARK UNBOUND:                -0.199
REMARK SMILES CC1=CCC[C@H](C)C(=O)C[C@@H](C(C)C)C(=O)C1
REMARK SMILES IDX 8 1 9 2 6 3 7 4 5 5 4 6 3 7 2 8 1 9 10 11 11 12 15 13 16 14
REMARK SMILES IDX 17 15 12 17 13 18 14 19
REMARK H PARENT
REMARK Flexibility Score: 70.00
ROOT
ATOM      1  C   UNL     1      18.992  39.803  94.252  1.00  0.00     0.136 C 
ATOM      2  O   UNL     1      18.161  40.420  94.905  1.00  0.00    -0.299 OA
ENDROOT
BRANCH   1   3
ATOM      3  C   UNL     1      18.476  38.747  93.285  1.00  0.00     0.053 C 
ATOM      4  C   UNL     1      16.994  38.940  92.938  1.00  0.00     0.016 C 
BRANCH   3   5
ATOM      5  C   UNL     1      19.361  38.609  92.028  1.00  0.00     0.015 C 
BRANCH   5   6
ATOM      6  C   UNL     1      18.965  39.607  90.915  1.00  0.00     0.028 C 
BRANCH   6   7
ATOM      7  C   UNL     1      20.128  40.009  90.045  1.00  0.00    -0.028 C 
ATOM      8  C   UNL     1      20.913  41.094  90.251  1.00  0.00    -0.070 CG0
ATOM      9  C   UNL     1      22.083  41.304  89.323  1.00  0.00     0.039 C 
ATOM     10  G   UNL     1      20.637  42.138  91.323  1.00  0.00     0.000 G0
ENDBRANCH   6   7
ENDBRANCH   5   6
ENDBRANCH   3   5
ENDBRANCH   1   3
BRANCH   1  11
ATOM     11  C   UNL     1      20.443  40.222  94.408  1.00  0.00     0.087 C 
BRANCH  11  12
ATOM     12  C   UNL     1      20.842  41.669  93.990  1.00  0.00     0.066 C 
BRANCH  12  13
ATOM     13  C   UNL     1      21.439  41.838  92.590  1.00  0.00     0.140 C 
ATOM     14  O   UNL     1      22.652  41.715  92.478  1.00  0.00    -0.299 OA
BRANCH  13  15
ATOM     15  C   UNL     1      20.654  42.142  91.333  1.00  0.00     0.106 CG0
ATOM     16  G   UNL     1      20.928  41.090  90.268  1.00  0.00     0.000 G0
ENDBRANCH  13  15
ENDBRANCH  12  13
BRANCH  12  17
ATOM     17  C   UNL     1      21.788  42.338  95.045  1.00  0.00    -0.006 C 
ATOM     18  C   UNL     1      21.713  41.679  96.432  1.00  0.00     0.008 C 
ATOM     19  C   UNL     1      21.573  43.856  95.161  1.00  0.00     0.008 C 
ENDBRANCH  12  17
ENDBRANCH  11  12
ENDBRANCH   1  11
TORSDOF 1
ENDMDL
