MODEL 1
REMARK VINA RESULT:    -6.760      0.000      0.000
REMARK INTER + INTRA:          -9.491
REMARK INTER:                  -9.131
REMARK INTRA:                  -0.360
REMARK UNBOUND:                -0.360
REMARK SMILES O=c1c(-c2ccc(O)cc2)coc2c([C@@H]3O[C@H](CO)[C@H](O)[C@H](O)[C@@H]3O)c(O)ccc12
REMARK SMILES IDX 3 1 11 2 12 3 13 4 30 5 2 6 1 7 29 8 28 9 26 10 14 11 4 12
REMARK SMILES IDX 5 13 6 14 7 15 10 16 9 17 8 18 15 20 24 21 16 22 22 23 17 24
REMARK SMILES IDX 20 25 25 26 23 28 18 30 19 31 21 33 27 35
REMARK H PARENT 8 19 25 27 23 29 19 32 21 34 27 36
REMARK Flexibility Score: inf
ROOT
ATOM      1  C   UNL     1      23.084   2.066 102.825  1.00  0.00     0.065 A 
ATOM      2  C   UNL     1      24.453   2.100 103.131  1.00  0.00     0.208 A 
ATOM      3  O   UNL     1      25.204   1.011 103.020  1.00  0.00    -0.463 OA
ATOM      4  C   UNL     1      24.726  -0.165 102.621  1.00  0.00     0.147 A 
ATOM      5  C   UNL     1      23.354  -0.293 102.304  1.00  0.00     0.066 A 
ATOM      6  C   UNL     1      22.528   0.840 102.413  1.00  0.00     0.200 A 
ATOM      7  O   UNL     1      21.294   0.756 102.164  1.00  0.00    -0.288 OA
ATOM      8  C   UNL     1      22.848  -1.539 101.904  1.00  0.00     0.020 A 
ATOM      9  C   UNL     1      23.689  -2.647 101.831  1.00  0.00     0.047 A 
ATOM     10  C   UNL     1      25.049  -2.534 102.146  1.00  0.00     0.125 A 
ATOM     11  C   UNL     1      25.591  -1.281 102.522  1.00  0.00     0.069 A 
ENDROOT
BRANCH   1  12
ATOM     12  C   UNL     1      22.266   3.299 102.949  1.00  0.00    -0.011 A 
ATOM     13  C   UNL     1      22.009   4.095 101.818  1.00  0.00     0.013 A 
ATOM     14  C   UNL     1      21.232   5.251 101.930  1.00  0.00     0.047 A 
ATOM     15  C   UNL     1      20.698   5.625 103.168  1.00  0.00     0.115 A 
ATOM     16  C   UNL     1      21.721   3.675 104.188  1.00  0.00     0.013 A 
ATOM     17  C   UNL     1      20.943   4.833 104.297  1.00  0.00     0.047 A 
BRANCH  15  18
ATOM     18  O   UNL     1      19.926   6.780 103.264  1.00  0.00    -0.508 OA
ATOM     19  H   UNL     1      20.257   7.598 103.761  1.00  0.00     0.293 HD
ENDBRANCH  15  18
ENDBRANCH   1  12
BRANCH  11  20
ATOM     20  C   UNL     1      27.061  -1.133 102.893  1.00  0.00     0.188 C 
ATOM     21  C   UNL     1      27.866  -0.562 101.703  1.00  0.00     0.179 C 
ATOM     22  O   UNL     1      27.201  -0.311 104.043  1.00  0.00    -0.362 OA
ATOM     23  C   UNL     1      29.345  -0.411 102.110  1.00  0.00     0.177 C 
ATOM     24  C   UNL     1      28.547  -0.304 104.495  1.00  0.00     0.176 C 
ATOM     25  C   UNL     1      29.471   0.353 103.443  1.00  0.00     0.177 C 
BRANCH  21  26
ATOM     26  O   UNL     1      27.335   0.680 101.314  1.00  0.00    -0.387 OA
ATOM     27  H   UNL     1      27.772   1.372 101.877  1.00  0.00     0.211 HD
ENDBRANCH  21  26
BRANCH  23  28
ATOM     28  O   UNL     1      30.058   0.246 101.094  1.00  0.00    -0.387 OA
ATOM     29  H   UNL     1      29.726   1.181 101.070  1.00  0.00     0.211 HD
ENDBRANCH  23  28
BRANCH  24  30
ATOM     30  C   UNL     1      28.617   0.435 105.839  1.00  0.00     0.191 C 
BRANCH  30  31
ATOM     31  O   UNL     1      27.427   0.251 106.559  1.00  0.00    -0.394 OA
ATOM     32  H   UNL     1      26.684   0.329 105.906  1.00  0.00     0.210 HD
ENDBRANCH  30  31
ENDBRANCH  24  30
BRANCH  25  33
ATOM     33  O   UNL     1      29.120   1.701 103.248  1.00  0.00    -0.388 OA
ATOM     34  H   UNL     1      29.959   2.199 103.066  1.00  0.00     0.211 HD
ENDBRANCH  25  33
ENDBRANCH  11  20
BRANCH  10  35
ATOM     35  O   UNL     1      25.856  -3.671 102.091  1.00  0.00    -0.507 OA
ATOM     36  H   UNL     1      25.925  -4.315 102.870  1.00  0.00     0.293 HD
ENDBRANCH  10  35
TORSDOF 9
ENDMDL
MODEL 2
REMARK VINA RESULT:    -6.661      3.165      4.965
REMARK INTER + INTRA:          -9.357
REMARK INTER:                  -8.465
REMARK INTRA:                  -0.892
REMARK UNBOUND:                -0.360
REMARK SMILES O=c1c(-c2ccc(O)cc2)coc2c([C@@H]3O[C@H](CO)[C@H](O)[C@H](O)[C@@H]3O)c(O)ccc12
REMARK SMILES IDX 3 1 11 2 12 3 13 4 30 5 2 6 1 7 29 8 28 9 26 10 14 11 4 12
REMARK SMILES IDX 5 13 6 14 7 15 10 16 9 17 8 18 15 20 24 21 16 22 22 23 17 24
REMARK SMILES IDX 20 25 25 26 23 28 18 30 19 31 21 33 27 35
REMARK H PARENT 8 19 25 27 23 29 19 32 21 34 27 36
REMARK Flexibility Score: inf
ROOT
ATOM      1  C   UNL     1      24.966   3.930 103.306  1.00  0.00     0.065 A 
ATOM      2  C   UNL     1      26.004   4.755 103.761  1.00  0.00     0.208 A 
ATOM      3  O   UNL     1      27.241   4.290 103.885  1.00  0.00    -0.463 OA
ATOM      4  C   UNL     1      27.579   3.036 103.596  1.00  0.00     0.147 A 
ATOM      5  C   UNL     1      26.592   2.131 103.143  1.00  0.00     0.066 A 
ATOM      6  C   UNL     1      25.270   2.590 103.002  1.00  0.00     0.200 A 
ATOM      7  O   UNL     1      24.358   1.803 102.625  1.00  0.00    -0.288 OA
ATOM      8  C   UNL     1      26.946   0.803 102.859  1.00  0.00     0.020 A 
ATOM      9  C   UNL     1      28.260   0.375 103.033  1.00  0.00     0.047 A 
ATOM     10  C   UNL     1      29.246   1.260 103.486  1.00  0.00     0.125 A 
ATOM     11  C   UNL     1      28.921   2.613 103.749  1.00  0.00     0.069 A 
ENDROOT
BRANCH   1  12
ATOM     12  C   UNL     1      23.592   4.476 103.167  1.00  0.00    -0.011 A 
ATOM     13  C   UNL     1      22.721   4.494 104.271  1.00  0.00     0.013 A 
ATOM     14  C   UNL     1      21.431   5.016 104.145  1.00  0.00     0.047 A 
ATOM     15  C   UNL     1      20.995   5.529 102.919  1.00  0.00     0.115 A 
ATOM     16  C   UNL     1      23.151   5.000 101.940  1.00  0.00     0.013 A 
ATOM     17  C   UNL     1      21.858   5.522 101.817  1.00  0.00     0.047 A 
BRANCH  15  18
ATOM     18  O   UNL     1      19.706   6.046 102.809  1.00  0.00    -0.508 OA
ATOM     19  H   UNL     1      19.091   6.110 103.612  1.00  0.00     0.293 HD
ENDBRANCH  15  18
ENDBRANCH   1  12
BRANCH  11  20
ATOM     20  C   UNL     1      29.968   3.593 104.264  1.00  0.00     0.188 C 
ATOM     21  C   UNL     1      30.162   3.427 105.789  1.00  0.00     0.179 C 
ATOM     22  O   UNL     1      31.196   3.415 103.572  1.00  0.00    -0.362 OA
ATOM     23  C   UNL     1      31.234   4.420 106.281  1.00  0.00     0.177 C 
ATOM     24  C   UNL     1      32.124   4.430 103.926  1.00  0.00     0.176 C 
ATOM     25  C   UNL     1      32.508   4.320 105.420  1.00  0.00     0.177 C 
BRANCH  21  26
ATOM     26  O   UNL     1      30.544   2.107 106.085  1.00  0.00    -0.387 OA
ATOM     27  H   UNL     1      31.409   2.156 106.570  1.00  0.00     0.211 HD
ENDBRANCH  21  26
BRANCH  23  28
ATOM     28  O   UNL     1      31.529   4.177 107.632  1.00  0.00    -0.387 OA
ATOM     29  H   UNL     1      32.210   4.847 107.902  1.00  0.00     0.211 HD
ENDBRANCH  23  28
BRANCH  24  30
ATOM     30  C   UNL     1      33.358   4.314 103.020  1.00  0.00     0.191 C 
BRANCH  30  31
ATOM     31  O   UNL     1      33.370   5.351 102.076  1.00  0.00    -0.394 OA
ATOM     32  H   UNL     1      33.177   6.189 102.572  1.00  0.00     0.210 HD
ENDBRANCH  30  31
ENDBRANCH  24  30
BRANCH  25  33
ATOM     33  O   UNL     1      33.156   3.097 105.675  1.00  0.00    -0.388 OA
ATOM     34  H   UNL     1      33.981   3.304 106.187  1.00  0.00     0.211 HD
ENDBRANCH  25  33
ENDBRANCH  11  20
BRANCH  10  35
ATOM     35  O   UNL     1      30.545   0.790 103.678  1.00  0.00    -0.507 OA
ATOM     36  H   UNL     1      30.743  -0.195 103.809  1.00  0.00     0.293 HD
ENDBRANCH  10  35
TORSDOF 9
ENDMDL
MODEL 3
REMARK VINA RESULT:    -6.656      1.895      4.468
REMARK INTER + INTRA:          -9.351
REMARK INTER:                  -8.966
REMARK INTRA:                  -0.385
REMARK UNBOUND:                -0.360
REMARK SMILES O=c1c(-c2ccc(O)cc2)coc2c([C@@H]3O[C@H](CO)[C@H](O)[C@H](O)[C@@H]3O)c(O)ccc12
REMARK SMILES IDX 3 1 11 2 12 3 13 4 30 5 2 6 1 7 29 8 28 9 26 10 14 11 4 12
REMARK SMILES IDX 5 13 6 14 7 15 10 16 9 17 8 18 15 20 24 21 16 22 22 23 17 24
REMARK SMILES IDX 20 25 25 26 23 28 18 30 19 31 21 33 27 35
REMARK H PARENT 8 19 25 27 23 29 19 32 21 34 27 36
REMARK Flexibility Score: inf
ROOT
ATOM      1  C   UNL     1      24.515   3.308 103.109  1.00  0.00     0.065 A 
ATOM      2  C   UNL     1      24.484   1.965 102.708  1.00  0.00     0.208 A 
ATOM      3  O   UNL     1      25.582   1.220 102.734  1.00  0.00    -0.463 OA
ATOM      4  C   UNL     1      26.766   1.682 103.130  1.00  0.00     0.147 A 
ATOM      5  C   UNL     1      26.890   3.029 103.540  1.00  0.00     0.066 A 
ATOM      6  C   UNL     1      25.747   3.848 103.523  1.00  0.00     0.200 A 
ATOM      7  O   UNL     1      25.828   5.062 103.855  1.00  0.00    -0.288 OA
ATOM      8  C   UNL     1      28.144   3.520 103.937  1.00  0.00     0.020 A 
ATOM      9  C   UNL     1      29.261   2.688 103.918  1.00  0.00     0.047 A 
ATOM     10  C   UNL     1      29.151   1.353 103.511  1.00  0.00     0.125 A 
ATOM     11  C   UNL     1      27.892   0.825 103.136  1.00  0.00     0.069 A 
ENDROOT
BRANCH   1  12
ATOM     12  C   UNL     1      23.271   4.119 103.080  1.00  0.00    -0.011 A 
ATOM     13  C   UNL     1      22.457   4.209 104.223  1.00  0.00     0.013 A 
ATOM     14  C   UNL     1      21.291   4.979 104.201  1.00  0.00     0.047 A 
ATOM     15  C   UNL     1      20.925   5.672 103.042  1.00  0.00     0.115 A 
ATOM     16  C   UNL     1      22.902   4.823 101.921  1.00  0.00     0.013 A 
ATOM     17  C   UNL     1      21.734   5.593 101.902  1.00  0.00     0.047 A 
BRANCH  15  18
ATOM     18  O   UNL     1      19.760   6.435 103.036  1.00  0.00    -0.508 OA
ATOM     19  H   UNL     1      19.726   7.345 102.592  1.00  0.00     0.293 HD
ENDBRANCH  15  18
ENDBRANCH   1  12
BRANCH  11  20
ATOM     20  C   UNL     1      27.746  -0.618 102.666  1.00  0.00     0.188 C 
ATOM     21  C   UNL     1      27.218  -1.510 103.812  1.00  0.00     0.179 C 
ATOM     22  O   UNL     1      26.891  -0.685 101.533  1.00  0.00    -0.362 OA
ATOM     23  C   UNL     1      27.069  -2.959 103.306  1.00  0.00     0.177 C 
ATOM     24  C   UNL     1      26.882  -1.996 100.988  1.00  0.00     0.176 C 
ATOM     25  C   UNL     1      26.266  -2.999 101.991  1.00  0.00     0.177 C 
BRANCH  21  26
ATOM     26  O   UNL     1      25.983  -1.022 104.273  1.00  0.00    -0.387 OA
ATOM     27  H   UNL     1      26.072  -0.037 104.353  1.00  0.00     0.211 HD
ENDBRANCH  21  26
BRANCH  23  28
ATOM     28  O   UNL     1      26.449  -3.749 104.288  1.00  0.00    -0.387 OA
ATOM     29  H   UNL     1      26.088  -4.549 103.826  1.00  0.00     0.211 HD
ENDBRANCH  23  28
BRANCH  24  30
ATOM     30  C   UNL     1      26.105  -1.980  99.664  1.00  0.00     0.191 C 
BRANCH  30  31
ATOM     31  O   UNL     1      26.036  -0.674  99.154  1.00  0.00    -0.394 OA
ATOM     32  H   UNL     1      25.101  -0.368  99.283  1.00  0.00     0.210 HD
ENDBRANCH  30  31
ENDBRANCH  24  30
BRANCH  25  33
ATOM     33  O   UNL     1      24.921  -2.677 102.249  1.00  0.00    -0.388 OA
ATOM     34  H   UNL     1      24.368  -3.184 101.597  1.00  0.00     0.211 HD
ENDBRANCH  25  33
ENDBRANCH  11  20
BRANCH  10  35
ATOM     35  O   UNL     1      30.296   0.557 103.475  1.00  0.00    -0.507 OA
ATOM     36  H   UNL     1      30.313  -0.334 102.992  1.00  0.00     0.293 HD
ENDBRANCH  10  35
TORSDOF 9
ENDMDL
MODEL 4
REMARK VINA RESULT:    -6.614      3.484      6.577
REMARK INTER + INTRA:          -9.294
REMARK INTER:                  -8.437
REMARK INTRA:                  -0.857
REMARK UNBOUND:                -0.360
REMARK SMILES O=c1c(-c2ccc(O)cc2)coc2c([C@@H]3O[C@H](CO)[C@H](O)[C@H](O)[C@@H]3O)c(O)ccc12
REMARK SMILES IDX 3 1 11 2 12 3 13 4 30 5 2 6 1 7 29 8 28 9 26 10 14 11 4 12
REMARK SMILES IDX 5 13 6 14 7 15 10 16 9 17 8 18 15 20 24 21 16 22 22 23 17 24
REMARK SMILES IDX 20 25 25 26 23 28 18 30 19 31 21 33 27 35
REMARK H PARENT 8 19 25 27 23 29 19 32 21 34 27 36
REMARK Flexibility Score: inf
ROOT
ATOM      1  C   UNL     1      26.529  -0.271 103.214  1.00  0.00     0.065 A 
ATOM      2  C   UNL     1      26.906   1.033 102.861  1.00  0.00     0.208 A 
ATOM      3  O   UNL     1      28.031   1.566 103.322  1.00  0.00    -0.463 OA
ATOM      4  C   UNL     1      28.863   0.920 104.135  1.00  0.00     0.147 A 
ATOM      5  C   UNL     1      28.554  -0.395 104.552  1.00  0.00     0.066 A 
ATOM      6  C   UNL     1      27.368  -0.990 104.085  1.00  0.00     0.200 A 
ATOM      7  O   UNL     1      27.048  -2.152 104.459  1.00  0.00    -0.288 OA
ATOM      8  C   UNL     1      29.422  -1.067 105.427  1.00  0.00     0.020 A 
ATOM      9  C   UNL     1      30.575  -0.438 105.891  1.00  0.00     0.047 A 
ATOM     10  C   UNL     1      30.890   0.865 105.488  1.00  0.00     0.125 A 
ATOM     11  C   UNL     1      30.047   1.553 104.581  1.00  0.00     0.069 A 
ENDROOT
BRANCH   1  12
ATOM     12  C   UNL     1      25.270  -0.849 102.679  1.00  0.00    -0.011 A 
ATOM     13  C   UNL     1      24.052  -0.164 102.838  1.00  0.00     0.013 A 
ATOM     14  C   UNL     1      22.867  -0.702 102.326  1.00  0.00     0.047 A 
ATOM     15  C   UNL     1      22.884  -1.925 101.647  1.00  0.00     0.115 A 
ATOM     16  C   UNL     1      25.282  -2.073 101.989  1.00  0.00     0.013 A 
ATOM     17  C   UNL     1      24.094  -2.609 101.478  1.00  0.00     0.047 A 
BRANCH  15  18
ATOM     18  O   UNL     1      21.695  -2.448 101.143  1.00  0.00    -0.508 OA
ATOM     19  H   UNL     1      20.805  -2.266 101.592  1.00  0.00     0.293 HD
ENDBRANCH  15  18
ENDBRANCH   1  12
BRANCH  11  20
ATOM     20  C   UNL     1      30.352   2.980 104.144  1.00  0.00     0.188 C 
ATOM     21  C   UNL     1      29.752   3.994 105.145  1.00  0.00     0.179 C 
ATOM     22  O   UNL     1      31.754   3.168 104.009  1.00  0.00    -0.362 OA
ATOM     23  C   UNL     1      30.086   5.427 104.685  1.00  0.00     0.177 C 
ATOM     24  C   UNL     1      32.039   4.438 103.442  1.00  0.00     0.176 C 
ATOM     25  C   UNL     1      31.593   5.572 104.396  1.00  0.00     0.177 C 
BRANCH  21  26
ATOM     26  O   UNL     1      30.264   3.760 106.433  1.00  0.00    -0.387 OA
ATOM     27  H   UNL     1      29.680   3.081 106.859  1.00  0.00     0.211 HD
ENDBRANCH  21  26
BRANCH  23  28
ATOM     28  O   UNL     1      29.679   6.351 105.661  1.00  0.00    -0.387 OA
ATOM     29  H   UNL     1      29.895   5.950 106.543  1.00  0.00     0.211 HD
ENDBRANCH  23  28
BRANCH  24  30
ATOM     30  C   UNL     1      33.542   4.522 103.138  1.00  0.00     0.191 C 
BRANCH  30  31
ATOM     31  O   UNL     1      34.020   5.816 103.395  1.00  0.00    -0.394 OA
ATOM     32  H   UNL     1      34.979   5.722 103.632  1.00  0.00     0.210 HD
ENDBRANCH  30  31
ENDBRANCH  24  30
BRANCH  25  33
ATOM     33  O   UNL     1      32.313   5.515 105.603  1.00  0.00    -0.388 OA
ATOM     34  H   UNL     1      32.723   6.409 105.742  1.00  0.00     0.211 HD
ENDBRANCH  25  33
ENDBRANCH  11  20
BRANCH  10  35
ATOM     35  O   UNL     1      32.037   1.475 105.996  1.00  0.00    -0.507 OA
ATOM     36  H   UNL     1      31.987   2.236 106.664  1.00  0.00     0.293 HD
ENDBRANCH  10  35
TORSDOF 9
ENDMDL
MODEL 5
REMARK VINA RESULT:    -6.577      2.090      4.333
REMARK INTER + INTRA:          -9.244
REMARK INTER:                  -8.189
REMARK INTRA:                  -1.055
REMARK UNBOUND:                -0.360
REMARK SMILES O=c1c(-c2ccc(O)cc2)coc2c([C@@H]3O[C@H](CO)[C@H](O)[C@H](O)[C@@H]3O)c(O)ccc12
REMARK SMILES IDX 3 1 11 2 12 3 13 4 30 5 2 6 1 7 29 8 28 9 26 10 14 11 4 12
REMARK SMILES IDX 5 13 6 14 7 15 10 16 9 17 8 18 15 20 24 21 16 22 22 23 17 24
REMARK SMILES IDX 20 25 25 26 23 28 18 30 19 31 21 33 27 35
REMARK H PARENT 8 19 25 27 23 29 19 32 21 34 27 36
REMARK Flexibility Score: inf
ROOT
ATOM      1  C   UNL     1      23.172   2.009 103.062  1.00  0.00     0.065 A 
ATOM      2  C   UNL     1      22.561   0.746 103.081  1.00  0.00     0.208 A 
ATOM      3  O   UNL     1      23.289  -0.363 103.041  1.00  0.00    -0.463 OA
ATOM      4  C   UNL     1      24.618  -0.361 102.979  1.00  0.00     0.147 A 
ATOM      5  C   UNL     1      25.315   0.868 102.944  1.00  0.00     0.066 A 
ATOM      6  C   UNL     1      24.576   2.065 102.983  1.00  0.00     0.200 A 
ATOM      7  O   UNL     1      25.164   3.180 102.925  1.00  0.00    -0.288 OA
ATOM      8  C   UNL     1      26.716   0.869 102.858  1.00  0.00     0.020 A 
ATOM      9  C   UNL     1      27.415  -0.334 102.797  1.00  0.00     0.047 A 
ATOM     10  C   UNL     1      26.736  -1.558 102.826  1.00  0.00     0.125 A 
ATOM     11  C   UNL     1      25.325  -1.586 102.945  1.00  0.00     0.069 A 
ENDROOT
BRANCH   1  12
ATOM     12  C   UNL     1      22.338   3.236 103.117  1.00  0.00    -0.011 A 
ATOM     13  C   UNL     1      22.079   3.970 101.945  1.00  0.00     0.013 A 
ATOM     14  C   UNL     1      21.287   5.121 101.993  1.00  0.00     0.047 A 
ATOM     15  C   UNL     1      20.740   5.550 103.206  1.00  0.00     0.115 A 
ATOM     16  C   UNL     1      21.780   3.669 104.332  1.00  0.00     0.013 A 
ATOM     17  C   UNL     1      20.987   4.821 104.376  1.00  0.00     0.047 A 
BRANCH  15  18
ATOM     18  O   UNL     1      19.952   6.699 103.238  1.00  0.00    -0.508 OA
ATOM     19  H   UNL     1      20.227   7.542 102.748  1.00  0.00     0.293 HD
ENDBRANCH  15  18
ENDBRANCH   1  12
BRANCH  11  20
ATOM     20  C   UNL     1      24.557  -2.903 102.957  1.00  0.00     0.188 C 
ATOM     21  C   UNL     1      24.360  -3.427 101.516  1.00  0.00     0.179 C 
ATOM     22  O   UNL     1      25.232  -3.862 103.760  1.00  0.00    -0.362 OA
ATOM     23  C   UNL     1      23.593  -4.764 101.558  1.00  0.00     0.177 C 
ATOM     24  C   UNL     1      24.443  -5.032 103.913  1.00  0.00     0.176 C 
ATOM     25  C   UNL     1      24.251  -5.742 102.551  1.00  0.00     0.177 C 
BRANCH  21  26
ATOM     26  O   UNL     1      25.607  -3.597 100.890  1.00  0.00    -0.387 OA
ATOM     27  H   UNL     1      25.852  -4.554 100.986  1.00  0.00     0.211 HD
ENDBRANCH  21  26
BRANCH  23  28
ATOM     28  O   UNL     1      23.538  -5.327 100.273  1.00  0.00    -0.387 OA
ATOM     29  H   UNL     1      23.131  -6.227 100.371  1.00  0.00     0.211 HD
ENDBRANCH  23  28
BRANCH  24  30
ATOM     30  C   UNL     1      25.118  -5.957 104.935  1.00  0.00     0.191 C 
BRANCH  30  31
ATOM     31  O   UNL     1      26.496  -5.702 104.989  1.00  0.00    -0.394 OA
ATOM     32  H   UNL     1      26.849  -6.206 105.768  1.00  0.00     0.210 HD
ENDBRANCH  30  31
ENDBRANCH  24  30
BRANCH  25  33
ATOM     33  O   UNL     1      25.489  -6.172 102.040  1.00  0.00    -0.388 OA
ATOM     34  H   UNL     1      25.992  -5.360 101.767  1.00  0.00     0.211 HD
ENDBRANCH  25  33
ENDBRANCH  11  20
BRANCH  10  35
ATOM     35  O   UNL     1      27.466  -2.743 102.732  1.00  0.00    -0.507 OA
ATOM     36  H   UNL     1      27.298  -3.525 103.355  1.00  0.00     0.293 HD
ENDBRANCH  10  35
TORSDOF 9
ENDMDL
MODEL 6
REMARK VINA RESULT:    -6.521      2.184      3.805
REMARK INTER + INTRA:          -9.168
REMARK INTER:                  -8.306
REMARK INTRA:                  -0.862
REMARK UNBOUND:                -0.360
REMARK SMILES O=c1c(-c2ccc(O)cc2)coc2c([C@@H]3O[C@H](CO)[C@H](O)[C@H](O)[C@@H]3O)c(O)ccc12
REMARK SMILES IDX 3 1 11 2 12 3 13 4 30 5 2 6 1 7 29 8 28 9 26 10 14 11 4 12
REMARK SMILES IDX 5 13 6 14 7 15 10 16 9 17 8 18 15 20 24 21 16 22 22 23 17 24
REMARK SMILES IDX 20 25 25 26 23 28 18 30 19 31 21 33 27 35
REMARK H PARENT 8 19 25 27 23 29 19 32 21 34 27 36
REMARK Flexibility Score: inf
ROOT
ATOM      1  C   UNL     1      24.531   3.278 102.976  1.00  0.00     0.065 A 
ATOM      2  C   UNL     1      25.774   3.926 103.023  1.00  0.00     0.208 A 
ATOM      3  O   UNL     1      26.906   3.232 103.007  1.00  0.00    -0.463 OA
ATOM      4  C   UNL     1      26.944   1.903 102.947  1.00  0.00     0.147 A 
ATOM      5  C   UNL     1      25.737   1.169 102.908  1.00  0.00     0.066 A 
ATOM      6  C   UNL     1      24.518   1.872 102.927  1.00  0.00     0.200 A 
ATOM      7  O   UNL     1      23.422   1.247 102.921  1.00  0.00    -0.288 OA
ATOM      8  C   UNL     1      25.778  -0.234 102.867  1.00  0.00     0.020 A 
ATOM      9  C   UNL     1      27.002  -0.899 102.875  1.00  0.00     0.047 A 
ATOM     10  C   UNL     1      28.205  -0.183 102.918  1.00  0.00     0.125 A 
ATOM     11  C   UNL     1      28.190   1.233 102.928  1.00  0.00     0.069 A 
ENDROOT
BRANCH   1  12
ATOM     12  C   UNL     1      23.279   4.076 102.986  1.00  0.00    -0.011 A 
ATOM     13  C   UNL     1      22.511   4.174 104.160  1.00  0.00     0.013 A 
ATOM     14  C   UNL     1      21.337   4.932 104.175  1.00  0.00     0.047 A 
ATOM     15  C   UNL     1      20.917   5.605 103.023  1.00  0.00     0.115 A 
ATOM     16  C   UNL     1      22.856   4.760 101.833  1.00  0.00     0.013 A 
ATOM     17  C   UNL     1      21.680   5.518 101.852  1.00  0.00     0.047 A 
BRANCH  15  18
ATOM     18  O   UNL     1      19.744   6.356 103.053  1.00  0.00    -0.508 OA
ATOM     19  H   UNL     1      19.736   7.309 103.397  1.00  0.00     0.293 HD
ENDBRANCH  15  18
ENDBRANCH   1  12
BRANCH  11  20
ATOM     20  C   UNL     1      29.482   2.038 102.997  1.00  0.00     0.188 C 
ATOM     21  C   UNL     1      29.973   2.150 104.459  1.00  0.00     0.179 C 
ATOM     22  O   UNL     1      30.477   1.450 102.170  1.00  0.00    -0.362 OA
ATOM     23  C   UNL     1      31.287   2.957 104.499  1.00  0.00     0.177 C 
ATOM     24  C   UNL     1      31.625   2.282 102.097  1.00  0.00     0.176 C 
ATOM     25  C   UNL     1      32.302   2.398 103.483  1.00  0.00     0.177 C 
BRANCH  21  26
ATOM     26  O   UNL     1      30.169   0.867 105.001  1.00  0.00    -0.387 OA
ATOM     27  H   UNL     1      29.708   0.849 105.879  1.00  0.00     0.211 HD
ENDBRANCH  21  26
BRANCH  23  28
ATOM     28  O   UNL     1      31.823   2.937 105.796  1.00  0.00    -0.387 OA
ATOM     29  H   UNL     1      32.252   3.820 105.942  1.00  0.00     0.211 HD
ENDBRANCH  23  28
BRANCH  24  30
ATOM     30  C   UNL     1      32.590   1.708 101.050  1.00  0.00     0.191 C 
BRANCH  30  31
ATOM     31  O   UNL     1      31.988   1.704  99.782  1.00  0.00    -0.394 OA
ATOM     32  H   UNL     1      31.984   2.645  99.467  1.00  0.00     0.210 HD
ENDBRANCH  30  31
ENDBRANCH  24  30
BRANCH  25  33
ATOM     33  O   UNL     1      32.761   1.141 103.917  1.00  0.00    -0.388 OA
ATOM     34  H   UNL     1      32.337   0.457 103.334  1.00  0.00     0.211 HD
ENDBRANCH  25  33
ENDBRANCH  11  20
BRANCH  10  35
ATOM     35  O   UNL     1      29.412  -0.883 102.955  1.00  0.00    -0.507 OA
ATOM     36  H   UNL     1      29.524  -1.724 103.509  1.00  0.00     0.293 HD
ENDBRANCH  10  35
TORSDOF 9
ENDMDL
MODEL 7
REMARK VINA RESULT:    -6.489      3.166      4.655
REMARK INTER + INTRA:          -9.124
REMARK INTER:                  -9.257
REMARK INTRA:                   0.133
REMARK UNBOUND:                -0.360
REMARK SMILES O=c1c(-c2ccc(O)cc2)coc2c([C@@H]3O[C@H](CO)[C@H](O)[C@H](O)[C@@H]3O)c(O)ccc12
REMARK SMILES IDX 3 1 11 2 12 3 13 4 30 5 2 6 1 7 29 8 28 9 26 10 14 11 4 12
REMARK SMILES IDX 5 13 6 14 7 15 10 16 9 17 8 18 15 20 24 21 16 22 22 23 17 24
REMARK SMILES IDX 20 25 25 26 23 28 18 30 19 31 21 33 27 35
REMARK H PARENT 8 19 25 27 23 29 19 32 21 34 27 36
REMARK Flexibility Score: inf
ROOT
ATOM      1  C   UNL     1      25.831   3.408 103.180  1.00  0.00     0.065 A 
ATOM      2  C   UNL     1      26.907   4.170 103.659  1.00  0.00     0.208 A 
ATOM      3  O   UNL     1      28.051   3.593 104.004  1.00  0.00    -0.463 OA
ATOM      4  C   UNL     1      28.257   2.281 103.927  1.00  0.00     0.147 A 
ATOM      5  C   UNL     1      27.223   1.435 103.467  1.00  0.00     0.066 A 
ATOM      6  C   UNL     1      25.995   2.013 103.094  1.00  0.00     0.200 A 
ATOM      7  O   UNL     1      25.040   1.285 102.704  1.00  0.00    -0.288 OA
ATOM      8  C   UNL     1      27.435   0.049 103.405  1.00  0.00     0.020 A 
ATOM      9  C   UNL     1      28.654  -0.491 103.806  1.00  0.00     0.047 A 
ATOM     10  C   UNL     1      29.686   0.335 104.267  1.00  0.00     0.125 A 
ATOM     11  C   UNL     1      29.508   1.739 104.309  1.00  0.00     0.069 A 
ENDROOT
BRANCH   1  12
ATOM     12  C   UNL     1      24.564   4.076 102.791  1.00  0.00    -0.011 A 
ATOM     13  C   UNL     1      24.558   5.047 101.773  1.00  0.00     0.013 A 
ATOM     14  C   UNL     1      23.365   5.672 101.399  1.00  0.00     0.047 A 
ATOM     15  C   UNL     1      22.164   5.332 102.030  1.00  0.00     0.115 A 
ATOM     16  C   UNL     1      23.352   3.734 103.417  1.00  0.00     0.013 A 
ATOM     17  C   UNL     1      22.160   4.361 103.039  1.00  0.00     0.047 A 
BRANCH  15  18
ATOM     18  O   UNL     1      20.983   5.963 101.646  1.00  0.00    -0.508 OA
ATOM     19  H   UNL     1      20.284   6.237 102.327  1.00  0.00     0.293 HD
ENDBRANCH  15  18
ENDBRANCH   1  12
BRANCH  11  20
ATOM     20  C   UNL     1      30.604   2.662 104.828  1.00  0.00     0.188 C 
ATOM     21  C   UNL     1      31.846   2.598 103.910  1.00  0.00     0.179 C 
ATOM     22  O   UNL     1      30.120   3.993 104.938  1.00  0.00    -0.362 OA
ATOM     23  C   UNL     1      32.933   3.549 104.450  1.00  0.00     0.177 C 
ATOM     24  C   UNL     1      31.077   4.824 105.576  1.00  0.00     0.176 C 
ATOM     25  C   UNL     1      32.352   4.953 104.709  1.00  0.00     0.177 C 
BRANCH  21  26
ATOM     26  O   UNL     1      31.493   2.954 102.596  1.00  0.00    -0.387 OA
ATOM     27  H   UNL     1      30.598   3.381 102.642  1.00  0.00     0.211 HD
ENDBRANCH  21  26
BRANCH  23  28
ATOM     28  O   UNL     1      34.005   3.616 103.546  1.00  0.00    -0.387 OA
ATOM     29  H   UNL     1      34.783   3.193 103.993  1.00  0.00     0.211 HD
ENDBRANCH  23  28
BRANCH  24  30
ATOM     30  C   UNL     1      30.444   6.197 105.847  1.00  0.00     0.191 C 
BRANCH  30  31
ATOM     31  O   UNL     1      29.304   6.374 105.048  1.00  0.00    -0.394 OA
ATOM     32  H   UNL     1      29.589   6.225 104.109  1.00  0.00     0.210 HD
ENDBRANCH  30  31
ENDBRANCH  24  30
BRANCH  25  33
ATOM     33  O   UNL     1      32.055   5.575 103.483  1.00  0.00    -0.388 OA
ATOM     34  H   UNL     1      32.884   5.557 102.937  1.00  0.00     0.211 HD
ENDBRANCH  25  33
ENDBRANCH  11  20
BRANCH  10  35
ATOM     35  O   UNL     1      30.883  -0.243 104.689  1.00  0.00    -0.507 OA
ATOM     36  H   UNL     1      31.186  -1.150 104.353  1.00  0.00     0.293 HD
ENDBRANCH  10  35
TORSDOF 9
ENDMDL
MODEL 8
REMARK VINA RESULT:    -6.468      6.466      9.308
REMARK INTER + INTRA:          -9.097
REMARK INTER:                  -7.935
REMARK INTRA:                  -1.162
REMARK UNBOUND:                -0.360
REMARK SMILES O=c1c(-c2ccc(O)cc2)coc2c([C@@H]3O[C@H](CO)[C@H](O)[C@H](O)[C@@H]3O)c(O)ccc12
REMARK SMILES IDX 3 1 11 2 12 3 13 4 30 5 2 6 1 7 29 8 28 9 26 10 14 11 4 12
REMARK SMILES IDX 5 13 6 14 7 15 10 16 9 17 8 18 15 20 24 21 16 22 22 23 17 24
REMARK SMILES IDX 20 25 25 26 23 28 18 30 19 31 21 33 27 35
REMARK H PARENT 8 19 25 27 23 29 19 32 21 34 27 36
REMARK Flexibility Score: inf
ROOT
ATOM      1  C   UNL     1      25.286  -5.032 100.121  1.00  0.00     0.065 A 
ATOM      2  C   UNL     1      25.363  -5.398  98.769  1.00  0.00     0.208 A 
ATOM      3  O   UNL     1      26.388  -5.016  98.017  1.00  0.00    -0.463 OA
ATOM      4  C   UNL     1      27.392  -4.274  98.477  1.00  0.00     0.147 A 
ATOM      5  C   UNL     1      27.389  -3.850  99.825  1.00  0.00     0.066 A 
ATOM      6  C   UNL     1      26.316  -4.234 100.652  1.00  0.00     0.200 A 
ATOM      7  O   UNL     1      26.267  -3.851 101.852  1.00  0.00    -0.288 OA
ATOM      8  C   UNL     1      28.438  -3.049 100.304  1.00  0.00     0.020 A 
ATOM      9  C   UNL     1      29.471  -2.666  99.452  1.00  0.00     0.047 A 
ATOM     10  C   UNL     1      29.484  -3.076  98.113  1.00  0.00     0.125 A 
ATOM     11  C   UNL     1      28.454  -3.910  97.615  1.00  0.00     0.069 A 
ENDROOT
BRANCH   1  12
ATOM     12  C   UNL     1      24.134  -5.479 100.945  1.00  0.00    -0.011 A 
ATOM     13  C   UNL     1      24.187  -6.706 101.630  1.00  0.00     0.013 A 
ATOM     14  C   UNL     1      23.107  -7.125 102.413  1.00  0.00     0.047 A 
ATOM     15  C   UNL     1      21.967  -6.324 102.528  1.00  0.00     0.115 A 
ATOM     16  C   UNL     1      22.988  -4.675 101.070  1.00  0.00     0.013 A 
ATOM     17  C   UNL     1      21.910  -5.097 101.855  1.00  0.00     0.047 A 
BRANCH  15  18
ATOM     18  O   UNL     1      20.899  -6.755 103.312  1.00  0.00    -0.508 OA
ATOM     19  H   UNL     1      19.940  -6.542 103.063  1.00  0.00     0.293 HD
ENDBRANCH  15  18
ENDBRANCH   1  12
BRANCH  11  20
ATOM     20  C   UNL     1      28.429  -4.353  96.157  1.00  0.00     0.188 C 
ATOM     21  C   UNL     1      27.785  -3.263  95.270  1.00  0.00     0.179 C 
ATOM     22  O   UNL     1      29.742  -4.662  95.711  1.00  0.00    -0.362 OA
ATOM     23  C   UNL     1      27.785  -3.731  93.801  1.00  0.00     0.177 C 
ATOM     24  C   UNL     1      29.710  -5.233  94.412  1.00  0.00     0.176 C 
ATOM     25  C   UNL     1      29.188  -4.208  93.379  1.00  0.00     0.177 C 
BRANCH  21  26
ATOM     26  O   UNL     1      28.494  -2.056  95.400  1.00  0.00    -0.387 OA
ATOM     27  H   UNL     1      28.584  -1.672  94.489  1.00  0.00     0.211 HD
ENDBRANCH  21  26
BRANCH  23  28
ATOM     28  O   UNL     1      27.343  -2.692  92.966  1.00  0.00    -0.387 OA
ATOM     29  H   UNL     1      27.712  -2.874  92.063  1.00  0.00     0.211 HD
ENDBRANCH  23  28
BRANCH  24  30
ATOM     30  C   UNL     1      31.119  -5.725  94.050  1.00  0.00     0.191 C 
BRANCH  30  31
ATOM     31  O   UNL     1      32.087  -4.834  94.535  1.00  0.00    -0.394 OA
ATOM     32  H   UNL     1      32.962  -5.149  94.190  1.00  0.00     0.210 HD
ENDBRANCH  30  31
ENDBRANCH  24  30
BRANCH  25  33
ATOM     33  O   UNL     1      30.057  -3.104  93.295  1.00  0.00    -0.388 OA
ATOM     34  H   UNL     1      30.972  -3.436  93.490  1.00  0.00     0.211 HD
ENDBRANCH  25  33
ENDBRANCH  11  20
BRANCH  10  35
ATOM     35  O   UNL     1      30.518  -2.648  97.281  1.00  0.00    -0.507 OA
ATOM     36  H   UNL     1      31.351  -3.207  97.133  1.00  0.00     0.293 HD
ENDBRANCH  10  35
TORSDOF 9
ENDMDL
MODEL 9
REMARK VINA RESULT:    -6.275      6.840      9.242
REMARK INTER + INTRA:          -8.835
REMARK INTER:                  -7.709
REMARK INTRA:                  -1.127
REMARK UNBOUND:                -0.360
REMARK SMILES O=c1c(-c2ccc(O)cc2)coc2c([C@@H]3O[C@H](CO)[C@H](O)[C@H](O)[C@@H]3O)c(O)ccc12
REMARK SMILES IDX 3 1 11 2 12 3 13 4 30 5 2 6 1 7 29 8 28 9 26 10 14 11 4 12
REMARK SMILES IDX 5 13 6 14 7 15 10 16 9 17 8 18 15 20 24 21 16 22 22 23 17 24
REMARK SMILES IDX 20 25 25 26 23 28 18 30 19 31 21 33 27 35
REMARK H PARENT 8 19 25 27 23 29 19 32 21 34 27 36
REMARK Flexibility Score: inf
ROOT
ATOM      1  C   UNL     1      31.650   0.926 105.269  1.00  0.00     0.065 A 
ATOM      2  C   UNL     1      32.092   0.647 106.571  1.00  0.00     0.208 A 
ATOM      3  O   UNL     1      31.695  -0.449 107.206  1.00  0.00    -0.463 OA
ATOM      4  C   UNL     1      30.868  -1.342 106.670  1.00  0.00     0.147 A 
ATOM      5  C   UNL     1      30.363  -1.134 105.366  1.00  0.00     0.066 A 
ATOM      6  C   UNL     1      30.761   0.018 104.663  1.00  0.00     0.200 A 
ATOM      7  O   UNL     1      30.309   0.249 103.508  1.00  0.00    -0.288 OA
ATOM      8  C   UNL     1      29.474  -2.067 104.809  1.00  0.00     0.020 A 
ATOM      9  C   UNL     1      29.081  -3.184 105.542  1.00  0.00     0.047 A 
ATOM     10  C   UNL     1      29.571  -3.399 106.836  1.00  0.00     0.125 A 
ATOM     11  C   UNL     1      30.494  -2.490 107.408  1.00  0.00     0.069 A 
ENDROOT
BRANCH   1  12
ATOM     12  C   UNL     1      32.114   2.153 104.575  1.00  0.00    -0.011 A 
ATOM     13  C   UNL     1      33.323   2.146 103.855  1.00  0.00     0.013 A 
ATOM     14  C   UNL     1      33.758   3.298 103.194  1.00  0.00     0.047 A 
ATOM     15  C   UNL     1      32.992   4.468 103.237  1.00  0.00     0.115 A 
ATOM     16  C   UNL     1      31.346   3.330 104.610  1.00  0.00     0.013 A 
ATOM     17  C   UNL     1      31.784   4.481 103.946  1.00  0.00     0.047 A 
BRANCH  15  18
ATOM     18  O   UNL     1      33.439   5.608 102.573  1.00  0.00    -0.508 OA
ATOM     19  H   UNL     1      34.329   6.036 102.798  1.00  0.00     0.293 HD
ENDBRANCH  15  18
ENDBRANCH   1  12
BRANCH  11  20
ATOM     20  C   UNL     1      31.025  -2.685 108.823  1.00  0.00     0.188 C 
ATOM     21  C   UNL     1      30.077  -2.030 109.853  1.00  0.00     0.179 C 
ATOM     22  O   UNL     1      31.201  -4.068 109.099  1.00  0.00    -0.362 OA
ATOM     23  C   UNL     1      30.631  -2.254 111.274  1.00  0.00     0.177 C 
ATOM     24  C   UNL     1      31.850  -4.252 110.347  1.00  0.00     0.176 C 
ATOM     25  C   UNL     1      30.960  -3.742 111.505  1.00  0.00     0.177 C 
BRANCH  21  26
ATOM     26  O   UNL     1      28.787  -2.579 109.737  1.00  0.00    -0.387 OA
ATOM     27  H   UNL     1      28.716  -2.965 108.826  1.00  0.00     0.211 HD
ENDBRANCH  21  26
BRANCH  23  28
ATOM     28  O   UNL     1      29.706  -1.798 112.227  1.00  0.00    -0.387 OA
ATOM     29  H   UNL     1      28.803  -2.019 111.879  1.00  0.00     0.211 HD
ENDBRANCH  23  28
BRANCH  24  30
ATOM     30  C   UNL     1      32.190  -5.740 110.517  1.00  0.00     0.191 C 
BRANCH  30  31
ATOM     31  O   UNL     1      32.118  -6.105 111.870  1.00  0.00    -0.394 OA
ATOM     32  H   UNL     1      31.307  -5.670 112.239  1.00  0.00     0.210 HD
ENDBRANCH  30  31
ENDBRANCH  24  30
BRANCH  25  33
ATOM     33  O   UNL     1      29.767  -4.484 111.576  1.00  0.00    -0.388 OA
ATOM     34  H   UNL     1      29.029  -3.880 111.298  1.00  0.00     0.211 HD
ENDBRANCH  25  33
ENDBRANCH  11  20
BRANCH  10  35
ATOM     35  O   UNL     1      29.133  -4.513 107.553  1.00  0.00    -0.507 OA
ATOM     36  H   UNL     1      28.329  -5.056 107.258  1.00  0.00     0.293 HD
ENDBRANCH  10  35
TORSDOF 9
ENDMDL
