MODEL 1
REMARK VINA RESULT:    -4.206      0.000      0.000
REMARK INTER + INTRA:          -5.879
REMARK INTER:                  -5.435
REMARK INTRA:                  -0.443
REMARK UNBOUND:                -0.443
REMARK SMILES C=CC(=O)CCCCC
REMARK SMILES IDX 6 1 7 2 8 3 9 4 5 5 3 6 4 7 2 8 1 9
REMARK H PARENT
REMARK Flexibility Score: inf
ROOT
ATOM      1  C   UNL     1     117.728 163.825 121.022  1.00  0.00     0.008 C 
ENDROOT
BRANCH   1   2
ATOM      2  C   UNL     1     117.406 163.849 119.520  1.00  0.00     0.000 C 
BRANCH   2   3
ATOM      3  C   UNL     1     117.044 165.255 119.016  1.00  0.00    -0.003 C 
ATOM      4  C   UNL     1     117.528 165.513 117.589  1.00  0.00     0.004 C 
ENDBRANCH   2   3
ENDBRANCH   1   2
BRANCH   1   5
ATOM      5  C   UNL     1     118.262 165.186 121.491  1.00  0.00     0.080 C 
BRANCH   5   6
ATOM      6  C   UNL     1     117.606 165.673 122.763  1.00  0.00     0.155 C 
ATOM      7  O   UNL     1     118.312 165.963 123.767  1.00  0.00    -0.295 OA
BRANCH   6   8
ATOM      8  C   UNL     1     116.142 165.828 122.875  1.00  0.00     0.039 C 
ATOM      9  C   UNL     1     115.420 166.616 122.078  1.00  0.00     0.012 C 
ENDBRANCH   6   8
ENDBRANCH   5   6
ENDBRANCH   1   5
TORSDOF 5
ENDMDL
MODEL 2
REMARK VINA RESULT:    -4.193     13.889     14.783
REMARK INTER + INTRA:          -5.862
REMARK INTER:                  -5.341
REMARK INTRA:                  -0.521
REMARK UNBOUND:                -0.443
REMARK SMILES C=CC(=O)CCCCC
REMARK SMILES IDX 6 1 7 2 8 3 9 4 5 5 3 6 4 7 2 8 1 9
REMARK H PARENT
REMARK Flexibility Score: inf
ROOT
ATOM      1  C   UNL     1     119.101 179.800 126.014  1.00  0.00     0.008 C 
ENDROOT
BRANCH   1   2
ATOM      2  C   UNL     1     117.780 179.963 125.247  1.00  0.00     0.000 C 
BRANCH   2   3
ATOM      3  C   UNL     1     117.373 178.688 124.493  1.00  0.00    -0.003 C 
ATOM      4  C   UNL     1     117.031 178.952 123.027  1.00  0.00     0.004 C 
ENDBRANCH   2   3
ENDBRANCH   1   2
BRANCH   1   5
ATOM      5  C   UNL     1     120.303 180.125 125.115  1.00  0.00     0.080 C 
BRANCH   5   6
ATOM      6  C   UNL     1     121.030 178.892 124.629  1.00  0.00     0.155 C 
ATOM      7  O   UNL     1     121.471 178.051 125.459  1.00  0.00    -0.295 OA
BRANCH   6   8
ATOM      8  C   UNL     1     121.245 178.629 123.192  1.00  0.00     0.039 C 
ATOM      9  C   UNL     1     120.750 179.394 122.219  1.00  0.00     0.012 C 
ENDBRANCH   6   8
ENDBRANCH   5   6
ENDBRANCH   1   5
TORSDOF 5
ENDMDL
MODEL 3
REMARK VINA RESULT:    -4.002      1.644      2.931
REMARK INTER + INTRA:          -5.615
REMARK INTER:                  -5.566
REMARK INTRA:                  -0.048
REMARK UNBOUND:                -0.443
REMARK SMILES C=CC(=O)CCCCC
REMARK SMILES IDX 6 1 7 2 8 3 9 4 5 5 3 6 4 7 2 8 1 9
REMARK H PARENT
REMARK Flexibility Score: inf
ROOT
ATOM      1  C   UNL     1     116.454 165.062 119.403  1.00  0.00     0.008 C 
ENDROOT
BRANCH   1   2
ATOM      2  C   UNL     1     117.679 165.108 118.477  1.00  0.00     0.000 C 
BRANCH   2   3
ATOM      3  C   UNL     1     117.394 165.839 117.156  1.00  0.00    -0.003 C 
ATOM      4  C   UNL     1     118.219 165.293 115.990  1.00  0.00     0.004 C 
ENDBRANCH   2   3
ENDBRANCH   1   2
BRANCH   1   5
ATOM      5  C   UNL     1     116.868 165.230 120.872  1.00  0.00     0.080 C 
BRANCH   5   6
ATOM      6  C   UNL     1     117.932 164.247 121.304  1.00  0.00     0.155 C 
ATOM      7  O   UNL     1     118.886 164.628 122.035  1.00  0.00    -0.295 OA
BRANCH   6   8
ATOM      8  C   UNL     1     117.893 162.827 120.896  1.00  0.00     0.039 C 
ATOM      9  C   UNL     1     118.810 161.930 121.261  1.00  0.00     0.012 C 
ENDBRANCH   6   8
ENDBRANCH   5   6
ENDBRANCH   1   5
TORSDOF 5
ENDMDL
MODEL 4
REMARK VINA RESULT:    -3.979      1.403      2.223
REMARK INTER + INTRA:          -5.585
REMARK INTER:                  -5.438
REMARK INTRA:                  -0.147
REMARK UNBOUND:                -0.443
REMARK SMILES C=CC(=O)CCCCC
REMARK SMILES IDX 6 1 7 2 8 3 9 4 5 5 3 6 4 7 2 8 1 9
REMARK H PARENT
REMARK Flexibility Score: inf
ROOT
ATOM      1  C   UNL     1     116.733 165.215 119.788  1.00  0.00     0.008 C 
ENDROOT
BRANCH   1   2
ATOM      2  C   UNL     1     117.497 164.771 118.531  1.00  0.00     0.000 C 
BRANCH   2   3
ATOM      3  C   UNL     1     117.452 165.821 117.411  1.00  0.00    -0.003 C 
ATOM      4  C   UNL     1     118.162 165.358 116.138  1.00  0.00     0.004 C 
ENDBRANCH   2   3
ENDBRANCH   1   2
BRANCH   1   5
ATOM      5  C   UNL     1     117.337 164.583 121.050  1.00  0.00     0.080 C 
BRANCH   5   6
ATOM      6  C   UNL     1     117.199 165.457 122.275  1.00  0.00     0.155 C 
ATOM      7  O   UNL     1     116.057 165.832 122.658  1.00  0.00    -0.295 OA
BRANCH   6   8
ATOM      8  C   UNL     1     118.373 165.895 123.057  1.00  0.00     0.039 C 
ATOM      9  C   UNL     1     119.622 165.515 122.788  1.00  0.00     0.012 C 
ENDBRANCH   6   8
ENDBRANCH   5   6
ENDBRANCH   1   5
TORSDOF 5
ENDMDL
MODEL 5
REMARK VINA RESULT:    -3.971     14.563     15.480
REMARK INTER + INTRA:          -5.575
REMARK INTER:                  -5.228
REMARK INTRA:                  -0.347
REMARK UNBOUND:                -0.443
REMARK SMILES C=CC(=O)CCCCC
REMARK SMILES IDX 6 1 7 2 8 3 9 4 5 5 3 6 4 7 2 8 1 9
REMARK H PARENT
REMARK Flexibility Score: inf
ROOT
ATOM      1  C   UNL     1     120.398 179.033 126.894  1.00  0.00     0.008 C 
ENDROOT
BRANCH   1   2
ATOM      2  C   UNL     1     121.794 178.765 127.475  1.00  0.00     0.000 C 
BRANCH   2   3
ATOM      3  C   UNL     1     122.916 179.387 126.629  1.00  0.00    -0.003 C 
ATOM      4  C   UNL     1     123.830 178.337 125.998  1.00  0.00     0.004 C 
ENDBRANCH   2   3
ENDBRANCH   1   2
BRANCH   1   5
ATOM      5  C   UNL     1     120.470 180.028 125.727  1.00  0.00     0.080 C 
BRANCH   5   6
ATOM      6  C   UNL     1     119.959 179.454 124.426  1.00  0.00     0.155 C 
ATOM      7  O   UNL     1     118.719 179.312 124.241  1.00  0.00    -0.295 OA
BRANCH   6   8
ATOM      8  C   UNL     1     120.874 179.048 123.340  1.00  0.00     0.039 C 
ATOM      9  C   UNL     1     120.773 179.490 122.086  1.00  0.00     0.012 C 
ENDBRANCH   6   8
ENDBRANCH   5   6
ENDBRANCH   1   5
TORSDOF 5
ENDMDL
MODEL 6
REMARK VINA RESULT:    -3.791     14.443     15.839
REMARK INTER + INTRA:          -5.342
REMARK INTER:                  -4.970
REMARK INTRA:                  -0.372
REMARK UNBOUND:                -0.443
REMARK SMILES C=CC(=O)CCCCC
REMARK SMILES IDX 6 1 7 2 8 3 9 4 5 5 3 6 4 7 2 8 1 9
REMARK H PARENT
REMARK Flexibility Score: inf
ROOT
ATOM      1  C   UNL     1     121.008 176.239 130.328  1.00  0.00     0.008 C 
ENDROOT
BRANCH   1   2
ATOM      2  C   UNL     1     119.673 176.059 131.066  1.00  0.00     0.000 C 
BRANCH   2   3
ATOM      3  C   UNL     1     118.464 176.105 130.119  1.00  0.00    -0.003 C 
ATOM      4  C   UNL     1     118.803 176.711 128.757  1.00  0.00     0.004 C 
ENDBRANCH   2   3
ENDBRANCH   1   2
BRANCH   1   5
ATOM      5  C   UNL     1     121.960 177.143 131.124  1.00  0.00     0.080 C 
BRANCH   5   6
ATOM      6  C   UNL     1     122.253 178.453 130.430  1.00  0.00     0.155 C 
ATOM      7  O   UNL     1     122.832 179.383 131.054  1.00  0.00    -0.295 OA
BRANCH   6   8
ATOM      8  C   UNL     1     121.881 178.689 129.020  1.00  0.00     0.039 C 
ATOM      9  C   UNL     1     122.768 178.927 128.053  1.00  0.00     0.012 C 
ENDBRANCH   6   8
ENDBRANCH   5   6
ENDBRANCH   1   5
TORSDOF 5
ENDMDL
MODEL 7
REMARK VINA RESULT:    -3.783     14.676     15.420
REMARK INTER + INTRA:          -5.332
REMARK INTER:                  -4.927
REMARK INTRA:                  -0.405
REMARK UNBOUND:                -0.443
REMARK SMILES C=CC(=O)CCCCC
REMARK SMILES IDX 6 1 7 2 8 3 9 4 5 5 3 6 4 7 2 8 1 9
REMARK H PARENT
REMARK Flexibility Score: inf
ROOT
ATOM      1  C   UNL     1     120.259 179.868 126.006  1.00  0.00     0.008 C 
ENDROOT
BRANCH   1   2
ATOM      2  C   UNL     1     119.875 179.090 124.738  1.00  0.00     0.000 C 
BRANCH   2   3
ATOM      3  C   UNL     1     121.053 178.926 123.765  1.00  0.00    -0.003 C 
ATOM      4  C   UNL     1     120.758 179.502 122.380  1.00  0.00     0.004 C 
ENDBRANCH   2   3
ENDBRANCH   1   2
BRANCH   1   5
ATOM      5  C   UNL     1     120.514 178.913 127.181  1.00  0.00     0.080 C 
BRANCH   5   6
ATOM      6  C   UNL     1     121.887 179.078 127.791  1.00  0.00     0.155 C 
ATOM      7  O   UNL     1     122.032 179.030 129.043  1.00  0.00    -0.295 OA
BRANCH   6   8
ATOM      8  C   UNL     1     123.089 179.295 126.961  1.00  0.00     0.039 C 
ATOM      9  C   UNL     1     123.696 178.327 126.274  1.00  0.00     0.012 C 
ENDBRANCH   6   8
ENDBRANCH   5   6
ENDBRANCH   1   5
TORSDOF 5
ENDMDL
MODEL 8
REMARK VINA RESULT:    -3.732      1.935      2.842
REMARK INTER + INTRA:          -5.266
REMARK INTER:                  -5.142
REMARK INTRA:                  -0.125
REMARK UNBOUND:                -0.443
REMARK SMILES C=CC(=O)CCCCC
REMARK SMILES IDX 6 1 7 2 8 3 9 4 5 5 3 6 4 7 2 8 1 9
REMARK H PARENT
REMARK Flexibility Score: inf
ROOT
ATOM      1  C   UNL     1     116.450 165.577 121.904  1.00  0.00     0.008 C 
ENDROOT
BRANCH   1   2
ATOM      2  C   UNL     1     116.369 165.511 120.372  1.00  0.00     0.000 C 
BRANCH   2   3
ATOM      3  C   UNL     1     117.408 164.553 119.766  1.00  0.00    -0.003 C 
ATOM      4  C   UNL     1     117.666 163.330 120.646  1.00  0.00     0.004 C 
ENDBRANCH   2   3
ENDBRANCH   1   2
BRANCH   1   5
ATOM      5  C   UNL     1     115.535 166.679 122.456  1.00  0.00     0.080 C 
BRANCH   5   6
ATOM      6  C   UNL     1     115.937 167.148 123.835  1.00  0.00     0.155 C 
ATOM      7  O   UNL     1     116.745 168.108 123.966  1.00  0.00    -0.295 OA
BRANCH   6   8
ATOM      8  C   UNL     1     115.407 166.515 125.060  1.00  0.00     0.039 C 
ATOM      9  C   UNL     1     115.458 167.083 126.265  1.00  0.00     0.012 C 
ENDBRANCH   6   8
ENDBRANCH   5   6
ENDBRANCH   1   5
TORSDOF 5
ENDMDL
