MODEL 1
REMARK VINA RESULT:    -4.120      0.000      0.000
REMARK INTER + INTRA:          -5.455
REMARK INTER:                  -5.324
REMARK INTRA:                  -0.131
REMARK UNBOUND:                -0.131
REMARK SMILES CCCCCCC(=O)[O-]
REMARK SMILES IDX 5 1 6 2 7 3 8 4 9 5 4 6 3 7 2 8 1 9
REMARK H PARENT
REMARK Flexibility Score: inf
ROOT
ATOM      1  C   UNL     1      20.468 -21.457  15.345  1.00  0.00     0.006 C 
ENDROOT
BRANCH   1   2
ATOM      2  C   UNL     1      19.767 -20.528  14.345  1.00  0.00     0.053 C 
BRANCH   2   3
ATOM      3  C   UNL     1      20.023 -19.085  14.654  1.00  0.00     0.041 C 
ATOM      4  O   UNL     1      20.059 -18.687  15.848  1.00  0.00    -0.550 OA
ATOM      5  O   UNL     1      20.251 -18.183  13.622  1.00  0.00    -0.550 OA
ENDBRANCH   2   3
ENDBRANCH   1   2
BRANCH   1   6
ATOM      6  C   UNL     1      20.904 -22.783  14.697  1.00  0.00     0.000 C 
BRANCH   6   7
ATOM      7  C   UNL     1      19.721 -23.576  14.118  1.00  0.00    -0.000 C 
BRANCH   7   8
ATOM      8  C   UNL     1      20.108 -24.392  12.876  1.00  0.00    -0.003 C 
ATOM      9  C   UNL     1      20.791 -25.700  13.270  1.00  0.00     0.004 C 
ENDBRANCH   7   8
ENDBRANCH   6   7
ENDBRANCH   1   6
TORSDOF 5
ENDMDL
MODEL 2
REMARK VINA RESULT:    -4.093      4.886      6.593
REMARK INTER + INTRA:          -5.421
REMARK INTER:                  -5.357
REMARK INTRA:                  -0.064
REMARK UNBOUND:                -0.131
REMARK SMILES CCCCCCC(=O)[O-]
REMARK SMILES IDX 5 1 6 2 7 3 8 4 9 5 4 6 3 7 2 8 1 9
REMARK H PARENT
REMARK Flexibility Score: inf
ROOT
ATOM      1  C   UNL     1      20.954 -25.373  13.761  1.00  0.00     0.006 C 
ENDROOT
BRANCH   1   2
ATOM      2  C   UNL     1      20.500 -26.541  12.875  1.00  0.00     0.053 C 
BRANCH   2   3
ATOM      3  C   UNL     1      21.146 -27.830  13.280  1.00  0.00     0.041 C 
ATOM      4  O   UNL     1      20.493 -28.906  13.247  1.00  0.00    -0.550 OA
ATOM      5  O   UNL     1      22.480 -27.848  13.668  1.00  0.00    -0.550 OA
ENDBRANCH   2   3
ENDBRANCH   1   2
BRANCH   1   6
ATOM      6  C   UNL     1      20.093 -24.116  13.549  1.00  0.00     0.000 C 
BRANCH   6   7
ATOM      7  C   UNL     1      20.551 -22.933  14.417  1.00  0.00    -0.000 C 
BRANCH   7   8
ATOM      8  C   UNL     1      19.565 -21.755  14.380  1.00  0.00    -0.003 C 
ATOM      9  C   UNL     1      20.161 -20.520  15.052  1.00  0.00     0.004 C 
ENDBRANCH   7   8
ENDBRANCH   6   7
ENDBRANCH   1   6
TORSDOF 5
ENDMDL
MODEL 3
REMARK VINA RESULT:    -3.893      1.761      2.691
REMARK INTER + INTRA:          -5.162
REMARK INTER:                  -5.035
REMARK INTRA:                  -0.127
REMARK UNBOUND:                -0.131
REMARK SMILES CCCCCCC(=O)[O-]
REMARK SMILES IDX 5 1 6 2 7 3 8 4 9 5 4 6 3 7 2 8 1 9
REMARK H PARENT
REMARK Flexibility Score: inf
ROOT
ATOM      1  C   UNL     1      20.119 -23.943  14.459  1.00  0.00     0.006 C 
ENDROOT
BRANCH   1   2
ATOM      2  C   UNL     1      20.869 -22.678  14.899  1.00  0.00     0.053 C 
BRANCH   2   3
ATOM      3  C   UNL     1      20.033 -21.447  14.723  1.00  0.00     0.041 C 
ATOM      4  O   UNL     1      20.425 -20.343  15.185  1.00  0.00    -0.550 OA
ATOM      5  O   UNL     1      18.835 -21.515  14.024  1.00  0.00    -0.550 OA
ENDBRANCH   2   3
ENDBRANCH   1   2
BRANCH   1   6
ATOM      6  C   UNL     1      20.726 -24.566  13.190  1.00  0.00     0.000 C 
BRANCH   6   7
ATOM      7  C   UNL     1      20.332 -26.041  13.009  1.00  0.00    -0.000 C 
BRANCH   7   8
ATOM      8  C   UNL     1      21.400 -27.008  13.542  1.00  0.00    -0.003 C 
ATOM      9  C   UNL     1      21.034 -28.456  13.228  1.00  0.00     0.004 C 
ENDBRANCH   7   8
ENDBRANCH   6   7
ENDBRANCH   1   6
TORSDOF 5
ENDMDL
MODEL 4
REMARK VINA RESULT:    -3.857      3.131      5.332
REMARK INTER + INTRA:          -5.116
REMARK INTER:                  -4.984
REMARK INTRA:                  -0.132
REMARK UNBOUND:                -0.131
REMARK SMILES CCCCCCC(=O)[O-]
REMARK SMILES IDX 5 1 6 2 7 3 8 4 9 5 4 6 3 7 2 8 1 9
REMARK H PARENT
REMARK Flexibility Score: inf
ROOT
ATOM      1  C   UNL     1      19.591 -21.736  14.835  1.00  0.00     0.006 C 
ENDROOT
BRANCH   1   2
ATOM      2  C   UNL     1      20.724 -22.694  14.439  1.00  0.00     0.053 C 
BRANCH   2   3
ATOM      3  C   UNL     1      20.207 -23.890  13.701  1.00  0.00     0.041 C 
ATOM      4  O   UNL     1      19.131 -23.820  13.051  1.00  0.00    -0.550 OA
ATOM      5  O   UNL     1      20.929 -25.077  13.708  1.00  0.00    -0.550 OA
ENDBRANCH   2   3
ENDBRANCH   1   2
BRANCH   1   6
ATOM      6  C   UNL     1      20.125 -20.376  15.319  1.00  0.00     0.000 C 
BRANCH   6   7
ATOM      7  C   UNL     1      20.091 -19.303  14.219  1.00  0.00    -0.000 C 
BRANCH   7   8
ATOM      8  C   UNL     1      20.083 -17.875  14.785  1.00  0.00    -0.003 C 
ATOM      9  C   UNL     1      20.008 -17.891  16.310  1.00  0.00     0.004 C 
ENDBRANCH   7   8
ENDBRANCH   6   7
ENDBRANCH   1   6
TORSDOF 5
ENDMDL
MODEL 5
REMARK VINA RESULT:    -3.035     15.758     16.852
REMARK INTER + INTRA:          -4.054
REMARK INTER:                  -3.779
REMARK INTRA:                  -0.275
REMARK UNBOUND:                -0.131
REMARK SMILES CCCCCCC(=O)[O-]
REMARK SMILES IDX 5 1 6 2 7 3 8 4 9 5 4 6 3 7 2 8 1 9
REMARK H PARENT
REMARK Flexibility Score: inf
ROOT
ATOM      1  C   UNL     1       8.840 -32.491  15.966  1.00  0.00     0.006 C 
ENDROOT
BRANCH   1   2
ATOM      2  C   UNL     1       8.683 -32.516  17.493  1.00  0.00     0.053 C 
BRANCH   2   3
ATOM      3  C   UNL     1       9.629 -31.569  18.165  1.00  0.00     0.041 C 
ATOM      4  O   UNL     1      10.370 -30.818  17.478  1.00  0.00    -0.550 OA
ATOM      5  O   UNL     1       9.670 -31.496  19.551  1.00  0.00    -0.550 OA
ENDBRANCH   2   3
ENDBRANCH   1   2
BRANCH   1   6
ATOM      6  C   UNL     1       7.533 -32.859  15.242  1.00  0.00     0.000 C 
BRANCH   6   7
ATOM      7  C   UNL     1       6.456 -33.392  16.201  1.00  0.00    -0.000 C 
BRANCH   7   8
ATOM      8  C   UNL     1       6.128 -34.873  15.959  1.00  0.00    -0.003 C 
ATOM      9  C   UNL     1       6.962 -35.774  16.866  1.00  0.00     0.004 C 
ENDBRANCH   7   8
ENDBRANCH   6   7
ENDBRANCH   1   6
TORSDOF 5
ENDMDL
MODEL 6
REMARK VINA RESULT:    -3.020     14.923     15.956
REMARK INTER + INTRA:          -4.034
REMARK INTER:                  -3.785
REMARK INTRA:                  -0.249
REMARK UNBOUND:                -0.131
REMARK SMILES CCCCCCC(=O)[O-]
REMARK SMILES IDX 5 1 6 2 7 3 8 4 9 5 4 6 3 7 2 8 1 9
REMARK H PARENT
REMARK Flexibility Score: inf
ROOT
ATOM      1  C   UNL     1       8.382 -33.322  16.821  1.00  0.00     0.006 C 
ENDROOT
BRANCH   1   2
ATOM      2  C   UNL     1       8.145 -32.489  18.088  1.00  0.00     0.053 C 
BRANCH   2   3
ATOM      3  C   UNL     1       9.344 -31.665  18.444  1.00  0.00     0.041 C 
ATOM      4  O   UNL     1       9.692 -31.537  19.648  1.00  0.00    -0.550 OA
ATOM      5  O   UNL     1      10.095 -31.061  17.444  1.00  0.00    -0.550 OA
ENDBRANCH   2   3
ENDBRANCH   1   2
BRANCH   1   6
ATOM      6  C   UNL     1       7.378 -32.981  15.706  1.00  0.00     0.000 C 
BRANCH   6   7
ATOM      7  C   UNL     1       8.051 -32.817  14.333  1.00  0.00    -0.000 C 
BRANCH   7   8
ATOM      8  C   UNL     1       9.584 -32.796  14.426  1.00  0.00    -0.003 C 
ATOM      9  C   UNL     1      10.214 -32.599  13.049  1.00  0.00     0.004 C 
ENDBRANCH   7   8
ENDBRANCH   6   7
ENDBRANCH   1   6
TORSDOF 5
ENDMDL
MODEL 7
REMARK VINA RESULT:    -2.950     15.371     16.598
REMARK INTER + INTRA:          -3.944
REMARK INTER:                  -3.793
REMARK INTRA:                  -0.152
REMARK UNBOUND:                -0.131
REMARK SMILES CCCCCCC(=O)[O-]
REMARK SMILES IDX 5 1 6 2 7 3 8 4 9 5 4 6 3 7 2 8 1 9
REMARK H PARENT
REMARK Flexibility Score: inf
ROOT
ATOM      1  C   UNL     1       8.484 -32.648  15.446  1.00  0.00     0.006 C 
ENDROOT
BRANCH   1   2
ATOM      2  C   UNL     1       7.299 -32.869  16.396  1.00  0.00     0.053 C 
BRANCH   2   3
ATOM      3  C   UNL     1       7.745 -32.989  17.821  1.00  0.00     0.041 C 
ATOM      4  O   UNL     1       8.557 -32.158  18.306  1.00  0.00    -0.550 OA
ATOM      5  O   UNL     1       7.240 -34.005  18.623  1.00  0.00    -0.550 OA
ENDBRANCH   2   3
ENDBRANCH   1   2
BRANCH   1   6
ATOM      6  C   UNL     1       8.151 -33.057  14.000  1.00  0.00     0.000 C 
BRANCH   6   7
ATOM      7  C   UNL     1       9.140 -32.473  12.978  1.00  0.00    -0.000 C 
BRANCH   7   8
ATOM      8  C   UNL     1      10.605 -32.638  13.411  1.00  0.00    -0.003 C 
ATOM      9  C   UNL     1      11.191 -33.942  12.875  1.00  0.00     0.004 C 
ENDBRANCH   7   8
ENDBRANCH   6   7
ENDBRANCH   1   6
TORSDOF 5
ENDMDL
MODEL 8
REMARK VINA RESULT:    -2.853     16.324     17.470
REMARK INTER + INTRA:          -3.818
REMARK INTER:                  -3.442
REMARK INTRA:                  -0.376
REMARK UNBOUND:                -0.131
REMARK SMILES CCCCCCC(=O)[O-]
REMARK SMILES IDX 5 1 6 2 7 3 8 4 9 5 4 6 3 7 2 8 1 9
REMARK H PARENT
REMARK Flexibility Score: inf
ROOT
ATOM      1  C   UNL     1       8.604 -32.548  15.918  1.00  0.00     0.006 C 
ENDROOT
BRANCH   1   2
ATOM      2  C   UNL     1       8.635 -32.897  14.424  1.00  0.00     0.053 C 
BRANCH   2   3
ATOM      3  C   UNL     1       9.718 -33.882  14.105  1.00  0.00     0.041 C 
ATOM      4  O   UNL     1       9.684 -35.043  14.592  1.00  0.00    -0.550 OA
ATOM      5  O   UNL     1      10.750 -33.527  13.247  1.00  0.00    -0.550 OA
ENDBRANCH   2   3
ENDBRANCH   1   2
BRANCH   1   6
ATOM      6  C   UNL     1       7.256 -32.905  16.569  1.00  0.00     0.000 C 
BRANCH   6   7
ATOM      7  C   UNL     1       7.413 -33.842  17.778  1.00  0.00    -0.000 C 
BRANCH   7   8
ATOM      8  C   UNL     1       7.428 -35.325  17.378  1.00  0.00    -0.003 C 
ATOM      9  C   UNL     1       6.392 -35.611  16.294  1.00  0.00     0.004 C 
ENDBRANCH   7   8
ENDBRANCH   6   7
ENDBRANCH   1   6
TORSDOF 5
ENDMDL
