MODEL 1
REMARK VINA RESULT:    -2.945      0.000      0.000
REMARK INTER + INTRA:         -12.927
REMARK INTER:                  -7.421
REMARK INTRA:                  -5.506
REMARK UNBOUND:                -5.506
REMARK SMILES CCCCCCCCCCCCCCCCCCCCCCCCCCCC(=O)[O-]
REMARK SMILES IDX 15 1 16 2 17 3 18 4 19 5 20 6 21 7 22 8 23 9 24 10 25 11
REMARK SMILES IDX 26 12 27 13 28 14 29 15 30 16 14 17 13 18 12 19 11 20 10 21
REMARK SMILES IDX 9 22 8 23 7 24 6 25 5 26 4 27 3 28 2 29 1 30
REMARK H PARENT
REMARK Flexibility Score: inf
ROOT
ATOM      1  C   UNL     1      10.807   6.531  32.951  1.00  0.00     0.000 C 
ENDROOT
BRANCH   1   2
ATOM      2  C   UNL     1      10.275   7.740  32.159  1.00  0.00     0.000 C 
BRANCH   2   3
ATOM      3  C   UNL     1       9.111   7.386  31.223  1.00  0.00     0.000 C 
BRANCH   3   4
ATOM      4  C   UNL     1       9.601   7.228  29.778  1.00  0.00     0.000 C 
BRANCH   4   5
ATOM      5  C   UNL     1       9.239   5.843  29.220  1.00  0.00     0.000 C 
BRANCH   5   6
ATOM      6  C   UNL     1      10.432   4.873  29.214  1.00  0.00     0.000 C 
BRANCH   6   7
ATOM      7  C   UNL     1      11.781   5.588  29.405  1.00  0.00     0.000 C 
BRANCH   7   8
ATOM      8  C   UNL     1      12.700   4.877  30.415  1.00  0.00     0.000 C 
BRANCH   8   9
ATOM      9  C   UNL     1      14.197   4.876  30.053  1.00  0.00     0.000 C 
BRANCH   9  10
ATOM     10  C   UNL     1      14.452   5.109  28.557  1.00  0.00     0.000 C 
BRANCH  10  11
ATOM     11  C   UNL     1      15.249   3.949  27.945  1.00  0.00     0.000 C 
BRANCH  11  12
ATOM     12  C   UNL     1      14.376   2.720  27.630  1.00  0.00     0.006 C 
BRANCH  12  13
ATOM     13  C   UNL     1      13.019   3.063  26.988  1.00  0.00     0.053 C 
BRANCH  13  14
ATOM     14  C   UNL     1      13.093   3.165  25.495  1.00  0.00     0.041 C 
ATOM     15  O   UNL     1      13.049   2.128  24.783  1.00  0.00    -0.550 OA
ATOM     16  O   UNL     1      13.181   4.412  24.888  1.00  0.00    -0.550 OA
ENDBRANCH  13  14
ENDBRANCH  12  13
ENDBRANCH  11  12
ENDBRANCH  10  11
ENDBRANCH   9  10
ENDBRANCH   8   9
ENDBRANCH   7   8
ENDBRANCH   6   7
ENDBRANCH   5   6
ENDBRANCH   4   5
ENDBRANCH   3   4
ENDBRANCH   2   3
ENDBRANCH   1   2
BRANCH   1  17
ATOM     17  C   UNL     1       9.817   5.360  33.139  1.00  0.00     0.000 C 
BRANCH  17  18
ATOM     18  C   UNL     1      10.451   3.992  33.473  1.00  0.00     0.000 C 
BRANCH  18  19
ATOM     19  C   UNL     1       9.515   2.786  33.277  1.00  0.00     0.000 C 
BRANCH  19  20
ATOM     20  C   UNL     1       9.398   2.340  31.813  1.00  0.00     0.000 C 
BRANCH  20  21
ATOM     21  C   UNL     1      10.444   1.268  31.470  1.00  0.00     0.000 C 
BRANCH  21  22
ATOM     22  C   UNL     1      11.182   1.568  30.154  1.00  0.00    -0.000 C 
BRANCH  22  23
ATOM     23  C   UNL     1      12.522   0.820  30.045  1.00  0.00    -0.000 C 
BRANCH  23  24
ATOM     24  C   UNL     1      13.177   0.579  31.414  1.00  0.00    -0.000 C 
BRANCH  24  25
ATOM     25  C   UNL     1      14.120   1.724  31.826  1.00  0.00    -0.000 C 
BRANCH  25  26
ATOM     26  C   UNL     1      13.669   2.436  33.114  1.00  0.00    -0.000 C 
BRANCH  26  27
ATOM     27  C   UNL     1      14.565   3.609  33.555  1.00  0.00    -0.000 C 
BRANCH  27  28
ATOM     28  C   UNL     1      14.004   4.364  34.771  1.00  0.00    -0.000 C 
BRANCH  28  29
ATOM     29  C   UNL     1      13.411   3.418  35.827  1.00  0.00    -0.003 C 
ATOM     30  C   UNL     1      12.708   4.162  36.962  1.00  0.00     0.004 C 
ENDBRANCH  28  29
ENDBRANCH  27  28
ENDBRANCH  26  27
ENDBRANCH  25  26
ENDBRANCH  24  25
ENDBRANCH  23  24
ENDBRANCH  22  23
ENDBRANCH  21  22
ENDBRANCH  20  21
ENDBRANCH  19  20
ENDBRANCH  18  19
ENDBRANCH  17  18
ENDBRANCH   1  17
TORSDOF 26
ENDMDL
MODEL 2
REMARK VINA RESULT:    -2.915      1.642      3.428
REMARK INTER + INTRA:         -12.852
REMARK INTER:                  -7.051
REMARK INTRA:                  -5.801
REMARK UNBOUND:                -5.506
REMARK SMILES CCCCCCCCCCCCCCCCCCCCCCCCCCCC(=O)[O-]
REMARK SMILES IDX 15 1 16 2 17 3 18 4 19 5 20 6 21 7 22 8 23 9 24 10 25 11
REMARK SMILES IDX 26 12 27 13 28 14 29 15 30 16 14 17 13 18 12 19 11 20 10 21
REMARK SMILES IDX 9 22 8 23 7 24 6 25 5 26 4 27 3 28 2 29 1 30
REMARK H PARENT
REMARK Flexibility Score: inf
ROOT
ATOM      1  C   UNL     1      10.651   2.875  29.465  1.00  0.00     0.000 C 
ENDROOT
BRANCH   1   2
ATOM      2  C   UNL     1      10.684   4.375  29.118  1.00  0.00     0.000 C 
BRANCH   2   3
ATOM      3  C   UNL     1       9.303   5.043  29.192  1.00  0.00     0.000 C 
BRANCH   3   4
ATOM      4  C   UNL     1       9.429   6.510  29.623  1.00  0.00     0.000 C 
BRANCH   4   5
ATOM      5  C   UNL     1      10.661   6.718  30.517  1.00  0.00     0.000 C 
BRANCH   5   6
ATOM      6  C   UNL     1      10.307   6.799  32.011  1.00  0.00     0.000 C 
BRANCH   6   7
ATOM      7  C   UNL     1      11.268   5.985  32.894  1.00  0.00     0.000 C 
BRANCH   7   8
ATOM      8  C   UNL     1      12.548   5.556  32.152  1.00  0.00     0.000 C 
BRANCH   8   9
ATOM      9  C   UNL     1      12.812   4.040  32.122  1.00  0.00     0.000 C 
BRANCH   9  10
ATOM     10  C   UNL     1      13.834   3.631  31.051  1.00  0.00     0.000 C 
BRANCH  10  11
ATOM     11  C   UNL     1      14.566   4.857  30.489  1.00  0.00     0.000 C 
BRANCH  11  12
ATOM     12  C   UNL     1      14.277   5.096  28.995  1.00  0.00     0.006 C 
BRANCH  12  13
ATOM     13  C   UNL     1      14.834   4.001  28.066  1.00  0.00     0.053 C 
BRANCH  13  14
ATOM     14  C   UNL     1      13.762   3.298  27.291  1.00  0.00     0.041 C 
ATOM     15  O   UNL     1      13.124   3.904  26.391  1.00  0.00    -0.550 OA
ATOM     16  O   UNL     1      13.488   1.959  27.543  1.00  0.00    -0.550 OA
ENDBRANCH  13  14
ENDBRANCH  12  13
ENDBRANCH  11  12
ENDBRANCH  10  11
ENDBRANCH   9  10
ENDBRANCH   8   9
ENDBRANCH   7   8
ENDBRANCH   6   7
ENDBRANCH   5   6
ENDBRANCH   4   5
ENDBRANCH   3   4
ENDBRANCH   2   3
ENDBRANCH   1   2
BRANCH   1  17
ATOM     17  C   UNL     1       9.314   2.341  30.025  1.00  0.00     0.000 C 
BRANCH  17  18
ATOM     18  C   UNL     1       9.327   1.924  31.512  1.00  0.00     0.000 C 
BRANCH  18  19
ATOM     19  C   UNL     1       8.888   3.028  32.491  1.00  0.00     0.000 C 
BRANCH  19  20
ATOM     20  C   UNL     1       9.642   2.989  33.827  1.00  0.00     0.000 C 
BRANCH  20  21
ATOM     21  C   UNL     1       9.358   1.687  34.592  1.00  0.00     0.000 C 
BRANCH  21  22
ATOM     22  C   UNL     1      10.624   1.095  35.233  1.00  0.00    -0.000 C 
BRANCH  22  23
ATOM     23  C   UNL     1      11.902   1.446  34.450  1.00  0.00    -0.000 C 
BRANCH  23  24
ATOM     24  C   UNL     1      13.126   1.616  35.364  1.00  0.00    -0.000 C 
BRANCH  24  25
ATOM     25  C   UNL     1      13.663   3.058  35.368  1.00  0.00    -0.000 C 
BRANCH  25  26
ATOM     26  C   UNL     1      13.174   3.877  36.576  1.00  0.00    -0.000 C 
BRANCH  26  27
ATOM     27  C   UNL     1      11.830   4.600  36.369  1.00  0.00    -0.000 C 
BRANCH  27  28
ATOM     28  C   UNL     1      10.750   4.151  37.367  1.00  0.00    -0.000 C 
BRANCH  28  29
ATOM     29  C   UNL     1       9.363   4.717  37.026  1.00  0.00    -0.003 C 
ATOM     30  C   UNL     1       9.429   5.915  36.077  1.00  0.00     0.004 C 
ENDBRANCH  28  29
ENDBRANCH  27  28
ENDBRANCH  26  27
ENDBRANCH  25  26
ENDBRANCH  24  25
ENDBRANCH  23  24
ENDBRANCH  22  23
ENDBRANCH  21  22
ENDBRANCH  20  21
ENDBRANCH  19  20
ENDBRANCH  18  19
ENDBRANCH  17  18
ENDBRANCH   1  17
TORSDOF 26
ENDMDL
MODEL 3
REMARK VINA RESULT:    -2.905      1.509      3.908
REMARK INTER + INTRA:         -12.826
REMARK INTER:                  -6.732
REMARK INTRA:                  -6.094
REMARK UNBOUND:                -5.506
REMARK SMILES CCCCCCCCCCCCCCCCCCCCCCCCCCCC(=O)[O-]
REMARK SMILES IDX 15 1 16 2 17 3 18 4 19 5 20 6 21 7 22 8 23 9 24 10 25 11
REMARK SMILES IDX 26 12 27 13 28 14 29 15 30 16 14 17 13 18 12 19 11 20 10 21
REMARK SMILES IDX 9 22 8 23 7 24 6 25 5 26 4 27 3 28 2 29 1 30
REMARK H PARENT
REMARK Flexibility Score: inf
ROOT
ATOM      1  C   UNL     1       9.667   7.260  31.688  1.00  0.00     0.000 C 
ENDROOT
BRANCH   1   2
ATOM      2  C   UNL     1      10.022   7.877  30.322  1.00  0.00     0.000 C 
BRANCH   2   3
ATOM      3  C   UNL     1      10.426   6.832  29.272  1.00  0.00     0.000 C 
BRANCH   3   4
ATOM      4  C   UNL     1      11.000   5.578  29.944  1.00  0.00     0.000 C 
BRANCH   4   5
ATOM      5  C   UNL     1      10.363   4.303  29.368  1.00  0.00     0.000 C 
BRANCH   5   6
ATOM      6  C   UNL     1       9.608   3.484  30.427  1.00  0.00     0.000 C 
BRANCH   6   7
ATOM      7  C   UNL     1       9.885   1.974  30.319  1.00  0.00     0.000 C 
BRANCH   7   8
ATOM      8  C   UNL     1      10.141   1.311  31.685  1.00  0.00     0.000 C 
BRANCH   8   9
ATOM      9  C   UNL     1      11.610   0.950  31.975  1.00  0.00     0.000 C 
BRANCH   9  10
ATOM     10  C   UNL     1      12.542   1.231  30.787  1.00  0.00     0.000 C 
BRANCH  10  11
ATOM     11  C   UNL     1      13.536   2.352  31.119  1.00  0.00     0.000 C 
BRANCH  11  12
ATOM     12  C   UNL     1      13.907   3.208  29.894  1.00  0.00     0.006 C 
BRANCH  12  13
ATOM     13  C   UNL     1      14.057   2.404  28.589  1.00  0.00     0.053 C 
BRANCH  13  14
ATOM     14  C   UNL     1      13.112   2.853  27.518  1.00  0.00     0.041 C 
ATOM     15  O   UNL     1      12.297   2.042  27.006  1.00  0.00    -0.550 OA
ATOM     16  O   UNL     1      13.113   4.179  27.102  1.00  0.00    -0.550 OA
ENDBRANCH  13  14
ENDBRANCH  12  13
ENDBRANCH  11  12
ENDBRANCH  10  11
ENDBRANCH   9  10
ENDBRANCH   8   9
ENDBRANCH   7   8
ENDBRANCH   6   7
ENDBRANCH   5   6
ENDBRANCH   4   5
ENDBRANCH   3   4
ENDBRANCH   2   3
ENDBRANCH   1   2
BRANCH   1  17
ATOM     17  C   UNL     1      10.489   7.769  32.893  1.00  0.00     0.000 C 
BRANCH  17  18
ATOM     18  C   UNL     1      10.704   6.753  34.036  1.00  0.00     0.000 C 
BRANCH  18  19
ATOM     19  C   UNL     1      10.294   5.309  33.695  1.00  0.00     0.000 C 
BRANCH  19  20
ATOM     20  C   UNL     1      11.490   4.390  33.412  1.00  0.00     0.000 C 
BRANCH  20  21
ATOM     21  C   UNL     1      12.820   5.154  33.510  1.00  0.00     0.000 C 
BRANCH  21  22
ATOM     22  C   UNL     1      13.824   4.466  34.449  1.00  0.00    -0.000 C 
BRANCH  22  23
ATOM     23  C   UNL     1      13.436   3.012  34.767  1.00  0.00    -0.000 C 
BRANCH  23  24
ATOM     24  C   UNL     1      13.112   2.799  36.254  1.00  0.00    -0.000 C 
BRANCH  24  25
ATOM     25  C   UNL     1      12.798   4.117  36.983  1.00  0.00    -0.000 C 
BRANCH  25  26
ATOM     26  C   UNL     1      11.293   4.321  37.230  1.00  0.00    -0.000 C 
BRANCH  26  27
ATOM     27  C   UNL     1      10.453   3.030  37.222  1.00  0.00    -0.000 C 
BRANCH  27  28
ATOM     28  C   UNL     1       9.195   3.141  36.345  1.00  0.00    -0.000 C 
BRANCH  28  29
ATOM     29  C   UNL     1       9.162   2.085  35.229  1.00  0.00    -0.003 C 
ATOM     30  C   UNL     1      10.091   0.902  35.505  1.00  0.00     0.004 C 
ENDBRANCH  28  29
ENDBRANCH  27  28
ENDBRANCH  26  27
ENDBRANCH  25  26
ENDBRANCH  24  25
ENDBRANCH  23  24
ENDBRANCH  22  23
ENDBRANCH  21  22
ENDBRANCH  20  21
ENDBRANCH  19  20
ENDBRANCH  18  19
ENDBRANCH  17  18
ENDBRANCH   1  17
TORSDOF 26
ENDMDL
MODEL 4
REMARK VINA RESULT:    -2.879      3.230      5.213
REMARK INTER + INTRA:         -12.761
REMARK INTER:                  -6.974
REMARK INTRA:                  -5.787
REMARK UNBOUND:                -5.506
REMARK SMILES CCCCCCCCCCCCCCCCCCCCCCCCCCCC(=O)[O-]
REMARK SMILES IDX 15 1 16 2 17 3 18 4 19 5 20 6 21 7 22 8 23 9 24 10 25 11
REMARK SMILES IDX 26 12 27 13 28 14 29 15 30 16 14 17 13 18 12 19 11 20 10 21
REMARK SMILES IDX 9 22 8 23 7 24 6 25 5 26 4 27 3 28 2 29 1 30
REMARK H PARENT
REMARK Flexibility Score: inf
ROOT
ATOM      1  C   UNL     1      11.348   1.346  32.340  1.00  0.00     0.000 C 
ENDROOT
BRANCH   1   2
ATOM      2  C   UNL     1      12.242   0.744  31.239  1.00  0.00     0.000 C 
BRANCH   2   3
ATOM      3  C   UNL     1      12.891   1.805  30.339  1.00  0.00     0.000 C 
BRANCH   3   4
ATOM      4  C   UNL     1      12.964   1.318  28.887  1.00  0.00     0.000 C 
BRANCH   4   5
ATOM      5  C   UNL     1      13.623   2.371  27.983  1.00  0.00     0.000 C 
BRANCH   5   6
ATOM      6  C   UNL     1      12.744   3.616  27.779  1.00  0.00     0.000 C 
BRANCH   6   7
ATOM      7  C   UNL     1      13.537   4.929  27.896  1.00  0.00     0.000 C 
BRANCH   7   8
ATOM      8  C   UNL     1      14.326   5.038  29.214  1.00  0.00     0.000 C 
BRANCH   8   9
ATOM      9  C   UNL     1      15.858   5.073  29.062  1.00  0.00     0.000 C 
BRANCH   9  10
ATOM     10  C   UNL     1      16.596   4.597  30.321  1.00  0.00     0.000 C 
BRANCH  10  11
ATOM     11  C   UNL     1      16.313   3.114  30.600  1.00  0.00     0.000 C 
BRANCH  11  12
ATOM     12  C   UNL     1      16.656   2.699  32.043  1.00  0.00     0.006 C 
BRANCH  12  13
ATOM     13  C   UNL     1      17.173   3.853  32.921  1.00  0.00     0.053 C 
BRANCH  13  14
ATOM     14  C   UNL     1      18.607   3.683  33.318  1.00  0.00     0.041 C 
ATOM     15  O   UNL     1      19.388   2.998  32.608  1.00  0.00    -0.550 OA
ATOM     16  O   UNL     1      19.090   4.308  34.461  1.00  0.00    -0.550 OA
ENDBRANCH  13  14
ENDBRANCH  12  13
ENDBRANCH  11  12
ENDBRANCH  10  11
ENDBRANCH   9  10
ENDBRANCH   8   9
ENDBRANCH   7   8
ENDBRANCH   6   7
ENDBRANCH   5   6
ENDBRANCH   4   5
ENDBRANCH   3   4
ENDBRANCH   2   3
ENDBRANCH   1   2
BRANCH   1  17
ATOM     17  C   UNL     1       9.848   0.983  32.263  1.00  0.00     0.000 C 
BRANCH  17  18
ATOM     18  C   UNL     1       8.924   2.071  31.673  1.00  0.00     0.000 C 
BRANCH  18  19
ATOM     19  C   UNL     1       9.039   2.251  30.148  1.00  0.00     0.000 C 
BRANCH  19  20
ATOM     20  C   UNL     1       9.703   3.574  29.743  1.00  0.00     0.000 C 
BRANCH  20  21
ATOM     21  C   UNL     1       9.852   4.518  30.946  1.00  0.00     0.000 C 
BRANCH  21  22
ATOM     22  C   UNL     1      11.306   4.970  31.161  1.00  0.00    -0.000 C 
BRANCH  22  23
ATOM     23  C   UNL     1      11.421   6.134  32.162  1.00  0.00    -0.000 C 
BRANCH  23  24
ATOM     24  C   UNL     1      12.589   5.952  33.145  1.00  0.00    -0.000 C 
BRANCH  24  25
ATOM     25  C   UNL     1      13.500   4.772  32.766  1.00  0.00    -0.000 C 
BRANCH  25  26
ATOM     26  C   UNL     1      13.510   3.658  33.828  1.00  0.00    -0.000 C 
BRANCH  26  27
ATOM     27  C   UNL     1      13.737   4.141  35.273  1.00  0.00    -0.000 C 
BRANCH  27  28
ATOM     28  C   UNL     1      12.516   3.910  36.179  1.00  0.00    -0.000 C 
BRANCH  28  29
ATOM     29  C   UNL     1      11.389   3.150  35.462  1.00  0.00    -0.003 C 
ATOM     30  C   UNL     1      10.169   4.027  35.179  1.00  0.00     0.004 C 
ENDBRANCH  28  29
ENDBRANCH  27  28
ENDBRANCH  26  27
ENDBRANCH  25  26
ENDBRANCH  24  25
ENDBRANCH  23  24
ENDBRANCH  22  23
ENDBRANCH  21  22
ENDBRANCH  20  21
ENDBRANCH  19  20
ENDBRANCH  18  19
ENDBRANCH  17  18
ENDBRANCH   1  17
TORSDOF 26
ENDMDL
MODEL 5
REMARK VINA RESULT:    -2.867      2.467      5.139
REMARK INTER + INTRA:         -12.730
REMARK INTER:                  -6.490
REMARK INTRA:                  -6.240
REMARK UNBOUND:                -5.506
REMARK SMILES CCCCCCCCCCCCCCCCCCCCCCCCCCCC(=O)[O-]
REMARK SMILES IDX 15 1 16 2 17 3 18 4 19 5 20 6 21 7 22 8 23 9 24 10 25 11
REMARK SMILES IDX 26 12 27 13 28 14 29 15 30 16 14 17 13 18 12 19 11 20 10 21
REMARK SMILES IDX 9 22 8 23 7 24 6 25 5 26 4 27 3 28 2 29 1 30
REMARK H PARENT
REMARK Flexibility Score: inf
ROOT
ATOM      1  C   UNL     1      13.905   3.052  31.812  1.00  0.00     0.000 C 
ENDROOT
BRANCH   1   2
ATOM      2  C   UNL     1      13.169   1.809  32.345  1.00  0.00     0.000 C 
BRANCH   2   3
ATOM      3  C   UNL     1      12.952   0.729  31.274  1.00  0.00     0.000 C 
BRANCH   3   4
ATOM      4  C   UNL     1      13.790   1.025  30.024  1.00  0.00     0.000 C 
BRANCH   4   5
ATOM      5  C   UNL     1      12.952   0.862  28.746  1.00  0.00     0.000 C 
BRANCH   5   6
ATOM      6  C   UNL     1      13.698   1.317  27.482  1.00  0.00     0.000 C 
BRANCH   6   7
ATOM      7  C   UNL     1      13.104   2.597  26.870  1.00  0.00     0.000 C 
BRANCH   7   8
ATOM      8  C   UNL     1      14.127   3.744  26.767  1.00  0.00     0.000 C 
BRANCH   8   9
ATOM      9  C   UNL     1      15.440   3.524  27.541  1.00  0.00     0.000 C 
BRANCH   9  10
ATOM     10  C   UNL     1      15.538   4.383  28.810  1.00  0.00     0.000 C 
BRANCH  10  11
ATOM     11  C   UNL     1      16.999   4.558  29.247  1.00  0.00     0.000 C 
BRANCH  11  12
ATOM     12  C   UNL     1      17.294   3.930  30.621  1.00  0.00     0.006 C 
BRANCH  12  13
ATOM     13  C   UNL     1      17.278   2.390  30.623  1.00  0.00     0.053 C 
BRANCH  13  14
ATOM     14  C   UNL     1      18.353   1.797  29.765  1.00  0.00     0.041 C 
ATOM     15  O   UNL     1      19.558   1.850  30.127  1.00  0.00    -0.550 OA
ATOM     16  O   UNL     1      18.021   1.159  28.576  1.00  0.00    -0.550 OA
ENDBRANCH  13  14
ENDBRANCH  12  13
ENDBRANCH  11  12
ENDBRANCH  10  11
ENDBRANCH   9  10
ENDBRANCH   8   9
ENDBRANCH   7   8
ENDBRANCH   6   7
ENDBRANCH   5   6
ENDBRANCH   4   5
ENDBRANCH   3   4
ENDBRANCH   2   3
ENDBRANCH   1   2
BRANCH   1  17
ATOM     17  C   UNL     1      13.289   4.416  32.194  1.00  0.00     0.000 C 
BRANCH  17  18
ATOM     18  C   UNL     1      12.642   5.208  31.036  1.00  0.00     0.000 C 
BRANCH  18  19
ATOM     19  C   UNL     1      12.152   4.340  29.862  1.00  0.00     0.000 C 
BRANCH  19  20
ATOM     20  C   UNL     1      10.823   4.823  29.264  1.00  0.00     0.000 C 
BRANCH  20  21
ATOM     21  C   UNL     1       9.637   4.011  29.806  1.00  0.00     0.000 C 
BRANCH  21  22
ATOM     22  C   UNL     1       9.977   2.522  29.983  1.00  0.00    -0.000 C 
BRANCH  22  23
ATOM     23  C   UNL     1       9.512   1.966  31.341  1.00  0.00    -0.000 C 
BRANCH  23  24
ATOM     24  C   UNL     1       9.200   3.076  32.357  1.00  0.00    -0.000 C 
BRANCH  24  25
ATOM     25  C   UNL     1      10.050   2.962  33.635  1.00  0.00    -0.000 C 
BRANCH  25  26
ATOM     26  C   UNL     1      10.253   4.314  34.341  1.00  0.00    -0.000 C 
BRANCH  26  27
ATOM     27  C   UNL     1       9.831   5.546  33.520  1.00  0.00    -0.000 C 
BRANCH  27  28
ATOM     28  C   UNL     1      10.700   6.782  33.807  1.00  0.00    -0.000 C 
BRANCH  28  29
ATOM     29  C   UNL     1      10.653   7.809  32.665  1.00  0.00    -0.003 C 
ATOM     30  C   UNL     1       9.657   7.432  31.569  1.00  0.00     0.004 C 
ENDBRANCH  28  29
ENDBRANCH  27  28
ENDBRANCH  26  27
ENDBRANCH  25  26
ENDBRANCH  24  25
ENDBRANCH  23  24
ENDBRANCH  22  23
ENDBRANCH  21  22
ENDBRANCH  20  21
ENDBRANCH  19  20
ENDBRANCH  18  19
ENDBRANCH  17  18
ENDBRANCH   1  17
TORSDOF 26
ENDMDL
MODEL 6
REMARK VINA RESULT:    -2.838      3.614      5.982
REMARK INTER + INTRA:         -12.658
REMARK INTER:                  -6.981
REMARK INTRA:                  -5.677
REMARK UNBOUND:                -5.506
REMARK SMILES CCCCCCCCCCCCCCCCCCCCCCCCCCCC(=O)[O-]
REMARK SMILES IDX 15 1 16 2 17 3 18 4 19 5 20 6 21 7 22 8 23 9 24 10 25 11
REMARK SMILES IDX 26 12 27 13 28 14 29 15 30 16 14 17 13 18 12 19 11 20 10 21
REMARK SMILES IDX 9 22 8 23 7 24 6 25 5 26 4 27 3 28 2 29 1 30
REMARK H PARENT
REMARK Flexibility Score: inf
ROOT
ATOM      1  C   UNL     1       9.173   3.233  32.366  1.00  0.00     0.000 C 
ENDROOT
BRANCH   1   2
ATOM      2  C   UNL     1       9.420   4.512  33.186  1.00  0.00     0.000 C 
BRANCH   2   3
ATOM      3  C   UNL     1       9.276   5.798  32.359  1.00  0.00     0.000 C 
BRANCH   3   4
ATOM      4  C   UNL     1       9.682   5.556  30.900  1.00  0.00     0.000 C 
BRANCH   4   5
ATOM      5  C   UNL     1      11.028   6.225  30.582  1.00  0.00     0.000 C 
BRANCH   5   6
ATOM      6  C   UNL     1      11.992   5.296  29.826  1.00  0.00     0.000 C 
BRANCH   6   7
ATOM      7  C   UNL     1      12.982   4.579  30.761  1.00  0.00     0.000 C 
BRANCH   7   8
ATOM      8  C   UNL     1      13.116   5.266  32.133  1.00  0.00     0.000 C 
BRANCH   8   9
ATOM      9  C   UNL     1      12.906   4.347  33.351  1.00  0.00     0.000 C 
BRANCH   9  10
ATOM     10  C   UNL     1      13.978   4.533  34.434  1.00  0.00     0.000 C 
BRANCH  10  11
ATOM     11  C   UNL     1      13.620   3.752  35.706  1.00  0.00     0.000 C 
BRANCH  11  12
ATOM     12  C   UNL     1      12.103   3.550  35.880  1.00  0.00     0.006 C 
BRANCH  12  13
ATOM     13  C   UNL     1      11.392   4.721  36.584  1.00  0.00     0.053 C 
BRANCH  13  14
ATOM     14  C   UNL     1       9.958   4.423  36.899  1.00  0.00     0.041 C 
ATOM     15  O   UNL     1       9.254   5.264  37.518  1.00  0.00    -0.550 OA
ATOM     16  O   UNL     1       9.389   3.226  36.483  1.00  0.00    -0.550 OA
ENDBRANCH  13  14
ENDBRANCH  12  13
ENDBRANCH  11  12
ENDBRANCH  10  11
ENDBRANCH   9  10
ENDBRANCH   8   9
ENDBRANCH   7   8
ENDBRANCH   6   7
ENDBRANCH   5   6
ENDBRANCH   4   5
ENDBRANCH   3   4
ENDBRANCH   2   3
ENDBRANCH   1   2
BRANCH   1  17
ATOM     17  C   UNL     1      10.151   2.065  32.627  1.00  0.00     0.000 C 
BRANCH  17  18
ATOM     18  C   UNL     1      11.004   1.620  31.418  1.00  0.00     0.000 C 
BRANCH  18  19
ATOM     19  C   UNL     1      10.351   1.872  30.047  1.00  0.00     0.000 C 
BRANCH  19  20
ATOM     20  C   UNL     1      11.346   1.805  28.880  1.00  0.00     0.000 C 
BRANCH  20  21
ATOM     21  C   UNL     1      12.595   0.992  29.255  1.00  0.00     0.000 C 
BRANCH  21  22
ATOM     22  C   UNL     1      13.883   1.588  28.664  1.00  0.00    -0.000 C 
BRANCH  22  23
ATOM     23  C   UNL     1      13.602   2.654  27.590  1.00  0.00    -0.000 C 
BRANCH  23  24
ATOM     24  C   UNL     1      14.867   3.423  27.176  1.00  0.00    -0.000 C 
BRANCH  24  25
ATOM     25  C   UNL     1      15.403   4.324  28.302  1.00  0.00    -0.000 C 
BRANCH  25  26
ATOM     26  C   UNL     1      16.816   3.925  28.766  1.00  0.00    -0.000 C 
BRANCH  26  27
ATOM     27  C   UNL     1      17.299   4.624  30.050  1.00  0.00    -0.000 C 
BRANCH  27  28
ATOM     28  C   UNL     1      16.577   4.124  31.312  1.00  0.00    -0.000 C 
BRANCH  28  29
ATOM     29  C   UNL     1      16.673   2.599  31.477  1.00  0.00    -0.003 C 
ATOM     30  C   UNL     1      15.356   1.966  31.925  1.00  0.00     0.004 C 
ENDBRANCH  28  29
ENDBRANCH  27  28
ENDBRANCH  26  27
ENDBRANCH  25  26
ENDBRANCH  24  25
ENDBRANCH  23  24
ENDBRANCH  22  23
ENDBRANCH  21  22
ENDBRANCH  20  21
ENDBRANCH  19  20
ENDBRANCH  18  19
ENDBRANCH  17  18
ENDBRANCH   1  17
TORSDOF 26
ENDMDL
MODEL 7
REMARK VINA RESULT:    -2.828      3.218      5.715
REMARK INTER + INTRA:         -12.633
REMARK INTER:                  -7.196
REMARK INTRA:                  -5.437
REMARK UNBOUND:                -5.506
REMARK SMILES CCCCCCCCCCCCCCCCCCCCCCCCCCCC(=O)[O-]
REMARK SMILES IDX 15 1 16 2 17 3 18 4 19 5 20 6 21 7 22 8 23 9 24 10 25 11
REMARK SMILES IDX 26 12 27 13 28 14 29 15 30 16 14 17 13 18 12 19 11 20 10 21
REMARK SMILES IDX 9 22 8 23 7 24 6 25 5 26 4 27 3 28 2 29 1 30
REMARK H PARENT
REMARK Flexibility Score: inf
ROOT
ATOM      1  C   UNL     1      12.749   1.922  30.454  1.00  0.00     0.000 C 
ENDROOT
BRANCH   1   2
ATOM      2  C   UNL     1      13.606   1.189  29.404  1.00  0.00     0.000 C 
BRANCH   2   3
ATOM      3  C   UNL     1      13.420   1.738  27.982  1.00  0.00     0.000 C 
BRANCH   3   4
ATOM      4  C   UNL     1      12.376   2.862  27.963  1.00  0.00     0.000 C 
BRANCH   4   5
ATOM      5  C   UNL     1      13.014   4.201  27.562  1.00  0.00     0.000 C 
BRANCH   5   6
ATOM      6  C   UNL     1      13.366   5.081  28.772  1.00  0.00     0.000 C 
BRANCH   6   7
ATOM      7  C   UNL     1      14.858   5.456  28.820  1.00  0.00     0.000 C 
BRANCH   7   8
ATOM      8  C   UNL     1      15.643   4.663  29.882  1.00  0.00     0.000 C 
BRANCH   8   9
ATOM      9  C   UNL     1      16.871   3.898  29.355  1.00  0.00     0.000 C 
BRANCH   9  10
ATOM     10  C   UNL     1      17.037   2.515  29.999  1.00  0.00     0.000 C 
BRANCH  10  11
ATOM     11  C   UNL     1      16.390   2.472  31.391  1.00  0.00     0.000 C 
BRANCH  11  12
ATOM     12  C   UNL     1      17.421   2.517  32.534  1.00  0.00     0.006 C 
BRANCH  12  13
ATOM     13  C   UNL     1      17.935   3.932  32.859  1.00  0.00     0.053 C 
BRANCH  13  14
ATOM     14  C   UNL     1      19.380   4.120  32.512  1.00  0.00     0.041 C 
ATOM     15  O   UNL     1      19.767   5.174  31.944  1.00  0.00    -0.550 OA
ATOM     16  O   UNL     1      20.306   3.138  32.843  1.00  0.00    -0.550 OA
ENDBRANCH  13  14
ENDBRANCH  12  13
ENDBRANCH  11  12
ENDBRANCH  10  11
ENDBRANCH   9  10
ENDBRANCH   8   9
ENDBRANCH   7   8
ENDBRANCH   6   7
ENDBRANCH   5   6
ENDBRANCH   4   5
ENDBRANCH   3   4
ENDBRANCH   2   3
ENDBRANCH   1   2
BRANCH   1  17
ATOM     17  C   UNL     1      11.795   1.034  31.284  1.00  0.00     0.000 C 
BRANCH  17  18
ATOM     18  C   UNL     1      10.460   1.690  31.700  1.00  0.00     0.000 C 
BRANCH  18  19
ATOM     19  C   UNL     1       9.787   2.527  30.597  1.00  0.00     0.000 C 
BRANCH  19  20
ATOM     20  C   UNL     1       9.849   4.038  30.860  1.00  0.00     0.000 C 
BRANCH  20  21
ATOM     21  C   UNL     1       9.717   4.840  29.555  1.00  0.00     0.000 C 
BRANCH  21  22
ATOM     22  C   UNL     1       9.850   6.355  29.781  1.00  0.00    -0.000 C 
BRANCH  22  23
ATOM     23  C   UNL     1       9.506   6.770  31.222  1.00  0.00    -0.000 C 
BRANCH  23  24
ATOM     24  C   UNL     1      10.412   7.896  31.744  1.00  0.00    -0.000 C 
BRANCH  24  25
ATOM     25  C   UNL     1      10.885   7.651  33.188  1.00  0.00    -0.000 C 
BRANCH  25  26
ATOM     26  C   UNL     1      10.431   6.289  33.743  1.00  0.00    -0.000 C 
BRANCH  26  27
ATOM     27  C   UNL     1      11.551   5.244  33.895  1.00  0.00    -0.000 C 
BRANCH  27  28
ATOM     28  C   UNL     1      12.713   5.467  32.913  1.00  0.00    -0.000 C 
BRANCH  28  29
ATOM     29  C   UNL     1      13.804   4.391  33.040  1.00  0.00    -0.003 C 
ATOM     30  C   UNL     1      13.387   3.228  33.941  1.00  0.00     0.004 C 
ENDBRANCH  28  29
ENDBRANCH  27  28
ENDBRANCH  26  27
ENDBRANCH  25  26
ENDBRANCH  24  25
ENDBRANCH  23  24
ENDBRANCH  22  23
ENDBRANCH  21  22
ENDBRANCH  20  21
ENDBRANCH  19  20
ENDBRANCH  18  19
ENDBRANCH  17  18
ENDBRANCH   1  17
TORSDOF 26
ENDMDL
MODEL 8
REMARK VINA RESULT:    -2.804      3.002      5.821
REMARK INTER + INTRA:         -12.572
REMARK INTER:                  -7.135
REMARK INTRA:                  -5.437
REMARK UNBOUND:                -5.506
REMARK SMILES CCCCCCCCCCCCCCCCCCCCCCCCCCCC(=O)[O-]
REMARK SMILES IDX 15 1 16 2 17 3 18 4 19 5 20 6 21 7 22 8 23 9 24 10 25 11
REMARK SMILES IDX 26 12 27 13 28 14 29 15 30 16 14 17 13 18 12 19 11 20 10 21
REMARK SMILES IDX 9 22 8 23 7 24 6 25 5 26 4 27 3 28 2 29 1 30
REMARK H PARENT
REMARK Flexibility Score: inf
ROOT
ATOM      1  C   UNL     1      11.056   1.718  30.547  1.00  0.00     0.000 C 
ENDROOT
BRANCH   1   2
ATOM      2  C   UNL     1       9.818   2.463  30.016  1.00  0.00     0.000 C 
BRANCH   2   3
ATOM      3  C   UNL     1       9.761   3.933  30.458  1.00  0.00     0.000 C 
BRANCH   3   4
ATOM      4  C   UNL     1       9.680   4.865  29.243  1.00  0.00     0.000 C 
BRANCH   4   5
ATOM      5  C   UNL     1      10.071   6.302  29.622  1.00  0.00     0.000 C 
BRANCH   5   6
ATOM      6  C   UNL     1       9.385   6.785  30.911  1.00  0.00     0.000 C 
BRANCH   6   7
ATOM      7  C   UNL     1      10.202   7.858  31.652  1.00  0.00     0.000 C 
BRANCH   7   8
ATOM      8  C   UNL     1      10.734   7.372  33.013  1.00  0.00     0.000 C 
BRANCH   8   9
ATOM      9  C   UNL     1      10.230   5.988  33.459  1.00  0.00     0.000 C 
BRANCH   9  10
ATOM     10  C   UNL     1      10.199   5.824  34.986  1.00  0.00     0.000 C 
BRANCH  10  11
ATOM     11  C   UNL     1       9.532   4.500  35.386  1.00  0.00     0.000 C 
BRANCH  11  12
ATOM     12  C   UNL     1       9.301   3.559  34.190  1.00  0.00     0.006 C 
BRANCH  12  13
ATOM     13  C   UNL     1      10.255   2.351  34.150  1.00  0.00     0.053 C 
BRANCH  13  14
ATOM     14  C   UNL     1       9.537   1.040  34.258  1.00  0.00     0.041 C 
ATOM     15  O   UNL     1       9.317   0.526  35.385  1.00  0.00    -0.550 OA
ATOM     16  O   UNL     1       9.086   0.399  33.111  1.00  0.00    -0.550 OA
ENDBRANCH  13  14
ENDBRANCH  12  13
ENDBRANCH  11  12
ENDBRANCH  10  11
ENDBRANCH   9  10
ENDBRANCH   8   9
ENDBRANCH   7   8
ENDBRANCH   6   7
ENDBRANCH   5   6
ENDBRANCH   4   5
ENDBRANCH   3   4
ENDBRANCH   2   3
ENDBRANCH   1   2
BRANCH   1  17
ATOM     17  C   UNL     1      12.279   1.684  29.603  1.00  0.00     0.000 C 
BRANCH  17  18
ATOM     18  C   UNL     1      11.996   2.034  28.125  1.00  0.00     0.000 C 
BRANCH  18  19
ATOM     19  C   UNL     1      12.951   3.078  27.521  1.00  0.00     0.000 C 
BRANCH  19  20
ATOM     20  C   UNL     1      13.062   4.358  28.361  1.00  0.00     0.000 C 
BRANCH  20  21
ATOM     21  C   UNL     1      14.491   4.560  28.888  1.00  0.00     0.000 C 
BRANCH  21  22
ATOM     22  C   UNL     1      14.550   4.601  30.424  1.00  0.00    -0.000 C 
BRANCH  22  23
ATOM     23  C   UNL     1      13.210   5.020  31.056  1.00  0.00    -0.000 C 
BRANCH  23  24
ATOM     24  C   UNL     1      12.893   4.238  32.340  1.00  0.00    -0.000 C 
BRANCH  24  25
ATOM     25  C   UNL     1      14.162   3.762  33.069  1.00  0.00    -0.000 C 
BRANCH  25  26
ATOM     26  C   UNL     1      14.367   4.454  34.428  1.00  0.00    -0.000 C 
BRANCH  26  27
ATOM     27  C   UNL     1      13.290   4.142  35.484  1.00  0.00    -0.000 C 
BRANCH  27  28
ATOM     28  C   UNL     1      13.576   2.849  36.264  1.00  0.00    -0.000 C 
BRANCH  28  29
ATOM     29  C   UNL     1      15.067   2.478  36.259  1.00  0.00    -0.003 C 
ATOM     30  C   UNL     1      15.585   2.083  37.643  1.00  0.00     0.004 C 
ENDBRANCH  28  29
ENDBRANCH  27  28
ENDBRANCH  26  27
ENDBRANCH  25  26
ENDBRANCH  24  25
ENDBRANCH  23  24
ENDBRANCH  22  23
ENDBRANCH  21  22
ENDBRANCH  20  21
ENDBRANCH  19  20
ENDBRANCH  18  19
ENDBRANCH  17  18
ENDBRANCH   1  17
TORSDOF 26
ENDMDL
MODEL 9
REMARK VINA RESULT:    -2.795      3.485      7.087
REMARK INTER + INTRA:         -12.551
REMARK INTER:                  -6.788
REMARK INTRA:                  -5.763
REMARK UNBOUND:                -5.506
REMARK SMILES CCCCCCCCCCCCCCCCCCCCCCCCCCCC(=O)[O-]
REMARK SMILES IDX 15 1 16 2 17 3 18 4 19 5 20 6 21 7 22 8 23 9 24 10 25 11
REMARK SMILES IDX 26 12 27 13 28 14 29 15 30 16 14 17 13 18 12 19 11 20 10 21
REMARK SMILES IDX 9 22 8 23 7 24 6 25 5 26 4 27 3 28 2 29 1 30
REMARK H PARENT
REMARK Flexibility Score: inf
ROOT
ATOM      1  C   UNL     1      13.910   4.860  30.811  1.00  0.00     0.000 C 
ENDROOT
BRANCH   1   2
ATOM      2  C   UNL     1      14.591   4.984  29.435  1.00  0.00     0.000 C 
BRANCH   2   3
ATOM      3  C   UNL     1      15.810   4.064  29.279  1.00  0.00     0.000 C 
BRANCH   3   4
ATOM      4  C   UNL     1      15.389   2.589  29.313  1.00  0.00     0.000 C 
BRANCH   4   5
ATOM      5  C   UNL     1      16.290   1.779  30.258  1.00  0.00     0.000 C 
BRANCH   5   6
ATOM      6  C   UNL     1      15.919   1.963  31.738  1.00  0.00     0.000 C 
BRANCH   6   7
ATOM      7  C   UNL     1      17.007   2.705  32.535  1.00  0.00     0.000 C 
BRANCH   7   8
ATOM      8  C   UNL     1      16.467   3.935  33.286  1.00  0.00     0.000 C 
BRANCH   8   9
ATOM      9  C   UNL     1      15.590   3.623  34.513  1.00  0.00     0.000 C 
BRANCH   9  10
ATOM     10  C   UNL     1      14.242   4.357  34.488  1.00  0.00     0.000 C 
BRANCH  10  11
ATOM     11  C   UNL     1      13.098   3.399  34.129  1.00  0.00     0.000 C 
BRANCH  11  12
ATOM     12  C   UNL     1      12.676   2.499  35.305  1.00  0.00     0.006 C 
BRANCH  12  13
ATOM     13  C   UNL     1      12.525   3.246  36.643  1.00  0.00     0.053 C 
BRANCH  13  14
ATOM     14  C   UNL     1      11.172   3.866  36.812  1.00  0.00     0.041 C 
ATOM     15  O   UNL     1      10.134   3.155  36.758  1.00  0.00    -0.550 OA
ATOM     16  O   UNL     1      11.058   5.229  37.058  1.00  0.00    -0.550 OA
ENDBRANCH  13  14
ENDBRANCH  12  13
ENDBRANCH  11  12
ENDBRANCH  10  11
ENDBRANCH   9  10
ENDBRANCH   8   9
ENDBRANCH   7   8
ENDBRANCH   6   7
ENDBRANCH   5   6
ENDBRANCH   4   5
ENDBRANCH   3   4
ENDBRANCH   2   3
ENDBRANCH   1   2
BRANCH   1  17
ATOM     17  C   UNL     1      12.366   4.797  30.797  1.00  0.00     0.000 C 
BRANCH  17  18
ATOM     18  C   UNL     1      11.681   5.426  29.563  1.00  0.00     0.000 C 
BRANCH  18  19
ATOM     19  C   UNL     1      10.235   5.896  29.804  1.00  0.00     0.000 C 
BRANCH  19  20
ATOM     20  C   UNL     1      10.139   7.368  30.227  1.00  0.00     0.000 C 
BRANCH  20  21
ATOM     21  C   UNL     1       9.697   7.501  31.694  1.00  0.00     0.000 C 
BRANCH  21  22
ATOM     22  C   UNL     1      10.874   7.372  32.675  1.00  0.00    -0.000 C 
BRANCH  22  23
ATOM     23  C   UNL     1      10.642   6.282  33.736  1.00  0.00    -0.000 C 
BRANCH  23  24
ATOM     24  C   UNL     1       9.412   5.412  33.429  1.00  0.00    -0.000 C 
BRANCH  24  25
ATOM     25  C   UNL     1       9.757   3.915  33.341  1.00  0.00    -0.000 C 
BRANCH  25  26
ATOM     26  C   UNL     1       9.185   3.242  32.080  1.00  0.00    -0.000 C 
BRANCH  26  27
ATOM     27  C   UNL     1       9.960   2.002  31.597  1.00  0.00    -0.000 C 
BRANCH  27  28
ATOM     28  C   UNL     1      10.066   1.923  30.065  1.00  0.00    -0.000 C 
BRANCH  28  29
ATOM     29  C   UNL     1      11.472   1.517  29.595  1.00  0.00    -0.003 C 
ATOM     30  C   UNL     1      12.362   1.029  30.738  1.00  0.00     0.004 C 
ENDBRANCH  28  29
ENDBRANCH  27  28
ENDBRANCH  26  27
ENDBRANCH  25  26
ENDBRANCH  24  25
ENDBRANCH  23  24
ENDBRANCH  22  23
ENDBRANCH  21  22
ENDBRANCH  20  21
ENDBRANCH  19  20
ENDBRANCH  18  19
ENDBRANCH  17  18
ENDBRANCH   1  17
TORSDOF 26
ENDMDL
