MODEL 1
REMARK VINA RESULT:    -3.319      0.000      0.000
REMARK INTER + INTRA:          -3.718
REMARK INTER:                  -3.707
REMARK INTRA:                  -0.011
REMARK UNBOUND:                -0.011
REMARK SMILES CCCC(=O)[O-]
REMARK SMILES IDX 3 1 4 2 5 3 6 4 2 5 1 6
REMARK H PARENT
REMARK Flexibility Score: inf
ROOT
ATOM      1  C   UNL     1       2.962 -19.199  -8.693  1.00  0.00     0.052 C 
ENDROOT
BRANCH   1   2
ATOM      2  C   UNL     1       4.039 -19.497  -7.695  1.00  0.00     0.041 C 
ATOM      3  O   UNL     1       3.736 -19.814  -6.515  1.00  0.00    -0.550 OA
ATOM      4  O   UNL     1       5.373 -19.456  -8.077  1.00  0.00    -0.550 OA
ENDBRANCH   1   2
BRANCH   1   5
ATOM      5  C   UNL     1       1.575 -19.160  -8.041  1.00  0.00     0.003 C 
ATOM      6  C   UNL     1       0.514 -18.556  -8.962  1.00  0.00     0.004 C 
ENDBRANCH   1   5
TORSDOF 2
ENDMDL
MODEL 2
REMARK VINA RESULT:    -3.229      2.369      3.324
REMARK INTER + INTRA:          -3.617
REMARK INTER:                  -3.564
REMARK INTRA:                  -0.054
REMARK UNBOUND:                -0.011
REMARK SMILES CCCC(=O)[O-]
REMARK SMILES IDX 3 1 4 2 5 3 6 4 2 5 1 6
REMARK H PARENT
REMARK Flexibility Score: inf
ROOT
ATOM      1  C   UNL     1       2.535 -19.378  -7.615  1.00  0.00     0.052 C 
ENDROOT
BRANCH   1   2
ATOM      2  C   UNL     1       2.055 -19.512  -9.028  1.00  0.00     0.041 C 
ATOM      3  O   UNL     1       2.050 -20.638  -9.590  1.00  0.00    -0.550 OA
ATOM      4  O   UNL     1       1.583 -18.399  -9.711  1.00  0.00    -0.550 OA
ENDBRANCH   1   2
BRANCH   1   5
ATOM      5  C   UNL     1       3.893 -20.060  -7.408  1.00  0.00     0.003 C 
ATOM      6  C   UNL     1       5.011 -19.385  -8.203  1.00  0.00     0.004 C 
ENDBRANCH   1   5
TORSDOF 2
ENDMDL
MODEL 3
REMARK VINA RESULT:    -3.218     10.747     11.495
REMARK INTER + INTRA:          -3.606
REMARK INTER:                  -3.566
REMARK INTRA:                  -0.040
REMARK UNBOUND:                -0.011
REMARK SMILES CCCC(=O)[O-]
REMARK SMILES IDX 3 1 4 2 5 3 6 4 2 5 1 6
REMARK H PARENT
REMARK Flexibility Score: inf
ROOT
ATOM      1  C   UNL     1      -3.544 -24.240  -0.149  1.00  0.00     0.052 C 
ENDROOT
BRANCH   1   2
ATOM      2  C   UNL     1      -2.068 -24.034  -0.001  1.00  0.00     0.041 C 
ATOM      3  O   UNL     1      -1.271 -24.986  -0.214  1.00  0.00    -0.550 OA
ATOM      4  O   UNL     1      -1.569 -22.783   0.338  1.00  0.00    -0.550 OA
ENDBRANCH   1   2
BRANCH   1   5
ATOM      5  C   UNL     1      -4.223 -24.485   1.205  1.00  0.00     0.003 C 
ATOM      6  C   UNL     1      -4.820 -23.208   1.797  1.00  0.00     0.004 C 
ENDBRANCH   1   5
TORSDOF 2
ENDMDL
MODEL 4
REMARK VINA RESULT:    -3.169     10.203     10.937
REMARK INTER + INTRA:          -3.550
REMARK INTER:                  -3.528
REMARK INTRA:                  -0.022
REMARK UNBOUND:                -0.011
REMARK SMILES CCCC(=O)[O-]
REMARK SMILES IDX 3 1 4 2 5 3 6 4 2 5 1 6
REMARK H PARENT
REMARK Flexibility Score: inf
ROOT
ATOM      1  C   UNL     1      -2.412 -23.950   0.032  1.00  0.00     0.052 C 
ENDROOT
BRANCH   1   2
ATOM      2  C   UNL     1      -2.295 -24.453  -1.374  1.00  0.00     0.041 C 
ATOM      3  O   UNL     1      -3.158 -24.136  -2.234  1.00  0.00    -0.550 OA
ATOM      4  O   UNL     1      -1.214 -25.244  -1.743  1.00  0.00    -0.550 OA
ENDBRANCH   1   2
BRANCH   1   5
ATOM      5  C   UNL     1      -3.772 -24.299   0.650  1.00  0.00     0.003 C 
ATOM      6  C   UNL     1      -4.357 -23.142   1.461  1.00  0.00     0.004 C 
ENDBRANCH   1   5
TORSDOF 2
ENDMDL
MODEL 5
REMARK VINA RESULT:    -3.165      2.269      2.847
REMARK INTER + INTRA:          -3.546
REMARK INTER:                  -3.502
REMARK INTRA:                  -0.044
REMARK UNBOUND:                -0.011
REMARK SMILES CCCC(=O)[O-]
REMARK SMILES IDX 3 1 4 2 5 3 6 4 2 5 1 6
REMARK H PARENT
REMARK Flexibility Score: inf
ROOT
ATOM      1  C   UNL     1       3.773 -20.602  -7.449  1.00  0.00     0.052 C 
ENDROOT
BRANCH   1   2
ATOM      2  C   UNL     1       3.152 -21.924  -7.780  1.00  0.00     0.041 C 
ATOM      3  O   UNL     1       2.944 -22.243  -8.981  1.00  0.00    -0.550 OA
ATOM      4  O   UNL     1       2.835 -22.819  -6.766  1.00  0.00    -0.550 OA
ENDBRANCH   1   2
BRANCH   1   5
ATOM      5  C   UNL     1       3.181 -19.467  -8.294  1.00  0.00     0.003 C 
ATOM      6  C   UNL     1       1.737 -19.146  -7.909  1.00  0.00     0.004 C 
ENDBRANCH   1   5
TORSDOF 2
ENDMDL
MODEL 6
REMARK VINA RESULT:    -3.133     16.585     17.427
REMARK INTER + INTRA:          -3.511
REMARK INTER:                  -3.481
REMARK INTRA:                  -0.030
REMARK UNBOUND:                -0.011
REMARK SMILES CCCC(=O)[O-]
REMARK SMILES IDX 3 1 4 2 5 3 6 4 2 5 1 6
REMARK H PARENT
REMARK Flexibility Score: inf
ROOT
ATOM      1  C   UNL     1       3.070 -29.528   5.645  1.00  0.00     0.052 C 
ENDROOT
BRANCH   1   2
ATOM      2  C   UNL     1       2.138 -30.640   6.019  1.00  0.00     0.041 C 
ATOM      3  O   UNL     1       2.512 -31.838   5.923  1.00  0.00    -0.550 OA
ATOM      4  O   UNL     1       0.870 -30.351   6.505  1.00  0.00    -0.550 OA
ENDBRANCH   1   2
BRANCH   1   5
ATOM      5  C   UNL     1       3.880 -29.863   4.386  1.00  0.00     0.003 C 
ATOM      6  C   UNL     1       3.307 -29.201   3.132  1.00  0.00     0.004 C 
ENDBRANCH   1   5
TORSDOF 2
ENDMDL
MODEL 7
REMARK VINA RESULT:    -3.104     16.429     17.244
REMARK INTER + INTRA:          -3.478
REMARK INTER:                  -3.446
REMARK INTRA:                  -0.032
REMARK UNBOUND:                -0.011
REMARK SMILES CCCC(=O)[O-]
REMARK SMILES IDX 3 1 4 2 5 3 6 4 2 5 1 6
REMARK H PARENT
REMARK Flexibility Score: inf
ROOT
ATOM      1  C   UNL     1       2.743 -30.756   4.935  1.00  0.00     0.052 C 
ENDROOT
BRANCH   1   2
ATOM      2  C   UNL     1       1.954 -30.221   6.090  1.00  0.00     0.041 C 
ATOM      3  O   UNL     1       0.910 -30.812   6.472  1.00  0.00    -0.550 OA
ATOM      4  O   UNL     1       2.390 -29.088   6.766  1.00  0.00    -0.550 OA
ENDBRANCH   1   2
BRANCH   1   5
ATOM      5  C   UNL     1       3.745 -29.724   4.403  1.00  0.00     0.003 C 
ATOM      6  C   UNL     1       3.339 -29.168   3.038  1.00  0.00     0.004 C 
ENDBRANCH   1   5
TORSDOF 2
ENDMDL
MODEL 8
REMARK VINA RESULT:    -3.025     11.383     12.173
REMARK INTER + INTRA:          -3.390
REMARK INTER:                  -3.377
REMARK INTRA:                  -0.012
REMARK UNBOUND:                -0.011
REMARK SMILES CCCC(=O)[O-]
REMARK SMILES IDX 3 1 4 2 5 3 6 4 2 5 1 6
REMARK H PARENT
REMARK Flexibility Score: inf
ROOT
ATOM      1  C   UNL     1       1.311 -27.656   0.855  1.00  0.00     0.052 C 
ENDROOT
BRANCH   1   2
ATOM      2  C   UNL     1       1.127 -26.951  -0.454  1.00  0.00     0.041 C 
ATOM      3  O   UNL     1       0.021 -26.420  -0.736  1.00  0.00    -0.550 OA
ATOM      4  O   UNL     1       2.186 -26.852  -1.347  1.00  0.00    -0.550 OA
ENDBRANCH   1   2
BRANCH   1   5
ATOM      5  C   UNL     1       2.546 -28.566   0.844  1.00  0.00     0.003 C 
ATOM      6  C   UNL     1       3.088 -28.830   2.248  1.00  0.00     0.004 C 
ENDBRANCH   1   5
TORSDOF 2
ENDMDL
MODEL 9
REMARK VINA RESULT:    -2.964     11.191     12.030
REMARK INTER + INTRA:          -3.321
REMARK INTER:                  -3.297
REMARK INTRA:                  -0.024
REMARK UNBOUND:                -0.011
REMARK SMILES CCCC(=O)[O-]
REMARK SMILES IDX 3 1 4 2 5 3 6 4 2 5 1 6
REMARK H PARENT
REMARK Flexibility Score: inf
ROOT
ATOM      1  C   UNL     1      -2.810 -23.731   0.369  1.00  0.00     0.052 C 
ENDROOT
BRANCH   1   2
ATOM      2  C   UNL     1      -4.225 -23.757   0.859  1.00  0.00     0.041 C 
ATOM      3  O   UNL     1      -4.987 -24.709   0.545  1.00  0.00    -0.550 OA
ATOM      4  O   UNL     1      -4.693 -22.747   1.690  1.00  0.00    -0.550 OA
ENDBRANCH   1   2
BRANCH   1   5
ATOM      5  C   UNL     1      -2.363 -25.103  -0.151  1.00  0.00     0.003 C 
ATOM      6  C   UNL     1      -1.574 -25.002  -1.457  1.00  0.00     0.004 C 
ENDBRANCH   1   5
TORSDOF 2
ENDMDL
