MODEL 1
REMARK VINA RESULT:    -5.042      0.000      0.000
REMARK INTER + INTRA:          -8.507
REMARK INTER:                  -7.695
REMARK INTRA:                  -0.812
REMARK UNBOUND:                -0.812
REMARK SMILES O=C([O-])CCCCCCCCC(=O)[O-]
REMARK SMILES IDX 7 1 6 2 5 3 4 4 2 5 1 6 3 7 8 8 9 9 10 10 11 11 12 12 13 13
REMARK SMILES IDX 14 14
REMARK H PARENT
REMARK Flexibility Score: inf
ROOT
ATOM      1  C   UNL     1      16.312  21.461  11.300  1.00  0.00     0.000 C 
ENDROOT
BRANCH   1   2
ATOM      2  C   UNL     1      17.368  20.348  11.163  1.00  0.00     0.000 C 
BRANCH   2   3
ATOM      3  C   UNL     1      18.313  20.236  12.378  1.00  0.00     0.006 C 
BRANCH   3   4
ATOM      4  C   UNL     1      18.151  18.906  13.127  1.00  0.00     0.053 C 
BRANCH   4   5
ATOM      5  C   UNL     1      19.100  18.837  14.282  1.00  0.00     0.041 C 
ATOM      6  O   UNL     1      19.217  19.816  15.065  1.00  0.00    -0.550 OA
ATOM      7  O   UNL     1      19.818  17.673  14.524  1.00  0.00    -0.550 OA
ENDBRANCH   4   5
ENDBRANCH   3   4
ENDBRANCH   2   3
ENDBRANCH   1   2
BRANCH   1   8
ATOM      8  C   UNL     1      15.398  21.346  12.535  1.00  0.00     0.000 C 
BRANCH   8   9
ATOM      9  C   UNL     1      15.343  22.604  13.422  1.00  0.00     0.000 C 
BRANCH   9  10
ATOM     10  C   UNL     1      15.435  22.282  14.924  1.00  0.00     0.006 C 
BRANCH  10  11
ATOM     11  C   UNL     1      15.759  20.804  15.180  1.00  0.00     0.053 C 
BRANCH  11  12
ATOM     12  C   UNL     1      16.043  20.540  16.627  1.00  0.00     0.041 C 
ATOM     13  O   UNL     1      15.335  19.724  17.275  1.00  0.00    -0.550 OA
ATOM     14  O   UNL     1      17.073  21.218  17.269  1.00  0.00    -0.550 OA
ENDBRANCH  11  12
ENDBRANCH  10  11
ENDBRANCH   9  10
ENDBRANCH   8   9
ENDBRANCH   1   8
TORSDOF 9
ENDMDL
MODEL 2
REMARK VINA RESULT:    -5.011      1.334      2.531
REMARK INTER + INTRA:          -8.460
REMARK INTER:                  -7.839
REMARK INTRA:                  -0.620
REMARK UNBOUND:                -0.812
REMARK SMILES O=C([O-])CCCCCCCCC(=O)[O-]
REMARK SMILES IDX 7 1 6 2 5 3 4 4 2 5 1 6 3 7 8 8 9 9 10 10 11 11 12 12 13 13
REMARK SMILES IDX 14 14
REMARK H PARENT
REMARK Flexibility Score: inf
ROOT
ATOM      1  C   UNL     1      18.129  20.287  12.131  1.00  0.00     0.000 C 
ENDROOT
BRANCH   1   2
ATOM      2  C   UNL     1      17.925  19.053  13.029  1.00  0.00     0.000 C 
BRANCH   2   3
ATOM      3  C   UNL     1      19.075  18.817  14.033  1.00  0.00     0.006 C 
BRANCH   3   4
ATOM      4  C   UNL     1      18.598  18.853  15.491  1.00  0.00     0.053 C 
BRANCH   4   5
ATOM      5  C   UNL     1      19.251  19.979  16.228  1.00  0.00     0.041 C 
ATOM      6  O   UNL     1      20.449  20.283  15.986  1.00  0.00    -0.550 OA
ATOM      7  O   UNL     1      18.523  20.725  17.146  1.00  0.00    -0.550 OA
ENDBRANCH   4   5
ENDBRANCH   3   4
ENDBRANCH   2   3
ENDBRANCH   1   2
BRANCH   1   8
ATOM      8  C   UNL     1      17.042  20.503  11.061  1.00  0.00     0.000 C 
BRANCH   8   9
ATOM      9  C   UNL     1      16.009  21.596  11.395  1.00  0.00     0.000 C 
BRANCH   9  10
ATOM     10  C   UNL     1      15.251  21.323  12.705  1.00  0.00     0.006 C 
BRANCH  10  11
ATOM     11  C   UNL     1      15.510  22.407  13.761  1.00  0.00     0.053 C 
BRANCH  11  12
ATOM     12  C   UNL     1      15.512  21.843  15.148  1.00  0.00     0.041 C 
ATOM     13  O   UNL     1      15.525  22.611  16.146  1.00  0.00    -0.550 OA
ATOM     14  O   UNL     1      15.528  20.466  15.339  1.00  0.00    -0.550 OA
ENDBRANCH  11  12
ENDBRANCH  10  11
ENDBRANCH   9  10
ENDBRANCH   8   9
ENDBRANCH   1   8
TORSDOF 9
ENDMDL
MODEL 3
REMARK VINA RESULT:    -4.988     13.063     15.421
REMARK INTER + INTRA:          -8.424
REMARK INTER:                  -7.659
REMARK INTRA:                  -0.765
REMARK UNBOUND:                -0.812
REMARK SMILES O=C([O-])CCCCCCCCC(=O)[O-]
REMARK SMILES IDX 7 1 6 2 5 3 4 4 2 5 1 6 3 7 8 8 9 9 10 10 11 11 12 12 13 13
REMARK SMILES IDX 14 14
REMARK H PARENT
REMARK Flexibility Score: inf
ROOT
ATOM      1  C   UNL     1      27.678  18.873   7.608  1.00  0.00     0.000 C 
ENDROOT
BRANCH   1   2
ATOM      2  C   UNL     1      28.499  20.126   7.968  1.00  0.00     0.000 C 
BRANCH   2   3
ATOM      3  C   UNL     1      29.225  20.024   9.327  1.00  0.00     0.006 C 
BRANCH   3   4
ATOM      4  C   UNL     1      30.663  19.507   9.187  1.00  0.00     0.053 C 
BRANCH   4   5
ATOM      5  C   UNL     1      31.259  19.247  10.534  1.00  0.00     0.041 C 
ATOM      6  O   UNL     1      30.532  19.262  11.562  1.00  0.00    -0.550 OA
ATOM      7  O   UNL     1      32.608  18.937  10.650  1.00  0.00    -0.550 OA
ENDBRANCH   4   5
ENDBRANCH   3   4
ENDBRANCH   2   3
ENDBRANCH   1   2
BRANCH   1   8
ATOM      8  C   UNL     1      27.647  18.522   6.108  1.00  0.00     0.000 C 
BRANCH   8   9
ATOM      9  C   UNL     1      28.516  17.317   5.704  1.00  0.00     0.000 C 
BRANCH   9  10
ATOM     10  C   UNL     1      30.024  17.618   5.768  1.00  0.00     0.006 C 
BRANCH  10  11
ATOM     11  C   UNL     1      30.750  16.726   6.783  1.00  0.00     0.053 C 
BRANCH  11  12
ATOM     12  C   UNL     1      32.221  17.006   6.817  1.00  0.00     0.041 C 
ATOM     13  O   UNL     1      32.807  17.448   5.794  1.00  0.00    -0.550 OA
ATOM     14  O   UNL     1      32.951  16.753   7.973  1.00  0.00    -0.550 OA
ENDBRANCH  11  12
ENDBRANCH  10  11
ENDBRANCH   9  10
ENDBRANCH   8   9
ENDBRANCH   1   8
TORSDOF 9
ENDMDL
MODEL 4
REMARK VINA RESULT:    -4.968     13.790     15.387
REMARK INTER + INTRA:          -8.394
REMARK INTER:                  -7.443
REMARK INTRA:                  -0.951
REMARK UNBOUND:                -0.812
REMARK SMILES O=C([O-])CCCCCCCCC(=O)[O-]
REMARK SMILES IDX 7 1 6 2 5 3 4 4 2 5 1 6 3 7 8 8 9 9 10 10 11 11 12 12 13 13
REMARK SMILES IDX 14 14
REMARK H PARENT
REMARK Flexibility Score: inf
ROOT
ATOM      1  C   UNL     1      27.818  18.596   6.162  1.00  0.00     0.000 C 
ENDROOT
BRANCH   1   2
ATOM      2  C   UNL     1      28.566  17.339   5.677  1.00  0.00     0.000 C 
BRANCH   2   3
ATOM      3  C   UNL     1      30.103  17.459   5.761  1.00  0.00     0.006 C 
BRANCH   3   4
ATOM      4  C   UNL     1      30.694  16.637   6.914  1.00  0.00     0.053 C 
BRANCH   4   5
ATOM      5  C   UNL     1      32.120  17.022   7.154  1.00  0.00     0.041 C 
ATOM      6  O   UNL     1      32.759  17.660   6.278  1.00  0.00    -0.550 OA
ATOM      7  O   UNL     1      32.727  16.719   8.366  1.00  0.00    -0.550 OA
ENDBRANCH   4   5
ENDBRANCH   3   4
ENDBRANCH   2   3
ENDBRANCH   1   2
BRANCH   1   8
ATOM      8  C   UNL     1      27.711  18.742   7.692  1.00  0.00     0.000 C 
BRANCH   8   9
ATOM      9  C   UNL     1      28.287  20.052   8.262  1.00  0.00     0.000 C 
BRANCH   9  10
ATOM     10  C   UNL     1      29.679  19.870   8.892  1.00  0.00     0.006 C 
BRANCH  10  11
ATOM     11  C   UNL     1      30.806  20.273   7.931  1.00  0.00     0.053 C 
BRANCH  11  12
ATOM     12  C   UNL     1      32.001  20.796   8.665  1.00  0.00     0.041 C 
ATOM     13  O   UNL     1      33.067  20.126   8.704  1.00  0.00    -0.550 OA
ATOM     14  O   UNL     1      31.930  22.015   9.331  1.00  0.00    -0.550 OA
ENDBRANCH  11  12
ENDBRANCH  10  11
ENDBRANCH   9  10
ENDBRANCH   8   9
ENDBRANCH   1   8
TORSDOF 9
ENDMDL
MODEL 5
REMARK VINA RESULT:    -4.962      2.726      5.957
REMARK INTER + INTRA:          -8.385
REMARK INTER:                  -8.052
REMARK INTRA:                  -0.333
REMARK UNBOUND:                -0.812
REMARK SMILES O=C([O-])CCCCCCCCC(=O)[O-]
REMARK SMILES IDX 7 1 6 2 5 3 4 4 2 5 1 6 3 7 8 8 9 9 10 10 11 11 12 12 13 13
REMARK SMILES IDX 14 14
REMARK H PARENT
REMARK Flexibility Score: inf
ROOT
ATOM      1  C   UNL     1      15.248  21.887  15.999  1.00  0.00     0.000 C 
ENDROOT
BRANCH   1   2
ATOM      2  C   UNL     1      15.106  23.012  17.042  1.00  0.00     0.000 C 
BRANCH   2   3
ATOM      3  C   UNL     1      14.228  22.629  18.254  1.00  0.00     0.006 C 
BRANCH   3   4
ATOM      4  C   UNL     1      14.373  21.151  18.639  1.00  0.00     0.053 C 
BRANCH   4   5
ATOM      5  C   UNL     1      15.304  21.002  19.801  1.00  0.00     0.041 C 
ATOM      6  O   UNL     1      16.413  20.425  19.654  1.00  0.00    -0.550 OA
ATOM      7  O   UNL     1      14.969  21.546  21.035  1.00  0.00    -0.550 OA
ENDBRANCH   4   5
ENDBRANCH   3   4
ENDBRANCH   2   3
ENDBRANCH   1   2
BRANCH   1   8
ATOM      8  C   UNL     1      14.506  22.131  14.671  1.00  0.00     0.000 C 
BRANCH   8   9
ATOM      9  C   UNL     1      15.417  22.345  13.447  1.00  0.00     0.000 C 
BRANCH   9  10
ATOM     10  C   UNL     1      15.447  21.130  12.504  1.00  0.00     0.006 C 
BRANCH  10  11
ATOM     11  C   UNL     1      16.062  21.471  11.140  1.00  0.00     0.053 C 
BRANCH  11  12
ATOM     12  C   UNL     1      17.367  20.769  10.927  1.00  0.00     0.041 C 
ATOM     13  O   UNL     1      18.052  20.388  11.914  1.00  0.00    -0.550 OA
ATOM     14  O   UNL     1      17.843  20.559   9.638  1.00  0.00    -0.550 OA
ENDBRANCH  11  12
ENDBRANCH  10  11
ENDBRANCH   9  10
ENDBRANCH   8   9
ENDBRANCH   1   8
TORSDOF 9
ENDMDL
MODEL 6
REMARK VINA RESULT:    -4.941      1.559      4.253
REMARK INTER + INTRA:          -8.353
REMARK INTER:                  -7.503
REMARK INTRA:                  -0.850
REMARK UNBOUND:                -0.812
REMARK SMILES O=C([O-])CCCCCCCCC(=O)[O-]
REMARK SMILES IDX 7 1 6 2 5 3 4 4 2 5 1 6 3 7 8 8 9 9 10 10 11 11 12 12 13 13
REMARK SMILES IDX 14 14
REMARK H PARENT
REMARK Flexibility Score: inf
ROOT
ATOM      1  C   UNL     1      15.856  21.793  11.819  1.00  0.00     0.000 C 
ENDROOT
BRANCH   1   2
ATOM      2  C   UNL     1      14.998  21.332  13.012  1.00  0.00     0.000 C 
BRANCH   2   3
ATOM      3  C   UNL     1      15.119  22.242  14.253  1.00  0.00     0.006 C 
BRANCH   3   4
ATOM      4  C   UNL     1      13.875  22.180  15.150  1.00  0.00     0.053 C 
BRANCH   4   5
ATOM      5  C   UNL     1      14.267  21.937  16.573  1.00  0.00     0.041 C 
ATOM      6  O   UNL     1      14.306  20.764  17.027  1.00  0.00    -0.550 OA
ATOM      7  O   UNL     1      14.639  23.003  17.384  1.00  0.00    -0.550 OA
ENDBRANCH   4   5
ENDBRANCH   3   4
ENDBRANCH   2   3
ENDBRANCH   1   2
BRANCH   1   8
ATOM      8  C   UNL     1      16.721  20.693  11.173  1.00  0.00     0.000 C 
BRANCH   8   9
ATOM      9  C   UNL     1      18.050  20.402  11.895  1.00  0.00     0.000 C 
BRANCH   9  10
ATOM     10  C   UNL     1      17.959  19.206  12.858  1.00  0.00     0.006 C 
BRANCH  10  11
ATOM     11  C   UNL     1      18.549  19.527  14.238  1.00  0.00     0.053 C 
BRANCH  11  12
ATOM     12  C   UNL     1      17.484  19.642  15.284  1.00  0.00     0.041 C 
ATOM     13  O   UNL     1      16.471  18.893  15.246  1.00  0.00    -0.550 OA
ATOM     14  O   UNL     1      17.595  20.596  16.289  1.00  0.00    -0.550 OA
ENDBRANCH  11  12
ENDBRANCH  10  11
ENDBRANCH   9  10
ENDBRANCH   8   9
ENDBRANCH   1   8
TORSDOF 9
ENDMDL
MODEL 7
REMARK VINA RESULT:    -4.940     13.303     15.738
REMARK INTER + INTRA:          -8.351
REMARK INTER:                  -7.423
REMARK INTRA:                  -0.928
REMARK UNBOUND:                -0.812
REMARK SMILES O=C([O-])CCCCCCCCC(=O)[O-]
REMARK SMILES IDX 7 1 6 2 5 3 4 4 2 5 1 6 3 7 8 8 9 9 10 10 11 11 12 12 13 13
REMARK SMILES IDX 14 14
REMARK H PARENT
REMARK Flexibility Score: inf
ROOT
ATOM      1  C   UNL     1      28.108  17.392   5.789  1.00  0.00     0.000 C 
ENDROOT
BRANCH   1   2
ATOM      2  C   UNL     1      27.384  18.609   6.395  1.00  0.00     0.000 C 
BRANCH   2   3
ATOM      3  C   UNL     1      27.759  18.886   7.867  1.00  0.00     0.006 C 
BRANCH   3   4
ATOM      4  C   UNL     1      28.480  20.228   8.047  1.00  0.00     0.053 C 
BRANCH   4   5
ATOM      5  C   UNL     1      29.906  20.006   8.442  1.00  0.00     0.041 C 
ATOM      6  O   UNL     1      30.838  20.362   7.675  1.00  0.00    -0.550 OA
ATOM      7  O   UNL     1      30.207  19.453   9.681  1.00  0.00    -0.550 OA
ENDBRANCH   4   5
ENDBRANCH   3   4
ENDBRANCH   2   3
ENDBRANCH   1   2
BRANCH   1   8
ATOM      8  C   UNL     1      29.636  17.539   5.658  1.00  0.00     0.000 C 
BRANCH   8   9
ATOM      9  C   UNL     1      30.459  16.634   6.595  1.00  0.00     0.000 C 
BRANCH   9  10
ATOM     10  C   UNL     1      31.919  17.097   6.743  1.00  0.00     0.006 C 
BRANCH  10  11
ATOM     11  C   UNL     1      32.415  16.991   8.192  1.00  0.00     0.053 C 
BRANCH  11  12
ATOM     12  C   UNL     1      33.384  18.083   8.528  1.00  0.00     0.041 C 
ATOM     13  O   UNL     1      34.124  18.573   7.635  1.00  0.00    -0.550 OA
ATOM     14  O   UNL     1      33.489  18.540   9.837  1.00  0.00    -0.550 OA
ENDBRANCH  11  12
ENDBRANCH  10  11
ENDBRANCH   9  10
ENDBRANCH   8   9
ENDBRANCH   1   8
TORSDOF 9
ENDMDL
MODEL 8
REMARK VINA RESULT:    -4.915     13.399     15.082
REMARK INTER + INTRA:          -8.313
REMARK INTER:                  -7.351
REMARK INTRA:                  -0.962
REMARK UNBOUND:                -0.812
REMARK SMILES O=C([O-])CCCCCCCCC(=O)[O-]
REMARK SMILES IDX 7 1 6 2 5 3 4 4 2 5 1 6 3 7 8 8 9 9 10 10 11 11 12 12 13 13
REMARK SMILES IDX 14 14
REMARK H PARENT
REMARK Flexibility Score: inf
ROOT
ATOM      1  C   UNL     1      28.084  17.567   5.755  1.00  0.00     0.000 C 
ENDROOT
BRANCH   1   2
ATOM      2  C   UNL     1      29.606  17.758   5.609  1.00  0.00     0.000 C 
BRANCH   2   3
ATOM      3  C   UNL     1      30.437  16.596   6.192  1.00  0.00     0.006 C 
BRANCH   3   4
ATOM      4  C   UNL     1      31.265  17.021   7.412  1.00  0.00     0.053 C 
BRANCH   4   5
ATOM      5  C   UNL     1      32.588  17.570   6.981  1.00  0.00     0.041 C 
ATOM      6  O   UNL     1      33.074  18.578   7.559  1.00  0.00    -0.550 OA
ATOM      7  O   UNL     1      33.309  16.938   5.976  1.00  0.00    -0.550 OA
ENDBRANCH   4   5
ENDBRANCH   3   4
ENDBRANCH   2   3
ENDBRANCH   1   2
BRANCH   1   8
ATOM      8  C   UNL     1      27.451  18.274   6.970  1.00  0.00     0.000 C 
BRANCH   8   9
ATOM      9  C   UNL     1      28.091  19.624   7.342  1.00  0.00     0.000 C 
BRANCH   9  10
ATOM     10  C   UNL     1      28.720  19.622   8.746  1.00  0.00     0.006 C 
BRANCH  10  11
ATOM     11  C   UNL     1      30.114  20.263   8.758  1.00  0.00     0.053 C 
BRANCH  11  12
ATOM     12  C   UNL     1      30.786  20.109  10.087  1.00  0.00     0.041 C 
ATOM     13  O   UNL     1      30.915  21.101  10.853  1.00  0.00    -0.550 OA
ATOM     14  O   UNL     1      31.296  18.873  10.469  1.00  0.00    -0.550 OA
ENDBRANCH  11  12
ENDBRANCH  10  11
ENDBRANCH   9  10
ENDBRANCH   8   9
ENDBRANCH   1   8
TORSDOF 9
ENDMDL
MODEL 9
REMARK VINA RESULT:    -4.870      2.743      4.253
REMARK INTER + INTRA:          -8.244
REMARK INTER:                  -7.733
REMARK INTRA:                  -0.511
REMARK UNBOUND:                -0.812
REMARK SMILES O=C([O-])CCCCCCCCC(=O)[O-]
REMARK SMILES IDX 7 1 6 2 5 3 4 4 2 5 1 6 3 7 8 8 9 9 10 10 11 11 12 12 13 13
REMARK SMILES IDX 14 14
REMARK H PARENT
REMARK Flexibility Score: inf
ROOT
ATOM      1  C   UNL     1      15.397  21.703  15.895  1.00  0.00     0.000 C 
ENDROOT
BRANCH   1   2
ATOM      2  C   UNL     1      14.411  21.880  14.726  1.00  0.00     0.000 C 
BRANCH   2   3
ATOM      3  C   UNL     1      14.797  21.083  13.461  1.00  0.00     0.006 C 
BRANCH   3   4
ATOM      4  C   UNL     1      15.586  21.929  12.453  1.00  0.00     0.053 C 
BRANCH   4   5
ATOM      5  C   UNL     1      16.747  21.153  11.915  1.00  0.00     0.041 C 
ATOM      6  O   UNL     1      17.197  21.401  10.766  1.00  0.00    -0.550 OA
ATOM      7  O   UNL     1      17.365  20.191  12.704  1.00  0.00    -0.550 OA
ENDBRANCH   4   5
ENDBRANCH   3   4
ENDBRANCH   2   3
ENDBRANCH   1   2
BRANCH   1   8
ATOM      8  C   UNL     1      15.376  22.831  16.945  1.00  0.00     0.000 C 
BRANCH   8   9
ATOM      9  C   UNL     1      14.135  22.846  17.857  1.00  0.00     0.000 C 
BRANCH   9  10
ATOM     10  C   UNL     1      13.955  21.536  18.644  1.00  0.00     0.006 C 
BRANCH  10  11
ATOM     11  C   UNL     1      14.772  21.524  19.944  1.00  0.00     0.053 C 
BRANCH  11  12
ATOM     12  C   UNL     1      15.758  20.397  19.969  1.00  0.00     0.041 C 
ATOM     13  O   UNL     1      16.776  20.427  19.228  1.00  0.00    -0.550 OA
ATOM     14  O   UNL     1      15.539  19.299  20.794  1.00  0.00    -0.550 OA
ENDBRANCH  11  12
ENDBRANCH  10  11
ENDBRANCH   9  10
ENDBRANCH   8   9
ENDBRANCH   1   8
TORSDOF 9
ENDMDL
