MODEL 1
REMARK VINA RESULT:    -4.225      0.000      0.000
REMARK INTER + INTRA:          -5.819
REMARK INTER:                  -5.707
REMARK INTRA:                  -0.112
REMARK UNBOUND:                -0.112
REMARK SMILES [NH3+]CCCC[C@@H]([NH3+])C(=O)[O-]
REMARK SMILES IDX 4 1 3 2 2 3 1 4 5 8 6 9 7 10 8 14 9 15 10 16
REMARK H PARENT 1 5 1 6 1 7 7 11 7 12 7 13
REMARK Flexibility Score: inf
ROOT
ATOM      1  C   UNL     1       7.536  -2.342  -0.471  1.00  0.00     0.012 C 
ENDROOT
BRANCH   1   2
ATOM      2  C   UNL     1       6.803  -1.908   0.807  1.00  0.00     0.061 C 
BRANCH   2   3
ATOM      3  C   UNL     1       7.480  -0.716   1.503  1.00  0.00     0.258 C 
BRANCH   3   4
ATOM      4  N   UNL     1       6.505   0.072   2.254  1.00  0.00    -0.358 N 
ATOM      5  H   UNL     1       6.157  -0.473   3.077  1.00  0.00     0.344 HD
ATOM      6  H   UNL     1       6.962   0.947   2.599  1.00  0.00     0.344 HD
ATOM      7  H   UNL     1       5.701   0.331   1.637  1.00  0.00     0.344 HD
ENDBRANCH   3   4
ENDBRANCH   2   3
ENDBRANCH   1   2
BRANCH   1   8
ATOM      8  C   UNL     1       7.995  -1.148  -1.327  1.00  0.00     0.072 C 
BRANCH   8   9
ATOM      9  C   UNL     1       7.889  -1.440  -2.840  1.00  0.00     0.227 C 
BRANCH   9  10
ATOM     10  N   UNL     1       6.587  -2.040  -3.156  1.00  0.00    -0.350 N 
ATOM     11  H   UNL     1       5.936  -1.305  -3.517  1.00  0.00     0.345 HD
ATOM     12  H   UNL     1       6.704  -2.766  -3.900  1.00  0.00     0.345 HD
ATOM     13  H   UNL     1       6.169  -2.485  -2.306  1.00  0.00     0.345 HD
ENDBRANCH   9  10
BRANCH   9  14
ATOM     14  C   UNL     1       8.086  -0.182  -3.647  1.00  0.00     0.099 C 
ATOM     15  O   UNL     1       8.868   0.716  -3.238  1.00  0.00    -0.544 OA
ATOM     16  O   UNL     1       7.404  -0.004  -4.845  1.00  0.00    -0.544 OA
ENDBRANCH   9  14
ENDBRANCH   8   9
ENDBRANCH   1   8
TORSDOF 7
ENDMDL
MODEL 2
REMARK VINA RESULT:    -4.146     11.581     12.961
REMARK INTER + INTRA:          -5.712
REMARK INTER:                  -5.527
REMARK INTRA:                  -0.185
REMARK UNBOUND:                -0.112
REMARK SMILES [NH3+]CCCC[C@@H]([NH3+])C(=O)[O-]
REMARK SMILES IDX 4 1 3 2 2 3 1 4 5 8 6 9 7 10 8 14 9 15 10 16
REMARK H PARENT 1 5 1 6 1 7 7 11 7 12 7 13
REMARK Flexibility Score: inf
ROOT
ATOM      1  C   UNL     1      -1.045  -5.414   9.051  1.00  0.00     0.012 C 
ENDROOT
BRANCH   1   2
ATOM      2  C   UNL     1      -1.957  -4.448   9.821  1.00  0.00     0.061 C 
BRANCH   2   3
ATOM      3  C   UNL     1      -3.305  -4.217   9.118  1.00  0.00     0.258 C 
BRANCH   3   4
ATOM      4  N   UNL     1      -3.816  -5.463   8.549  1.00  0.00    -0.358 N 
ATOM      5  H   UNL     1      -3.278  -5.713   7.687  1.00  0.00     0.344 HD
ATOM      6  H   UNL     1      -3.705  -6.231   9.250  1.00  0.00     0.344 HD
ATOM      7  H   UNL     1      -4.831  -5.362   8.316  1.00  0.00     0.344 HD
ENDBRANCH   3   4
ENDBRANCH   2   3
ENDBRANCH   1   2
BRANCH   1   8
ATOM      8  C   UNL     1       0.283  -4.763   8.624  1.00  0.00     0.072 C 
BRANCH   8   9
ATOM      9  C   UNL     1       0.529  -4.885   7.104  1.00  0.00     0.227 C 
BRANCH   9  10
ATOM     10  N   UNL     1      -0.745  -5.007   6.386  1.00  0.00    -0.350 N 
ATOM     11  H   UNL     1      -0.589  -4.867   5.361  1.00  0.00     0.345 HD
ATOM     12  H   UNL     1      -1.141  -5.965   6.527  1.00  0.00     0.345 HD
ATOM     13  H   UNL     1      -1.433  -4.298   6.731  1.00  0.00     0.345 HD
ENDBRANCH   9  10
BRANCH   9  14
ATOM     14  C   UNL     1       1.301  -3.699   6.585  1.00  0.00     0.099 C 
ATOM     15  O   UNL     1       1.509  -2.705   7.328  1.00  0.00    -0.544 OA
ATOM     16  O   UNL     1       1.786  -3.694   5.282  1.00  0.00    -0.544 OA
ENDBRANCH   9  14
ENDBRANCH   8   9
ENDBRANCH   1   8
TORSDOF 7
ENDMDL
MODEL 3
REMARK VINA RESULT:    -4.091      3.466      5.343
REMARK INTER + INTRA:          -5.638
REMARK INTER:                  -5.557
REMARK INTRA:                  -0.082
REMARK UNBOUND:                -0.112
REMARK SMILES [NH3+]CCCC[C@@H]([NH3+])C(=O)[O-]
REMARK SMILES IDX 4 1 3 2 2 3 1 4 5 8 6 9 7 10 8 14 9 15 10 16
REMARK H PARENT 1 5 1 6 1 7 7 11 7 12 7 13
REMARK Flexibility Score: inf
ROOT
ATOM      1  C   UNL     1       7.541  -1.885  -0.731  1.00  0.00     0.012 C 
ENDROOT
BRANCH   1   2
ATOM      2  C   UNL     1       8.163  -0.854  -1.685  1.00  0.00     0.061 C 
BRANCH   2   3
ATOM      3  C   UNL     1       7.686  -1.025  -3.137  1.00  0.00     0.258 C 
BRANCH   3   4
ATOM      4  N   UNL     1       6.623  -2.025  -3.221  1.00  0.00    -0.358 N 
ATOM      5  H   UNL     1       7.010  -2.980  -3.038  1.00  0.00     0.344 HD
ATOM      6  H   UNL     1       5.895  -1.812  -2.502  1.00  0.00     0.344 HD
ATOM      7  H   UNL     1       6.180  -1.999  -4.169  1.00  0.00     0.344 HD
ENDBRANCH   3   4
ENDBRANCH   2   3
ENDBRANCH   1   2
BRANCH   1   8
ATOM      8  C   UNL     1       7.606  -1.444   0.742  1.00  0.00     0.072 C 
BRANCH   8   9
ATOM      9  C   UNL     1       6.251  -1.618   1.463  1.00  0.00     0.227 C 
BRANCH   9  10
ATOM     10  N   UNL     1       6.003  -3.035   1.754  1.00  0.00    -0.350 N 
ATOM     11  H   UNL     1       6.235  -3.238   2.753  1.00  0.00     0.345 HD
ATOM     12  H   UNL     1       4.991  -3.255   1.603  1.00  0.00     0.345 HD
ATOM     13  H   UNL     1       6.582  -3.647   1.133  1.00  0.00     0.345 HD
ENDBRANCH   9  10
BRANCH   9  14
ATOM     14  C   UNL     1       6.212  -0.816   2.739  1.00  0.00     0.099 C 
ATOM     15  O   UNL     1       5.221  -0.902   3.509  1.00  0.00    -0.544 OA
ATOM     16  O   UNL     1       7.268   0.026   3.071  1.00  0.00    -0.544 OA
ENDBRANCH   9  14
ENDBRANCH   8   9
ENDBRANCH   1   8
TORSDOF 7
ENDMDL
MODEL 4
REMARK VINA RESULT:    -4.070      2.211      2.848
REMARK INTER + INTRA:          -5.609
REMARK INTER:                  -5.124
REMARK INTRA:                  -0.485
REMARK UNBOUND:                -0.112
REMARK SMILES [NH3+]CCCC[C@@H]([NH3+])C(=O)[O-]
REMARK SMILES IDX 4 1 3 2 2 3 1 4 5 8 6 9 7 10 8 14 9 15 10 16
REMARK H PARENT 1 5 1 6 1 7 7 11 7 12 7 13
REMARK Flexibility Score: inf
ROOT
ATOM      1  C   UNL     1       9.735  -1.134  -1.349  1.00  0.00     0.012 C 
ENDROOT
BRANCH   1   2
ATOM      2  C   UNL     1       8.394  -0.862  -0.650  1.00  0.00     0.061 C 
BRANCH   2   3
ATOM      3  C   UNL     1       7.671  -2.152  -0.230  1.00  0.00     0.258 C 
BRANCH   3   4
ATOM      4  N   UNL     1       7.770  -3.169  -1.276  1.00  0.00    -0.358 N 
ATOM      5  H   UNL     1       7.157  -2.914  -2.085  1.00  0.00     0.344 HD
ATOM      6  H   UNL     1       8.760  -3.225  -1.607  1.00  0.00     0.344 HD
ATOM      7  H   UNL     1       7.486  -4.102  -0.897  1.00  0.00     0.344 HD
ENDBRANCH   3   4
ENDBRANCH   2   3
ENDBRANCH   1   2
BRANCH   1   8
ATOM      8  C   UNL     1       9.727  -0.716  -2.830  1.00  0.00     0.072 C 
BRANCH   8   9
ATOM      9  C   UNL     1       8.509   0.166  -3.181  1.00  0.00     0.227 C 
BRANCH   9  10
ATOM     10  N   UNL     1       8.948   1.441  -3.760  1.00  0.00    -0.350 N 
ATOM     11  H   UNL     1       8.792   2.216  -3.075  1.00  0.00     0.345 HD
ATOM     12  H   UNL     1       9.970   1.398  -3.976  1.00  0.00     0.345 HD
ATOM     13  H   UNL     1       8.421   1.648  -4.641  1.00  0.00     0.345 HD
ENDBRANCH   9  10
BRANCH   9  14
ATOM     14  C   UNL     1       7.585  -0.544  -4.138  1.00  0.00     0.099 C 
ATOM     15  O   UNL     1       7.232   0.016  -5.208  1.00  0.00    -0.544 OA
ATOM     16  O   UNL     1       7.116  -1.819  -3.843  1.00  0.00    -0.544 OA
ENDBRANCH   9  14
ENDBRANCH   8   9
ENDBRANCH   1   8
TORSDOF 7
ENDMDL
MODEL 5
REMARK VINA RESULT:    -4.024     11.013     12.556
REMARK INTER + INTRA:          -5.547
REMARK INTER:                  -5.049
REMARK INTRA:                  -0.498
REMARK UNBOUND:                -0.112
REMARK SMILES [NH3+]CCCC[C@@H]([NH3+])C(=O)[O-]
REMARK SMILES IDX 4 1 3 2 2 3 1 4 5 8 6 9 7 10 8 14 9 15 10 16
REMARK H PARENT 1 5 1 6 1 7 7 11 7 12 7 13
REMARK Flexibility Score: inf
ROOT
ATOM      1  C   UNL     1      -0.665  -3.311   9.526  1.00  0.00     0.012 C 
ENDROOT
BRANCH   1   2
ATOM      2  C   UNL     1      -1.266  -4.720   9.639  1.00  0.00     0.061 C 
BRANCH   2   3
ATOM      3  C   UNL     1      -2.501  -4.912   8.744  1.00  0.00     0.258 C 
BRANCH   3   4
ATOM      4  N   UNL     1      -2.110  -5.331   7.398  1.00  0.00    -0.358 N 
ATOM      5  H   UNL     1      -2.546  -4.702   6.684  1.00  0.00     0.344 HD
ATOM      6  H   UNL     1      -1.070  -5.271   7.310  1.00  0.00     0.344 HD
ATOM      7  H   UNL     1      -2.408  -6.319   7.229  1.00  0.00     0.344 HD
ENDBRANCH   3   4
ENDBRANCH   2   3
ENDBRANCH   1   2
BRANCH   1   8
ATOM      8  C   UNL     1       0.700  -3.304   8.815  1.00  0.00     0.072 C 
BRANCH   8   9
ATOM      9  C   UNL     1       0.601  -2.771   7.368  1.00  0.00     0.227 C 
BRANCH   9  10
ATOM     10  N   UNL     1       1.386  -1.540   7.221  1.00  0.00    -0.350 N 
ATOM     11  H   UNL     1       2.141  -1.511   7.944  1.00  0.00     0.345 HD
ATOM     12  H   UNL     1       1.838  -1.519   6.277  1.00  0.00     0.345 HD
ATOM     13  H   UNL     1       0.775  -0.697   7.327  1.00  0.00     0.345 HD
ENDBRANCH   9  10
BRANCH   9  14
ATOM     14  C   UNL     1       1.074  -3.805   6.379  1.00  0.00     0.099 C 
ATOM     15  O   UNL     1       0.596  -4.969   6.403  1.00  0.00    -0.544 OA
ATOM     16  O   UNL     1       2.043  -3.481   5.436  1.00  0.00    -0.544 OA
ENDBRANCH   9  14
ENDBRANCH   8   9
ENDBRANCH   1   8
TORSDOF 7
ENDMDL
MODEL 6
REMARK VINA RESULT:    -3.973      3.744      6.303
REMARK INTER + INTRA:          -5.478
REMARK INTER:                  -5.319
REMARK INTRA:                  -0.160
REMARK UNBOUND:                -0.112
REMARK SMILES [NH3+]CCCC[C@@H]([NH3+])C(=O)[O-]
REMARK SMILES IDX 4 1 3 2 2 3 1 4 5 8 6 9 7 10 8 14 9 15 10 16
REMARK H PARENT 1 5 1 6 1 7 7 11 7 12 7 13
REMARK Flexibility Score: inf
ROOT
ATOM      1  C   UNL     1       8.931   0.952  -6.568  1.00  0.00     0.012 C 
ENDROOT
BRANCH   1   2
ATOM      2  C   UNL     1       8.379   0.598  -7.957  1.00  0.00     0.061 C 
BRANCH   2   3
ATOM      3  C   UNL     1       7.106  -0.260  -7.889  1.00  0.00     0.258 C 
BRANCH   3   4
ATOM      4  N   UNL     1       5.937   0.507  -8.316  1.00  0.00    -0.358 N 
ATOM      5  H   UNL     1       6.129   1.532  -8.234  1.00  0.00     0.344 HD
ATOM      6  H   UNL     1       5.725   0.282  -9.314  1.00  0.00     0.344 HD
ATOM      7  H   UNL     1       5.108   0.255  -7.729  1.00  0.00     0.344 HD
ENDBRANCH   3   4
ENDBRANCH   2   3
ENDBRANCH   1   2
BRANCH   1   8
ATOM      8  C   UNL     1       9.150  -0.288  -5.683  1.00  0.00     0.072 C 
BRANCH   8   9
ATOM      9  C   UNL     1       9.060   0.046  -4.178  1.00  0.00     0.227 C 
BRANCH   9  10
ATOM     10  N   UNL     1       9.050   1.499  -3.975  1.00  0.00    -0.350 N 
ATOM     11  H   UNL     1       9.941   1.914  -4.334  1.00  0.00     0.345 HD
ATOM     12  H   UNL     1       8.255   1.925  -4.506  1.00  0.00     0.345 HD
ATOM     13  H   UNL     1       8.945   1.730  -2.959  1.00  0.00     0.345 HD
ENDBRANCH   9  10
BRANCH   9  14
ATOM     14  C   UNL     1       7.830  -0.569  -3.560  1.00  0.00     0.099 C 
ATOM     15  O   UNL     1       7.134  -1.387  -4.217  1.00  0.00    -0.544 OA
ATOM     16  O   UNL     1       7.455  -0.235  -2.264  1.00  0.00    -0.544 OA
ENDBRANCH   9  14
ENDBRANCH   8   9
ENDBRANCH   1   8
TORSDOF 7
ENDMDL
MODEL 7
REMARK VINA RESULT:    -3.963      4.282      5.765
REMARK INTER + INTRA:          -5.465
REMARK INTER:                  -5.307
REMARK INTRA:                  -0.158
REMARK UNBOUND:                -0.112
REMARK SMILES [NH3+]CCCC[C@@H]([NH3+])C(=O)[O-]
REMARK SMILES IDX 4 1 3 2 2 3 1 4 5 8 6 9 7 10 8 14 9 15 10 16
REMARK H PARENT 1 5 1 6 1 7 7 11 7 12 7 13
REMARK Flexibility Score: inf
ROOT
ATOM      1  C   UNL     1       6.195  -1.847   5.110  1.00  0.00     0.012 C 
ENDROOT
BRANCH   1   2
ATOM      2  C   UNL     1       5.167  -0.735   5.372  1.00  0.00     0.061 C 
BRANCH   2   3
ATOM      3  C   UNL     1       3.879  -1.260   6.026  1.00  0.00     0.258 C 
BRANCH   3   4
ATOM      4  N   UNL     1       2.932  -0.171   6.259  1.00  0.00    -0.358 N 
ATOM      5  H   UNL     1       2.139  -0.505   6.856  1.00  0.00     0.344 HD
ATOM      6  H   UNL     1       3.421   0.608   6.755  1.00  0.00     0.344 HD
ATOM      7  H   UNL     1       2.562   0.185   5.348  1.00  0.00     0.344 HD
ENDBRANCH   3   4
ENDBRANCH   2   3
ENDBRANCH   1   2
BRANCH   1   8
ATOM      8  C   UNL     1       7.071  -1.565   3.876  1.00  0.00     0.072 C 
BRANCH   8   9
ATOM      9  C   UNL     1       6.240  -1.078   2.669  1.00  0.00     0.227 C 
BRANCH   9  10
ATOM     10  N   UNL     1       6.719   0.230   2.210  1.00  0.00    -0.350 N 
ATOM     11  H   UNL     1       6.351   0.983   2.837  1.00  0.00     0.345 HD
ATOM     12  H   UNL     1       7.764   0.258   2.248  1.00  0.00     0.345 HD
ATOM     13  H   UNL     1       6.407   0.415   1.228  1.00  0.00     0.345 HD
ENDBRANCH   9  10
BRANCH   9  14
ATOM     14  C   UNL     1       6.297  -2.073   1.538  1.00  0.00     0.099 C 
ATOM     15  O   UNL     1       6.110  -1.694   0.352  1.00  0.00    -0.544 OA
ATOM     16  O   UNL     1       6.553  -3.415   1.796  1.00  0.00    -0.544 OA
ENDBRANCH   9  14
ENDBRANCH   8   9
ENDBRANCH   1   8
TORSDOF 7
ENDMDL
MODEL 8
REMARK VINA RESULT:    -3.916      9.862     10.544
REMARK INTER + INTRA:          -5.402
REMARK INTER:                  -4.964
REMARK INTRA:                  -0.438
REMARK UNBOUND:                -0.112
REMARK SMILES [NH3+]CCCC[C@@H]([NH3+])C(=O)[O-]
REMARK SMILES IDX 4 1 3 2 2 3 1 4 5 8 6 9 7 10 8 14 9 15 10 16
REMARK H PARENT 1 5 1 6 1 7 7 11 7 12 7 13
REMARK Flexibility Score: inf
ROOT
ATOM      1  C   UNL     1       1.055   6.743   0.262  1.00  0.00     0.012 C 
ENDROOT
BRANCH   1   2
ATOM      2  C   UNL     1      -0.237   6.792  -0.568  1.00  0.00     0.061 C 
BRANCH   2   3
ATOM      3  C   UNL     1      -0.065   6.185  -1.969  1.00  0.00     0.258 C 
BRANCH   3   4
ATOM      4  N   UNL     1       0.727   7.067  -2.826  1.00  0.00    -0.358 N 
ATOM      5  H   UNL     1       0.114   7.511  -3.549  1.00  0.00     0.344 HD
ATOM      6  H   UNL     1       1.156   7.818  -2.241  1.00  0.00     0.344 HD
ATOM      7  H   UNL     1       1.489   6.524  -3.294  1.00  0.00     0.344 HD
ENDBRANCH   3   4
ENDBRANCH   2   3
ENDBRANCH   1   2
BRANCH   1   8
ATOM      8  C   UNL     1       1.650   8.140   0.516  1.00  0.00     0.072 C 
BRANCH   8   9
ATOM      9  C   UNL     1       3.194   8.127   0.501  1.00  0.00     0.227 C 
BRANCH   9  10
ATOM     10  N   UNL     1       3.703   6.914   1.151  1.00  0.00    -0.350 N 
ATOM     11  H   UNL     1       4.686   7.070   1.474  1.00  0.00     0.345 HD
ATOM     12  H   UNL     1       3.118   6.688   1.988  1.00  0.00     0.345 HD
ATOM     13  H   UNL     1       3.682   6.103   0.489  1.00  0.00     0.345 HD
ENDBRANCH   9  10
BRANCH   9  14
ATOM     14  C   UNL     1       3.721   8.217  -0.908  1.00  0.00     0.099 C 
ATOM     15  O   UNL     1       4.857   7.752  -1.189  1.00  0.00    -0.544 OA
ATOM     16  O   UNL     1       2.959   8.815  -1.905  1.00  0.00    -0.544 OA
ENDBRANCH   9  14
ENDBRANCH   8   9
ENDBRANCH   1   8
TORSDOF 7
ENDMDL
MODEL 9
REMARK VINA RESULT:    -3.914      2.694      4.376
REMARK INTER + INTRA:          -5.399
REMARK INTER:                  -4.877
REMARK INTRA:                  -0.522
REMARK UNBOUND:                -0.112
REMARK SMILES [NH3+]CCCC[C@@H]([NH3+])C(=O)[O-]
REMARK SMILES IDX 4 1 3 2 2 3 1 4 5 8 6 9 7 10 8 14 9 15 10 16
REMARK H PARENT 1 5 1 6 1 7 7 11 7 12 7 13
REMARK Flexibility Score: inf
ROOT
ATOM      1  C   UNL     1       8.294  -1.855  -4.659  1.00  0.00     0.012 C 
ENDROOT
BRANCH   1   2
ATOM      2  C   UNL     1       7.845  -0.398  -4.847  1.00  0.00     0.061 C 
BRANCH   2   3
ATOM      3  C   UNL     1       9.027   0.582  -4.924  1.00  0.00     0.258 C 
BRANCH   3   4
ATOM      4  N   UNL     1       9.005   1.514  -3.797  1.00  0.00    -0.358 N 
ATOM      5  H   UNL     1       8.329   2.290  -3.986  1.00  0.00     0.344 HD
ATOM      6  H   UNL     1       8.702   1.004  -2.936  1.00  0.00     0.344 HD
ATOM      7  H   UNL     1       9.961   1.908  -3.638  1.00  0.00     0.344 HD
ENDBRANCH   3   4
ENDBRANCH   2   3
ENDBRANCH   1   2
BRANCH   1   8
ATOM      8  C   UNL     1       8.915  -2.110  -3.273  1.00  0.00     0.072 C 
BRANCH   8   9
ATOM      9  C   UNL     1       7.863  -2.059  -2.144  1.00  0.00     0.227 C 
BRANCH   9  10
ATOM     10  N   UNL     1       7.795  -3.349  -1.447  1.00  0.00    -0.350 N 
ATOM     11  H   UNL     1       8.615  -3.449  -0.806  1.00  0.00     0.345 HD
ATOM     12  H   UNL     1       6.923  -3.394  -0.871  1.00  0.00     0.345 HD
ATOM     13  H   UNL     1       7.793  -4.140  -2.133  1.00  0.00     0.345 HD
ENDBRANCH   9  10
BRANCH   9  14
ATOM     14  C   UNL     1       8.177  -0.959  -1.163  1.00  0.00     0.099 C 
ATOM     15  O   UNL     1       9.165  -0.203  -1.355  1.00  0.00    -0.544 OA
ATOM     16  O   UNL     1       7.380  -0.774  -0.039  1.00  0.00    -0.544 OA
ENDBRANCH   9  14
ENDBRANCH   8   9
ENDBRANCH   1   8
TORSDOF 7
ENDMDL
