MODEL 1
REMARK VINA RESULT:    -5.792      0.000      0.000
REMARK INTER + INTRA:         -11.337
REMARK INTER:                  -8.840
REMARK INTRA:                  -2.497
REMARK UNBOUND:                -2.497
REMARK SMILES CC(=O)CCC=C(C)CCC=C(C)CCC=C(C)C
REMARK SMILES IDX 10 1 11 2 12 3 13 4 14 5 15 6 16 7 18 8 17 9 19 10 9 11 7 12
REMARK SMILES IDX 6 13 8 14 5 15 4 16 2 17 3 18 1 19
REMARK H PARENT
REMARK Flexibility Score: inf
ROOT
ATOM      1  C   UNL     1     102.761 131.330  50.397  1.00  0.00     0.032 C 
ENDROOT
BRANCH   1   2
ATOM      2  C   UNL     1     101.398 131.531  51.010  1.00  0.00    -0.028 C 
ATOM      3  C   UNL     1     101.117 131.358  52.321  1.00  0.00    -0.077 C 
ATOM      4  C   UNL     1     102.185 130.990  53.325  1.00  0.00     0.039 C 
BRANCH   3   5
ATOM      5  C   UNL     1      99.696 131.558  52.802  1.00  0.00     0.034 C 
BRANCH   5   6
ATOM      6  C   UNL     1      99.653 132.536  53.980  1.00  0.00     0.032 C 
BRANCH   6   7
ATOM      7  C   UNL     1     100.086 133.915  53.546  1.00  0.00    -0.028 C 
ATOM      8  C   UNL     1     101.813 134.116  55.349  1.00  0.00     0.039 C 
ATOM      9  C   UNL     1     101.037 134.647  54.166  1.00  0.00    -0.080 C 
ATOM     10  C   UNL     1     101.336 136.028  53.641  1.00  0.00     0.039 C 
ENDBRANCH   6   7
ENDBRANCH   5   6
ENDBRANCH   3   5
ENDBRANCH   1   2
BRANCH   1  11
ATOM     11  C   UNL     1     103.235 132.606  49.693  1.00  0.00     0.034 C 
BRANCH  11  12
ATOM     12  C   UNL     1     103.462 133.720  50.691  1.00  0.00    -0.077 C 
ATOM     13  C   UNL     1     104.363 133.537  51.682  1.00  0.00    -0.028 C 
ATOM     14  C   UNL     1     102.669 135.000  50.559  1.00  0.00     0.039 C 
BRANCH  13  15
ATOM     15  C   UNL     1     104.717 134.574  52.719  1.00  0.00     0.035 C 
BRANCH  15  16
ATOM     16  C   UNL     1     105.231 133.910  54.000  1.00  0.00     0.079 C 
BRANCH  16  17
ATOM     17  C   UNL     1     106.665 133.476  53.835  1.00  0.00     0.130 C 
ATOM     18  O   UNL     1     107.023 132.402  54.294  1.00  0.00    -0.300 OA
ATOM     19  C   UNL     1     107.667 134.341  53.129  1.00  0.00     0.087 C 
ENDBRANCH  16  17
ENDBRANCH  15  16
ENDBRANCH  13  15
ENDBRANCH  11  12
ENDBRANCH   1  11
TORSDOF 9
ENDMDL
MODEL 2
REMARK VINA RESULT:    -5.770      1.319      2.727
REMARK INTER + INTRA:         -11.302
REMARK INTER:                  -8.542
REMARK INTRA:                  -2.761
REMARK UNBOUND:                -2.497
REMARK SMILES CC(=O)CCC=C(C)CCC=C(C)CCC=C(C)C
REMARK SMILES IDX 10 1 11 2 12 3 13 4 14 5 15 6 16 7 18 8 17 9 19 10 9 11 7 12
REMARK SMILES IDX 6 13 8 14 5 15 4 16 2 17 3 18 1 19
REMARK H PARENT
REMARK Flexibility Score: inf
ROOT
ATOM      1  C   UNL     1     101.577 135.038  50.087  1.00  0.00     0.032 C 
ENDROOT
BRANCH   1   2
ATOM      2  C   UNL     1     101.177 133.764  50.786  1.00  0.00    -0.028 C 
ATOM      3  C   UNL     1     101.911 132.629  50.785  1.00  0.00    -0.077 C 
ATOM      4  C   UNL     1     103.261 132.551  50.109  1.00  0.00     0.039 C 
BRANCH   3   5
ATOM      5  C   UNL     1     101.376 131.405  51.498  1.00  0.00     0.034 C 
BRANCH   5   6
ATOM      6  C   UNL     1     100.119 131.752  52.303  1.00  0.00     0.032 C 
BRANCH   6   7
ATOM      7  C   UNL     1     100.476 132.109  53.724  1.00  0.00    -0.028 C 
ATOM      8  C   UNL     1      99.157 134.238  53.692  1.00  0.00     0.039 C 
ATOM      9  C   UNL     1     100.073 133.234  54.354  1.00  0.00    -0.080 C 
ATOM     10  C   UNL     1     100.542 133.475  55.765  1.00  0.00     0.039 C 
ENDBRANCH   6   7
ENDBRANCH   5   6
ENDBRANCH   3   5
ENDBRANCH   1   2
BRANCH   1  11
ATOM     11  C   UNL     1     101.626 136.209  51.075  1.00  0.00     0.034 C 
BRANCH  11  12
ATOM     12  C   UNL     1     102.752 136.030  52.068  1.00  0.00    -0.077 C 
ATOM     13  C   UNL     1     104.020 135.922  51.608  1.00  0.00    -0.028 C 
ATOM     14  C   UNL     1     102.431 135.967  53.544  1.00  0.00     0.039 C 
BRANCH  13  15
ATOM     15  C   UNL     1     105.239 135.780  52.486  1.00  0.00     0.035 C 
BRANCH  15  16
ATOM     16  C   UNL     1     105.735 134.330  52.497  1.00  0.00     0.079 C 
BRANCH  16  17
ATOM     17  C   UNL     1     105.317 133.634  53.766  1.00  0.00     0.130 C 
ATOM     18  O   UNL     1     105.910 133.877  54.806  1.00  0.00    -0.300 OA
ATOM     19  C   UNL     1     104.194 132.639  53.779  1.00  0.00     0.087 C 
ENDBRANCH  16  17
ENDBRANCH  15  16
ENDBRANCH  13  15
ENDBRANCH  11  12
ENDBRANCH   1  11
TORSDOF 9
ENDMDL
MODEL 3
REMARK VINA RESULT:    -5.715      2.154      5.222
REMARK INTER + INTRA:         -11.218
REMARK INTER:                  -8.942
REMARK INTRA:                  -2.276
REMARK UNBOUND:                -2.497
REMARK SMILES CC(=O)CCC=C(C)CCC=C(C)CCC=C(C)C
REMARK SMILES IDX 10 1 11 2 12 3 13 4 14 5 15 6 16 7 18 8 17 9 19 10 9 11 7 12
REMARK SMILES IDX 6 13 8 14 5 15 4 16 2 17 3 18 1 19
REMARK H PARENT
REMARK Flexibility Score: inf
ROOT
ATOM      1  C   UNL     1     103.026 132.725  49.774  1.00  0.00     0.032 C 
ENDROOT
BRANCH   1   2
ATOM      2  C   UNL     1     103.942 133.422  50.747  1.00  0.00    -0.028 C 
ATOM      3  C   UNL     1     103.591 134.494  51.493  1.00  0.00    -0.077 C 
ATOM      4  C   UNL     1     102.193 135.069  51.457  1.00  0.00     0.039 C 
BRANCH   3   5
ATOM      5  C   UNL     1     104.620 135.123  52.407  1.00  0.00     0.034 C 
BRANCH   5   6
ATOM      6  C   UNL     1     105.632 134.078  52.888  1.00  0.00     0.032 C 
BRANCH   6   7
ATOM      7  C   UNL     1     105.023 133.194  53.948  1.00  0.00    -0.028 C 
ATOM      8  C   UNL     1     107.166 131.973  54.388  1.00  0.00     0.039 C 
ATOM      9  C   UNL     1     105.693 132.227  54.613  1.00  0.00    -0.080 C 
ATOM     10  C   UNL     1     104.941 131.395  55.620  1.00  0.00     0.039 C 
ENDBRANCH   6   7
ENDBRANCH   5   6
ENDBRANCH   3   5
ENDBRANCH   1   2
BRANCH   1  11
ATOM     11  C   UNL     1     102.815 131.261  50.177  1.00  0.00     0.034 C 
BRANCH  11  12
ATOM     12  C   UNL     1     102.061 131.166  51.485  1.00  0.00    -0.077 C 
ATOM     13  C   UNL     1     100.805 131.664  51.554  1.00  0.00    -0.028 C 
ATOM     14  C   UNL     1     102.733 130.526  52.678  1.00  0.00     0.039 C 
BRANCH  13  15
ATOM     15  C   UNL     1      99.927 131.601  52.779  1.00  0.00     0.035 C 
BRANCH  15  16
ATOM     16  C   UNL     1      99.553 133.009  53.253  1.00  0.00     0.079 C 
BRANCH  16  17
ATOM     17  C   UNL     1     100.069 133.256  54.646  1.00  0.00     0.130 C 
ATOM     18  O   UNL     1      99.289 133.596  55.523  1.00  0.00    -0.300 OA
ATOM     19  C   UNL     1     101.523 133.104  54.980  1.00  0.00     0.087 C 
ENDBRANCH  16  17
ENDBRANCH  15  16
ENDBRANCH  13  15
ENDBRANCH  11  12
ENDBRANCH   1  11
TORSDOF 9
ENDMDL
MODEL 4
REMARK VINA RESULT:    -5.712      1.862      5.130
REMARK INTER + INTRA:         -11.214
REMARK INTER:                  -9.036
REMARK INTRA:                  -2.178
REMARK UNBOUND:                -2.497
REMARK SMILES CC(=O)CCC=C(C)CCC=C(C)CCC=C(C)C
REMARK SMILES IDX 10 1 11 2 12 3 13 4 14 5 15 6 16 7 18 8 17 9 19 10 9 11 7 12
REMARK SMILES IDX 6 13 8 14 5 15 4 16 2 17 3 18 1 19
REMARK H PARENT
REMARK Flexibility Score: inf
ROOT
ATOM      1  C   UNL     1     102.893 132.481  49.752  1.00  0.00     0.032 C 
ENDROOT
BRANCH   1   2
ATOM      2  C   UNL     1     103.432 133.589  50.620  1.00  0.00    -0.028 C 
ATOM      3  C   UNL     1     102.784 134.749  50.869  1.00  0.00    -0.077 C 
ATOM      4  C   UNL     1     101.399 135.022  50.328  1.00  0.00     0.039 C 
BRANCH   3   5
ATOM      5  C   UNL     1     103.455 135.797  51.732  1.00  0.00     0.034 C 
BRANCH   5   6
ATOM      6  C   UNL     1     104.105 135.153  52.961  1.00  0.00     0.032 C 
BRANCH   6   7
ATOM      7  C   UNL     1     105.608 135.185  52.848  1.00  0.00    -0.028 C 
ATOM      8  C   UNL     1     105.892 132.907  53.852  1.00  0.00     0.039 C 
ATOM      9  C   UNL     1     106.427 134.194  53.267  1.00  0.00    -0.080 C 
ATOM     10  C   UNL     1     107.915 134.384  53.125  1.00  0.00     0.039 C 
ENDBRANCH   6   7
ENDBRANCH   5   6
ENDBRANCH   3   5
ENDBRANCH   1   2
BRANCH   1  11
ATOM     11  C   UNL     1     102.917 131.143  50.499  1.00  0.00     0.034 C 
BRANCH  11  12
ATOM     12  C   UNL     1     102.103 131.222  51.772  1.00  0.00    -0.077 C 
ATOM     13  C   UNL     1     100.815 131.628  51.701  1.00  0.00    -0.028 C 
ATOM     14  C   UNL     1     102.754 130.855  53.086  1.00  0.00     0.039 C 
BRANCH  13  15
ATOM     15  C   UNL     1      99.880 131.714  52.882  1.00  0.00     0.035 C 
BRANCH  15  16
ATOM     16  C   UNL     1      99.397 133.153  53.088  1.00  0.00     0.079 C 
BRANCH  16  17
ATOM     17  C   UNL     1     100.350 133.913  53.973  1.00  0.00     0.130 C 
ATOM     18  O   UNL     1     100.589 135.086  53.730  1.00  0.00    -0.300 OA
ATOM     19  C   UNL     1     101.024 133.257  55.142  1.00  0.00     0.087 C 
ENDBRANCH  16  17
ENDBRANCH  15  16
ENDBRANCH  13  15
ENDBRANCH  11  12
ENDBRANCH   1  11
TORSDOF 9
ENDMDL
MODEL 5
REMARK VINA RESULT:    -5.640      1.500      2.850
REMARK INTER + INTRA:         -11.104
REMARK INTER:                  -8.739
REMARK INTRA:                  -2.365
REMARK UNBOUND:                -2.497
REMARK SMILES CC(=O)CCC=C(C)CCC=C(C)CCC=C(C)C
REMARK SMILES IDX 10 1 11 2 12 3 13 4 14 5 15 6 16 7 18 8 17 9 19 10 9 11 7 12
REMARK SMILES IDX 6 13 8 14 5 15 4 16 2 17 3 18 1 19
REMARK H PARENT
REMARK Flexibility Score: inf
ROOT
ATOM      1  C   UNL     1     101.540 134.956  50.086  1.00  0.00     0.032 C 
ENDROOT
BRANCH   1   2
ATOM      2  C   UNL     1     101.161 133.715  50.854  1.00  0.00    -0.028 C 
ATOM      3  C   UNL     1     101.876 132.567  50.852  1.00  0.00    -0.077 C 
ATOM      4  C   UNL     1     103.183 132.441  50.104  1.00  0.00     0.039 C 
BRANCH   3   5
ATOM      5  C   UNL     1     101.363 131.380  51.640  1.00  0.00     0.034 C 
BRANCH   5   6
ATOM      6  C   UNL     1     102.377 130.958  52.709  1.00  0.00     0.032 C 
BRANCH   6   7
ATOM      7  C   UNL     1     102.464 131.995  53.800  1.00  0.00    -0.028 C 
ATOM      8  C   UNL     1     104.394 130.872  54.934  1.00  0.00     0.039 C 
ATOM      9  C   UNL     1     103.349 131.958  54.821  1.00  0.00    -0.080 C 
ATOM     10  C   UNL     1     103.292 133.045  55.862  1.00  0.00     0.039 C 
ENDBRANCH   6   7
ENDBRANCH   5   6
ENDBRANCH   3   5
ENDBRANCH   1   2
BRANCH   1  11
ATOM     11  C   UNL     1     101.664 136.160  51.025  1.00  0.00     0.034 C 
BRANCH  11  12
ATOM     12  C   UNL     1     102.712 135.911  52.087  1.00  0.00    -0.077 C 
ATOM     13  C   UNL     1     104.006 135.782  51.713  1.00  0.00    -0.028 C 
ATOM     14  C   UNL     1     102.285 135.803  53.533  1.00  0.00     0.039 C 
BRANCH  13  15
ATOM     15  C   UNL     1     105.155 135.571  52.667  1.00  0.00     0.035 C 
BRANCH  15  16
ATOM     16  C   UNL     1     105.524 134.087  52.753  1.00  0.00     0.079 C 
BRANCH  16  17
ATOM     17  C   UNL     1     106.742 133.891  53.618  1.00  0.00     0.130 C 
ATOM     18  O   UNL     1     106.604 133.531  54.777  1.00  0.00    -0.300 OA
ATOM     19  C   UNL     1     108.124 134.140  53.090  1.00  0.00     0.087 C 
ENDBRANCH  16  17
ENDBRANCH  15  16
ENDBRANCH  13  15
ENDBRANCH  11  12
ENDBRANCH   1  11
TORSDOF 9
ENDMDL
MODEL 6
REMARK VINA RESULT:    -5.623      1.518      3.479
REMARK INTER + INTRA:         -11.078
REMARK INTER:                  -8.574
REMARK INTRA:                  -2.504
REMARK UNBOUND:                -2.497
REMARK SMILES CC(=O)CCC=C(C)CCC=C(C)CCC=C(C)C
REMARK SMILES IDX 10 1 11 2 12 3 13 4 14 5 15 6 16 7 18 8 17 9 19 10 9 11 7 12
REMARK SMILES IDX 6 13 8 14 5 15 4 16 2 17 3 18 1 19
REMARK H PARENT
REMARK Flexibility Score: inf
ROOT
ATOM      1  C   UNL     1     100.468 131.388  52.582  1.00  0.00     0.032 C 
ENDROOT
BRANCH   1   2
ATOM      2  C   UNL     1     100.177 132.353  51.461  1.00  0.00    -0.028 C 
ATOM      3  C   UNL     1      99.724 133.615  51.637  1.00  0.00    -0.077 C 
ATOM      4  C   UNL     1      99.516 134.204  53.013  1.00  0.00     0.039 C 
BRANCH   3   5
ATOM      5  C   UNL     1      99.437 134.470  50.421  1.00  0.00     0.034 C 
BRANCH   5   6
ATOM      6  C   UNL     1     100.724 134.748  49.637  1.00  0.00     0.032 C 
BRANCH   6   7
ATOM      7  C   UNL     1     101.668 135.603  50.445  1.00  0.00    -0.028 C 
ATOM      8  C   UNL     1     103.403 133.804  50.619  1.00  0.00     0.039 C 
ATOM      9  C   UNL     1     102.864 135.185  50.915  1.00  0.00    -0.080 C 
ATOM     10  C   UNL     1     103.684 136.140  51.743  1.00  0.00     0.039 C 
ENDBRANCH   6   7
ENDBRANCH   5   6
ENDBRANCH   3   5
ENDBRANCH   1   2
BRANCH   1  11
ATOM     11  C   UNL     1     101.875 130.798  52.441  1.00  0.00     0.034 C 
BRANCH  11  12
ATOM     12  C   UNL     1     102.759 131.234  53.589  1.00  0.00    -0.077 C 
ATOM     13  C   UNL     1     102.629 132.490  54.075  1.00  0.00    -0.028 C 
ATOM     14  C   UNL     1     103.768 130.260  54.153  1.00  0.00     0.039 C 
BRANCH  13  15
ATOM     15  C   UNL     1     103.415 133.042  55.238  1.00  0.00     0.035 C 
BRANCH  15  16
ATOM     16  C   UNL     1     104.367 134.148  54.774  1.00  0.00     0.079 C 
BRANCH  16  17
ATOM     17  C   UNL     1     105.685 133.566  54.334  1.00  0.00     0.130 C 
ATOM     18  O   UNL     1     106.184 132.656  54.978  1.00  0.00    -0.300 OA
ATOM     19  C   UNL     1     106.407 134.088  53.126  1.00  0.00     0.087 C 
ENDBRANCH  16  17
ENDBRANCH  15  16
ENDBRANCH  13  15
ENDBRANCH  11  12
ENDBRANCH   1  11
TORSDOF 9
ENDMDL
MODEL 7
REMARK VINA RESULT:    -5.621      2.329      5.203
REMARK INTER + INTRA:         -11.076
REMARK INTER:                  -9.291
REMARK INTRA:                  -1.785
REMARK UNBOUND:                -2.497
REMARK SMILES CC(=O)CCC=C(C)CCC=C(C)CCC=C(C)C
REMARK SMILES IDX 10 1 11 2 12 3 13 4 14 5 15 6 16 7 18 8 17 9 19 10 9 11 7 12
REMARK SMILES IDX 6 13 8 14 5 15 4 16 2 17 3 18 1 19
REMARK H PARENT
REMARK Flexibility Score: inf
ROOT
ATOM      1  C   UNL     1     101.521 131.155  52.088  1.00  0.00     0.032 C 
ENDROOT
BRANCH   1   2
ATOM      2  C   UNL     1     102.519 132.257  52.333  1.00  0.00    -0.028 C 
ATOM      3  C   UNL     1     103.306 132.802  51.378  1.00  0.00    -0.077 C 
ATOM      4  C   UNL     1     103.213 132.380  49.930  1.00  0.00     0.039 C 
BRANCH   3   5
ATOM      5  C   UNL     1     104.295 133.881  51.766  1.00  0.00     0.034 C 
BRANCH   5   6
ATOM      6  C   UNL     1     104.561 133.856  53.275  1.00  0.00     0.032 C 
BRANCH   6   7
ATOM      7  C   UNL     1     105.928 133.289  53.567  1.00  0.00    -0.028 C 
ATOM      8  C   UNL     1     105.021 131.328  54.833  1.00  0.00     0.039 C 
ATOM      9  C   UNL     1     106.152 132.168  54.286  1.00  0.00    -0.080 C 
ATOM     10  C   UNL     1     107.577 131.744  54.531  1.00  0.00     0.039 C 
ENDBRANCH   6   7
ENDBRANCH   5   6
ENDBRANCH   3   5
ENDBRANCH   1   2
BRANCH   1  11
ATOM     11  C   UNL     1     100.129 131.560  52.584  1.00  0.00     0.034 C 
BRANCH  11  12
ATOM     12  C   UNL     1      99.805 132.982  52.181  1.00  0.00    -0.077 C 
ATOM     13  C   UNL     1      99.857 133.318  50.872  1.00  0.00    -0.028 C 
ATOM     14  C   UNL     1      99.442 133.987  53.250  1.00  0.00     0.039 C 
BRANCH  13  15
ATOM     15  C   UNL     1      99.522 134.684  50.326  1.00  0.00     0.035 C 
BRANCH  15  16
ATOM     16  C   UNL     1     100.673 135.228  49.475  1.00  0.00     0.079 C 
BRANCH  16  17
ATOM     17  C   UNL     1     101.650 135.994  50.328  1.00  0.00     0.130 C 
ATOM     18  O   UNL     1     101.387 136.202  51.503  1.00  0.00    -0.300 OA
ATOM     19  C   UNL     1     102.936 136.521  49.763  1.00  0.00     0.087 C 
ENDBRANCH  16  17
ENDBRANCH  15  16
ENDBRANCH  13  15
ENDBRANCH  11  12
ENDBRANCH   1  11
TORSDOF 9
ENDMDL
MODEL 8
REMARK VINA RESULT:    -5.588      1.393      3.767
REMARK INTER + INTRA:         -11.025
REMARK INTER:                  -8.217
REMARK INTRA:                  -2.808
REMARK UNBOUND:                -2.497
REMARK SMILES CC(=O)CCC=C(C)CCC=C(C)CCC=C(C)C
REMARK SMILES IDX 10 1 11 2 12 3 13 4 14 5 15 6 16 7 18 8 17 9 19 10 9 11 7 12
REMARK SMILES IDX 6 13 8 14 5 15 4 16 2 17 3 18 1 19
REMARK H PARENT
REMARK Flexibility Score: inf
ROOT
ATOM      1  C   UNL     1      99.826 131.925  52.775  1.00  0.00     0.032 C 
ENDROOT
BRANCH   1   2
ATOM      2  C   UNL     1     100.776 131.799  51.611  1.00  0.00    -0.028 C 
ATOM      3  C   UNL     1     102.009 131.248  51.687  1.00  0.00    -0.077 C 
ATOM      4  C   UNL     1     102.536 130.644  52.968  1.00  0.00     0.039 C 
BRANCH   3   5
ATOM      5  C   UNL     1     102.879 131.217  50.448  1.00  0.00     0.034 C 
BRANCH   5   6
ATOM      6  C   UNL     1     102.878 132.581  49.750  1.00  0.00     0.032 C 
BRANCH   6   7
ATOM      7  C   UNL     1     103.524 133.628  50.622  1.00  0.00    -0.028 C 
ATOM      8  C   UNL     1     101.645 135.258  50.334  1.00  0.00     0.039 C 
ATOM      9  C   UNL     1     102.995 134.845  50.874  1.00  0.00    -0.080 C 
ATOM     10  C   UNL     1     103.775 135.804  51.735  1.00  0.00     0.039 C 
ENDBRANCH   6   7
ENDBRANCH   5   6
ENDBRANCH   3   5
ENDBRANCH   1   2
BRANCH   1  11
ATOM     11  C   UNL     1      99.507 133.396  53.060  1.00  0.00     0.034 C 
BRANCH  11  12
ATOM     12  C   UNL     1     100.502 133.985  54.035  1.00  0.00    -0.077 C 
ATOM     13  C   UNL     1     101.054 133.181  54.973  1.00  0.00    -0.028 C 
ATOM     14  C   UNL     1     100.846 135.454  53.941  1.00  0.00     0.039 C 
BRANCH  13  15
ATOM     15  C   UNL     1     102.087 133.625  55.979  1.00  0.00     0.035 C 
BRANCH  15  16
ATOM     16  C   UNL     1     103.409 132.881  55.765  1.00  0.00     0.079 C 
BRANCH  16  17
ATOM     17  C   UNL     1     104.349 133.699  54.919  1.00  0.00     0.130 C 
ATOM     18  O   UNL     1     104.401 134.909  55.079  1.00  0.00    -0.300 OA
ATOM     19  C   UNL     1     105.216 133.062  53.873  1.00  0.00     0.087 C 
ENDBRANCH  16  17
ENDBRANCH  15  16
ENDBRANCH  13  15
ENDBRANCH  11  12
ENDBRANCH   1  11
TORSDOF 9
ENDMDL
MODEL 9
REMARK VINA RESULT:    -5.583      1.677      3.155
REMARK INTER + INTRA:         -11.017
REMARK INTER:                  -8.767
REMARK INTRA:                  -2.250
REMARK UNBOUND:                -2.497
REMARK SMILES CC(=O)CCC=C(C)CCC=C(C)CCC=C(C)C
REMARK SMILES IDX 10 1 11 2 12 3 13 4 14 5 15 6 16 7 18 8 17 9 19 10 9 11 7 12
REMARK SMILES IDX 6 13 8 14 5 15 4 16 2 17 3 18 1 19
REMARK H PARENT
REMARK Flexibility Score: inf
ROOT
ATOM      1  C   UNL     1     101.611 136.093  50.923  1.00  0.00     0.032 C 
ENDROOT
BRANCH   1   2
ATOM      2  C   UNL     1     100.840 134.812  50.732  1.00  0.00    -0.028 C 
ATOM      3  C   UNL     1     100.090 134.221  51.689  1.00  0.00    -0.077 C 
ATOM      4  C   UNL     1      99.909 134.838  53.057  1.00  0.00     0.039 C 
BRANCH   3   5
ATOM      5  C   UNL     1      99.395 132.913  51.376  1.00  0.00     0.034 C 
BRANCH   5   6
ATOM      6  C   UNL     1      99.599 131.904  52.510  1.00  0.00     0.032 C 
BRANCH   6   7
ATOM      7  C   UNL     1     100.877 131.128  52.312  1.00  0.00    -0.028 C 
ATOM      8  C   UNL     1     102.022 132.204  54.263  1.00  0.00     0.039 C 
ATOM      9  C   UNL     1     101.983 131.270  53.075  1.00  0.00    -0.080 C 
ATOM     10  C   UNL     1     103.202 130.454  52.732  1.00  0.00     0.039 C 
ENDBRANCH   6   7
ENDBRANCH   5   6
ENDBRANCH   3   5
ENDBRANCH   1   2
BRANCH   1  11
ATOM     11  C   UNL     1     103.108 135.869  50.686  1.00  0.00     0.034 C 
BRANCH  11  12
ATOM     12  C   UNL     1     103.792 135.406  51.953  1.00  0.00    -0.077 C 
ATOM     13  C   UNL     1     104.480 134.242  51.938  1.00  0.00    -0.028 C 
ATOM     14  C   UNL     1     103.680 136.251  53.201  1.00  0.00     0.039 C 
BRANCH  13  15
ATOM     15  C   UNL     1     105.241 133.682  53.114  1.00  0.00     0.035 C 
BRANCH  15  16
ATOM     16  C   UNL     1     106.700 134.146  53.088  1.00  0.00     0.079 C 
BRANCH  16  17
ATOM     17  C   UNL     1     107.015 134.982  54.302  1.00  0.00     0.130 C 
ATOM     18  O   UNL     1     107.940 135.778  54.259  1.00  0.00    -0.300 OA
ATOM     19  C   UNL     1     106.222 134.849  55.569  1.00  0.00     0.087 C 
ENDBRANCH  16  17
ENDBRANCH  15  16
ENDBRANCH  13  15
ENDBRANCH  11  12
ENDBRANCH   1  11
TORSDOF 9
ENDMDL
