MODEL 1
REMARK VINA RESULT:    -6.218      0.000      0.000
REMARK INTER + INTRA:          -8.773
REMARK INTER:                  -8.399
REMARK INTRA:                  -0.374
REMARK UNBOUND:                -0.374
REMARK SMILES COc1ccc(-c2cc(=O)c3c(OC)c(OC)c(OC)c(OC)c3o2)cc1
REMARK SMILES IDX 7 1 8 2 9 3 10 4 11 5 24 6 25 7 21 8 18 9 15 10 12 11 6 12
REMARK SMILES IDX 3 13 4 14 27 15 5 16 26 17 2 18 1 19 22 20 23 21 13 22 14 23
REMARK SMILES IDX 19 24 20 25 16 26 17 27
REMARK H PARENT
REMARK Flexibility Score: inf
ROOT
ATOM      1  C   UNL     1      37.931  29.021   9.082  1.00  0.00     0.138 A 
ATOM      2  C   UNL     1      36.697  28.663   8.520  1.00  0.00     0.100 A 
ATOM      3  C   UNL     1      36.126  29.481   7.545  1.00  0.00     0.197 A 
ATOM      4  O   UNL     1      35.014  29.151   7.051  1.00  0.00    -0.289 OA
ATOM      5  C   UNL     1      36.794  30.659   7.142  1.00  0.00     0.115 A 
ATOM      6  C   UNL     1      38.028  30.954   7.756  1.00  0.00     0.188 A 
ATOM      7  O   UNL     1      38.530  30.139   8.682  1.00  0.00    -0.452 OA
ATOM      8  C   UNL     1      38.755  32.098   7.402  1.00  0.00     0.209 A 
ATOM      9  C   UNL     1      38.235  32.995   6.434  1.00  0.00     0.211 A 
ATOM     10  C   UNL     1      36.970  32.724   5.851  1.00  0.00     0.208 A 
ATOM     11  C   UNL     1      36.285  31.528   6.154  1.00  0.00     0.179 A 
ENDROOT
BRANCH   1  12
ATOM     12  C   UNL     1      38.588  28.195  10.126  1.00  0.00     0.018 A 
ATOM     13  C   UNL     1      39.823  26.567  12.077  1.00  0.00     0.118 A 
ATOM     14  C   UNL     1      39.408  27.873  12.398  1.00  0.00     0.047 A 
ATOM     15  C   UNL     1      39.607  26.083  10.783  1.00  0.00     0.047 A 
ATOM     16  C   UNL     1      38.794  28.676  11.433  1.00  0.00     0.016 A 
ATOM     17  C   UNL     1      38.991  26.885   9.817  1.00  0.00     0.016 A 
BRANCH  13  18
ATOM     18  O   UNL     1      40.445  25.724  13.009  1.00  0.00    -0.497 OA
ATOM     19  C   UNL     1      40.314  24.307  13.025  1.00  0.00     0.278 C 
ENDBRANCH  13  18
ENDBRANCH   1  12
BRANCH   8  20
ATOM     20  O   UNL     1      39.989  32.280   8.060  1.00  0.00    -0.490 OA
ATOM     21  C   UNL     1      40.278  33.212   9.098  1.00  0.00     0.278 C 
ENDBRANCH   8  20
BRANCH  11  22
ATOM     22  O   UNL     1      35.106  31.196   5.478  1.00  0.00    -0.492 OA
ATOM     23  C   UNL     1      33.825  31.648   5.907  1.00  0.00     0.278 C 
ENDBRANCH  11  22
BRANCH   9  24
ATOM     24  O   UNL     1      38.994  34.132   6.099  1.00  0.00    -0.490 OA
ATOM     25  C   UNL     1      39.957  34.248   5.057  1.00  0.00     0.279 C 
ENDBRANCH   9  24
BRANCH  10  26
ATOM     26  O   UNL     1      36.386  33.654   4.986  1.00  0.00    -0.490 OA
ATOM     27  C   UNL     1      35.664  34.788   5.459  1.00  0.00     0.278 C 
ENDBRANCH  10  26
TORSDOF 6
ENDMDL
MODEL 2
REMARK VINA RESULT:    -6.184      3.794      5.261
REMARK INTER + INTRA:          -8.727
REMARK INTER:                  -8.149
REMARK INTRA:                  -0.577
REMARK UNBOUND:                -0.374
REMARK SMILES COc1ccc(-c2cc(=O)c3c(OC)c(OC)c(OC)c(OC)c3o2)cc1
REMARK SMILES IDX 7 1 8 2 9 3 10 4 11 5 24 6 25 7 21 8 18 9 15 10 12 11 6 12
REMARK SMILES IDX 3 13 4 14 27 15 5 16 26 17 2 18 1 19 22 20 23 21 13 22 14 23
REMARK SMILES IDX 19 24 20 25 16 26 17 27
REMARK H PARENT
REMARK Flexibility Score: inf
ROOT
ATOM      1  C   UNL     1      40.508  29.369   6.212  1.00  0.00     0.138 A 
ATOM      2  C   UNL     1      39.843  28.390   6.965  1.00  0.00     0.100 A 
ATOM      3  C   UNL     1      38.489  28.551   7.254  1.00  0.00     0.197 A 
ATOM      4  O   UNL     1      37.903  27.667   7.936  1.00  0.00    -0.289 OA
ATOM      5  C   UNL     1      37.807  29.699   6.791  1.00  0.00     0.115 A 
ATOM      6  C   UNL     1      38.543  30.641   6.044  1.00  0.00     0.188 A 
ATOM      7  O   UNL     1      39.836  30.438   5.795  1.00  0.00    -0.452 OA
ATOM      8  C   UNL     1      37.935  31.798   5.541  1.00  0.00     0.209 A 
ATOM      9  C   UNL     1      36.565  32.050   5.808  1.00  0.00     0.211 A 
ATOM     10  C   UNL     1      35.835  31.127   6.601  1.00  0.00     0.208 A 
ATOM     11  C   UNL     1      36.436  29.925   7.033  1.00  0.00     0.179 A 
ENDROOT
BRANCH   1  12
ATOM     12  C   UNL     1      41.949  29.256   5.874  1.00  0.00     0.018 A 
ATOM     13  C   UNL     1      44.705  29.028   5.297  1.00  0.00     0.118 A 
ATOM     14  C   UNL     1      43.855  29.752   4.439  1.00  0.00     0.047 A 
ATOM     15  C   UNL     1      44.168  28.432   6.442  1.00  0.00     0.047 A 
ATOM     16  C   UNL     1      42.493  29.867   4.728  1.00  0.00     0.016 A 
ATOM     17  C   UNL     1      42.807  28.548   6.733  1.00  0.00     0.016 A 
BRANCH  13  18
ATOM     18  O   UNL     1      46.078  28.882   5.049  1.00  0.00    -0.497 OA
ATOM     19  C   UNL     1      47.101  29.559   5.769  1.00  0.00     0.278 C 
ENDBRANCH  13  18
ENDBRANCH   1  12
BRANCH   8  20
ATOM     20  O   UNL     1      38.760  32.657   4.786  1.00  0.00    -0.490 OA
ATOM     21  C   UNL     1      39.431  33.826   5.246  1.00  0.00     0.278 C 
ENDBRANCH   8  20
BRANCH  11  22
ATOM     22  O   UNL     1      35.678  28.953   7.696  1.00  0.00    -0.492 OA
ATOM     23  C   UNL     1      34.866  28.011   7.002  1.00  0.00     0.278 C 
ENDBRANCH  11  22
BRANCH   9  24
ATOM     24  O   UNL     1      35.985  33.221   5.284  1.00  0.00    -0.490 OA
ATOM     25  C   UNL     1      35.845  34.478   5.935  1.00  0.00     0.279 C 
ENDBRANCH   9  24
BRANCH  10  26
ATOM     26  O   UNL     1      34.519  31.415   6.976  1.00  0.00    -0.490 OA
ATOM     27  C   UNL     1      33.404  31.096   6.149  1.00  0.00     0.278 C 
ENDBRANCH  10  26
TORSDOF 6
ENDMDL
MODEL 3
REMARK VINA RESULT:    -6.067     11.485     13.895
REMARK INTER + INTRA:          -8.569
REMARK INTER:                  -8.072
REMARK INTRA:                  -0.497
REMARK UNBOUND:                -0.374
REMARK SMILES COc1ccc(-c2cc(=O)c3c(OC)c(OC)c(OC)c(OC)c3o2)cc1
REMARK SMILES IDX 7 1 8 2 9 3 10 4 11 5 24 6 25 7 21 8 18 9 15 10 12 11 6 12
REMARK SMILES IDX 3 13 4 14 27 15 5 16 26 17 2 18 1 19 22 20 23 21 13 22 14 23
REMARK SMILES IDX 19 24 20 25 16 26 17 27
REMARK H PARENT
REMARK Flexibility Score: inf
ROOT
ATOM      1  C   UNL     1      50.204  34.496   8.148  1.00  0.00     0.138 A 
ATOM      2  C   UNL     1      50.899  34.421   9.364  1.00  0.00     0.100 A 
ATOM      3  C   UNL     1      50.626  35.350  10.367  1.00  0.00     0.197 A 
ATOM      4  O   UNL     1      51.261  35.275  11.453  1.00  0.00    -0.289 OA
ATOM      5  C   UNL     1      49.661  36.357  10.143  1.00  0.00     0.115 A 
ATOM      6  C   UNL     1      49.007  36.372   8.894  1.00  0.00     0.188 A 
ATOM      7  O   UNL     1      49.304  35.460   7.970  1.00  0.00    -0.452 OA
ATOM      8  C   UNL     1      48.030  37.332   8.601  1.00  0.00     0.209 A 
ATOM      9  C   UNL     1      47.708  38.328   9.559  1.00  0.00     0.211 A 
ATOM     10  C   UNL     1      48.400  38.344  10.798  1.00  0.00     0.208 A 
ATOM     11  C   UNL     1      49.323  37.324  11.113  1.00  0.00     0.179 A 
ENDROOT
BRANCH   1  12
ATOM     12  C   UNL     1      50.451  33.539   7.040  1.00  0.00     0.018 A 
ATOM     13  C   UNL     1      50.939  31.768   4.894  1.00  0.00     0.118 A 
ATOM     14  C   UNL     1      50.090  31.389   5.951  1.00  0.00     0.047 A 
ATOM     15  C   UNL     1      51.529  33.036   4.917  1.00  0.00     0.047 A 
ATOM     16  C   UNL     1      49.846  32.267   7.010  1.00  0.00     0.016 A 
ATOM     17  C   UNL     1      51.285  33.915   5.974  1.00  0.00     0.016 A 
BRANCH  13  18
ATOM     18  O   UNL     1      51.217  30.922   3.811  1.00  0.00    -0.497 OA
ATOM     19  C   UNL     1      51.276  31.346   2.453  1.00  0.00     0.278 C 
ENDBRANCH  13  18
ENDBRANCH   1  12
BRANCH   8  20
ATOM     20  O   UNL     1      47.423  37.236   7.332  1.00  0.00    -0.490 OA
ATOM     21  C   UNL     1      46.208  36.567   7.012  1.00  0.00     0.278 C 
ENDBRANCH   8  20
BRANCH  11  22
ATOM     22  O   UNL     1      49.903  37.262  12.386  1.00  0.00    -0.492 OA
ATOM     23  C   UNL     1      50.999  38.087  12.768  1.00  0.00     0.278 C 
ENDBRANCH  11  22
BRANCH   9  24
ATOM     24  O   UNL     1      46.719  39.275   9.233  1.00  0.00    -0.490 OA
ATOM     25  C   UNL     1      45.321  39.178   9.480  1.00  0.00     0.279 C 
ENDBRANCH   9  24
BRANCH  10  26
ATOM     26  O   UNL     1      48.185  39.386  11.705  1.00  0.00    -0.490 OA
ATOM     27  C   UNL     1      47.147  39.345  12.680  1.00  0.00     0.278 C 
ENDBRANCH  10  26
TORSDOF 6
ENDMDL
MODEL 4
REMARK VINA RESULT:    -6.024      5.040      6.046
REMARK INTER + INTRA:          -8.510
REMARK INTER:                  -7.933
REMARK INTRA:                  -0.577
REMARK UNBOUND:                -0.374
REMARK SMILES COc1ccc(-c2cc(=O)c3c(OC)c(OC)c(OC)c(OC)c3o2)cc1
REMARK SMILES IDX 7 1 8 2 9 3 10 4 11 5 24 6 25 7 21 8 18 9 15 10 12 11 6 12
REMARK SMILES IDX 3 13 4 14 27 15 5 16 26 17 2 18 1 19 22 20 23 21 13 22 14 23
REMARK SMILES IDX 19 24 20 25 16 26 17 27
REMARK H PARENT
REMARK Flexibility Score: inf
ROOT
ATOM      1  C   UNL     1      41.567  28.558   5.372  1.00  0.00     0.138 A 
ATOM      2  C   UNL     1      40.910  27.793   6.347  1.00  0.00     0.100 A 
ATOM      3  C   UNL     1      39.820  28.338   7.025  1.00  0.00     0.197 A 
ATOM      4  O   UNL     1      39.241  27.643   7.902  1.00  0.00    -0.289 OA
ATOM      5  C   UNL     1      39.398  29.653   6.727  1.00  0.00     0.115 A 
ATOM      6  C   UNL     1      40.112  30.362   5.738  1.00  0.00     0.188 A 
ATOM      7  O   UNL     1      41.145  29.794   5.120  1.00  0.00    -0.452 OA
ATOM      8  C   UNL     1      39.747  31.666   5.380  1.00  0.00     0.209 A 
ATOM      9  C   UNL     1      38.663  32.303   6.036  1.00  0.00     0.211 A 
ATOM     10  C   UNL     1      37.975  31.609   7.065  1.00  0.00     0.208 A 
ATOM     11  C   UNL     1      38.298  30.268   7.361  1.00  0.00     0.179 A 
ENDROOT
BRANCH   1  12
ATOM     12  C   UNL     1      42.735  28.036   4.619  1.00  0.00     0.018 A 
ATOM     13  C   UNL     1      44.924  26.983   3.176  1.00  0.00     0.118 A 
ATOM     14  C   UNL     1      45.105  28.068   4.054  1.00  0.00     0.047 A 
ATOM     15  C   UNL     1      43.648  26.428   3.035  1.00  0.00     0.047 A 
ATOM     16  C   UNL     1      44.022  28.586   4.770  1.00  0.00     0.016 A 
ATOM     17  C   UNL     1      42.565  26.943   3.752  1.00  0.00     0.016 A 
BRANCH  13  18
ATOM     18  O   UNL     1      45.978  26.431   2.434  1.00  0.00    -0.497 OA
ATOM     19  C   UNL     1      46.091  25.051   2.102  1.00  0.00     0.278 C 
ENDBRANCH  13  18
ENDBRANCH   1  12
BRANCH   8  20
ATOM     20  O   UNL     1      40.514  32.269   4.362  1.00  0.00    -0.490 OA
ATOM     21  C   UNL     1      41.550  33.231   4.524  1.00  0.00     0.278 C 
ENDBRANCH   8  20
BRANCH  11  22
ATOM     22  O   UNL     1      37.531  29.540   8.279  1.00  0.00    -0.492 OA
ATOM     23  C   UNL     1      36.312  28.898   7.917  1.00  0.00     0.278 C 
ENDBRANCH  11  22
BRANCH   9  24
ATOM     24  O   UNL     1      38.321  33.612   5.648  1.00  0.00    -0.490 OA
ATOM     25  C   UNL     1      37.439  33.995   4.599  1.00  0.00     0.279 C 
ENDBRANCH   9  24
BRANCH  10  26
ATOM     26  O   UNL     1      36.984  32.261   7.806  1.00  0.00    -0.490 OA
ATOM     27  C   UNL     1      35.634  32.349   7.361  1.00  0.00     0.278 C 
ENDBRANCH  10  26
TORSDOF 6
ENDMDL
MODEL 5
REMARK VINA RESULT:    -5.953      9.663     13.261
REMARK INTER + INTRA:          -8.415
REMARK INTER:                  -7.868
REMARK INTRA:                  -0.547
REMARK UNBOUND:                -0.374
REMARK SMILES COc1ccc(-c2cc(=O)c3c(OC)c(OC)c(OC)c(OC)c3o2)cc1
REMARK SMILES IDX 7 1 8 2 9 3 10 4 11 5 24 6 25 7 21 8 18 9 15 10 12 11 6 12
REMARK SMILES IDX 3 13 4 14 27 15 5 16 26 17 2 18 1 19 22 20 23 21 13 22 14 23
REMARK SMILES IDX 19 24 20 25 16 26 17 27
REMARK H PARENT
REMARK Flexibility Score: inf
ROOT
ATOM      1  C   UNL     1      44.809  38.293   7.576  1.00  0.00     0.138 A 
ATOM      2  C   UNL     1      44.621  39.189   8.639  1.00  0.00     0.100 A 
ATOM      3  C   UNL     1      45.517  39.181   9.708  1.00  0.00     0.197 A 
ATOM      4  O   UNL     1      45.335  39.988  10.659  1.00  0.00    -0.289 OA
ATOM      5  C   UNL     1      46.595  38.268   9.709  1.00  0.00     0.115 A 
ATOM      6  C   UNL     1      46.715  37.395   8.608  1.00  0.00     0.188 A 
ATOM      7  O   UNL     1      45.832  37.445   7.613  1.00  0.00    -0.452 OA
ATOM      8  C   UNL     1      47.763  36.469   8.532  1.00  0.00     0.209 A 
ATOM      9  C   UNL     1      48.706  36.380   9.588  1.00  0.00     0.211 A 
ATOM     10  C   UNL     1      48.558  37.224  10.719  1.00  0.00     0.208 A 
ATOM     11  C   UNL     1      47.547  38.208  10.748  1.00  0.00     0.179 A 
ENDROOT
BRANCH   1  12
ATOM     12  C   UNL     1      43.888  38.251   6.412  1.00  0.00     0.018 A 
ATOM     13  C   UNL     1      42.089  38.146   4.236  1.00  0.00     0.118 A 
ATOM     14  C   UNL     1      43.478  38.181   4.011  1.00  0.00     0.047 A 
ATOM     15  C   UNL     1      41.613  38.154   5.552  1.00  0.00     0.047 A 
ATOM     16  C   UNL     1      44.368  38.229   5.088  1.00  0.00     0.016 A 
ATOM     17  C   UNL     1      42.501  38.201   6.629  1.00  0.00     0.016 A 
BRANCH  13  18
ATOM     18  O   UNL     1      41.157  38.100   3.190  1.00  0.00    -0.497 OA
ATOM     19  C   UNL     1      41.498  38.118   1.808  1.00  0.00     0.278 C 
ENDBRANCH  13  18
ENDBRANCH   1  12
BRANCH   8  20
ATOM     20  O   UNL     1      47.801  35.665   7.374  1.00  0.00    -0.490 OA
ATOM     21  C   UNL     1      47.358  34.317   7.251  1.00  0.00     0.278 C 
ENDBRANCH   8  20
BRANCH  11  22
ATOM     22  O   UNL     1      47.486  39.130  11.799  1.00  0.00    -0.492 OA
ATOM     23  C   UNL     1      46.998  38.784  13.092  1.00  0.00     0.278 C 
ENDBRANCH  11  22
BRANCH   9  24
ATOM     24  O   UNL     1      49.749  35.441   9.477  1.00  0.00    -0.490 OA
ATOM     25  C   UNL     1      51.014  35.631   8.854  1.00  0.00     0.279 C 
ENDBRANCH   9  24
BRANCH  10  26
ATOM     26  O   UNL     1      49.404  37.069  11.822  1.00  0.00    -0.490 OA
ATOM     27  C   UNL     1      50.653  37.746  11.926  1.00  0.00     0.278 C 
ENDBRANCH  10  26
TORSDOF 6
ENDMDL
MODEL 6
REMARK VINA RESULT:    -5.753     11.122     12.780
REMARK INTER + INTRA:          -8.145
REMARK INTER:                  -7.681
REMARK INTRA:                  -0.464
REMARK UNBOUND:                -0.374
REMARK SMILES COc1ccc(-c2cc(=O)c3c(OC)c(OC)c(OC)c(OC)c3o2)cc1
REMARK SMILES IDX 7 1 8 2 9 3 10 4 11 5 24 6 25 7 21 8 18 9 15 10 12 11 6 12
REMARK SMILES IDX 3 13 4 14 27 15 5 16 26 17 2 18 1 19 22 20 23 21 13 22 14 23
REMARK SMILES IDX 19 24 20 25 16 26 17 27
REMARK H PARENT
REMARK Flexibility Score: inf
ROOT
ATOM      1  C   UNL     1      48.433  34.470   7.442  1.00  0.00     0.138 A 
ATOM      2  C   UNL     1      47.548  35.348   6.800  1.00  0.00     0.100 A 
ATOM      3  C   UNL     1      47.271  36.586   7.380  1.00  0.00     0.197 A 
ATOM      4  O   UNL     1      46.471  37.365   6.796  1.00  0.00    -0.289 OA
ATOM      5  C   UNL     1      47.879  36.935   8.606  1.00  0.00     0.115 A 
ATOM      6  C   UNL     1      48.754  35.998   9.194  1.00  0.00     0.188 A 
ATOM      7  O   UNL     1      48.985  34.830   8.598  1.00  0.00    -0.452 OA
ATOM      8  C   UNL     1      49.403  36.276  10.403  1.00  0.00     0.209 A 
ATOM      9  C   UNL     1      49.160  37.504  11.070  1.00  0.00     0.211 A 
ATOM     10  C   UNL     1      48.243  38.427  10.505  1.00  0.00     0.208 A 
ATOM     11  C   UNL     1      47.658  38.172   9.247  1.00  0.00     0.179 A 
ENDROOT
BRANCH   1  12
ATOM     12  C   UNL     1      48.766  33.138   6.877  1.00  0.00     0.018 A 
ATOM     13  C   UNL     1      49.464  30.618   5.808  1.00  0.00     0.118 A 
ATOM     14  C   UNL     1      48.181  31.154   5.589  1.00  0.00     0.047 A 
ATOM     15  C   UNL     1      50.390  31.354   6.553  1.00  0.00     0.047 A 
ATOM     16  C   UNL     1      47.838  32.402   6.115  1.00  0.00     0.016 A 
ATOM     17  C   UNL     1      50.049  32.603   7.079  1.00  0.00     0.016 A 
BRANCH  13  18
ATOM     18  O   UNL     1      49.855  29.369   5.303  1.00  0.00    -0.497 OA
ATOM     19  C   UNL     1      50.886  28.563   5.862  1.00  0.00     0.278 C 
ENDBRANCH  13  18
ENDBRANCH   1  12
BRANCH   8  20
ATOM     20  O   UNL     1      50.275  35.278  10.885  1.00  0.00    -0.490 OA
ATOM     21  C   UNL     1      49.989  34.291  11.870  1.00  0.00     0.278 C 
ENDBRANCH   8  20
BRANCH  11  22
ATOM     22  O   UNL     1      46.861  39.142   8.626  1.00  0.00    -0.492 OA
ATOM     23  C   UNL     1      45.517  39.395   9.022  1.00  0.00     0.278 C 
ENDBRANCH  11  22
BRANCH   9  24
ATOM     24  O   UNL     1      49.833  37.752  12.282  1.00  0.00    -0.490 OA
ATOM     25  C   UNL     1      51.168  38.217  12.445  1.00  0.00     0.279 C 
ENDBRANCH   9  24
BRANCH  10  26
ATOM     26  O   UNL     1      47.899  39.588  11.205  1.00  0.00    -0.490 OA
ATOM     27  C   UNL     1      46.968  39.580  12.284  1.00  0.00     0.278 C 
ENDBRANCH  10  26
TORSDOF 6
ENDMDL
MODEL 7
REMARK VINA RESULT:    -5.732      1.926      2.612
REMARK INTER + INTRA:          -8.117
REMARK INTER:                  -7.505
REMARK INTRA:                  -0.611
REMARK UNBOUND:                -0.374
REMARK SMILES COc1ccc(-c2cc(=O)c3c(OC)c(OC)c(OC)c(OC)c3o2)cc1
REMARK SMILES IDX 7 1 8 2 9 3 10 4 11 5 24 6 25 7 21 8 18 9 15 10 12 11 6 12
REMARK SMILES IDX 3 13 4 14 27 15 5 16 26 17 2 18 1 19 22 20 23 21 13 22 14 23
REMARK SMILES IDX 19 24 20 25 16 26 17 27
REMARK H PARENT
REMARK Flexibility Score: inf
ROOT
ATOM      1  C   UNL     1      38.224  29.942   7.143  1.00  0.00     0.138 A 
ATOM      2  C   UNL     1      37.030  29.802   6.421  1.00  0.00     0.100 A 
ATOM      3  C   UNL     1      36.752  30.687   5.380  1.00  0.00     0.197 A 
ATOM      4  O   UNL     1      35.673  30.554   4.742  1.00  0.00    -0.289 OA
ATOM      5  C   UNL     1      37.670  31.716   5.072  1.00  0.00     0.115 A 
ATOM      6  C   UNL     1      38.847  31.796   5.845  1.00  0.00     0.188 A 
ATOM      7  O   UNL     1      39.065  30.924   6.828  1.00  0.00    -0.452 OA
ATOM      8  C   UNL     1      39.810  32.781   5.594  1.00  0.00     0.209 A 
ATOM      9  C   UNL     1      39.595  33.735   4.567  1.00  0.00     0.211 A 
ATOM     10  C   UNL     1      38.389  33.685   3.820  1.00  0.00     0.208 A 
ATOM     11  C   UNL     1      37.464  32.640   4.027  1.00  0.00     0.179 A 
ENDROOT
BRANCH   1  12
ATOM     12  C   UNL     1      38.577  29.034   8.264  1.00  0.00     0.018 A 
ATOM     13  C   UNL     1      39.191  27.270  10.383  1.00  0.00     0.118 A 
ATOM     14  C   UNL     1      39.752  28.560  10.345  1.00  0.00     0.047 A 
ATOM     15  C   UNL     1      38.318  26.878   9.363  1.00  0.00     0.047 A 
ATOM     16  C   UNL     1      39.445  29.434   9.298  1.00  0.00     0.016 A 
ATOM     17  C   UNL     1      38.009  27.750   8.316  1.00  0.00     0.016 A 
BRANCH  13  18
ATOM     18  O   UNL     1      39.471  26.358  11.410  1.00  0.00    -0.497 OA
ATOM     19  C   UNL     1      40.127  26.693  12.628  1.00  0.00     0.278 C 
ENDBRANCH  13  18
ENDBRANCH   1  12
BRANCH   8  20
ATOM     20  O   UNL     1      40.959  32.751   6.411  1.00  0.00    -0.490 OA
ATOM     21  C   UNL     1      41.213  33.548   7.563  1.00  0.00     0.278 C 
ENDBRANCH   8  20
BRANCH  11  22
ATOM     22  O   UNL     1      36.343  32.512   3.199  1.00  0.00    -0.492 OA
ATOM     23  C   UNL     1      36.412  31.924   1.904  1.00  0.00     0.278 C 
ENDBRANCH  11  22
BRANCH   9  24
ATOM     24  O   UNL     1      40.586  34.708   4.338  1.00  0.00    -0.490 OA
ATOM     25  C   UNL     1      41.767  34.566   3.557  1.00  0.00     0.279 C 
ENDBRANCH   9  24
BRANCH  10  26
ATOM     26  O   UNL     1      38.103  34.686   2.887  1.00  0.00    -0.490 OA
ATOM     27  C   UNL     1      38.639  34.674   1.567  1.00  0.00     0.278 C 
ENDBRANCH  10  26
TORSDOF 6
ENDMDL
MODEL 8
REMARK VINA RESULT:    -5.641      2.703      8.633
REMARK INTER + INTRA:          -7.993
REMARK INTER:                  -7.528
REMARK INTRA:                  -0.465
REMARK UNBOUND:                -0.374
REMARK SMILES COc1ccc(-c2cc(=O)c3c(OC)c(OC)c(OC)c(OC)c3o2)cc1
REMARK SMILES IDX 7 1 8 2 9 3 10 4 11 5 24 6 25 7 21 8 18 9 15 10 12 11 6 12
REMARK SMILES IDX 3 13 4 14 27 15 5 16 26 17 2 18 1 19 22 20 23 21 13 22 14 23
REMARK SMILES IDX 19 24 20 25 16 26 17 27
REMARK H PARENT
REMARK Flexibility Score: inf
ROOT
ATOM      1  C   UNL     1      39.626  32.683   4.540  1.00  0.00     0.138 A 
ATOM      2  C   UNL     1      40.799  31.944   4.754  1.00  0.00     0.100 A 
ATOM      3  C   UNL     1      40.735  30.748   5.467  1.00  0.00     0.197 A 
ATOM      4  O   UNL     1      41.797  30.096   5.657  1.00  0.00    -0.289 OA
ATOM      5  C   UNL     1      39.493  30.299   5.969  1.00  0.00     0.115 A 
ATOM      6  C   UNL     1      38.358  31.098   5.718  1.00  0.00     0.188 A 
ATOM      7  O   UNL     1      38.474  32.232   5.031  1.00  0.00    -0.452 OA
ATOM      8  C   UNL     1      37.090  30.715   6.174  1.00  0.00     0.209 A 
ATOM      9  C   UNL     1      36.940  29.522   6.927  1.00  0.00     0.211 A 
ATOM     10  C   UNL     1      38.089  28.742   7.222  1.00  0.00     0.208 A 
ATOM     11  C   UNL     1      39.347  29.095   6.689  1.00  0.00     0.179 A 
ENDROOT
BRANCH   1  12
ATOM     12  C   UNL     1      39.629  33.965   3.792  1.00  0.00     0.018 A 
ATOM     13  C   UNL     1      39.678  36.430   2.413  1.00  0.00     0.118 A 
ATOM     14  C   UNL     1      38.612  35.531   2.226  1.00  0.00     0.047 A 
ATOM     15  C   UNL     1      40.707  36.091   3.298  1.00  0.00     0.047 A 
ATOM     16  C   UNL     1      38.586  34.313   2.911  1.00  0.00     0.016 A 
ATOM     17  C   UNL     1      40.682  34.875   3.985  1.00  0.00     0.016 A 
BRANCH  13  18
ATOM     18  O   UNL     1      39.749  37.662   1.747  1.00  0.00    -0.497 OA
ATOM     19  C   UNL     1      39.270  38.893   2.279  1.00  0.00     0.278 C 
ENDBRANCH  13  18
ENDBRANCH   1  12
BRANCH   8  20
ATOM     20  O   UNL     1      36.023  31.575   5.843  1.00  0.00    -0.490 OA
ATOM     21  C   UNL     1      35.381  32.513   6.700  1.00  0.00     0.278 C 
ENDBRANCH   8  20
BRANCH  11  22
ATOM     22  O   UNL     1      40.452  28.254   6.865  1.00  0.00    -0.492 OA
ATOM     23  C   UNL     1      41.177  28.190   8.089  1.00  0.00     0.278 C 
ENDBRANCH  11  22
BRANCH   9  24
ATOM     24  O   UNL     1      35.651  29.164   7.365  1.00  0.00    -0.490 OA
ATOM     25  C   UNL     1      34.686  28.391   6.661  1.00  0.00     0.279 C 
ENDBRANCH   9  24
BRANCH  10  26
ATOM     26  O   UNL     1      37.982  27.630   8.062  1.00  0.00    -0.490 OA
ATOM     27  C   UNL     1      37.891  27.750   9.479  1.00  0.00     0.278 C 
ENDBRANCH  10  26
TORSDOF 6
ENDMDL
MODEL 9
REMARK VINA RESULT:    -5.525      2.826      8.187
REMARK INTER + INTRA:          -7.837
REMARK INTER:                  -7.280
REMARK INTRA:                  -0.557
REMARK UNBOUND:                -0.374
REMARK SMILES COc1ccc(-c2cc(=O)c3c(OC)c(OC)c(OC)c(OC)c3o2)cc1
REMARK SMILES IDX 7 1 8 2 9 3 10 4 11 5 24 6 25 7 21 8 18 9 15 10 12 11 6 12
REMARK SMILES IDX 3 13 4 14 27 15 5 16 26 17 2 18 1 19 22 20 23 21 13 22 14 23
REMARK SMILES IDX 19 24 20 25 16 26 17 27
REMARK H PARENT
REMARK Flexibility Score: inf
ROOT
ATOM      1  C   UNL     1      38.298  32.972   4.323  1.00  0.00     0.138 A 
ATOM      2  C   UNL     1      36.927  32.939   4.621  1.00  0.00     0.100 A 
ATOM      3  C   UNL     1      36.422  31.903   5.405  1.00  0.00     0.197 A 
ATOM      4  O   UNL     1      35.188  31.882   5.662  1.00  0.00    -0.289 OA
ATOM      5  C   UNL     1      37.293  30.898   5.883  1.00  0.00     0.115 A 
ATOM      6  C   UNL     1      38.657  30.997   5.539  1.00  0.00     0.188 A 
ATOM      7  O   UNL     1      39.088  32.008   4.787  1.00  0.00    -0.452 OA
ATOM      8  C   UNL     1      39.584  30.046   5.983  1.00  0.00     0.209 A 
ATOM      9  C   UNL     1      39.150  28.948   6.768  1.00  0.00     0.211 A 
ATOM     10  C   UNL     1      37.770  28.821   7.075  1.00  0.00     0.208 A 
ATOM     11  C   UNL     1      36.858  29.827   6.691  1.00  0.00     0.179 A 
ENDROOT
BRANCH   1  12
ATOM     12  C   UNL     1      38.896  34.046   3.491  1.00  0.00     0.018 A 
ATOM     13  C   UNL     1      40.059  36.118   1.963  1.00  0.00     0.118 A 
ATOM     14  C   UNL     1      38.977  35.377   1.451  1.00  0.00     0.047 A 
ATOM     15  C   UNL     1      40.544  35.820   3.241  1.00  0.00     0.047 A 
ATOM     16  C   UNL     1      38.399  34.355   2.210  1.00  0.00     0.016 A 
ATOM     17  C   UNL     1      39.966  34.799   4.000  1.00  0.00     0.016 A 
BRANCH  13  18
ATOM     18  O   UNL     1      40.673  37.150   1.240  1.00  0.00    -0.497 OA
ATOM     19  C   UNL     1      41.492  38.161   1.819  1.00  0.00     0.278 C 
ENDBRANCH  13  18
ENDBRANCH   1  12
BRANCH   8  20
ATOM     20  O   UNL     1      40.925  30.258   5.601  1.00  0.00    -0.490 OA
ATOM     21  C   UNL     1      41.937  30.917   6.353  1.00  0.00     0.278 C 
ENDBRANCH   8  20
BRANCH  11  22
ATOM     22  O   UNL     1      35.524  29.772   7.110  1.00  0.00    -0.492 OA
ATOM     23  C   UNL     1      34.591  28.841   6.571  1.00  0.00     0.278 C 
ENDBRANCH  11  22
BRANCH   9  24
ATOM     24  O   UNL     1      40.109  28.013   7.202  1.00  0.00    -0.490 OA
ATOM     25  C   UNL     1      40.843  28.036   8.421  1.00  0.00     0.279 C 
ENDBRANCH   9  24
BRANCH  10  26
ATOM     26  O   UNL     1      37.304  27.685   7.744  1.00  0.00    -0.490 OA
ATOM     27  C   UNL     1      37.224  27.615   9.164  1.00  0.00     0.278 C 
ENDBRANCH  10  26
TORSDOF 6
ENDMDL
