MODEL 1
REMARK VINA RESULT:    -4.504      0.000      0.000
REMARK INTER + INTRA:          -5.768
REMARK INTER:                  -5.425
REMARK INTRA:                  -0.343
REMARK UNBOUND:                -0.343
REMARK SMILES NC(=O)C[C@H]([NH3+])C(=O)[O-]
REMARK SMILES IDX 4 1 5 2 6 3 7 7 8 8 9 9 2 10 3 11 1 12
REMARK H PARENT 6 4 6 5 6 6 1 13 1 14
REMARK Flexibility Score: inf
ROOT
ATOM      1  C   UNL     1       0.845  -7.996  -0.118  1.00  0.00     0.171 C 
ENDROOT
BRANCH   1   2
ATOM      2  C   UNL     1       1.891  -9.116  -0.305  1.00  0.00     0.237 C 
BRANCH   2   3
ATOM      3  N   UNL     1       1.259 -10.435  -0.453  1.00  0.00    -0.350 N 
ATOM      4  H   UNL     1       1.353 -10.760  -1.442  1.00  0.00     0.345 HD
ATOM      5  H   UNL     1       1.704 -11.141   0.178  1.00  0.00     0.345 HD
ATOM      6  H   UNL     1       0.240 -10.368  -0.226  1.00  0.00     0.345 HD
ENDBRANCH   2   3
BRANCH   2   7
ATOM      7  C   UNL     1       2.907  -9.115   0.808  1.00  0.00     0.100 C 
ATOM      8  O   UNL     1       2.546  -9.198   2.012  1.00  0.00    -0.544 OA
ATOM      9  O   UNL     1       4.256  -8.967   0.510  1.00  0.00    -0.544 OA
ENDBRANCH   2   7
ENDBRANCH   1   2
BRANCH   1  10
ATOM     10  C   UNL     1      -0.549  -8.515   0.100  1.00  0.00     0.223 C 
ATOM     11  O   UNL     1      -1.272  -8.804  -0.892  1.00  0.00    -0.275 OA
ATOM     12  N   UNL     1      -1.056  -8.701   1.421  1.00  0.00    -0.369 N 
ATOM     13  H   UNL     1      -2.021  -9.073   1.568  1.00  0.00     0.159 HD
ATOM     14  H   UNL     1      -0.470  -8.469   2.254  1.00  0.00     0.159 HD
ENDBRANCH   1  10
TORSDOF 4
ENDMDL
MODEL 2
REMARK VINA RESULT:    -4.467      3.796      4.691
REMARK INTER + INTRA:          -5.724
REMARK INTER:                  -5.343
REMARK INTRA:                  -0.381
REMARK UNBOUND:                -0.343
REMARK SMILES NC(=O)C[C@H]([NH3+])C(=O)[O-]
REMARK SMILES IDX 4 1 5 2 6 3 7 7 8 8 9 9 2 10 3 11 1 12
REMARK H PARENT 6 4 6 5 6 6 1 13 1 14
REMARK Flexibility Score: inf
ROOT
ATOM      1  C   UNL     1       2.346  -5.296  -1.956  1.00  0.00     0.171 C 
ENDROOT
BRANCH   1   2
ATOM      2  C   UNL     1       2.515  -6.093  -0.645  1.00  0.00     0.237 C 
BRANCH   2   3
ATOM      3  N   UNL     1       3.917  -6.130  -0.205  1.00  0.00    -0.350 N 
ATOM      4  H   UNL     1       4.222  -7.124  -0.088  1.00  0.00     0.345 HD
ATOM      5  H   UNL     1       4.545  -5.664  -0.901  1.00  0.00     0.345 HD
ATOM      6  H   UNL     1       4.012  -5.648   0.718  1.00  0.00     0.345 HD
ENDBRANCH   2   3
BRANCH   2   7
ATOM      7  C   UNL     1       1.938  -7.480  -0.763  1.00  0.00     0.100 C 
ATOM      8  O   UNL     1       0.692  -7.661  -0.780  1.00  0.00    -0.544 OA
ATOM      9  O   UNL     1       2.788  -8.579  -0.801  1.00  0.00    -0.544 OA
ENDBRANCH   2   7
ENDBRANCH   1   2
BRANCH   1  10
ATOM     10  C   UNL     1       3.133  -5.865  -3.104  1.00  0.00     0.223 C 
ATOM     11  O   UNL     1       4.387  -5.961  -3.017  1.00  0.00    -0.275 OA
ATOM     12  N   UNL     1       2.470  -6.316  -4.285  1.00  0.00    -0.369 N 
ATOM     13  H   UNL     1       3.020  -6.722  -5.075  1.00  0.00     0.159 HD
ATOM     14  H   UNL     1       1.432  -6.247  -4.374  1.00  0.00     0.159 HD
ENDBRANCH   1  10
TORSDOF 4
ENDMDL
MODEL 3
REMARK VINA RESULT:    -4.421      6.821      8.086
REMARK INTER + INTRA:          -5.668
REMARK INTER:                  -5.311
REMARK INTRA:                  -0.357
REMARK UNBOUND:                -0.343
REMARK SMILES NC(=O)C[C@H]([NH3+])C(=O)[O-]
REMARK SMILES IDX 4 1 5 2 6 3 7 7 8 8 9 9 2 10 3 11 1 12
REMARK H PARENT 6 4 6 5 6 6 1 13 1 14
REMARK Flexibility Score: inf
ROOT
ATOM      1  C   UNL     1      -4.235  -4.739   4.204  1.00  0.00     0.171 C 
ENDROOT
BRANCH   1   2
ATOM      2  C   UNL     1      -4.409  -5.266   2.764  1.00  0.00     0.237 C 
BRANCH   2   3
ATOM      3  N   UNL     1      -5.648  -4.771   2.147  1.00  0.00    -0.350 N 
ATOM      4  H   UNL     1      -5.964  -3.905   2.641  1.00  0.00     0.345 HD
ATOM      5  H   UNL     1      -5.504  -4.548   1.135  1.00  0.00     0.345 HD
ATOM      6  H   UNL     1      -6.401  -5.491   2.234  1.00  0.00     0.345 HD
ENDBRANCH   2   3
BRANCH   2   7
ATOM      7  C   UNL     1      -4.331  -6.770   2.712  1.00  0.00     0.100 C 
ATOM      8  O   UNL     1      -3.219  -7.361   2.751  1.00  0.00    -0.544 OA
ATOM      9  O   UNL     1      -5.494  -7.516   2.566  1.00  0.00    -0.544 OA
ENDBRANCH   2   7
ENDBRANCH   1   2
BRANCH   1  10
ATOM     10  C   UNL     1      -5.333  -5.176   5.134  1.00  0.00     0.223 C 
ATOM     11  O   UNL     1      -6.537  -4.973   4.821  1.00  0.00    -0.275 OA
ATOM     12  N   UNL     1      -5.024  -5.836   6.361  1.00  0.00    -0.369 N 
ATOM     13  H   UNL     1      -5.790  -6.149   6.999  1.00  0.00     0.159 HD
ATOM     14  H   UNL     1      -4.032  -6.015   6.636  1.00  0.00     0.159 HD
ENDBRANCH   1  10
TORSDOF 4
ENDMDL
MODEL 4
REMARK VINA RESULT:    -4.347      3.149      3.684
REMARK INTER + INTRA:          -5.579
REMARK INTER:                  -5.335
REMARK INTRA:                  -0.244
REMARK UNBOUND:                -0.343
REMARK SMILES NC(=O)C[C@H]([NH3+])C(=O)[O-]
REMARK SMILES IDX 4 1 5 2 6 3 7 7 8 8 9 9 2 10 3 11 1 12
REMARK H PARENT 6 4 6 5 6 6 1 13 1 14
REMARK Flexibility Score: inf
ROOT
ATOM      1  C   UNL     1       1.020  -7.606  -0.511  1.00  0.00     0.171 C 
ENDROOT
BRANCH   1   2
ATOM      2  C   UNL     1       2.362  -7.232  -1.175  1.00  0.00     0.237 C 
BRANCH   2   3
ATOM      3  N   UNL     1       3.450  -7.132  -0.191  1.00  0.00    -0.350 N 
ATOM      4  H   UNL     1       4.351  -7.428  -0.632  1.00  0.00     0.345 HD
ATOM      5  H   UNL     1       3.552  -6.152   0.161  1.00  0.00     0.345 HD
ATOM      6  H   UNL     1       3.257  -7.767   0.617  1.00  0.00     0.345 HD
ENDBRANCH   2   3
BRANCH   2   7
ATOM      7  C   UNL     1       2.243  -5.972  -1.994  1.00  0.00     0.100 C 
ATOM      8  O   UNL     1       2.778  -5.889  -3.132  1.00  0.00    -0.544 OA
ATOM      9  O   UNL     1       1.581  -4.869  -1.470  1.00  0.00    -0.544 OA
ENDBRANCH   2   7
ENDBRANCH   1   2
BRANCH   1  10
ATOM     10  C   UNL     1       0.822  -9.089  -0.363  1.00  0.00     0.223 C 
ATOM     11  O   UNL     1       1.821  -9.842  -0.210  1.00  0.00    -0.275 OA
ATOM     12  N   UNL     1      -0.490  -9.650  -0.376  1.00  0.00    -0.369 N 
ATOM     13  H   UNL     1      -0.624 -10.680  -0.261  1.00  0.00     0.159 HD
ATOM     14  H   UNL     1      -1.330  -9.042  -0.500  1.00  0.00     0.159 HD
ENDBRANCH   1  10
TORSDOF 4
ENDMDL
MODEL 5
REMARK VINA RESULT:    -4.345      4.110      6.706
REMARK INTER + INTRA:          -5.577
REMARK INTER:                  -5.251
REMARK INTRA:                  -0.326
REMARK UNBOUND:                -0.343
REMARK SMILES NC(=O)C[C@H]([NH3+])C(=O)[O-]
REMARK SMILES IDX 4 1 5 2 6 3 7 7 8 8 9 9 2 10 3 11 1 12
REMARK H PARENT 6 4 6 5 6 6 1 13 1 14
REMARK Flexibility Score: inf
ROOT
ATOM      1  C   UNL     1      -3.539  -7.768   1.776  1.00  0.00     0.171 C 
ENDROOT
BRANCH   1   2
ATOM      2  C   UNL     1      -4.715  -8.708   2.115  1.00  0.00     0.237 C 
BRANCH   2   3
ATOM      3  N   UNL     1      -4.253 -10.064   2.446  1.00  0.00    -0.350 N 
ATOM      4  H   UNL     1      -5.059 -10.635   2.790  1.00  0.00     0.345 HD
ATOM      5  H   UNL     1      -3.836 -10.537   1.611  1.00  0.00     0.345 HD
ATOM      6  H   UNL     1      -3.537 -10.019   3.207  1.00  0.00     0.345 HD
ENDBRANCH   2   3
BRANCH   2   7
ATOM      7  C   UNL     1      -5.740  -8.731   1.010  1.00  0.00     0.100 C 
ATOM      8  O   UNL     1      -5.401  -8.547  -0.189  1.00  0.00    -0.544 OA
ATOM      9  O   UNL     1      -7.083  -8.904   1.320  1.00  0.00    -0.544 OA
ENDBRANCH   2   7
ENDBRANCH   1   2
BRANCH   1  10
ATOM     10  C   UNL     1      -2.207  -8.466   1.755  1.00  0.00     0.223 C 
ATOM     11  O   UNL     1      -1.589  -8.670   2.835  1.00  0.00    -0.275 OA
ATOM     12  N   UNL     1      -1.644  -8.916   0.523  1.00  0.00    -0.369 N 
ATOM     13  H   UNL     1      -0.724  -9.411   0.514  1.00  0.00     0.159 HD
ATOM     14  H   UNL     1      -2.142  -8.757  -0.381  1.00  0.00     0.159 HD
ENDBRANCH   1  10
TORSDOF 4
ENDMDL
MODEL 6
REMARK VINA RESULT:    -4.312      2.489      3.932
REMARK INTER + INTRA:          -5.537
REMARK INTER:                  -5.189
REMARK INTRA:                  -0.348
REMARK UNBOUND:                -0.343
REMARK SMILES NC(=O)C[C@H]([NH3+])C(=O)[O-]
REMARK SMILES IDX 4 1 5 2 6 3 7 7 8 8 9 9 2 10 3 11 1 12
REMARK H PARENT 6 4 6 5 6 6 1 13 1 14
REMARK Flexibility Score: inf
ROOT
ATOM      1  C   UNL     1       2.749  -9.292  -0.061  1.00  0.00     0.171 C 
ENDROOT
BRANCH   1   2
ATOM      2  C   UNL     1       2.843  -7.928  -0.776  1.00  0.00     0.237 C 
BRANCH   2   3
ATOM      3  N   UNL     1       3.848  -7.053  -0.155  1.00  0.00    -0.350 N 
ATOM      4  H   UNL     1       3.423  -6.553   0.659  1.00  0.00     0.345 HD
ATOM      5  H   UNL     1       4.673  -7.603   0.180  1.00  0.00     0.345 HD
ATOM      6  H   UNL     1       4.172  -6.338  -0.846  1.00  0.00     0.345 HD
ENDBRANCH   2   3
BRANCH   2   7
ATOM      7  C   UNL     1       1.498  -7.251  -0.856  1.00  0.00     0.100 C 
ATOM      8  O   UNL     1       0.483  -7.769  -0.320  1.00  0.00    -0.544 OA
ATOM      9  O   UNL     1       1.363  -6.069  -1.573  1.00  0.00    -0.544 OA
ENDBRANCH   2   7
ENDBRANCH   1   2
BRANCH   1  10
ATOM     10  C   UNL     1       3.360  -9.287   1.312  1.00  0.00     0.223 C 
ATOM     11  O   UNL     1       4.614  -9.325   1.440  1.00  0.00    -0.275 OA
ATOM     12  N   UNL     1       2.534  -9.222   2.474  1.00  0.00    -0.369 N 
ATOM     13  H   UNL     1       2.963  -9.206   3.426  1.00  0.00     0.159 HD
ATOM     14  H   UNL     1       1.493  -9.188   2.388  1.00  0.00     0.159 HD
ENDBRANCH   1  10
TORSDOF 4
ENDMDL
MODEL 7
REMARK VINA RESULT:    -4.306      1.940      4.009
REMARK INTER + INTRA:          -5.530
REMARK INTER:                  -5.320
REMARK INTRA:                  -0.209
REMARK UNBOUND:                -0.343
REMARK SMILES NC(=O)C[C@H]([NH3+])C(=O)[O-]
REMARK SMILES IDX 4 1 5 2 6 3 7 7 8 8 9 9 2 10 3 11 1 12
REMARK H PARENT 6 4 6 5 6 6 1 13 1 14
REMARK Flexibility Score: inf
ROOT
ATOM      1  C   UNL     1       2.993  -8.890  -0.036  1.00  0.00     0.171 C 
ENDROOT
BRANCH   1   2
ATOM      2  C   UNL     1       1.506  -9.281   0.099  1.00  0.00     0.237 C 
BRANCH   2   3
ATOM      3  N   UNL     1       1.235 -10.607  -0.475  1.00  0.00    -0.350 N 
ATOM      4  H   UNL     1       0.213 -10.698  -0.679  1.00  0.00     0.345 HD
ATOM      5  H   UNL     1       1.771 -10.752  -1.362  1.00  0.00     0.345 HD
ATOM      6  H   UNL     1       1.500 -11.351   0.210  1.00  0.00     0.345 HD
ENDBRANCH   2   3
BRANCH   2   7
ATOM      7  C   UNL     1       0.602  -8.230  -0.491  1.00  0.00     0.100 C 
ATOM      8  O   UNL     1       1.032  -7.071  -0.733  1.00  0.00    -0.544 OA
ATOM      9  O   UNL     1      -0.736  -8.523  -0.724  1.00  0.00    -0.544 OA
ENDBRANCH   2   7
ENDBRANCH   1   2
BRANCH   1  10
ATOM     10  C   UNL     1       3.813  -9.243   1.174  1.00  0.00     0.223 C 
ATOM     11  O   UNL     1       3.381 -10.095   1.997  1.00  0.00    -0.275 OA
ATOM     12  N   UNL     1       5.086  -8.636   1.390  1.00  0.00    -0.369 N 
ATOM     13  H   UNL     1       5.658  -8.892   2.226  1.00  0.00     0.159 HD
ATOM     14  H   UNL     1       5.462  -7.930   0.718  1.00  0.00     0.159 HD
ENDBRANCH   1  10
TORSDOF 4
ENDMDL
MODEL 8
REMARK VINA RESULT:    -4.293      2.162      2.388
REMARK INTER + INTRA:          -5.514
REMARK INTER:                  -5.288
REMARK INTRA:                  -0.226
REMARK UNBOUND:                -0.343
REMARK SMILES NC(=O)C[C@H]([NH3+])C(=O)[O-]
REMARK SMILES IDX 4 1 5 2 6 3 7 7 8 8 9 9 2 10 3 11 1 12
REMARK H PARENT 6 4 6 5 6 6 1 13 1 14
REMARK Flexibility Score: inf
ROOT
ATOM      1  C   UNL     1       1.250  -7.852  -0.100  1.00  0.00     0.171 C 
ENDROOT
BRANCH   1   2
ATOM      2  C   UNL     1       2.133  -9.102  -0.303  1.00  0.00     0.237 C 
BRANCH   2   3
ATOM      3  N   UNL     1       1.328 -10.326  -0.423  1.00  0.00    -0.350 N 
ATOM      4  H   UNL     1       0.824 -10.327  -1.339  1.00  0.00     0.345 HD
ATOM      5  H   UNL     1       1.928 -11.181  -0.366  1.00  0.00     0.345 HD
ATOM      6  H   UNL     1       0.615 -10.358   0.342  1.00  0.00     0.345 HD
ENDBRANCH   2   3
BRANCH   2   7
ATOM      7  C   UNL     1       3.170  -9.229   0.783  1.00  0.00     0.100 C 
ATOM      8  O   UNL     1       2.895  -9.793   1.875  1.00  0.00    -0.544 OA
ATOM      9  O   UNL     1       4.430  -8.672   0.601  1.00  0.00    -0.544 OA
ENDBRANCH   2   7
ENDBRANCH   1   2
BRANCH   1  10
ATOM     10  C   UNL     1       1.830  -6.608  -0.715  1.00  0.00     0.223 C 
ATOM     11  O   UNL     1       1.343  -6.153  -1.785  1.00  0.00    -0.275 OA
ATOM     12  N   UNL     1       2.915  -5.927  -0.087  1.00  0.00    -0.369 N 
ATOM     13  H   UNL     1       3.307  -5.056  -0.511  1.00  0.00     0.159 HD
ATOM     14  H   UNL     1       3.330  -6.288   0.802  1.00  0.00     0.159 HD
ENDBRANCH   1  10
TORSDOF 4
ENDMDL
MODEL 9
REMARK VINA RESULT:    -4.281      5.994      7.157
REMARK INTER + INTRA:          -5.500
REMARK INTER:                  -5.245
REMARK INTRA:                  -0.255
REMARK UNBOUND:                -0.343
REMARK SMILES NC(=O)C[C@H]([NH3+])C(=O)[O-]
REMARK SMILES IDX 4 1 5 2 6 3 7 7 8 8 9 9 2 10 3 11 1 12
REMARK H PARENT 6 4 6 5 6 6 1 13 1 14
REMARK Flexibility Score: inf
ROOT
ATOM      1  C   UNL     1      -3.651  -7.282   2.510  1.00  0.00     0.171 C 
ENDROOT
BRANCH   1   2
ATOM      2  C   UNL     1      -4.873  -6.644   3.205  1.00  0.00     0.237 C 
BRANCH   2   3
ATOM      3  N   UNL     1      -5.947  -6.339   2.249  1.00  0.00    -0.350 N 
ATOM      4  H   UNL     1      -5.540  -5.898   1.392  1.00  0.00     0.345 HD
ATOM      5  H   UNL     1      -6.463  -7.205   1.970  1.00  0.00     0.345 HD
ATOM      6  H   UNL     1      -6.621  -5.663   2.676  1.00  0.00     0.345 HD
ENDBRANCH   2   3
BRANCH   2   7
ATOM      7  C   UNL     1      -4.482  -5.425   4.001  1.00  0.00     0.100 C 
ATOM      8  O   UNL     1      -5.026  -5.178   5.110  1.00  0.00    -0.544 OA
ATOM      9  O   UNL     1      -3.551  -4.533   3.484  1.00  0.00    -0.544 OA
ENDBRANCH   2   7
ENDBRANCH   1   2
BRANCH   1  10
ATOM     10  C   UNL     1      -3.807  -8.758   2.271  1.00  0.00     0.223 C 
ATOM     11  O   UNL     1      -4.957  -9.248   2.106  1.00  0.00    -0.275 OA
ATOM     12  N   UNL     1      -2.662  -9.608   2.210  1.00  0.00    -0.369 N 
ATOM     13  H   UNL     1      -2.774 -10.631   2.032  1.00  0.00     0.159 HD
ATOM     14  H   UNL     1      -1.701  -9.220   2.342  1.00  0.00     0.159 HD
ENDBRANCH   1  10
TORSDOF 4
ENDMDL
