MODEL 1
REMARK VINA RESULT:    -5.232      0.000      0.000
REMARK INTER + INTRA:          -5.818
REMARK INTER:                  -5.690
REMARK INTRA:                  -0.128
REMARK UNBOUND:                -0.128
REMARK SMILES Cc1ccc(C(C)C)cc1O
REMARK SMILES IDX 1 1 2 2 10 3 9 4 5 5 4 6 3 7 11 8 6 10 7 11 8 12
REMARK H PARENT 11 9
REMARK Flexibility Score: inf
ROOT
ATOM      1  C   UNL     1     110.460 118.793 118.284  1.00  0.00     0.048 C 
ATOM      2  C   UNL     1     110.073 119.524 119.541  1.00  0.00    -0.009 A 
ATOM      3  C   UNL     1     110.991 119.692 120.601  1.00  0.00     0.118 A 
ATOM      4  C   UNL     1     110.601 120.376 121.758  1.00  0.00     0.050 A 
ATOM      5  C   UNL     1     109.302 120.903 121.883  1.00  0.00    -0.042 A 
ATOM      6  C   UNL     1     108.397 120.731 120.824  1.00  0.00     0.004 A 
ATOM      7  C   UNL     1     108.778 120.049 119.667  1.00  0.00     0.007 A 
ENDROOT
BRANCH   3   8
ATOM      8  O   UNL     1     112.294 119.192 120.537  1.00  0.00    -0.508 OA
ATOM      9  H   UNL     1     112.751 118.742 121.320  1.00  0.00     0.293 HD
ENDBRANCH   3   8
BRANCH   5  10
ATOM     10  C   UNL     1     108.874 121.646 123.134  1.00  0.00     0.013 C 
ATOM     11  C   UNL     1     109.823 122.812 123.436  1.00  0.00     0.012 C 
ATOM     12  C   UNL     1     107.423 122.129 123.022  1.00  0.00     0.012 C 
ENDBRANCH   5  10
TORSDOF 2
ENDMDL
MODEL 2
REMARK VINA RESULT:    -5.175      4.067      5.297
REMARK INTER + INTRA:          -5.757
REMARK INTER:                  -5.628
REMARK INTRA:                  -0.128
REMARK UNBOUND:                -0.128
REMARK SMILES Cc1ccc(C(C)C)cc1O
REMARK SMILES IDX 1 1 2 2 10 3 9 4 5 5 4 6 3 7 11 8 6 10 7 11 8 12
REMARK H PARENT 11 9
REMARK Flexibility Score: inf
ROOT
ATOM      1  C   UNL     1     104.660 124.391 118.076  1.00  0.00     0.048 C 
ATOM      2  C   UNL     1     105.876 123.584 118.443  1.00  0.00    -0.009 A 
ATOM      3  C   UNL     1     107.163 123.956 117.996  1.00  0.00     0.118 A 
ATOM      4  C   UNL     1     108.275 123.184 118.354  1.00  0.00     0.050 A 
ATOM      5  C   UNL     1     108.130 122.037 119.157  1.00  0.00    -0.042 A 
ATOM      6  C   UNL     1     106.847 121.675 119.596  1.00  0.00     0.004 A 
ATOM      7  C   UNL     1     105.733 122.439 119.243  1.00  0.00     0.007 A 
ENDROOT
BRANCH   3   8
ATOM      8  O   UNL     1     107.371 125.082 117.197  1.00  0.00    -0.508 OA
ATOM      9  H   UNL     1     107.647 125.026 116.226  1.00  0.00     0.293 HD
ENDBRANCH   3   8
BRANCH   5  10
ATOM     10  C   UNL     1     109.331 121.197 119.548  1.00  0.00     0.013 C 
ATOM     11  C   UNL     1     109.716 121.432 121.014  1.00  0.00     0.012 C 
ATOM     12  C   UNL     1     109.080 119.710 119.274  1.00  0.00     0.012 C 
ENDBRANCH   5  10
TORSDOF 2
ENDMDL
MODEL 3
REMARK VINA RESULT:    -5.139      2.376      4.556
REMARK INTER + INTRA:          -5.717
REMARK INTER:                  -5.589
REMARK INTRA:                  -0.127
REMARK UNBOUND:                -0.128
REMARK SMILES Cc1ccc(C(C)C)cc1O
REMARK SMILES IDX 1 1 2 2 10 3 9 4 5 5 4 6 3 7 11 8 6 10 7 11 8 12
REMARK H PARENT 11 9
REMARK Flexibility Score: inf
ROOT
ATOM      1  C   UNL     1     105.975 121.680 122.766  1.00  0.00     0.048 C 
ATOM      2  C   UNL     1     107.179 121.256 121.970  1.00  0.00    -0.009 A 
ATOM      3  C   UNL     1     107.209 121.384 120.564  1.00  0.00     0.118 A 
ATOM      4  C   UNL     1     108.344 120.980 119.852  1.00  0.00     0.050 A 
ATOM      5  C   UNL     1     109.462 120.443 120.518  1.00  0.00    -0.042 A 
ATOM      6  C   UNL     1     109.423 120.319 121.915  1.00  0.00     0.004 A 
ATOM      7  C   UNL     1     108.294 120.720 122.633  1.00  0.00     0.007 A 
ENDROOT
BRANCH   3   8
ATOM      8  O   UNL     1     106.131 121.908 119.847  1.00  0.00    -0.508 OA
ATOM      9  H   UNL     1     105.296 121.377 119.639  1.00  0.00     0.293 HD
ENDBRANCH   3   8
BRANCH   5  10
ATOM     10  C   UNL     1     110.695 120.004 119.751  1.00  0.00     0.013 C 
ATOM     11  C   UNL     1     111.837 119.634 120.705  1.00  0.00     0.012 C 
ATOM     12  C   UNL     1     110.371 118.844 118.802  1.00  0.00     0.012 C 
ENDBRANCH   5  10
TORSDOF 2
ENDMDL
MODEL 4
REMARK VINA RESULT:    -5.106      1.689      3.091
REMARK INTER + INTRA:          -5.682
REMARK INTER:                  -5.582
REMARK INTRA:                  -0.100
REMARK UNBOUND:                -0.128
REMARK SMILES Cc1ccc(C(C)C)cc1O
REMARK SMILES IDX 1 1 2 2 10 3 9 4 5 5 4 6 3 7 11 8 6 10 7 11 8 12
REMARK H PARENT 11 9
REMARK Flexibility Score: inf
ROOT
ATOM      1  C   UNL     1     112.294 119.877 120.962  1.00  0.00     0.048 C 
ATOM      2  C   UNL     1     110.850 120.221 120.714  1.00  0.00    -0.009 A 
ATOM      3  C   UNL     1     110.135 119.645 119.641  1.00  0.00     0.118 A 
ATOM      4  C   UNL     1     108.793 119.985 119.436  1.00  0.00     0.050 A 
ATOM      5  C   UNL     1     108.141 120.898 120.287  1.00  0.00    -0.042 A 
ATOM      6  C   UNL     1     108.860 121.465 121.351  1.00  0.00     0.004 A 
ATOM      7  C   UNL     1     110.199 121.131 121.561  1.00  0.00     0.007 A 
ENDROOT
BRANCH   3   8
ATOM      8  O   UNL     1     110.727 118.735 118.762  1.00  0.00    -0.508 OA
ATOM      9  H   UNL     1     111.268 117.939 119.075  1.00  0.00     0.293 HD
ENDBRANCH   3   8
BRANCH   5  10
ATOM     10  C   UNL     1     106.686 121.270 120.070  1.00  0.00     0.013 C 
ATOM     11  C   UNL     1     106.540 122.293 118.936  1.00  0.00     0.012 C 
ATOM     12  C   UNL     1     105.831 120.026 119.804  1.00  0.00     0.012 C 
ENDBRANCH   5  10
TORSDOF 2
ENDMDL
MODEL 5
REMARK VINA RESULT:    -5.035      1.377      2.681
REMARK INTER + INTRA:          -5.605
REMARK INTER:                  -5.477
REMARK INTRA:                  -0.127
REMARK UNBOUND:                -0.128
REMARK SMILES Cc1ccc(C(C)C)cc1O
REMARK SMILES IDX 1 1 2 2 10 3 9 4 5 5 4 6 3 7 11 8 6 10 7 11 8 12
REMARK H PARENT 11 9
REMARK Flexibility Score: inf
ROOT
ATOM      1  C   UNL     1     112.705 120.262 121.001  1.00  0.00     0.048 C 
ATOM      2  C   UNL     1     111.220 120.473 121.109  1.00  0.00    -0.009 A 
ATOM      3  C   UNL     1     110.322 119.821 120.235  1.00  0.00     0.118 A 
ATOM      4  C   UNL     1     108.945 120.039 120.360  1.00  0.00     0.050 A 
ATOM      5  C   UNL     1     108.438 120.903 121.349  1.00  0.00    -0.042 A 
ATOM      6  C   UNL     1     109.337 121.546 122.213  1.00  0.00     0.004 A 
ATOM      7  C   UNL     1     110.712 121.335 122.094  1.00  0.00     0.007 A 
ENDROOT
BRANCH   3   8
ATOM      8  O   UNL     1     110.765 118.953 119.234  1.00  0.00    -0.508 OA
ATOM      9  H   UNL     1     111.288 118.109 119.427  1.00  0.00     0.293 HD
ENDBRANCH   3   8
BRANCH   5  10
ATOM     10  C   UNL     1     106.946 121.142 121.489  1.00  0.00     0.013 C 
ATOM     11  C   UNL     1     106.154 119.849 121.255  1.00  0.00     0.012 C 
ATOM     12  C   UNL     1     106.610 121.755 122.853  1.00  0.00     0.012 C 
ENDBRANCH   5  10
TORSDOF 2
ENDMDL
MODEL 6
REMARK VINA RESULT:    -5.012      1.953      3.394
REMARK INTER + INTRA:          -5.579
REMARK INTER:                  -5.477
REMARK INTRA:                  -0.102
REMARK UNBOUND:                -0.128
REMARK SMILES Cc1ccc(C(C)C)cc1O
REMARK SMILES IDX 1 1 2 2 10 3 9 4 5 5 4 6 3 7 11 8 6 10 7 11 8 12
REMARK H PARENT 11 9
REMARK Flexibility Score: inf
ROOT
ATOM      1  C   UNL     1     112.220 119.879 120.945  1.00  0.00     0.048 C 
ATOM      2  C   UNL     1     110.811 120.117 120.474  1.00  0.00    -0.009 A 
ATOM      3  C   UNL     1     110.014 121.138 121.036  1.00  0.00     0.118 A 
ATOM      4  C   UNL     1     108.707 121.335 120.576  1.00  0.00     0.050 A 
ATOM      5  C   UNL     1     108.170 120.526 119.557  1.00  0.00    -0.042 A 
ATOM      6  C   UNL     1     108.970 119.513 119.004  1.00  0.00     0.004 A 
ATOM      7  C   UNL     1     110.275 119.310 119.458  1.00  0.00     0.007 A 
ENDROOT
BRANCH   3   8
ATOM      8  O   UNL     1     110.490 121.973 122.050  1.00  0.00    -0.508 OA
ATOM      9  H   UNL     1     110.103 122.889 122.237  1.00  0.00     0.293 HD
ENDBRANCH   3   8
BRANCH   5  10
ATOM     10  C   UNL     1     106.754 120.734 119.055  1.00  0.00     0.013 C 
ATOM     11  C   UNL     1     105.744 119.959 119.910  1.00  0.00     0.012 C 
ATOM     12  C   UNL     1     106.401 122.225 119.000  1.00  0.00     0.012 C 
ENDBRANCH   5  10
TORSDOF 2
ENDMDL
MODEL 7
REMARK VINA RESULT:    -5.001      2.822      4.105
REMARK INTER + INTRA:          -5.567
REMARK INTER:                  -5.445
REMARK INTRA:                  -0.122
REMARK UNBOUND:                -0.128
REMARK SMILES Cc1ccc(C(C)C)cc1O
REMARK SMILES IDX 1 1 2 2 10 3 9 4 5 5 4 6 3 7 11 8 6 10 7 11 8 12
REMARK H PARENT 11 9
REMARK Flexibility Score: inf
ROOT
ATOM      1  C   UNL     1     105.590 122.428 118.726  1.00  0.00     0.048 C 
ATOM      2  C   UNL     1     106.797 121.945 119.483  1.00  0.00    -0.009 A 
ATOM      3  C   UNL     1     106.668 121.329 120.748  1.00  0.00     0.118 A 
ATOM      4  C   UNL     1     107.811 120.890 121.428  1.00  0.00     0.050 A 
ATOM      5  C   UNL     1     109.092 121.056 120.869  1.00  0.00    -0.042 A 
ATOM      6  C   UNL     1     109.209 121.669 119.612  1.00  0.00     0.004 A 
ATOM      7  C   UNL     1     108.075 122.110 118.928  1.00  0.00     0.007 A 
ENDROOT
BRANCH   3   8
ATOM      8  O   UNL     1     105.425 121.137 121.354  1.00  0.00    -0.508 OA
ATOM      9  H   UNL     1     104.797 121.899 121.576  1.00  0.00     0.293 HD
ENDBRANCH   3   8
BRANCH   5  10
ATOM     10  C   UNL     1     110.333 120.582 121.602  1.00  0.00     0.013 C 
ATOM     11  C   UNL     1     109.963 119.751 122.837  1.00  0.00     0.012 C 
ATOM     12  C   UNL     1     111.262 119.798 120.667  1.00  0.00     0.012 C 
ENDBRANCH   5  10
TORSDOF 2
ENDMDL
MODEL 8
REMARK VINA RESULT:    -4.905      2.998      4.270
REMARK INTER + INTRA:          -5.463
REMARK INTER:                  -5.338
REMARK INTRA:                  -0.125
REMARK UNBOUND:                -0.128
REMARK SMILES Cc1ccc(C(C)C)cc1O
REMARK SMILES IDX 1 1 2 2 10 3 9 4 5 5 4 6 3 7 11 8 6 10 7 11 8 12
REMARK H PARENT 11 9
REMARK Flexibility Score: inf
ROOT
ATOM      1  C   UNL     1     109.941 119.944 122.483  1.00  0.00     0.048 C 
ATOM      2  C   UNL     1     109.154 120.676 121.431  1.00  0.00    -0.009 A 
ATOM      3  C   UNL     1     107.745 120.758 121.496  1.00  0.00     0.118 A 
ATOM      4  C   UNL     1     107.041 121.446 120.501  1.00  0.00     0.050 A 
ATOM      5  C   UNL     1     107.717 122.060 119.430  1.00  0.00    -0.042 A 
ATOM      6  C   UNL     1     109.117 121.973 119.374  1.00  0.00     0.004 A 
ATOM      7  C   UNL     1     109.827 121.289 120.362  1.00  0.00     0.007 A 
ENDROOT
BRANCH   3   8
ATOM      8  O   UNL     1     107.017 120.169 122.532  1.00  0.00    -0.508 OA
ATOM      9  H   UNL     1     107.434 119.896 123.413  1.00  0.00     0.293 HD
ENDBRANCH   3   8
BRANCH   5  10
ATOM     10  C   UNL     1     106.959 122.807 118.349  1.00  0.00     0.013 C 
ATOM     11  C   UNL     1     105.559 123.207 118.832  1.00  0.00     0.012 C 
ATOM     12  C   UNL     1     107.746 124.030 117.865  1.00  0.00     0.012 C 
ENDBRANCH   5  10
TORSDOF 2
ENDMDL
MODEL 9
REMARK VINA RESULT:    -4.889      2.387      3.721
REMARK INTER + INTRA:          -5.445
REMARK INTER:                  -5.318
REMARK INTRA:                  -0.127
REMARK UNBOUND:                -0.128
REMARK SMILES Cc1ccc(C(C)C)cc1O
REMARK SMILES IDX 1 1 2 2 10 3 9 4 5 5 4 6 3 7 11 8 6 10 7 11 8 12
REMARK H PARENT 11 9
REMARK Flexibility Score: inf
ROOT
ATOM      1  C   UNL     1     109.681 119.740 122.862  1.00  0.00     0.048 C 
ATOM      2  C   UNL     1     109.083 120.497 121.708  1.00  0.00    -0.009 A 
ATOM      3  C   UNL     1     109.893 121.013 120.673  1.00  0.00     0.118 A 
ATOM      4  C   UNL     1     109.307 121.713 119.612  1.00  0.00     0.050 A 
ATOM      5  C   UNL     1     107.914 121.912 119.560  1.00  0.00    -0.042 A 
ATOM      6  C   UNL     1     107.117 121.395 120.593  1.00  0.00     0.004 A 
ATOM      7  C   UNL     1     107.694 120.696 121.655  1.00  0.00     0.007 A 
ENDROOT
BRANCH   3   8
ATOM      8  O   UNL     1     111.280 120.849 120.669  1.00  0.00    -0.508 OA
ATOM      9  H   UNL     1     111.789 120.434 121.438  1.00  0.00     0.293 HD
ENDBRANCH   3   8
BRANCH   5  10
ATOM     10  C   UNL     1     107.273 122.670 118.413  1.00  0.00     0.013 C 
ATOM     11  C   UNL     1     105.870 123.161 118.790  1.00  0.00     0.012 C 
ATOM     12  C   UNL     1     108.161 123.833 117.953  1.00  0.00     0.012 C 
ENDBRANCH   5  10
TORSDOF 2
ENDMDL
