MODEL 1
REMARK VINA RESULT:    -4.025      0.000      0.000
REMARK INTER + INTRA:          -5.620
REMARK INTER:                  -5.319
REMARK INTRA:                  -0.301
REMARK UNBOUND:                -0.301
REMARK SMILES C=C[C@H](O)CCCCC
REMARK SMILES IDX 6 1 7 2 8 3 9 4 5 5 3 6 2 7 1 8 4 9
REMARK H PARENT 4 10
REMARK Flexibility Score: inf
ROOT
ATOM      1  C   UNL     1      -3.497  18.694  49.170  1.00  0.00     0.003 C 
ENDROOT
BRANCH   1   2
ATOM      2  C   UNL     1      -4.191  19.564  48.112  1.00  0.00    -0.000 C 
BRANCH   2   3
ATOM      3  C   UNL     1      -4.150  21.061  48.458  1.00  0.00    -0.003 C 
ATOM      4  C   UNL     1      -5.208  21.869  47.707  1.00  0.00     0.004 C 
ENDBRANCH   2   3
ENDBRANCH   1   2
BRANCH   1   5
ATOM      5  C   UNL     1      -2.754  17.520  48.514  1.00  0.00     0.036 C 
BRANCH   5   6
ATOM      6  C   UNL     1      -1.868  17.992  47.342  1.00  0.00     0.136 C 
BRANCH   6   7
ATOM      7  C   UNL     1      -2.098  17.145  46.111  1.00  0.00    -0.004 C 
ATOM      8  C   UNL     1      -3.261  17.164  45.453  1.00  0.00     0.007 C 
ENDBRANCH   6   7
BRANCH   6   9
ATOM      9  O   UNL     1      -0.508  17.964  47.698  1.00  0.00    -0.389 OA
ATOM     10  H   UNL     1       0.012  17.715  46.888  1.00  0.00     0.211 HD
ENDBRANCH   6   9
ENDBRANCH   5   6
ENDBRANCH   1   5
TORSDOF 6
ENDMDL
MODEL 2
REMARK VINA RESULT:    -4.022      4.485      7.153
REMARK INTER + INTRA:          -5.616
REMARK INTER:                  -5.364
REMARK INTRA:                  -0.252
REMARK UNBOUND:                -0.301
REMARK SMILES C=C[C@H](O)CCCCC
REMARK SMILES IDX 6 1 7 2 8 3 9 4 5 5 3 6 2 7 1 8 4 9
REMARK H PARENT 4 10
REMARK Flexibility Score: inf
ROOT
ATOM      1  C   UNL     1      -4.839  23.109  48.701  1.00  0.00     0.003 C 
ENDROOT
BRANCH   1   2
ATOM      2  C   UNL     1      -5.308  22.025  47.720  1.00  0.00    -0.000 C 
BRANCH   2   3
ATOM      3  C   UNL     1      -4.637  20.666  47.976  1.00  0.00    -0.003 C 
ATOM      4  C   UNL     1      -3.309  20.794  48.722  1.00  0.00     0.004 C 
ENDBRANCH   2   3
ENDBRANCH   1   2
BRANCH   1   5
ATOM      5  C   UNL     1      -5.851  24.262  48.769  1.00  0.00     0.036 C 
BRANCH   5   6
ATOM      6  C   UNL     1      -5.638  25.132  50.026  1.00  0.00     0.136 C 
BRANCH   6   7
ATOM      7  C   UNL     1      -5.032  24.324  51.151  1.00  0.00    -0.004 C 
ATOM      8  C   UNL     1      -4.240  24.883  52.070  1.00  0.00     0.007 C 
ENDBRANCH   6   7
BRANCH   6   9
ATOM      9  O   UNL     1      -6.848  25.712  50.447  1.00  0.00    -0.389 OA
ATOM     10  H   UNL     1      -6.974  25.486  51.407  1.00  0.00     0.211 HD
ENDBRANCH   6   9
ENDBRANCH   5   6
ENDBRANCH   1   5
TORSDOF 6
ENDMDL
MODEL 3
REMARK VINA RESULT:    -3.959      1.534      1.916
REMARK INTER + INTRA:          -5.533
REMARK INTER:                  -5.104
REMARK INTRA:                  -0.429
REMARK UNBOUND:                -0.301
REMARK SMILES C=C[C@H](O)CCCCC
REMARK SMILES IDX 6 1 7 2 8 3 9 4 5 5 3 6 2 7 1 8 4 9
REMARK H PARENT 4 10
REMARK Flexibility Score: inf
ROOT
ATOM      1  C   UNL     1      -4.299  18.849  48.462  1.00  0.00     0.003 C 
ENDROOT
BRANCH   1   2
ATOM      2  C   UNL     1      -3.845  20.307  48.627  1.00  0.00    -0.000 C 
BRANCH   2   3
ATOM      3  C   UNL     1      -4.216  21.182  47.420  1.00  0.00    -0.003 C 
ATOM      4  C   UNL     1      -5.357  22.153  47.723  1.00  0.00     0.004 C 
ENDBRANCH   2   3
ENDBRANCH   1   2
BRANCH   1   5
ATOM      5  C   UNL     1      -3.091  17.902  48.398  1.00  0.00     0.036 C 
BRANCH   5   6
ATOM      6  C   UNL     1      -2.736  17.531  46.943  1.00  0.00     0.136 C 
BRANCH   6   7
ATOM      7  C   UNL     1      -1.480  18.243  46.491  1.00  0.00    -0.004 C 
ATOM      8  C   UNL     1      -0.495  18.540  47.343  1.00  0.00     0.007 C 
ENDBRANCH   6   7
BRANCH   6   9
ATOM      9  O   UNL     1      -3.799  17.832  46.073  1.00  0.00    -0.389 OA
ATOM     10  H   UNL     1      -3.729  17.227  45.288  1.00  0.00     0.211 HD
ENDBRANCH   6   9
ENDBRANCH   5   6
ENDBRANCH   1   5
TORSDOF 6
ENDMDL
MODEL 4
REMARK VINA RESULT:    -3.930      1.536      2.222
REMARK INTER + INTRA:          -5.495
REMARK INTER:                  -5.264
REMARK INTRA:                  -0.230
REMARK UNBOUND:                -0.301
REMARK SMILES C=C[C@H](O)CCCCC
REMARK SMILES IDX 6 1 7 2 8 3 9 4 5 5 3 6 2 7 1 8 4 9
REMARK H PARENT 4 10
REMARK Flexibility Score: inf
ROOT
ATOM      1  C   UNL     1      -4.001  20.750  48.527  1.00  0.00     0.003 C 
ENDROOT
BRANCH   1   2
ATOM      2  C   UNL     1      -5.041  21.422  47.621  1.00  0.00    -0.000 C 
BRANCH   2   3
ATOM      3  C   UNL     1      -5.418  22.833  48.098  1.00  0.00    -0.003 C 
ATOM      4  C   UNL     1      -4.623  23.273  49.327  1.00  0.00     0.004 C 
ENDBRANCH   2   3
ENDBRANCH   1   2
BRANCH   1   5
ATOM      5  C   UNL     1      -4.190  19.226  48.544  1.00  0.00     0.036 C 
BRANCH   5   6
ATOM      6  C   UNL     1      -2.878  18.494  48.899  1.00  0.00     0.136 C 
BRANCH   6   7
ATOM      7  C   UNL     1      -2.441  17.584  47.773  1.00  0.00    -0.004 C 
ATOM      8  C   UNL     1      -3.035  17.611  46.577  1.00  0.00     0.007 C 
ENDBRANCH   6   7
BRANCH   6   9
ATOM      9  O   UNL     1      -3.020  17.756  50.087  1.00  0.00    -0.389 OA
ATOM     10  H   UNL     1      -2.257  17.988  50.681  1.00  0.00     0.211 HD
ENDBRANCH   6   9
ENDBRANCH   5   6
ENDBRANCH   1   5
TORSDOF 6
ENDMDL
MODEL 5
REMARK VINA RESULT:    -3.926      1.793      4.629
REMARK INTER + INTRA:          -5.489
REMARK INTER:                  -5.260
REMARK INTRA:                  -0.229
REMARK UNBOUND:                -0.301
REMARK SMILES C=C[C@H](O)CCCCC
REMARK SMILES IDX 6 1 7 2 8 3 9 4 5 5 3 6 2 7 1 8 4 9
REMARK H PARENT 4 10
REMARK Flexibility Score: inf
ROOT
ATOM      1  C   UNL     1      -4.203  19.283  48.444  1.00  0.00     0.003 C 
ENDROOT
BRANCH   1   2
ATOM      2  C   UNL     1      -3.219  18.191  48.886  1.00  0.00    -0.000 C 
BRANCH   2   3
ATOM      3  C   UNL     1      -2.080  17.978  47.876  1.00  0.00    -0.003 C 
ATOM      4  C   UNL     1      -2.402  16.901  46.841  1.00  0.00     0.004 C 
ENDBRANCH   2   3
ENDBRANCH   1   2
BRANCH   1   5
ATOM      5  C   UNL     1      -3.577  20.678  48.592  1.00  0.00     0.036 C 
BRANCH   5   6
ATOM      6  C   UNL     1      -3.986  21.611  47.433  1.00  0.00     0.136 C 
BRANCH   6   7
ATOM      7  C   UNL     1      -5.375  22.169  47.648  1.00  0.00    -0.004 C 
ATOM      8  C   UNL     1      -5.582  23.289  48.346  1.00  0.00     0.007 C 
ENDBRANCH   6   7
BRANCH   6   9
ATOM      9  O   UNL     1      -3.923  20.938  46.200  1.00  0.00    -0.389 OA
ATOM     10  H   UNL     1      -2.994  20.608  46.082  1.00  0.00     0.211 HD
ENDBRANCH   6   9
ENDBRANCH   5   6
ENDBRANCH   1   5
TORSDOF 6
ENDMDL
MODEL 6
REMARK VINA RESULT:    -3.862      3.473      5.136
REMARK INTER + INTRA:          -5.405
REMARK INTER:                  -5.207
REMARK INTRA:                  -0.198
REMARK UNBOUND:                -0.301
REMARK SMILES C=C[C@H](O)CCCCC
REMARK SMILES IDX 6 1 7 2 8 3 9 4 5 5 3 6 2 7 1 8 4 9
REMARK H PARENT 4 10
REMARK Flexibility Score: inf
ROOT
ATOM      1  C   UNL     1      -4.514  23.214  49.543  1.00  0.00     0.003 C 
ENDROOT
BRANCH   1   2
ATOM      2  C   UNL     1      -5.163  24.304  50.408  1.00  0.00    -0.000 C 
BRANCH   2   3
ATOM      3  C   UNL     1      -4.636  24.306  51.851  1.00  0.00    -0.003 C 
ATOM      4  C   UNL     1      -3.867  25.580  52.198  1.00  0.00     0.004 C 
ENDBRANCH   2   3
ENDBRANCH   1   2
BRANCH   1   5
ATOM      5  C   UNL     1      -5.314  22.989  48.252  1.00  0.00     0.036 C 
BRANCH   5   6
ATOM      6  C   UNL     1      -5.036  21.598  47.645  1.00  0.00     0.136 C 
BRANCH   6   7
ATOM      7  C   UNL     1      -4.190  20.758  48.575  1.00  0.00    -0.004 C 
ATOM      8  C   UNL     1      -4.135  19.427  48.465  1.00  0.00     0.007 C 
ENDBRANCH   6   7
BRANCH   6   9
ATOM      9  O   UNL     1      -4.406  21.712  46.393  1.00  0.00    -0.389 OA
ATOM     10  H   UNL     1      -4.992  22.261  45.808  1.00  0.00     0.211 HD
ENDBRANCH   6   9
ENDBRANCH   5   6
ENDBRANCH   1   5
TORSDOF 6
ENDMDL
MODEL 7
REMARK VINA RESULT:    -3.847      2.051      3.582
REMARK INTER + INTRA:          -5.385
REMARK INTER:                  -5.228
REMARK INTRA:                  -0.157
REMARK UNBOUND:                -0.301
REMARK SMILES C=C[C@H](O)CCCCC
REMARK SMILES IDX 6 1 7 2 8 3 9 4 5 5 3 6 2 7 1 8 4 9
REMARK H PARENT 4 10
REMARK Flexibility Score: inf
ROOT
ATOM      1  C   UNL     1      -5.263  21.870  47.732  1.00  0.00     0.003 C 
ENDROOT
BRANCH   1   2
ATOM      2  C   UNL     1      -5.449  23.286  48.296  1.00  0.00    -0.000 C 
BRANCH   2   3
ATOM      3  C   UNL     1      -4.640  23.520  49.582  1.00  0.00    -0.003 C 
ATOM      4  C   UNL     1      -5.367  24.420  50.581  1.00  0.00     0.004 C 
ENDBRANCH   2   3
ENDBRANCH   1   2
BRANCH   1   5
ATOM      5  C   UNL     1      -4.189  21.103  48.517  1.00  0.00     0.036 C 
BRANCH   5   6
ATOM      6  C   UNL     1      -4.215  19.595  48.191  1.00  0.00     0.136 C 
BRANCH   6   7
ATOM      7  C   UNL     1      -3.294  18.823  49.110  1.00  0.00    -0.004 C 
ATOM      8  C   UNL     1      -2.842  17.607  48.791  1.00  0.00     0.007 C 
ENDBRANCH   6   7
BRANCH   6   9
ATOM      9  O   UNL     1      -3.861  19.364  46.850  1.00  0.00    -0.389 OA
ATOM     10  H   UNL     1      -4.125  18.433  46.623  1.00  0.00     0.211 HD
ENDBRANCH   6   9
ENDBRANCH   5   6
ENDBRANCH   1   5
TORSDOF 6
ENDMDL
MODEL 8
REMARK VINA RESULT:    -3.770      4.581      7.356
REMARK INTER + INTRA:          -5.282
REMARK INTER:                  -5.097
REMARK INTRA:                  -0.186
REMARK UNBOUND:                -0.301
REMARK SMILES C=C[C@H](O)CCCCC
REMARK SMILES IDX 6 1 7 2 8 3 9 4 5 5 3 6 2 7 1 8 4 9
REMARK H PARENT 4 10
REMARK Flexibility Score: inf
ROOT
ATOM      1  C   UNL     1      -4.630  23.910  49.413  1.00  0.00     0.003 C 
ENDROOT
BRANCH   1   2
ATOM      2  C   UNL     1      -5.673  23.446  48.387  1.00  0.00    -0.000 C 
BRANCH   2   3
ATOM      3  C   UNL     1      -5.312  22.096  47.747  1.00  0.00    -0.003 C 
ATOM      4  C   UNL     1      -4.273  21.318  48.553  1.00  0.00     0.004 C 
ENDBRANCH   2   3
ENDBRANCH   1   2
BRANCH   1   5
ATOM      5  C   UNL     1      -5.309  24.519  50.649  1.00  0.00     0.036 C 
BRANCH   5   6
ATOM      6  C   UNL     1      -4.454  24.329  51.919  1.00  0.00     0.136 C 
BRANCH   6   7
ATOM      7  C   UNL     1      -4.087  25.662  52.533  1.00  0.00    -0.004 C 
ATOM      8  C   UNL     1      -2.968  25.824  53.244  1.00  0.00     0.007 C 
ENDBRANCH   6   7
BRANCH   6   9
ATOM      9  O   UNL     1      -3.289  23.594  51.637  1.00  0.00    -0.389 OA
ATOM     10  H   UNL     1      -3.500  22.966  50.896  1.00  0.00     0.211 HD
ENDBRANCH   6   9
ENDBRANCH   5   6
ENDBRANCH   1   5
TORSDOF 6
ENDMDL
MODEL 9
REMARK VINA RESULT:    -3.758      2.878      5.659
REMARK INTER + INTRA:          -5.268
REMARK INTER:                  -5.130
REMARK INTRA:                  -0.138
REMARK UNBOUND:                -0.301
REMARK SMILES C=C[C@H](O)CCCCC
REMARK SMILES IDX 6 1 7 2 8 3 9 4 5 5 3 6 2 7 1 8 4 9
REMARK H PARENT 4 10
REMARK Flexibility Score: inf
ROOT
ATOM      1  C   UNL     1      -3.941  20.709  48.393  1.00  0.00     0.003 C 
ENDROOT
BRANCH   1   2
ATOM      2  C   UNL     1      -4.304  19.220  48.486  1.00  0.00    -0.000 C 
BRANCH   2   3
ATOM      3  C   UNL     1      -3.141  18.360  49.004  1.00  0.00    -0.003 C 
ATOM      4  C   UNL     1      -2.257  17.821  47.879  1.00  0.00     0.004 C 
ENDBRANCH   2   3
ENDBRANCH   1   2
BRANCH   1   5
ATOM      5  C   UNL     1      -4.982  21.476  47.564  1.00  0.00     0.036 C 
BRANCH   5   6
ATOM      6  C   UNL     1      -4.791  23.003  47.684  1.00  0.00     0.136 C 
BRANCH   6   7
ATOM      7  C   UNL     1      -5.430  23.534  48.948  1.00  0.00    -0.004 C 
ATOM      8  C   UNL     1      -6.078  24.702  48.970  1.00  0.00     0.007 C 
ENDBRANCH   6   7
BRANCH   6   9
ATOM      9  O   UNL     1      -5.321  23.666  46.562  1.00  0.00    -0.389 OA
ATOM     10  H   UNL     1      -6.275  23.867  46.752  1.00  0.00     0.211 HD
ENDBRANCH   6   9
ENDBRANCH   5   6
ENDBRANCH   1   5
TORSDOF 6
ENDMDL
