MODEL 1
REMARK VINA RESULT:     0.000      0.000      0.000
REMARK INTER + INTRA:          -0.880
REMARK INTER:                   0.000
REMARK INTRA:                  -0.880
REMARK UNBOUND:                -0.880
REMARK SMILES CCCCCCCC(C)=O
REMARK SMILES IDX 5 1 4 2 3 3 2 4 1 5 6 6 7 7 8 8 10 9 9 10
REMARK H PARENT
REMARK Flexibility Score: inf
ROOT
ATOM      1  C   UNL     1     123.629 128.765 138.000  1.00  0.00     0.000 C 
ENDROOT
BRANCH   1   2
ATOM      2  C   UNL     1     122.783 128.733 136.720  1.00  0.00     0.000 C 
BRANCH   2   3
ATOM      3  C   UNL     1     122.665 130.135 136.104  1.00  0.00    -0.000 C 
BRANCH   3   4
ATOM      4  C   UNL     1     121.221 130.658 136.100  1.00  0.00    -0.003 C 
ATOM      5  C   UNL     1     120.214 129.618 136.592  1.00  0.00     0.004 C 
ENDBRANCH   3   4
ENDBRANCH   2   3
ENDBRANCH   1   2
BRANCH   1   6
ATOM      6  C   UNL     1     122.745 128.658 139.248  1.00  0.00     0.008 C 
BRANCH   6   7
ATOM      7  C   UNL     1     122.944 129.867 140.168  1.00  0.00     0.075 C 
BRANCH   7   8
ATOM      8  C   UNL     1     122.067 131.012 139.744  1.00  0.00     0.129 C 
ATOM      9  O   UNL     1     120.852 130.910 139.827  1.00  0.00    -0.300 OA
ATOM     10  C   UNL     1     122.671 132.271 139.199  1.00  0.00     0.087 C 
ENDBRANCH   7   8
ENDBRANCH   6   7
ENDBRANCH   1   6
TORSDOF 6
ENDMDL
MODEL 2
REMARK VINA RESULT:     0.000      8.946     10.194
REMARK INTER + INTRA:          -0.880
REMARK INTER:                   0.000
REMARK INTRA:                  -0.880
REMARK UNBOUND:                -0.880
REMARK SMILES CCCCCCCC(C)=O
REMARK SMILES IDX 5 1 4 2 3 3 2 4 1 5 6 6 7 7 8 8 10 9 9 10
REMARK H PARENT
REMARK Flexibility Score: inf
ROOT
ATOM      1  C   UNL     1     130.241 132.077 131.631  1.00  0.00     0.000 C 
ENDROOT
BRANCH   1   2
ATOM      2  C   UNL     1     130.410 131.820 130.128  1.00  0.00     0.000 C 
BRANCH   2   3
ATOM      3  C   UNL     1     130.008 133.056 129.310  1.00  0.00    -0.000 C 
BRANCH   3   4
ATOM      4  C   UNL     1     128.789 132.798 128.412  1.00  0.00    -0.003 C 
ATOM      5  C   UNL     1     128.331 131.340 128.441  1.00  0.00     0.004 C 
ENDBRANCH   3   4
ENDBRANCH   2   3
ENDBRANCH   1   2
BRANCH   1   6
ATOM      6  C   UNL     1     128.992 131.373 132.174  1.00  0.00     0.008 C 
BRANCH   6   7
ATOM      7  C   UNL     1     128.029 132.377 132.814  1.00  0.00     0.075 C 
BRANCH   7   8
ATOM      8  C   UNL     1     127.130 132.991 131.777  1.00  0.00     0.129 C 
ATOM      9  O   UNL     1     126.315 132.294 131.191  1.00  0.00    -0.300 OA
ATOM     10  C   UNL     1     127.240 134.448 131.442  1.00  0.00     0.087 C 
ENDBRANCH   7   8
ENDBRANCH   6   7
ENDBRANCH   1   6
TORSDOF 6
ENDMDL
MODEL 3
REMARK VINA RESULT:     0.000     11.977     13.227
REMARK INTER + INTRA:          -0.880
REMARK INTER:                   0.000
REMARK INTRA:                  -0.880
REMARK UNBOUND:                -0.880
REMARK SMILES CCCCCCCC(C)=O
REMARK SMILES IDX 5 1 4 2 3 3 2 4 1 5 6 6 7 7 8 8 10 9 9 10
REMARK H PARENT
REMARK Flexibility Score: inf
ROOT
ATOM      1  C   UNL     1     131.075 124.956 130.210  1.00  0.00     0.000 C 
ENDROOT
BRANCH   1   2
ATOM      2  C   UNL     1     130.301 124.005 129.287  1.00  0.00     0.000 C 
BRANCH   2   3
ATOM      3  C   UNL     1     130.780 124.139 127.834  1.00  0.00    -0.000 C 
BRANCH   3   4
ATOM      4  C   UNL     1     129.682 124.668 126.898  1.00  0.00    -0.003 C 
ATOM      5  C   UNL     1     128.331 124.818 127.598  1.00  0.00     0.004 C 
ENDBRANCH   3   4
ENDBRANCH   2   3
ENDBRANCH   1   2
BRANCH   1   6
ATOM      6  C   UNL     1     130.217 126.165 130.599  1.00  0.00     0.008 C 
BRANCH   6   7
ATOM      7  C   UNL     1     130.892 127.476 130.182  1.00  0.00     0.075 C 
BRANCH   7   8
ATOM      8  C   UNL     1     130.572 127.812 128.752  1.00  0.00     0.129 C 
ATOM      9  O   UNL     1     129.423 128.082 128.435  1.00  0.00    -0.300 OA
ATOM     10  C   UNL     1     131.647 127.796 127.708  1.00  0.00     0.087 C 
ENDBRANCH   7   8
ENDBRANCH   6   7
ENDBRANCH   1   6
TORSDOF 6
ENDMDL
MODEL 4
REMARK VINA RESULT:     0.000      6.345      8.179
REMARK INTER + INTRA:          -0.880
REMARK INTER:                   0.000
REMARK INTRA:                  -0.880
REMARK UNBOUND:                -0.880
REMARK SMILES CCCCCCCC(C)=O
REMARK SMILES IDX 5 1 4 2 3 3 2 4 1 5 6 6 7 7 8 8 10 9 9 10
REMARK H PARENT
REMARK Flexibility Score: inf
ROOT
ATOM      1  C   UNL     1     128.666 134.435 140.862  1.00  0.00     0.000 C 
ENDROOT
BRANCH   1   2
ATOM      2  C   UNL     1     128.913 135.914 140.535  1.00  0.00     0.000 C 
BRANCH   2   3
ATOM      3  C   UNL     1     128.383 136.820 141.656  1.00  0.00    -0.000 C 
BRANCH   3   4
ATOM      4  C   UNL     1     127.235 137.727 141.188  1.00  0.00    -0.003 C 
ATOM      5  C   UNL     1     126.966 137.614 139.687  1.00  0.00     0.004 C 
ENDBRANCH   3   4
ENDBRANCH   2   3
ENDBRANCH   1   2
BRANCH   1   6
ATOM      6  C   UNL     1     127.500 133.876 140.037  1.00  0.00     0.008 C 
BRANCH   6   7
ATOM      7  C   UNL     1     126.397 133.325 140.947  1.00  0.00     0.075 C 
BRANCH   7   8
ATOM      8  C   UNL     1     125.460 134.421 141.375  1.00  0.00     0.129 C 
ATOM      9  O   UNL     1     124.760 134.979 140.545  1.00  0.00    -0.300 OA
ATOM     10  C   UNL     1     125.396 134.848 142.810  1.00  0.00     0.087 C 
ENDBRANCH   7   8
ENDBRANCH   6   7
ENDBRANCH   1   6
TORSDOF 6
ENDMDL
MODEL 5
REMARK VINA RESULT:     0.000      9.307     10.462
REMARK INTER + INTRA:          -0.880
REMARK INTER:                   0.000
REMARK INTRA:                  -0.880
REMARK UNBOUND:                -0.880
REMARK SMILES CCCCCCCC(C)=O
REMARK SMILES IDX 5 1 4 2 3 3 2 4 1 5 6 6 7 7 8 8 10 9 9 10
REMARK H PARENT
REMARK Flexibility Score: inf
ROOT
ATOM      1  C   UNL     1     126.817 122.835 134.581  1.00  0.00     0.000 C 
ENDROOT
BRANCH   1   2
ATOM      2  C   UNL     1     127.386 122.108 135.806  1.00  0.00     0.000 C 
BRANCH   2   3
ATOM      3  C   UNL     1     127.885 123.110 136.858  1.00  0.00    -0.000 C 
BRANCH   3   4
ATOM      4  C   UNL     1     129.401 123.021 137.085  1.00  0.00    -0.003 C 
ATOM      5  C   UNL     1     130.048 121.870 136.313  1.00  0.00     0.004 C 
ENDBRANCH   3   4
ENDBRANCH   2   3
ENDBRANCH   1   2
BRANCH   1   6
ATOM      6  C   UNL     1     127.794 122.773 133.401  1.00  0.00     0.008 C 
BRANCH   6   7
ATOM      7  C   UNL     1     128.174 124.179 132.926  1.00  0.00     0.075 C 
BRANCH   7   8
ATOM      8  C   UNL     1     129.314 124.728 133.740  1.00  0.00     0.129 C 
ATOM      9  O   UNL     1     130.415 124.203 133.673  1.00  0.00    -0.300 OA
ATOM     10  C   UNL     1     129.103 125.900 134.650  1.00  0.00     0.087 C 
ENDBRANCH   7   8
ENDBRANCH   6   7
ENDBRANCH   1   6
TORSDOF 6
ENDMDL
MODEL 6
REMARK VINA RESULT:     0.000      4.693      6.084
REMARK INTER + INTRA:          -0.880
REMARK INTER:                   0.000
REMARK INTRA:                  -0.880
REMARK UNBOUND:                -0.880
REMARK SMILES CCCCCCCC(C)=O
REMARK SMILES IDX 5 1 4 2 3 3 2 4 1 5 6 6 7 7 8 8 10 9 9 10
REMARK H PARENT
REMARK Flexibility Score: inf
ROOT
ATOM      1  C   UNL     1     123.854 123.992 134.746  1.00  0.00     0.000 C 
ENDROOT
BRANCH   1   2
ATOM      2  C   UNL     1     123.053 123.534 135.971  1.00  0.00     0.000 C 
BRANCH   2   3
ATOM      3  C   UNL     1     121.578 123.945 135.848  1.00  0.00    -0.000 C 
BRANCH   3   4
ATOM      4  C   UNL     1     121.152 124.947 136.932  1.00  0.00    -0.003 C 
ATOM      5  C   UNL     1     122.254 125.211 137.958  1.00  0.00     0.004 C 
ENDBRANCH   3   4
ENDBRANCH   2   3
ENDBRANCH   1   2
BRANCH   1   6
ATOM      6  C   UNL     1     124.718 125.214 135.076  1.00  0.00     0.008 C 
BRANCH   6   7
ATOM      7  C   UNL     1     124.373 126.395 134.163  1.00  0.00     0.075 C 
BRANCH   7   8
ATOM      8  C   UNL     1     123.209 127.173 134.710  1.00  0.00     0.129 C 
ATOM      9  O   UNL     1     123.326 127.778 135.766  1.00  0.00    -0.300 OA
ATOM     10  C   UNL     1     121.899 127.194 133.983  1.00  0.00     0.087 C 
ENDBRANCH   7   8
ENDBRANCH   6   7
ENDBRANCH   1   6
TORSDOF 6
ENDMDL
MODEL 7
REMARK VINA RESULT:     0.000      7.567      9.347
REMARK INTER + INTRA:          -0.880
REMARK INTER:                   0.000
REMARK INTRA:                  -0.880
REMARK UNBOUND:                -0.880
REMARK SMILES CCCCCCCC(C)=O
REMARK SMILES IDX 5 1 4 2 3 3 2 4 1 5 6 6 7 7 8 8 10 9 9 10
REMARK H PARENT
REMARK Flexibility Score: inf
ROOT
ATOM      1  C   UNL     1     127.412 124.318 143.007  1.00  0.00     0.000 C 
ENDROOT
BRANCH   1   2
ATOM      2  C   UNL     1     128.880 124.662 143.295  1.00  0.00     0.000 C 
BRANCH   2   3
ATOM      3  C   UNL     1     129.221 126.075 142.798  1.00  0.00    -0.000 C 
BRANCH   3   4
ATOM      4  C   UNL     1     130.266 126.067 141.672  1.00  0.00    -0.003 C 
ATOM      5  C   UNL     1     130.823 124.671 141.392  1.00  0.00     0.004 C 
ENDBRANCH   3   4
ENDBRANCH   2   3
ENDBRANCH   1   2
BRANCH   1   6
ATOM      6  C   UNL     1     127.295 123.353 141.822  1.00  0.00     0.008 C 
BRANCH   6   7
ATOM      7  C   UNL     1     126.428 123.951 140.709  1.00  0.00     0.075 C 
BRANCH   7   8
ATOM      8  C   UNL     1     127.248 124.833 139.808  1.00  0.00     0.129 C 
ATOM      9  O   UNL     1     128.128 124.342 139.118  1.00  0.00    -0.300 OA
ATOM     10  C   UNL     1     127.007 126.311 139.768  1.00  0.00     0.087 C 
ENDBRANCH   7   8
ENDBRANCH   6   7
ENDBRANCH   1   6
TORSDOF 6
ENDMDL
MODEL 8
REMARK VINA RESULT:     0.000     11.393     12.855
REMARK INTER + INTRA:          -0.880
REMARK INTER:                   0.000
REMARK INTRA:                  -0.880
REMARK UNBOUND:                -0.880
REMARK SMILES CCCCCCCC(C)=O
REMARK SMILES IDX 5 1 4 2 3 3 2 4 1 5 6 6 7 7 8 8 10 9 9 10
REMARK H PARENT
REMARK Flexibility Score: inf
ROOT
ATOM      1  C   UNL     1     129.334 128.611 129.712  1.00  0.00     0.000 C 
ENDROOT
BRANCH   1   2
ATOM      2  C   UNL     1     130.035 128.818 128.363  1.00  0.00     0.000 C 
BRANCH   2   3
ATOM      3  C   UNL     1     129.973 127.541 127.511  1.00  0.00    -0.000 C 
BRANCH   3   4
ATOM      4  C   UNL     1     131.363 126.942 127.246  1.00  0.00    -0.003 C 
ATOM      5  C   UNL     1     132.496 127.820 127.778  1.00  0.00     0.004 C 
ENDBRANCH   3   4
ENDBRANCH   2   3
ENDBRANCH   1   2
BRANCH   1   6
ATOM      6  C   UNL     1     130.355 128.445 130.844  1.00  0.00     0.008 C 
BRANCH   6   7
ATOM      7  C   UNL     1     130.163 127.108 131.566  1.00  0.00     0.075 C 
BRANCH   7   8
ATOM      8  C   UNL     1     130.894 126.004 130.853  1.00  0.00     0.129 C 
ATOM      9  O   UNL     1     132.115 126.018 130.803  1.00  0.00    -0.300 OA
ATOM     10  C   UNL     1     130.135 124.900 130.182  1.00  0.00     0.087 C 
ENDBRANCH   7   8
ENDBRANCH   6   7
ENDBRANCH   1   6
TORSDOF 6
ENDMDL
MODEL 9
REMARK VINA RESULT:     0.000      1.996      3.251
REMARK INTER + INTRA:          -0.879
REMARK INTER:                   0.000
REMARK INTRA:                  -0.879
REMARK UNBOUND:                -0.880
REMARK SMILES CCCCCCCC(C)=O
REMARK SMILES IDX 5 1 4 2 3 3 2 4 1 5 6 6 7 7 8 8 10 9 9 10
REMARK H PARENT
REMARK Flexibility Score: inf
ROOT
ATOM      1  C   UNL     1     122.783 129.150 138.052  1.00  0.00     0.000 C 
ENDROOT
BRANCH   1   2
ATOM      2  C   UNL     1     121.686 129.406 139.094  1.00  0.00     0.000 C 
BRANCH   2   3
ATOM      3  C   UNL     1     120.404 129.926 138.425  1.00  0.00    -0.000 C 
BRANCH   3   4
ATOM      4  C   UNL     1     120.048 131.355 138.864  1.00  0.00    -0.003 C 
ATOM      5  C   UNL     1     120.978 131.887 139.954  1.00  0.00     0.004 C 
ENDBRANCH   3   4
ENDBRANCH   2   3
ENDBRANCH   1   2
BRANCH   1   6
ATOM      6  C   UNL     1     123.846 130.254 138.087  1.00  0.00     0.008 C 
BRANCH   6   7
ATOM      7  C   UNL     1     123.972 130.941 136.724  1.00  0.00     0.075 C 
BRANCH   7   8
ATOM      8  C   UNL     1     122.955 132.040 136.582  1.00  0.00     0.129 C 
ATOM      9  O   UNL     1     123.026 133.027 137.299  1.00  0.00    -0.300 OA
ATOM     10  C   UNL     1     121.844 131.924 135.584  1.00  0.00     0.087 C 
ENDBRANCH   7   8
ENDBRANCH   6   7
ENDBRANCH   1   6
TORSDOF 6
ENDMDL
