MODEL 1
REMARK VINA RESULT:    -3.579      0.000      0.000
REMARK INTER + INTRA:          -3.684
REMARK INTER:                  -3.684
REMARK INTRA:                   0.000
REMARK UNBOUND:                 0.000
REMARK SMILES CC1(C)[C@H]2CC[C@](C)(C2)[C@@H]1O
REMARK SMILES IDX 1 1 2 2 4 3 5 4 6 5 7 6 9 7 10 8 8 9 3 10 11 11
REMARK H PARENT 11 12
REMARK Flexibility Score: inf
ROOT
ATOM      1  C   UNL     1     162.547 172.550 172.235  1.00  0.00     0.014 C 
ATOM      2  C   UNL     1     163.322 172.243 170.930  1.00  0.00    -0.006 C 
ATOM      3  C   UNL     1     162.588 171.226 169.991  1.00  0.00    -0.002 C 
ATOM      4  C   UNL     1     161.107 171.610 169.794  1.00  0.00     0.005 C 
ATOM      5  C   UNL     1     161.197 172.905 168.974  1.00  0.00     0.010 C 
ATOM      6  C   UNL     1     162.715 173.038 168.712  1.00  0.00    -0.006 C 
ATOM      7  C   UNL     1     163.140 171.589 168.623  1.00  0.00     0.013 C 
ATOM      8  C   UNL     1     163.412 173.513 170.015  1.00  0.00     0.126 C 
ATOM      9  C   UNL     1     163.042 173.869 167.464  1.00  0.00     0.014 C 
ATOM     10  C   UNL     1     164.706 171.672 171.338  1.00  0.00     0.014 C 
ENDROOT
BRANCH   8  11
ATOM     11  O   UNL     1     164.743 173.888 169.755  1.00  0.00    -0.392 OA
ATOM     12  H   UNL     1     164.735 174.388 168.897  1.00  0.00     0.211 HD
ENDBRANCH   8  11
TORSDOF 1
ENDMDL
MODEL 2
REMARK VINA RESULT:    -3.578     13.954     15.184
REMARK INTER + INTRA:          -3.683
REMARK INTER:                  -3.683
REMARK INTRA:                   0.000
REMARK UNBOUND:                 0.000
REMARK SMILES CC1(C)[C@H]2CC[C@](C)(C2)[C@@H]1O
REMARK SMILES IDX 1 1 2 2 4 3 5 4 6 5 7 6 9 7 10 8 8 9 3 10 11 11
REMARK H PARENT 11 12
REMARK Flexibility Score: inf
ROOT
ATOM      1  C   UNL     1     168.740 158.664 172.246  1.00  0.00     0.014 C 
ATOM      2  C   UNL     1     167.942 158.961 170.953  1.00  0.00    -0.006 C 
ATOM      3  C   UNL     1     168.668 159.955 169.983  1.00  0.00    -0.002 C 
ATOM      4  C   UNL     1     170.140 159.550 169.762  1.00  0.00     0.005 C 
ATOM      5  C   UNL     1     170.017 158.244 168.963  1.00  0.00     0.010 C 
ATOM      6  C   UNL     1     168.493 158.127 168.734  1.00  0.00    -0.006 C 
ATOM      7  C   UNL     1     168.084 159.580 168.633  1.00  0.00     0.013 C 
ATOM      8  C   UNL     1     167.817 157.680 170.059  1.00  0.00     0.126 C 
ATOM      9  C   UNL     1     168.129 157.282 167.506  1.00  0.00     0.014 C 
ATOM     10  C   UNL     1     166.574 159.556 171.381  1.00  0.00     0.014 C 
ENDROOT
BRANCH   8  11
ATOM     11  O   UNL     1     166.476 157.318 169.832  1.00  0.00    -0.392 OA
ATOM     12  H   UNL     1     165.966 158.164 169.738  1.00  0.00     0.211 HD
ENDBRANCH   8  11
TORSDOF 1
ENDMDL
MODEL 3
REMARK VINA RESULT:    -3.420     15.164     16.633
REMARK INTER + INTRA:          -3.520
REMARK INTER:                  -3.520
REMARK INTRA:                   0.000
REMARK UNBOUND:                 0.000
REMARK SMILES CC1(C)[C@H]2CC[C@](C)(C2)[C@@H]1O
REMARK SMILES IDX 1 1 2 2 4 3 5 4 6 5 7 6 9 7 10 8 8 9 3 10 11 11
REMARK H PARENT 11 12
REMARK Flexibility Score: inf
ROOT
ATOM      1  C   UNL     1     169.738 158.318 171.333  1.00  0.00     0.014 C 
ATOM      2  C   UNL     1     170.214 158.794 169.938  1.00  0.00    -0.006 C 
ATOM      3  C   UNL     1     171.466 159.734 169.992  1.00  0.00    -0.002 C 
ATOM      4  C   UNL     1     172.572 159.148 170.893  1.00  0.00     0.005 C 
ATOM      5  C   UNL     1     173.041 157.918 170.101  1.00  0.00     0.010 C 
ATOM      6  C   UNL     1     172.219 158.020 168.796  1.00  0.00    -0.006 C 
ATOM      7  C   UNL     1     172.095 159.518 168.626  1.00  0.00     0.013 C 
ATOM      8  C   UNL     1     170.754 157.593 169.087  1.00  0.00     0.126 C 
ATOM      9  C   UNL     1     172.877 157.303 167.609  1.00  0.00     0.014 C 
ATOM     10  C   UNL     1     169.028 159.542 169.275  1.00  0.00     0.014 C 
ENDROOT
BRANCH   8  11
ATOM     11  O   UNL     1     170.040 157.428 167.886  1.00  0.00    -0.392 OA
ATOM     12  H   UNL     1     170.639 157.731 167.155  1.00  0.00     0.211 HD
ENDBRANCH   8  11
TORSDOF 1
ENDMDL
MODEL 4
REMARK VINA RESULT:    -3.411      2.435      3.414
REMARK INTER + INTRA:          -3.511
REMARK INTER:                  -3.511
REMARK INTRA:                   0.000
REMARK UNBOUND:                 0.000
REMARK SMILES CC1(C)[C@H]2CC[C@](C)(C2)[C@@H]1O
REMARK SMILES IDX 1 1 2 2 4 3 5 4 6 5 7 6 9 7 10 8 8 9 3 10 11 11
REMARK H PARENT 11 12
REMARK Flexibility Score: inf
ROOT
ATOM      1  C   UNL     1     161.375 172.914 171.339  1.00  0.00     0.014 C 
ATOM      2  C   UNL     1     160.914 172.414 169.948  1.00  0.00    -0.006 C 
ATOM      3  C   UNL     1     159.659 171.476 170.005  1.00  0.00    -0.002 C 
ATOM      4  C   UNL     1     158.544 172.081 170.883  1.00  0.00     0.005 C 
ATOM      5  C   UNL     1     158.087 173.297 170.063  1.00  0.00     0.010 C 
ATOM      6  C   UNL     1     158.924 173.169 168.769  1.00  0.00    -0.006 C 
ATOM      7  C   UNL     1     159.046 171.668 168.629  1.00  0.00     0.013 C 
ATOM      8  C   UNL     1     160.386 173.599 169.068  1.00  0.00     0.126 C 
ATOM      9  C   UNL     1     158.280 173.864 167.562  1.00  0.00     0.014 C 
ATOM     10  C   UNL     1     162.106 171.651 169.313  1.00  0.00     0.014 C 
ENDROOT
BRANCH   8  11
ATOM     11  O   UNL     1     161.114 173.740 167.873  1.00  0.00    -0.392 OA
ATOM     12  H   UNL     1     160.894 172.951 167.312  1.00  0.00     0.211 HD
ENDBRANCH   8  11
TORSDOF 1
ENDMDL
MODEL 5
REMARK VINA RESULT:    -3.376      8.873     10.119
REMARK INTER + INTRA:          -3.475
REMARK INTER:                  -3.475
REMARK INTRA:                   0.000
REMARK UNBOUND:                 0.000
REMARK SMILES CC1(C)[C@H]2CC[C@](C)(C2)[C@@H]1O
REMARK SMILES IDX 1 1 2 2 4 3 5 4 6 5 7 6 9 7 10 8 8 9 3 10 11 11
REMARK H PARENT 11 12
REMARK Flexibility Score: inf
ROOT
ATOM      1  C   UNL     1     158.809 161.557 171.650  1.00  0.00     0.014 C 
ATOM      2  C   UNL     1     158.942 162.965 171.019  1.00  0.00    -0.006 C 
ATOM      3  C   UNL     1     160.099 163.821 171.637  1.00  0.00    -0.002 C 
ATOM      4  C   UNL     1     161.413 163.017 171.717  1.00  0.00     0.005 C 
ATOM      5  C   UNL     1     161.799 162.846 170.240  1.00  0.00     0.010 C 
ATOM      6  C   UNL     1     160.715 163.669 169.507  1.00  0.00    -0.006 C 
ATOM      7  C   UNL     1     160.441 164.774 170.505  1.00  0.00     0.013 C 
ATOM      8  C   UNL     1     159.382 162.871 169.517  1.00  0.00     0.126 C 
ATOM      9  C   UNL     1     161.162 164.164 168.125  1.00  0.00     0.014 C 
ATOM     10  C   UNL     1     157.587 163.693 171.225  1.00  0.00     0.014 C 
ENDROOT
BRANCH   8  11
ATOM     11  O   UNL     1     158.446 163.463 168.650  1.00  0.00    -0.392 OA
ATOM     12  H   UNL     1     158.628 163.099 167.744  1.00  0.00     0.211 HD
ENDBRANCH   8  11
TORSDOF 1
ENDMDL
MODEL 6
REMARK VINA RESULT:    -3.330      8.218      9.731
REMARK INTER + INTRA:          -3.428
REMARK INTER:                  -3.428
REMARK INTRA:                   0.000
REMARK UNBOUND:                 0.000
REMARK SMILES CC1(C)[C@H]2CC[C@](C)(C2)[C@@H]1O
REMARK SMILES IDX 1 1 2 2 4 3 5 4 6 5 7 6 9 7 10 8 8 9 3 10 11 11
REMARK H PARENT 11 12
REMARK Flexibility Score: inf
ROOT
ATOM      1  C   UNL     1     172.344 169.603 171.783  1.00  0.00     0.014 C 
ATOM      2  C   UNL     1     172.229 168.215 171.106  1.00  0.00    -0.006 C 
ATOM      3  C   UNL     1     171.088 167.321 171.701  1.00  0.00    -0.002 C 
ATOM      4  C   UNL     1     169.763 168.103 171.815  1.00  0.00     0.005 C 
ATOM      5  C   UNL     1     169.366 168.316 170.347  1.00  0.00     0.010 C 
ATOM      6  C   UNL     1     170.458 167.534 169.582  1.00  0.00    -0.006 C 
ATOM      7  C   UNL     1     170.754 166.401 170.540  1.00  0.00     0.013 C 
ATOM      8  C   UNL     1     171.778 168.351 169.611  1.00  0.00     0.126 C 
ATOM      9  C   UNL     1     170.010 167.079 168.186  1.00  0.00     0.014 C 
ATOM     10  C   UNL     1     173.595 167.501 171.281  1.00  0.00     0.014 C 
ENDROOT
BRANCH   8  11
ATOM     11  O   UNL     1     172.718 167.803 168.720  1.00  0.00    -0.392 OA
ATOM     12  H   UNL     1     173.539 168.356 168.796  1.00  0.00     0.211 HD
ENDBRANCH   8  11
TORSDOF 1
ENDMDL
MODEL 7
REMARK VINA RESULT:    -3.289      1.398      2.316
REMARK INTER + INTRA:          -3.385
REMARK INTER:                  -3.385
REMARK INTRA:                   0.000
REMARK UNBOUND:                 0.000
REMARK SMILES CC1(C)[C@H]2CC[C@](C)(C2)[C@@H]1O
REMARK SMILES IDX 1 1 2 2 4 3 5 4 6 5 7 6 9 7 10 8 8 9 3 10 11 11
REMARK H PARENT 11 12
REMARK Flexibility Score: inf
ROOT
ATOM      1  C   UNL     1     163.020 170.670 170.227  1.00  0.00     0.014 C 
ATOM      2  C   UNL     1     162.699 171.896 169.336  1.00  0.00    -0.006 C 
ATOM      3  C   UNL     1     161.165 172.123 169.114  1.00  0.00    -0.002 C 
ATOM      4  C   UNL     1     160.388 172.064 170.445  1.00  0.00     0.005 C 
ATOM      5  C   UNL     1     160.869 173.327 171.176  1.00  0.00     0.010 C 
ATOM      6  C   UNL     1     161.776 174.005 170.124  1.00  0.00    -0.006 C 
ATOM      7  C   UNL     1     161.094 173.614 168.831  1.00  0.00     0.013 C 
ATOM      8  C   UNL     1     163.119 173.231 170.042  1.00  0.00     0.126 C 
ATOM      9  C   UNL     1     161.913 175.520 170.331  1.00  0.00     0.014 C 
ATOM     10  C   UNL     1     163.397 171.669 167.969  1.00  0.00     0.014 C 
ENDROOT
BRANCH   8  11
ATOM     11  O   UNL     1     164.062 173.956 169.290  1.00  0.00    -0.392 OA
ATOM     12  H   UNL     1     163.887 174.918 169.466  1.00  0.00     0.211 HD
ENDBRANCH   8  11
TORSDOF 1
ENDMDL
MODEL 8
REMARK VINA RESULT:    -3.187      2.984      4.289
REMARK INTER + INTRA:          -3.280
REMARK INTER:                  -3.280
REMARK INTRA:                   0.000
REMARK UNBOUND:                 0.000
REMARK SMILES CC1(C)[C@H]2CC[C@](C)(C2)[C@@H]1O
REMARK SMILES IDX 1 1 2 2 4 3 5 4 6 5 7 6 9 7 10 8 8 9 3 10 11 11
REMARK H PARENT 11 12
REMARK Flexibility Score: inf
ROOT
ATOM      1  C   UNL     1     161.866 171.708 169.276  1.00  0.00     0.014 C 
ATOM      2  C   UNL     1     160.412 172.134 169.595  1.00  0.00    -0.006 C 
ATOM      3  C   UNL     1     160.298 173.584 170.176  1.00  0.00    -0.002 C 
ATOM      4  C   UNL     1     161.102 174.594 169.331  1.00  0.00     0.005 C 
ATOM      5  C   UNL     1     160.315 174.638 168.013  1.00  0.00     0.010 C 
ATOM      6  C   UNL     1     159.099 173.731 168.311  1.00  0.00    -0.006 C 
ATOM      7  C   UNL     1     158.884 173.982 169.788  1.00  0.00     0.013 C 
ATOM      8  C   UNL     1     159.557 172.248 168.286  1.00  0.00     0.126 C 
ATOM      9  C   UNL     1     157.880 174.047 167.434  1.00  0.00     0.014 C 
ATOM     10  C   UNL     1     159.846 171.116 170.619  1.00  0.00     0.014 C 
ENDROOT
BRANCH   8  11
ATOM     11  O   UNL     1     158.444 171.387 168.300  1.00  0.00    -0.392 OA
ATOM     12  H   UNL     1     158.087 171.370 167.374  1.00  0.00     0.211 HD
ENDBRANCH   8  11
TORSDOF 1
ENDMDL
MODEL 9
REMARK VINA RESULT:    -3.033     14.560     15.740
REMARK INTER + INTRA:          -3.122
REMARK INTER:                  -3.122
REMARK INTRA:                   0.000
REMARK UNBOUND:                 0.000
REMARK SMILES CC1(C)[C@H]2CC[C@](C)(C2)[C@@H]1O
REMARK SMILES IDX 1 1 2 2 4 3 5 4 6 5 7 6 9 7 10 8 8 9 3 10 11 11
REMARK H PARENT 11 12
REMARK Flexibility Score: inf
ROOT
ATOM      1  C   UNL     1     171.217 159.987 170.280  1.00  0.00     0.014 C 
ATOM      2  C   UNL     1     170.456 158.640 170.209  1.00  0.00    -0.006 C 
ATOM      3  C   UNL     1     168.971 158.734 170.700  1.00  0.00    -0.002 C 
ATOM      4  C   UNL     1     168.240 159.930 170.056  1.00  0.00     0.005 C 
ATOM      5  C   UNL     1     168.139 159.513 168.581  1.00  0.00     0.010 C 
ATOM      6  C   UNL     1     168.726 158.084 168.590  1.00  0.00    -0.006 C 
ATOM      7  C   UNL     1     168.308 157.587 169.957  1.00  0.00     0.013 C 
ATOM      8  C   UNL     1     170.271 158.174 168.724  1.00  0.00     0.126 C 
ATOM      9  C   UNL     1     168.228 157.218 167.425  1.00  0.00     0.014 C 
ATOM     10  C   UNL     1     171.232 157.624 171.088  1.00  0.00     0.014 C 
ENDROOT
BRANCH   8  11
ATOM     11  O   UNL     1     170.861 156.920 168.483  1.00  0.00    -0.392 OA
ATOM     12  H   UNL     1     171.522 157.053 167.753  1.00  0.00     0.211 HD
ENDBRANCH   8  11
TORSDOF 1
ENDMDL
