MODEL 1
REMARK VINA RESULT:    -4.595      0.000      0.000
REMARK INTER + INTRA:          -5.413
REMARK INTER:                  -5.267
REMARK INTRA:                  -0.146
REMARK UNBOUND:                -0.146
REMARK SMILES CC=Cc1ccc(O)c(OC)c1
REMARK SMILES IDX 4 1 12 2 9 3 7 4 6 5 5 6 3 7 1 8 2 9 10 10 11 11 8 12
REMARK H PARENT 8 13
REMARK Flexibility Score: inf
ROOT
ATOM      1  C   UNL     1     116.635 116.636 115.965  1.00  0.00    -0.022 A 
ATOM      2  C   UNL     1     115.894 117.636 116.627  1.00  0.00     0.058 A 
ATOM      3  C   UNL     1     115.581 117.511 117.996  1.00  0.00     0.161 A 
ATOM      4  C   UNL     1     116.026 116.379 118.703  1.00  0.00     0.157 A 
ATOM      5  C   UNL     1     116.775 115.398 118.050  1.00  0.00     0.051 A 
ATOM      6  C   UNL     1     117.082 115.527 116.695  1.00  0.00     0.012 A 
ENDROOT
BRANCH   1   7
ATOM      7  C   UNL     1     116.995 116.729 114.528  1.00  0.00     0.003 C 
ATOM      8  C   UNL     1     116.685 116.353 112.113  1.00  0.00     0.035 C 
ATOM      9  C   UNL     1     116.246 116.232 113.537  1.00  0.00    -0.030 C 
ENDBRANCH   1   7
BRANCH   3  10
ATOM     10  O   UNL     1     114.840 118.487 118.682  1.00  0.00    -0.493 OA
ATOM     11  C   UNL     1     114.375 119.704 118.106  1.00  0.00     0.278 C 
ENDBRANCH   3  10
BRANCH   4  12
ATOM     12  O   UNL     1     115.736 116.216 120.058  1.00  0.00    -0.504 OA
ATOM     13  H   UNL     1     116.352 115.712 120.684  1.00  0.00     0.293 HD
ENDBRANCH   4  12
TORSDOF 3
ENDMDL
MODEL 2
REMARK VINA RESULT:    -4.589      1.916      2.222
REMARK INTER + INTRA:          -5.406
REMARK INTER:                  -5.256
REMARK INTRA:                  -0.150
REMARK UNBOUND:                -0.146
REMARK SMILES CC=Cc1ccc(O)c(OC)c1
REMARK SMILES IDX 4 1 12 2 9 3 7 4 6 5 5 6 3 7 1 8 2 9 10 10 11 11 8 12
REMARK H PARENT 8 13
REMARK Flexibility Score: inf
ROOT
ATOM      1  C   UNL     1     116.668 116.573 115.937  1.00  0.00    -0.022 A 
ATOM      2  C   UNL     1     117.703 117.230 116.632  1.00  0.00     0.058 A 
ATOM      3  C   UNL     1     117.564 117.546 117.999  1.00  0.00     0.161 A 
ATOM      4  C   UNL     1     116.381 117.188 118.671  1.00  0.00     0.157 A 
ATOM      5  C   UNL     1     115.363 116.521 117.985  1.00  0.00     0.051 A 
ATOM      6  C   UNL     1     115.506 116.211 116.633  1.00  0.00     0.012 A 
ENDROOT
BRANCH   1   7
ATOM      7  C   UNL     1     116.774 116.214 114.500  1.00  0.00     0.003 C 
ATOM      8  C   UNL     1     116.399 116.513 112.084  1.00  0.00     0.035 C 
ATOM      9  C   UNL     1     116.264 116.951 113.507  1.00  0.00    -0.030 C 
ENDBRANCH   1   7
BRANCH   3  10
ATOM     10  O   UNL     1     118.575 118.205 118.717  1.00  0.00    -0.493 OA
ATOM     11  C   UNL     1     119.624 118.964 118.126  1.00  0.00     0.278 C 
ENDBRANCH   3  10
BRANCH   4  12
ATOM     12  O   UNL     1     116.202 117.483 120.022  1.00  0.00    -0.504 OA
ATOM     13  H   UNL     1     116.236 118.431 120.377  1.00  0.00     0.293 HD
ENDBRANCH   4  12
TORSDOF 3
ENDMDL
MODEL 3
REMARK VINA RESULT:    -4.577      1.757      2.647
REMARK INTER + INTRA:          -5.392
REMARK INTER:                  -5.239
REMARK INTRA:                  -0.153
REMARK UNBOUND:                -0.146
REMARK SMILES CC=Cc1ccc(O)c(OC)c1
REMARK SMILES IDX 4 1 12 2 9 3 7 4 6 5 5 6 3 7 1 8 2 9 10 10 11 11 8 12
REMARK H PARENT 8 13
REMARK Flexibility Score: inf
ROOT
ATOM      1  C   UNL     1     116.017 116.582 116.402  1.00  0.00    -0.022 A 
ATOM      2  C   UNL     1     115.095 115.676 116.964  1.00  0.00     0.058 A 
ATOM      3  C   UNL     1     114.388 116.005 118.139  1.00  0.00     0.161 A 
ATOM      4  C   UNL     1     114.603 117.256 118.743  1.00  0.00     0.157 A 
ATOM      5  C   UNL     1     115.504 118.161 118.176  1.00  0.00     0.051 A 
ATOM      6  C   UNL     1     116.200 117.830 117.014  1.00  0.00     0.012 A 
ENDROOT
BRANCH   1   7
ATOM      7  C   UNL     1     116.777 116.282 115.163  1.00  0.00     0.003 C 
ATOM      8  C   UNL     1     117.204 116.306 112.737  1.00  0.00     0.035 C 
ATOM      9  C   UNL     1     116.390 116.661 113.940  1.00  0.00    -0.030 C 
ENDBRANCH   1   7
BRANCH   3  10
ATOM     10  O   UNL     1     113.468 115.121 118.726  1.00  0.00    -0.493 OA
ATOM     11  C   UNL     1     113.383 113.729 118.434  1.00  0.00     0.278 C 
ENDBRANCH   3  10
BRANCH   4  12
ATOM     12  O   UNL     1     113.926 117.621 119.907  1.00  0.00    -0.504 OA
ATOM     13  H   UNL     1     113.408 118.488 119.982  1.00  0.00     0.293 HD
ENDBRANCH   4  12
TORSDOF 3
ENDMDL
MODEL 4
REMARK VINA RESULT:    -4.570      1.895      2.385
REMARK INTER + INTRA:          -5.384
REMARK INTER:                  -5.208
REMARK INTRA:                  -0.176
REMARK UNBOUND:                -0.146
REMARK SMILES CC=Cc1ccc(O)c(OC)c1
REMARK SMILES IDX 4 1 12 2 9 3 7 4 6 5 5 6 3 7 1 8 2 9 10 10 11 11 8 12
REMARK H PARENT 8 13
REMARK Flexibility Score: inf
ROOT
ATOM      1  C   UNL     1     116.432 116.574 116.027  1.00  0.00    -0.022 A 
ATOM      2  C   UNL     1     115.493 115.870 116.807  1.00  0.00     0.058 A 
ATOM      3  C   UNL     1     115.727 115.638 118.179  1.00  0.00     0.161 A 
ATOM      4  C   UNL     1     116.907 116.126 118.767  1.00  0.00     0.157 A 
ATOM      5  C   UNL     1     117.829 116.839 117.997  1.00  0.00     0.051 A 
ATOM      6  C   UNL     1     117.592 117.066 116.641  1.00  0.00     0.012 A 
ENDROOT
BRANCH   1   7
ATOM      7  C   UNL     1     116.224 116.849 114.583  1.00  0.00     0.003 C 
ATOM      8  C   UNL     1     116.722 116.678 112.177  1.00  0.00     0.035 C 
ATOM      9  C   UNL     1     116.987 116.340 113.609  1.00  0.00    -0.030 C 
ENDBRANCH   1   7
BRANCH   3  10
ATOM     10  O   UNL     1     114.813 114.935 118.981  1.00  0.00    -0.493 OA
ATOM     11  C   UNL     1     114.526 113.546 118.854  1.00  0.00     0.278 C 
ENDBRANCH   3  10
BRANCH   4  12
ATOM     12  O   UNL     1     117.179 115.917 120.119  1.00  0.00    -0.504 OA
ATOM     13  H   UNL     1     117.583 115.053 120.461  1.00  0.00     0.293 HD
ENDBRANCH   4  12
TORSDOF 3
ENDMDL
MODEL 5
REMARK VINA RESULT:    -4.570      1.595      3.171
REMARK INTER + INTRA:          -5.384
REMARK INTER:                  -5.227
REMARK INTRA:                  -0.157
REMARK UNBOUND:                -0.146
REMARK SMILES CC=Cc1ccc(O)c(OC)c1
REMARK SMILES IDX 4 1 12 2 9 3 7 4 6 5 5 6 3 7 1 8 2 9 10 10 11 11 8 12
REMARK H PARENT 8 13
REMARK Flexibility Score: inf
ROOT
ATOM      1  C   UNL     1     116.641 116.464 115.963  1.00  0.00    -0.022 A 
ATOM      2  C   UNL     1     117.379 115.494 116.671  1.00  0.00     0.058 A 
ATOM      3  C   UNL     1     117.725 115.700 118.023  1.00  0.00     0.161 A 
ATOM      4  C   UNL     1     117.316 116.882 118.666  1.00  0.00     0.157 A 
ATOM      5  C   UNL     1     116.569 117.834 117.967  1.00  0.00     0.051 A 
ATOM      6  C   UNL     1     116.230 117.625 116.630  1.00  0.00     0.012 A 
ENDROOT
BRANCH   1   7
ATOM      7  C   UNL     1     116.248 116.286 114.542  1.00  0.00     0.003 C 
ATOM      8  C   UNL     1     116.274 116.792 112.132  1.00  0.00     0.035 C 
ATOM      9  C   UNL     1     116.733 117.023 113.536  1.00  0.00    -0.030 C 
ENDBRANCH   1   7
BRANCH   3  10
ATOM     10  O   UNL     1     118.464 114.756 118.754  1.00  0.00    -0.493 OA
ATOM     11  C   UNL     1     119.087 113.604 118.192  1.00  0.00     0.278 C 
ENDBRANCH   3  10
BRANCH   4  12
ATOM     12  O   UNL     1     117.638 117.126 120.000  1.00  0.00    -0.504 OA
ATOM     13  H   UNL     1     118.549 117.468 120.282  1.00  0.00     0.293 HD
ENDBRANCH   4  12
TORSDOF 3
ENDMDL
MODEL 6
REMARK VINA RESULT:    -4.539      2.441      2.688
REMARK INTER + INTRA:          -5.349
REMARK INTER:                  -5.202
REMARK INTRA:                  -0.147
REMARK UNBOUND:                -0.146
REMARK SMILES CC=Cc1ccc(O)c(OC)c1
REMARK SMILES IDX 4 1 12 2 9 3 7 4 6 5 5 6 3 7 1 8 2 9 10 10 11 11 8 12
REMARK H PARENT 8 13
REMARK Flexibility Score: inf
ROOT
ATOM      1  C   UNL     1     117.089 116.455 116.411  1.00  0.00    -0.022 A 
ATOM      2  C   UNL     1     117.938 117.415 116.997  1.00  0.00     0.058 A 
ATOM      3  C   UNL     1     118.651 117.120 118.178  1.00  0.00     0.161 A 
ATOM      4  C   UNL     1     118.514 115.849 118.765  1.00  0.00     0.157 A 
ATOM      5  C   UNL     1     117.684 114.893 118.173  1.00  0.00     0.051 A 
ATOM      6  C   UNL     1     116.982 115.190 117.005  1.00  0.00     0.012 A 
ENDROOT
BRANCH   1   7
ATOM      7  C   UNL     1     116.327 116.719 115.165  1.00  0.00     0.003 C 
ATOM      8  C   UNL     1     116.016 116.909 112.729  1.00  0.00     0.035 C 
ATOM      9  C   UNL     1     116.845 116.611 113.936  1.00  0.00    -0.030 C 
ENDBRANCH   1   7
BRANCH   3  10
ATOM     10  O   UNL     1     119.500 118.057 118.788  1.00  0.00    -0.493 OA
ATOM     11  C   UNL     1     119.600 119.427 118.410  1.00  0.00     0.278 C 
ENDBRANCH   3  10
BRANCH   4  12
ATOM     12  O   UNL     1     119.198 115.517 119.933  1.00  0.00    -0.504 OA
ATOM     13  H   UNL     1     118.718 115.330 120.806  1.00  0.00     0.293 HD
ENDBRANCH   4  12
TORSDOF 3
ENDMDL
MODEL 7
REMARK VINA RESULT:    -4.046      3.553      3.769
REMARK INTER + INTRA:          -4.784
REMARK INTER:                  -4.629
REMARK INTRA:                  -0.155
REMARK UNBOUND:                -0.146
REMARK SMILES CC=Cc1ccc(O)c(OC)c1
REMARK SMILES IDX 4 1 12 2 9 3 7 4 6 5 5 6 3 7 1 8 2 9 10 10 11 11 8 12
REMARK H PARENT 8 13
REMARK Flexibility Score: inf
ROOT
ATOM      1  C   UNL     1     118.028 117.102 117.378  1.00  0.00    -0.022 A 
ATOM      2  C   UNL     1     118.665 118.324 117.676  1.00  0.00     0.058 A 
ATOM      3  C   UNL     1     119.670 118.388 118.664  1.00  0.00     0.161 A 
ATOM      4  C   UNL     1     120.040 117.215 119.346  1.00  0.00     0.157 A 
ATOM      5  C   UNL     1     119.420 116.002 119.037  1.00  0.00     0.051 A 
ATOM      6  C   UNL     1     118.427 115.944 118.059  1.00  0.00     0.012 A 
ENDROOT
BRANCH   1   7
ATOM      7  C   UNL     1     116.972 116.986 116.341  1.00  0.00     0.003 C 
ATOM      8  C   UNL     1     116.073 116.445 114.113  1.00  0.00     0.035 C 
ATOM      9  C   UNL     1     117.187 116.517 115.106  1.00  0.00    -0.030 C 
ENDBRANCH   1   7
BRANCH   3  10
ATOM     10  O   UNL     1     120.319 119.591 118.988  1.00  0.00    -0.493 OA
ATOM     11  C   UNL     1     120.469 120.694 118.099  1.00  0.00     0.278 C 
ENDBRANCH   3  10
BRANCH   4  12
ATOM     12  O   UNL     1     121.027 117.236 120.331  1.00  0.00    -0.504 OA
ATOM     13  H   UNL     1     121.623 118.041 120.483  1.00  0.00     0.293 HD
ENDBRANCH   4  12
TORSDOF 3
ENDMDL
MODEL 8
REMARK VINA RESULT:    -4.043      2.454      3.422
REMARK INTER + INTRA:          -4.780
REMARK INTER:                  -4.593
REMARK INTRA:                  -0.188
REMARK UNBOUND:                -0.146
REMARK SMILES CC=Cc1ccc(O)c(OC)c1
REMARK SMILES IDX 4 1 12 2 9 3 7 4 6 5 5 6 3 7 1 8 2 9 10 10 11 11 8 12
REMARK H PARENT 8 13
REMARK Flexibility Score: inf
ROOT
ATOM      1  C   UNL     1     116.610 118.046 117.291  1.00  0.00    -0.022 A 
ATOM      2  C   UNL     1     117.554 118.397 118.277  1.00  0.00     0.058 A 
ATOM      3  C   UNL     1     117.242 119.358 119.261  1.00  0.00     0.161 A 
ATOM      4  C   UNL     1     115.971 119.960 119.257  1.00  0.00     0.157 A 
ATOM      5  C   UNL     1     115.030 119.599 118.289  1.00  0.00     0.051 A 
ATOM      6  C   UNL     1     115.344 118.647 117.319  1.00  0.00     0.012 A 
ENDROOT
BRANCH   1   7
ATOM      7  C   UNL     1     116.891 117.035 116.242  1.00  0.00     0.003 C 
ATOM      8  C   UNL     1     116.738 116.038 113.994  1.00  0.00     0.035 C 
ATOM      9  C   UNL     1     116.422 117.107 114.991  1.00  0.00    -0.030 C 
ENDBRANCH   1   7
BRANCH   3  10
ATOM     10  O   UNL     1     118.163 119.733 120.253  1.00  0.00    -0.493 OA
ATOM     11  C   UNL     1     119.377 120.436 120.007  1.00  0.00     0.278 C 
ENDBRANCH   3  10
BRANCH   4  12
ATOM     12  O   UNL     1     115.623 120.916 120.210  1.00  0.00    -0.504 OA
ATOM     13  H   UNL     1     115.362 120.666 121.157  1.00  0.00     0.293 HD
ENDBRANCH   4  12
TORSDOF 3
ENDMDL
MODEL 9
REMARK VINA RESULT:    -3.986      2.785      3.949
REMARK INTER + INTRA:          -4.715
REMARK INTER:                  -4.572
REMARK INTRA:                  -0.143
REMARK UNBOUND:                -0.146
REMARK SMILES CC=Cc1ccc(O)c(OC)c1
REMARK SMILES IDX 4 1 12 2 9 3 7 4 6 5 5 6 3 7 1 8 2 9 10 10 11 11 8 12
REMARK H PARENT 8 13
REMARK Flexibility Score: inf
ROOT
ATOM      1  C   UNL     1     114.953 116.352 117.792  1.00  0.00    -0.022 A 
ATOM      2  C   UNL     1     114.454 115.040 117.924  1.00  0.00     0.058 A 
ATOM      3  C   UNL     1     113.438 114.748 118.857  1.00  0.00     0.161 A 
ATOM      4  C   UNL     1     112.916 115.783 119.654  1.00  0.00     0.157 A 
ATOM      5  C   UNL     1     113.400 117.086 119.510  1.00  0.00     0.051 A 
ATOM      6  C   UNL     1     114.405 117.369 118.585  1.00  0.00     0.012 A 
ENDROOT
BRANCH   1   7
ATOM      7  C   UNL     1     116.015 116.707 116.818  1.00  0.00     0.003 C 
ATOM      8  C   UNL     1     117.093 116.767 114.604  1.00  0.00     0.035 C 
ATOM      9  C   UNL     1     115.974 116.386 115.520  1.00  0.00    -0.030 C 
ENDBRANCH   1   7
BRANCH   3  10
ATOM     10  O   UNL     1     112.924 113.450 119.016  1.00  0.00    -0.493 OA
ATOM     11  C   UNL     1     112.927 112.449 118.003  1.00  0.00     0.278 C 
ENDBRANCH   3  10
BRANCH   4  12
ATOM     12  O   UNL     1     111.913 115.537 120.591  1.00  0.00    -0.504 OA
ATOM     13  H   UNL     1     111.032 116.036 120.582  1.00  0.00     0.293 HD
ENDBRANCH   4  12
TORSDOF 3
ENDMDL
