MODEL 1
REMARK VINA RESULT:    -6.245      0.000      0.000
REMARK INTER + INTRA:         -12.458
REMARK INTER:                 -11.721
REMARK INTRA:                  -0.737
REMARK UNBOUND:                -0.737
REMARK SMILES CCCCCCCCC=CCCCCCCCC(=O)[O-]
REMARK SMILES IDX 10 1 9 2 11 3 12 4 13 5 14 6 15 7 16 8 17 9 18 10 19 11
REMARK SMILES IDX 20 12 8 13 7 14 6 15 5 16 4 17 3 18 2 19 1 20
REMARK H PARENT
REMARK Flexibility Score: inf
ROOT
ATOM      1  C   UNL     1      24.256   0.030 -16.353  1.00  0.00    -0.031 C 
ATOM      2  C   UNL     1      25.348  -0.133 -17.114  1.00  0.00    -0.031 C 
ENDROOT
BRANCH   1   3
ATOM      3  C   UNL     1      23.575   1.367 -16.224  1.00  0.00     0.027 C 
BRANCH   3   4
ATOM      4  C   UNL     1      22.346   1.488 -17.137  1.00  0.00     0.004 C 
BRANCH   4   5
ATOM      5  C   UNL     1      21.170   2.183 -16.435  1.00  0.00     0.000 C 
BRANCH   5   6
ATOM      6  C   UNL     1      20.300   1.168 -15.685  1.00  0.00     0.000 C 
BRANCH   6   7
ATOM      7  C   UNL     1      18.848   1.653 -15.586  1.00  0.00     0.000 C 
BRANCH   7   8
ATOM      8  C   UNL     1      18.009   0.704 -14.718  1.00  0.00     0.006 C 
BRANCH   8   9
ATOM      9  C   UNL     1      17.361  -0.417 -15.541  1.00  0.00     0.053 C 
BRANCH   9  10
ATOM     10  C   UNL     1      16.272   0.105 -16.428  1.00  0.00     0.041 C 
ATOM     11  O   UNL     1      15.168   0.459 -15.937  1.00  0.00    -0.550 OA
ATOM     12  O   UNL     1      16.489   0.230 -17.795  1.00  0.00    -0.550 OA
ENDBRANCH   9  10
ENDBRANCH   8   9
ENDBRANCH   7   8
ENDBRANCH   6   7
ENDBRANCH   5   6
ENDBRANCH   4   5
ENDBRANCH   3   4
ENDBRANCH   1   3
BRANCH   2  13
ATOM     13  C   UNL     1      26.034  -1.465 -17.234  1.00  0.00     0.027 C 
BRANCH  13  14
ATOM     14  C   UNL     1      27.562  -1.308 -17.169  1.00  0.00     0.004 C 
BRANCH  14  15
ATOM     15  C   UNL     1      28.038  -0.686 -15.847  1.00  0.00     0.000 C 
BRANCH  15  16
ATOM     16  C   UNL     1      29.503  -1.027 -15.526  1.00  0.00     0.000 C 
BRANCH  16  17
ATOM     17  C   UNL     1      30.269   0.153 -14.901  1.00  0.00    -0.000 C 
BRANCH  17  18
ATOM     18  C   UNL     1      31.116   0.983 -15.887  1.00  0.00    -0.000 C 
BRANCH  18  19
ATOM     19  C   UNL     1      32.222   0.200 -16.614  1.00  0.00    -0.003 C 
ATOM     20  C   UNL     1      33.354  -0.234 -15.683  1.00  0.00     0.004 C 
ENDBRANCH  18  19
ENDBRANCH  17  18
ENDBRANCH  16  17
ENDBRANCH  15  16
ENDBRANCH  14  15
ENDBRANCH  13  14
ENDBRANCH   2  13
TORSDOF 15
ENDMDL
MODEL 2
REMARK VINA RESULT:    -6.231     11.964     15.043
REMARK INTER + INTRA:         -12.432
REMARK INTER:                 -11.684
REMARK INTRA:                  -0.749
REMARK UNBOUND:                -0.737
REMARK SMILES CCCCCCCCC=CCCCCCCCC(=O)[O-]
REMARK SMILES IDX 10 1 9 2 11 3 12 4 13 5 14 6 15 7 16 8 17 9 18 10 19 11
REMARK SMILES IDX 20 12 8 13 7 14 6 15 5 16 4 17 3 18 2 19 1 20
REMARK H PARENT
REMARK Flexibility Score: inf
ROOT
ATOM      1  C   UNL     1      24.774   0.874 -26.715  1.00  0.00    -0.031 C 
ATOM      2  C   UNL     1      23.770  -0.010 -26.819  1.00  0.00    -0.031 C 
ENDROOT
BRANCH   1   3
ATOM      3  C   UNL     1      24.542   2.354 -26.867  1.00  0.00     0.027 C 
BRANCH   3   4
ATOM      4  C   UNL     1      25.515   3.189 -26.022  1.00  0.00     0.004 C 
BRANCH   4   5
ATOM      5  C   UNL     1      26.419   4.078 -26.889  1.00  0.00     0.000 C 
BRANCH   5   6
ATOM      6  C   UNL     1      27.344   3.229 -27.769  1.00  0.00     0.000 C 
BRANCH   6   7
ATOM      7  C   UNL     1      28.602   4.012 -28.163  1.00  0.00     0.000 C 
BRANCH   7   8
ATOM      8  C   UNL     1      29.086   4.895 -27.004  1.00  0.00     0.006 C 
BRANCH   8   9
ATOM      9  C   UNL     1      30.467   4.473 -26.488  1.00  0.00     0.053 C 
BRANCH   9  10
ATOM     10  C   UNL     1      31.233   5.638 -25.938  1.00  0.00     0.041 C 
ATOM     11  O   UNL     1      31.614   5.637 -24.738  1.00  0.00    -0.550 OA
ATOM     12  O   UNL     1      31.555   6.709 -26.762  1.00  0.00    -0.550 OA
ENDBRANCH   9  10
ENDBRANCH   8   9
ENDBRANCH   7   8
ENDBRANCH   6   7
ENDBRANCH   5   6
ENDBRANCH   4   5
ENDBRANCH   3   4
ENDBRANCH   1   3
BRANCH   2  13
ATOM     13  C   UNL     1      24.004  -1.488 -26.678  1.00  0.00     0.027 C 
BRANCH  13  14
ATOM     14  C   UNL     1      22.726  -2.283 -26.987  1.00  0.00     0.004 C 
BRANCH  14  15
ATOM     15  C   UNL     1      22.288  -3.180 -25.819  1.00  0.00     0.000 C 
BRANCH  15  16
ATOM     16  C   UNL     1      20.951  -3.892 -26.088  1.00  0.00     0.000 C 
BRANCH  16  17
ATOM     17  C   UNL     1      20.588  -3.936 -27.583  1.00  0.00    -0.000 C 
BRANCH  17  18
ATOM     18  C   UNL     1      19.078  -3.980 -27.893  1.00  0.00    -0.000 C 
BRANCH  18  19
ATOM     19  C   UNL     1      18.159  -3.735 -26.684  1.00  0.00    -0.003 C 
ATOM     20  C   UNL     1      17.291  -4.946 -26.341  1.00  0.00     0.004 C 
ENDBRANCH  18  19
ENDBRANCH  17  18
ENDBRANCH  16  17
ENDBRANCH  15  16
ENDBRANCH  14  15
ENDBRANCH  13  14
ENDBRANCH   2  13
TORSDOF 15
ENDMDL
MODEL 3
REMARK VINA RESULT:    -6.167     10.717     11.620
REMARK INTER + INTRA:         -12.311
REMARK INTER:                 -11.592
REMARK INTRA:                  -0.720
REMARK UNBOUND:                -0.737
REMARK SMILES CCCCCCCCC=CCCCCCCCC(=O)[O-]
REMARK SMILES IDX 10 1 9 2 11 3 12 4 13 5 14 6 15 7 16 8 17 9 18 10 19 11
REMARK SMILES IDX 20 12 8 13 7 14 6 15 5 16 4 17 3 18 2 19 1 20
REMARK H PARENT
REMARK Flexibility Score: inf
ROOT
ATOM      1  C   UNL     1      23.946   0.130 -26.686  1.00  0.00    -0.031 C 
ATOM      2  C   UNL     1      24.752   0.946 -25.989  1.00  0.00    -0.031 C 
ENDROOT
BRANCH   1   3
ATOM      3  C   UNL     1      24.308  -1.309 -26.940  1.00  0.00     0.027 C 
BRANCH   3   4
ATOM      4  C   UNL     1      23.072  -2.218 -27.015  1.00  0.00     0.004 C 
BRANCH   4   5
ATOM      5  C   UNL     1      22.953  -3.134 -25.788  1.00  0.00     0.000 C 
BRANCH   5   6
ATOM      6  C   UNL     1      21.561  -3.774 -25.714  1.00  0.00     0.000 C 
BRANCH   6   7
ATOM      7  C   UNL     1      20.846  -3.695 -27.068  1.00  0.00     0.000 C 
BRANCH   7   8
ATOM      8  C   UNL     1      19.334  -3.506 -26.881  1.00  0.00     0.006 C 
BRANCH   8   9
ATOM      9  C   UNL     1      18.517  -4.554 -27.647  1.00  0.00     0.053 C 
BRANCH   9  10
ATOM     10  C   UNL     1      17.526  -5.243 -26.758  1.00  0.00     0.041 C 
ATOM     11  O   UNL     1      16.762  -6.127 -27.225  1.00  0.00    -0.550 OA
ATOM     12  O   UNL     1      17.470  -4.929 -25.406  1.00  0.00    -0.550 OA
ENDBRANCH   9  10
ENDBRANCH   8   9
ENDBRANCH   7   8
ENDBRANCH   6   7
ENDBRANCH   5   6
ENDBRANCH   4   5
ENDBRANCH   3   4
ENDBRANCH   1   3
BRANCH   2  13
ATOM     13  C   UNL     1      24.396   2.386 -25.746  1.00  0.00     0.027 C 
BRANCH  13  14
ATOM     14  C   UNL     1      25.118   3.310 -26.739  1.00  0.00     0.004 C 
BRANCH  14  15
ATOM     15  C   UNL     1      26.636   3.362 -26.504  1.00  0.00     0.000 C 
BRANCH  15  16
ATOM     16  C   UNL     1      27.441   3.265 -27.812  1.00  0.00     0.000 C 
BRANCH  16  17
ATOM     17  C   UNL     1      28.551   4.327 -27.911  1.00  0.00    -0.000 C 
BRANCH  17  18
ATOM     18  C   UNL     1      29.949   3.861 -27.455  1.00  0.00    -0.000 C 
BRANCH  18  19
ATOM     19  C   UNL     1      30.645   4.787 -26.442  1.00  0.00    -0.003 C 
ATOM     20  C   UNL     1      31.314   5.993 -27.102  1.00  0.00     0.004 C 
ENDBRANCH  18  19
ENDBRANCH  17  18
ENDBRANCH  16  17
ENDBRANCH  15  16
ENDBRANCH  14  15
ENDBRANCH  13  14
ENDBRANCH   2  13
TORSDOF 15
ENDMDL
MODEL 4
REMARK VINA RESULT:    -6.091      5.460     10.972
REMARK INTER + INTRA:         -12.169
REMARK INTER:                 -11.409
REMARK INTRA:                  -0.760
REMARK UNBOUND:                -0.737
REMARK SMILES CCCCCCCCC=CCCCCCCCC(=O)[O-]
REMARK SMILES IDX 10 1 9 2 11 3 12 4 13 5 14 6 15 7 16 8 17 9 18 10 19 11
REMARK SMILES IDX 20 12 8 13 7 14 6 15 5 16 4 17 3 18 2 19 1 20
REMARK H PARENT
REMARK Flexibility Score: inf
ROOT
ATOM      1  C   UNL     1      23.959  -0.406 -16.302  1.00  0.00    -0.031 C 
ATOM      2  C   UNL     1      24.283   0.813 -15.845  1.00  0.00    -0.031 C 
ENDROOT
BRANCH   1   3
ATOM      3  C   UNL     1      25.013  -1.413 -16.682  1.00  0.00     0.027 C 
BRANCH   3   4
ATOM      4  C   UNL     1      26.422  -0.973 -16.257  1.00  0.00     0.004 C 
BRANCH   4   5
ATOM      5  C   UNL     1      27.487  -1.358 -17.295  1.00  0.00     0.000 C 
BRANCH   5   6
ATOM      6  C   UNL     1      28.899  -1.186 -16.724  1.00  0.00     0.000 C 
BRANCH   6   7
ATOM      7  C   UNL     1      28.860  -0.480 -15.363  1.00  0.00     0.000 C 
BRANCH   7   8
ATOM      8  C   UNL     1      30.279  -0.181 -14.858  1.00  0.00     0.006 C 
BRANCH   8   9
ATOM      9  C   UNL     1      31.068   0.704 -15.830  1.00  0.00     0.053 C 
BRANCH   9  10
ATOM     10  C   UNL     1      32.414   0.124 -16.142  1.00  0.00     0.041 C 
ATOM     11  O   UNL     1      33.181  -0.235 -15.211  1.00  0.00    -0.550 OA
ATOM     12  O   UNL     1      32.806  -0.050 -17.463  1.00  0.00    -0.550 OA
ENDBRANCH   9  10
ENDBRANCH   8   9
ENDBRANCH   7   8
ENDBRANCH   6   7
ENDBRANCH   5   6
ENDBRANCH   4   5
ENDBRANCH   3   4
ENDBRANCH   1   3
BRANCH   2  13
ATOM     13  C   UNL     1      23.231   1.821 -15.477  1.00  0.00     0.027 C 
BRANCH  13  14
ATOM     14  C   UNL     1      22.573   2.418 -16.731  1.00  0.00     0.004 C 
BRANCH  14  15
ATOM     15  C   UNL     1      21.544   1.471 -17.368  1.00  0.00     0.000 C 
BRANCH  15  16
ATOM     16  C   UNL     1      20.195   2.159 -17.640  1.00  0.00     0.000 C 
BRANCH  16  17
ATOM     17  C   UNL     1      19.077   1.674 -16.701  1.00  0.00    -0.000 C 
BRANCH  17  18
ATOM     18  C   UNL     1      19.539   1.248 -15.292  1.00  0.00    -0.000 C 
BRANCH  18  19
ATOM     19  C   UNL     1      18.430   0.691 -14.383  1.00  0.00    -0.003 C 
ATOM     20  C   UNL     1      17.061   0.666 -15.063  1.00  0.00     0.004 C 
ENDBRANCH  18  19
ENDBRANCH  17  18
ENDBRANCH  16  17
ENDBRANCH  15  16
ENDBRANCH  14  15
ENDBRANCH  13  14
ENDBRANCH   2  13
TORSDOF 15
ENDMDL
MODEL 5
REMARK VINA RESULT:    -6.082     11.016     13.954
REMARK INTER + INTRA:         -12.153
REMARK INTER:                 -10.510
REMARK INTRA:                  -1.643
REMARK UNBOUND:                -0.737
REMARK SMILES CCCCCCCCC=CCCCCCCCC(=O)[O-]
REMARK SMILES IDX 10 1 9 2 11 3 12 4 13 5 14 6 15 7 16 8 17 9 18 10 19 11
REMARK SMILES IDX 20 12 8 13 7 14 6 15 5 16 4 17 3 18 2 19 1 20
REMARK H PARENT
REMARK Flexibility Score: inf
ROOT
ATOM      1  C   UNL     1      26.598   3.486 -27.051  1.00  0.00    -0.031 C 
ATOM      2  C   UNL     1      25.550   2.653 -26.976  1.00  0.00    -0.031 C 
ENDROOT
BRANCH   1   3
ATOM      3  C   UNL     1      27.559   3.444 -28.210  1.00  0.00     0.027 C 
BRANCH   3   4
ATOM      4  C   UNL     1      28.845   4.236 -27.931  1.00  0.00     0.004 C 
BRANCH   4   5
ATOM      5  C   UNL     1      29.800   3.480 -26.994  1.00  0.00     0.000 C 
BRANCH   5   6
ATOM      6  C   UNL     1      31.084   4.281 -26.754  1.00  0.00     0.000 C 
BRANCH   6   7
ATOM      7  C   UNL     1      30.927   5.729 -27.234  1.00  0.00     0.000 C 
BRANCH   7   8
ATOM      8  C   UNL     1      31.694   6.697 -26.321  1.00  0.00     0.006 C 
BRANCH   8   9
ATOM      9  C   UNL     1      31.798   6.180 -24.881  1.00  0.00     0.053 C 
BRANCH   9  10
ATOM     10  C   UNL     1      32.799   6.959 -24.083  1.00  0.00     0.041 C 
ATOM     11  O   UNL     1      33.407   7.931 -24.602  1.00  0.00    -0.550 OA
ATOM     12  O   UNL     1      33.037   6.628 -22.754  1.00  0.00    -0.550 OA
ENDBRANCH   9  10
ENDBRANCH   8   9
ENDBRANCH   7   8
ENDBRANCH   6   7
ENDBRANCH   5   6
ENDBRANCH   4   5
ENDBRANCH   3   4
ENDBRANCH   1   3
BRANCH   2  13
ATOM     13  C   UNL     1      24.597   2.687 -25.814  1.00  0.00     0.027 C 
BRANCH  13  14
ATOM     14  C   UNL     1      24.987   3.784 -24.811  1.00  0.00     0.004 C 
BRANCH  14  15
ATOM     15  C   UNL     1      23.895   4.042 -23.760  1.00  0.00     0.000 C 
BRANCH  15  16
ATOM     16  C   UNL     1      24.351   3.688 -22.334  1.00  0.00     0.000 C 
BRANCH  16  17
ATOM     17  C   UNL     1      25.828   3.260 -22.268  1.00  0.00    -0.000 C 
BRANCH  17  18
ATOM     18  C   UNL     1      26.780   4.282 -21.614  1.00  0.00    -0.000 C 
BRANCH  18  19
ATOM     19  C   UNL     1      27.568   5.161 -22.600  1.00  0.00    -0.003 C 
ATOM     20  C   UNL     1      28.535   4.359 -23.470  1.00  0.00     0.004 C 
ENDBRANCH  18  19
ENDBRANCH  17  18
ENDBRANCH  16  17
ENDBRANCH  15  16
ENDBRANCH  14  15
ENDBRANCH  13  14
ENDBRANCH   2  13
TORSDOF 15
ENDMDL
MODEL 6
REMARK VINA RESULT:    -6.061     11.792     15.144
REMARK INTER + INTRA:         -12.113
REMARK INTER:                 -11.398
REMARK INTRA:                  -0.715
REMARK UNBOUND:                -0.737
REMARK SMILES CCCCCCCCC=CCCCCCCCC(=O)[O-]
REMARK SMILES IDX 10 1 9 2 11 3 12 4 13 5 14 6 15 7 16 8 17 9 18 10 19 11
REMARK SMILES IDX 20 12 8 13 7 14 6 15 5 16 4 17 3 18 2 19 1 20
REMARK H PARENT
REMARK Flexibility Score: inf
ROOT
ATOM      1  C   UNL     1      26.578   3.154 -26.976  1.00  0.00    -0.031 C 
ATOM      2  C   UNL     1      25.513   2.364 -27.181  1.00  0.00    -0.031 C 
ENDROOT
BRANCH   1   3
ATOM      3  C   UNL     1      27.402   3.681 -28.121  1.00  0.00     0.027 C 
BRANCH   3   4
ATOM      4  C   UNL     1      28.653   4.433 -27.643  1.00  0.00     0.004 C 
BRANCH   4   5
ATOM      5  C   UNL     1      29.655   3.503 -26.942  1.00  0.00     0.000 C 
BRANCH   5   6
ATOM      6  C   UNL     1      30.980   4.226 -26.674  1.00  0.00     0.000 C 
BRANCH   6   7
ATOM      7  C   UNL     1      30.948   5.657 -27.223  1.00  0.00     0.000 C 
BRANCH   7   8
ATOM      8  C   UNL     1      31.764   6.606 -26.334  1.00  0.00     0.006 C 
BRANCH   8   9
ATOM      9  C   UNL     1      31.813   6.138 -24.874  1.00  0.00     0.053 C 
BRANCH   9  10
ATOM     10  C   UNL     1      32.348   7.204 -23.967  1.00  0.00     0.041 C 
ATOM     11  O   UNL     1      32.755   8.296 -24.442  1.00  0.00    -0.550 OA
ATOM     12  O   UNL     1      32.366   7.001 -22.592  1.00  0.00    -0.550 OA
ENDBRANCH   9  10
ENDBRANCH   8   9
ENDBRANCH   7   8
ENDBRANCH   6   7
ENDBRANCH   5   6
ENDBRANCH   4   5
ENDBRANCH   3   4
ENDBRANCH   1   3
BRANCH   2  13
ATOM     13  C   UNL     1      24.697   1.829 -26.038  1.00  0.00     0.027 C 
BRANCH  13  14
ATOM     14  C   UNL     1      23.760   0.704 -26.505  1.00  0.00     0.004 C 
BRANCH  14  15
ATOM     15  C   UNL     1      24.500  -0.621 -26.749  1.00  0.00     0.000 C 
BRANCH  15  16
ATOM     16  C   UNL     1      23.866  -1.801 -25.992  1.00  0.00     0.000 C 
BRANCH  16  17
ATOM     17  C   UNL     1      22.873  -2.600 -26.854  1.00  0.00    -0.000 C 
BRANCH  17  18
ATOM     18  C   UNL     1      21.767  -3.338 -26.072  1.00  0.00    -0.000 C 
BRANCH  18  19
ATOM     19  C   UNL     1      20.744  -4.088 -26.942  1.00  0.00    -0.003 C 
ATOM     20  C   UNL     1      20.059  -3.183 -27.967  1.00  0.00     0.004 C 
ENDBRANCH  18  19
ENDBRANCH  17  18
ENDBRANCH  16  17
ENDBRANCH  15  16
ENDBRANCH  14  15
ENDBRANCH  13  14
ENDBRANCH   2  13
TORSDOF 15
ENDMDL
MODEL 7
REMARK VINA RESULT:    -5.976      9.906     11.288
REMARK INTER + INTRA:         -11.954
REMARK INTER:                 -10.503
REMARK INTRA:                  -1.451
REMARK UNBOUND:                -0.737
REMARK SMILES CCCCCCCCC=CCCCCCCCC(=O)[O-]
REMARK SMILES IDX 10 1 9 2 11 3 12 4 13 5 14 6 15 7 16 8 17 9 18 10 19 11
REMARK SMILES IDX 20 12 8 13 7 14 6 15 5 16 4 17 3 18 2 19 1 20
REMARK H PARENT
REMARK Flexibility Score: inf
ROOT
ATOM      1  C   UNL     1      21.368  -3.406 -27.065  1.00  0.00    -0.031 C 
ATOM      2  C   UNL     1      22.429  -2.596 -26.933  1.00  0.00    -0.031 C 
ENDROOT
BRANCH   1   3
ATOM      3  C   UNL     1      20.294  -3.140 -28.087  1.00  0.00     0.027 C 
BRANCH   3   4
ATOM      4  C   UNL     1      18.951  -3.778 -27.703  1.00  0.00     0.004 C 
BRANCH   4   5
ATOM      5  C   UNL     1      19.094  -4.770 -26.539  1.00  0.00     0.000 C 
BRANCH   5   6
ATOM      6  C   UNL     1      18.182  -4.379 -25.370  1.00  0.00     0.000 C 
BRANCH   6   7
ATOM      7  C   UNL     1      18.945  -3.551 -24.329  1.00  0.00     0.000 C 
BRANCH   7   8
ATOM      8  C   UNL     1      20.133  -4.340 -23.762  1.00  0.00     0.006 C 
BRANCH   8   9
ATOM      9  C   UNL     1      21.247  -3.422 -23.243  1.00  0.00     0.053 C 
BRANCH   9  10
ATOM     10  C   UNL     1      22.173  -4.144 -22.312  1.00  0.00     0.041 C 
ATOM     11  O   UNL     1      23.305  -3.663 -22.043  1.00  0.00    -0.550 OA
ATOM     12  O   UNL     1      21.771  -5.333 -21.717  1.00  0.00    -0.550 OA
ENDBRANCH   9  10
ENDBRANCH   8   9
ENDBRANCH   7   8
ENDBRANCH   6   7
ENDBRANCH   5   6
ENDBRANCH   4   5
ENDBRANCH   3   4
ENDBRANCH   1   3
BRANCH   2  13
ATOM     13  C   UNL     1      23.495  -2.855 -25.905  1.00  0.00     0.027 C 
BRANCH  13  14
ATOM     14  C   UNL     1      24.468  -1.670 -25.806  1.00  0.00     0.004 C 
BRANCH  14  15
ATOM     15  C   UNL     1      23.784  -0.318 -26.064  1.00  0.00     0.000 C 
BRANCH  15  16
ATOM     16  C   UNL     1      24.709   0.688 -26.770  1.00  0.00     0.000 C 
BRANCH  16  17
ATOM     17  C   UNL     1      24.152   2.123 -26.757  1.00  0.00    -0.000 C 
BRANCH  17  18
ATOM     18  C   UNL     1      25.203   3.234 -26.552  1.00  0.00    -0.000 C 
BRANCH  18  19
ATOM     19  C   UNL     1      26.525   3.028 -27.310  1.00  0.00    -0.003 C 
ATOM     20  C   UNL     1      27.546   4.133 -27.038  1.00  0.00     0.004 C 
ENDBRANCH  18  19
ENDBRANCH  17  18
ENDBRANCH  16  17
ENDBRANCH  15  16
ENDBRANCH  14  15
ENDBRANCH  13  14
ENDBRANCH   2  13
TORSDOF 15
ENDMDL
MODEL 8
REMARK VINA RESULT:    -5.962      4.476     10.013
REMARK INTER + INTRA:         -11.927
REMARK INTER:                 -10.157
REMARK INTRA:                  -1.771
REMARK UNBOUND:                -0.737
REMARK SMILES CCCCCCCCC=CCCCCCCCC(=O)[O-]
REMARK SMILES IDX 10 1 9 2 11 3 12 4 13 5 14 6 15 7 16 8 17 9 18 10 19 11
REMARK SMILES IDX 20 12 8 13 7 14 6 15 5 16 4 17 3 18 2 19 1 20
REMARK H PARENT
REMARK Flexibility Score: inf
ROOT
ATOM      1  C   UNL     1      19.554   1.879 -15.898  1.00  0.00    -0.031 C 
ATOM      2  C   UNL     1      19.217   1.087 -14.868  1.00  0.00    -0.031 C 
ENDROOT
BRANCH   1   3
ATOM      3  C   UNL     1      20.982   2.282 -16.150  1.00  0.00     0.027 C 
BRANCH   3   4
ATOM      4  C   UNL     1      21.447   1.927 -17.570  1.00  0.00     0.004 C 
BRANCH   4   5
ATOM      5  C   UNL     1      22.919   1.489 -17.604  1.00  0.00     0.000 C 
BRANCH   5   6
ATOM      6  C   UNL     1      23.488   1.363 -16.186  1.00  0.00     0.000 C 
BRANCH   6   7
ATOM      7  C   UNL     1      24.036  -0.047 -15.935  1.00  0.00     0.000 C 
BRANCH   7   8
ATOM      8  C   UNL     1      25.396  -0.239 -16.621  1.00  0.00     0.006 C 
BRANCH   8   9
ATOM      9  C   UNL     1      26.308  -1.200 -15.848  1.00  0.00     0.053 C 
BRANCH   9  10
ATOM     10  C   UNL     1      27.736  -1.082 -16.285  1.00  0.00     0.041 C 
ATOM     11  O   UNL     1      28.086  -1.482 -17.426  1.00  0.00    -0.550 OA
ATOM     12  O   UNL     1      28.675  -0.500 -15.442  1.00  0.00    -0.550 OA
ENDBRANCH   9  10
ENDBRANCH   8   9
ENDBRANCH   7   8
ENDBRANCH   6   7
ENDBRANCH   5   6
ENDBRANCH   4   5
ENDBRANCH   3   4
ENDBRANCH   1   3
BRANCH   2  13
ATOM     13  C   UNL     1      17.790   0.694 -14.610  1.00  0.00     0.027 C 
BRANCH  13  14
ATOM     14  C   UNL     1      17.318  -0.370 -15.613  1.00  0.00     0.004 C 
BRANCH  14  15
ATOM     15  C   UNL     1      16.119   0.097 -16.453  1.00  0.00     0.000 C 
BRANCH  15  16
ATOM     16  C   UNL     1      16.499   0.393 -17.914  1.00  0.00     0.000 C 
BRANCH  16  17
ATOM     17  C   UNL     1      17.770  -0.350 -18.363  1.00  0.00    -0.000 C 
BRANCH  17  18
ATOM     18  C   UNL     1      18.743   0.475 -19.229  1.00  0.00    -0.000 C 
BRANCH  18  19
ATOM     19  C   UNL     1      18.273   1.903 -19.556  1.00  0.00    -0.003 C 
ATOM     20  C   UNL     1      19.141   2.587 -20.613  1.00  0.00     0.004 C 
ENDBRANCH  18  19
ENDBRANCH  17  18
ENDBRANCH  16  17
ENDBRANCH  15  16
ENDBRANCH  14  15
ENDBRANCH  13  14
ENDBRANCH   2  13
TORSDOF 15
ENDMDL
MODEL 9
REMARK VINA RESULT:    -5.863      5.966     10.101
REMARK INTER + INTRA:         -11.741
REMARK INTER:                  -9.816
REMARK INTRA:                  -1.925
REMARK UNBOUND:                -0.737
REMARK SMILES CCCCCCCCC=CCCCCCCCC(=O)[O-]
REMARK SMILES IDX 10 1 9 2 11 3 12 4 13 5 14 6 15 7 16 8 17 9 18 10 19 11
REMARK SMILES IDX 20 12 8 13 7 14 6 15 5 16 4 17 3 18 2 19 1 20
REMARK H PARENT
REMARK Flexibility Score: inf
ROOT
ATOM      1  C   UNL     1      24.160  -0.469 -16.022  1.00  0.00    -0.031 C 
ATOM      2  C   UNL     1      24.392   0.847 -15.905  1.00  0.00    -0.031 C 
ENDROOT
BRANCH   1   3
ATOM      3  C   UNL     1      25.287  -1.466 -16.091  1.00  0.00     0.027 C 
BRANCH   3   4
ATOM      4  C   UNL     1      26.666  -0.795 -16.012  1.00  0.00     0.004 C 
BRANCH   4   5
ATOM      5  C   UNL     1      27.662  -1.399 -17.014  1.00  0.00     0.000 C 
BRANCH   5   6
ATOM      6  C   UNL     1      29.108  -1.114 -16.592  1.00  0.00     0.000 C 
BRANCH   6   7
ATOM      7  C   UNL     1      29.152  -0.229 -15.340  1.00  0.00     0.000 C 
BRANCH   7   8
ATOM      8  C   UNL     1      30.593  -0.051 -14.842  1.00  0.00     0.006 C 
BRANCH   8   9
ATOM      9  C   UNL     1      31.438   0.800 -15.799  1.00  0.00     0.053 C 
BRANCH   9  10
ATOM     10  C   UNL     1      32.764   0.163 -16.085  1.00  0.00     0.041 C 
ATOM     11  O   UNL     1      33.470  -0.282 -15.144  1.00  0.00    -0.550 OA
ATOM     12  O   UNL     1      33.203   0.034 -17.397  1.00  0.00    -0.550 OA
ENDBRANCH   9  10
ENDBRANCH   8   9
ENDBRANCH   7   8
ENDBRANCH   6   7
ENDBRANCH   5   6
ENDBRANCH   4   5
ENDBRANCH   3   4
ENDBRANCH   1   3
BRANCH   2  13
ATOM     13  C   UNL     1      23.267   1.844 -15.848  1.00  0.00     0.027 C 
BRANCH  13  14
ATOM     14  C   UNL     1      22.005   1.293 -16.531  1.00  0.00     0.004 C 
BRANCH  14  15
ATOM     15  C   UNL     1      21.517   2.186 -17.683  1.00  0.00     0.000 C 
BRANCH  15  16
ATOM     16  C   UNL     1      21.396   1.422 -19.013  1.00  0.00     0.000 C 
BRANCH  16  17
ATOM     17  C   UNL     1      22.516   1.774 -20.008  1.00  0.00    -0.000 C 
BRANCH  17  18
ATOM     18  C   UNL     1      23.610   2.714 -19.461  1.00  0.00    -0.000 C 
BRANCH  18  19
ATOM     19  C   UNL     1      25.031   2.125 -19.458  1.00  0.00    -0.003 C 
ATOM     20  C   UNL     1      25.043   0.597 -19.519  1.00  0.00     0.004 C 
ENDBRANCH  18  19
ENDBRANCH  17  18
ENDBRANCH  16  17
ENDBRANCH  15  16
ENDBRANCH  14  15
ENDBRANCH  13  14
ENDBRANCH   2  13
TORSDOF 15
ENDMDL
