MODEL 1
REMARK VINA RESULT:    -5.288      0.000      0.000
REMARK INTER + INTRA:         -11.762
REMARK INTER:                 -10.233
REMARK INTRA:                  -1.529
REMARK UNBOUND:                -1.529
REMARK SMILES CCCCCC=CCC=CCCCCCCCCOC(C)=O
REMARK SMILES IDX 12 1 11 2 10 3 9 4 8 5 7 6 6 7 5 8 4 9 3 10 2 11 1 12 13 13
REMARK SMILES IDX 14 14 15 15 16 16 17 17 18 18 19 19 20 20 22 21 21 22
REMARK H PARENT
REMARK Flexibility Score: inf
ROOT
ATOM      1  C   UNL     1      98.124 -62.730 104.277  1.00  0.00     0.004 C 
ENDROOT
BRANCH   1   2
ATOM      2  C   UNL     1      97.112 -63.598 103.516  1.00  0.00     0.027 C 
BRANCH   2   3
ATOM      3  C   UNL     1      96.303 -62.790 102.530  1.00  0.00    -0.031 C 
ATOM      4  C   UNL     1      94.960 -62.705 102.534  1.00  0.00    -0.027 C 
BRANCH   4   5
ATOM      5  C   UNL     1      94.068 -63.346 103.566  1.00  0.00     0.054 C 
BRANCH   5   6
ATOM      6  C   UNL     1      93.107 -64.310 102.929  1.00  0.00    -0.027 C 
ATOM      7  C   UNL     1      91.835 -63.954 102.700  1.00  0.00    -0.031 C 
BRANCH   7   8
ATOM      8  C   UNL     1      90.854 -64.901 102.060  1.00  0.00     0.027 C 
BRANCH   8   9
ATOM      9  C   UNL     1      90.525 -66.106 102.957  1.00  0.00     0.004 C 
BRANCH   9  10
ATOM     10  C   UNL     1      89.049 -66.542 102.910  1.00  0.00     0.000 C 
BRANCH  10  11
ATOM     11  C   UNL     1      88.501 -66.931 104.291  1.00  0.00    -0.003 C 
ATOM     12  C   UNL     1      87.827 -68.299 104.247  1.00  0.00     0.004 C 
ENDBRANCH  10  11
ENDBRANCH   9  10
ENDBRANCH   8   9
ENDBRANCH   7   8
ENDBRANCH   5   6
ENDBRANCH   4   5
ENDBRANCH   2   3
ENDBRANCH   1   2
BRANCH   1  13
ATOM     13  C   UNL     1      97.452 -61.884 105.374  1.00  0.00     0.000 C 
BRANCH  13  14
ATOM     14  C   UNL     1      98.021 -60.459 105.458  1.00  0.00     0.000 C 
BRANCH  14  15
ATOM     15  C   UNL     1      96.936 -59.380 105.291  1.00  0.00     0.000 C 
BRANCH  15  16
ATOM     16  C   UNL     1      95.576 -59.959 104.859  1.00  0.00     0.003 C 
BRANCH  16  17
ATOM     17  C   UNL     1      94.637 -58.964 104.154  1.00  0.00     0.042 C 
BRANCH  17  18
ATOM     18  C   UNL     1      93.513 -59.653 103.369  1.00  0.00     0.233 C 
BRANCH  18  19
ATOM     19  O   UNL     1      92.546 -58.697 102.939  1.00  0.00    -0.466 OA
BRANCH  19  20
ATOM     20  C   UNL     1      92.186 -58.516 101.599  1.00  0.00     0.302 C 
ATOM     21  O   UNL     1      91.180 -57.821 101.289  1.00  0.00    -0.253 OA
ATOM     22  C   UNL     1      93.032 -59.107 100.524  1.00  0.00     0.139 C 
ENDBRANCH  19  20
ENDBRANCH  18  19
ENDBRANCH  17  18
ENDBRANCH  16  17
ENDBRANCH  15  16
ENDBRANCH  14  15
ENDBRANCH  13  14
ENDBRANCH   1  13
TORSDOF 16
ENDMDL
MODEL 2
REMARK VINA RESULT:    -5.230      2.811      5.611
REMARK INTER + INTRA:         -11.650
REMARK INTER:                  -9.161
REMARK INTRA:                  -2.489
REMARK UNBOUND:                -1.529
REMARK SMILES CCCCCC=CCC=CCCCCCCCCOC(C)=O
REMARK SMILES IDX 12 1 11 2 10 3 9 4 8 5 7 6 6 7 5 8 4 9 3 10 2 11 1 12 13 13
REMARK SMILES IDX 14 14 15 15 16 16 17 17 18 18 19 19 20 20 22 21 21 22
REMARK H PARENT
REMARK Flexibility Score: inf
ROOT
ATOM      1  C   UNL     1      97.533 -60.541 105.476  1.00  0.00     0.004 C 
ENDROOT
BRANCH   1   2
ATOM      2  C   UNL     1      98.995 -60.258 105.852  1.00  0.00     0.027 C 
BRANCH   2   3
ATOM      3  C   UNL     1      99.664 -61.465 106.463  1.00  0.00    -0.031 C 
ATOM      4  C   UNL     1     100.224 -62.465 105.758  1.00  0.00    -0.027 C 
BRANCH   4   5
ATOM      5  C   UNL     1     100.328 -62.494 104.254  1.00  0.00     0.054 C 
BRANCH   5   6
ATOM      6  C   UNL     1      99.136 -63.175 103.641  1.00  0.00    -0.027 C 
ATOM      7  C   UNL     1      98.831 -64.439 103.965  1.00  0.00    -0.031 C 
BRANCH   7   8
ATOM      8  C   UNL     1      97.641 -65.141 103.367  1.00  0.00     0.027 C 
BRANCH   8   9
ATOM      9  C   UNL     1      96.306 -64.625 103.932  1.00  0.00     0.004 C 
BRANCH   9  10
ATOM     10  C   UNL     1      96.044 -65.024 105.395  1.00  0.00     0.000 C 
BRANCH  10  11
ATOM     11  C   UNL     1      96.198 -63.846 106.368  1.00  0.00    -0.003 C 
ATOM     12  C   UNL     1      97.157 -64.194 107.503  1.00  0.00     0.004 C 
ENDBRANCH  10  11
ENDBRANCH   9  10
ENDBRANCH   8   9
ENDBRANCH   7   8
ENDBRANCH   5   6
ENDBRANCH   4   5
ENDBRANCH   2   3
ENDBRANCH   1   2
BRANCH   1  13
ATOM     13  C   UNL     1      96.760 -59.251 105.146  1.00  0.00     0.000 C 
BRANCH  13  14
ATOM     14  C   UNL     1      95.340 -59.526 104.625  1.00  0.00     0.000 C 
BRANCH  14  15
ATOM     15  C   UNL     1      95.092 -61.020 104.349  1.00  0.00     0.000 C 
BRANCH  15  16
ATOM     16  C   UNL     1      94.773 -61.310 102.871  1.00  0.00     0.003 C 
BRANCH  16  17
ATOM     17  C   UNL     1      93.808 -60.314 102.202  1.00  0.00     0.042 C 
BRANCH  17  18
ATOM     18  C   UNL     1      92.602 -60.995 101.542  1.00  0.00     0.233 C 
BRANCH  18  19
ATOM     19  O   UNL     1      92.037 -61.967 102.419  1.00  0.00    -0.466 OA
BRANCH  19  20
ATOM     20  C   UNL     1      91.776 -63.288 102.038  1.00  0.00     0.302 C 
ATOM     21  O   UNL     1      91.296 -64.115 102.860  1.00  0.00    -0.253 OA
ATOM     22  C   UNL     1      92.020 -63.709 100.629  1.00  0.00     0.139 C 
ENDBRANCH  19  20
ENDBRANCH  18  19
ENDBRANCH  17  18
ENDBRANCH  16  17
ENDBRANCH  15  16
ENDBRANCH  14  15
ENDBRANCH  13  14
ENDBRANCH   1  13
TORSDOF 16
ENDMDL
MODEL 3
REMARK VINA RESULT:    -5.210      2.571      4.649
REMARK INTER + INTRA:         -11.612
REMARK INTER:                  -9.554
REMARK INTRA:                  -2.058
REMARK UNBOUND:                -1.529
REMARK SMILES CCCCCC=CCC=CCCCCCCCCOC(C)=O
REMARK SMILES IDX 12 1 11 2 10 3 9 4 8 5 7 6 6 7 5 8 4 9 3 10 2 11 1 12 13 13
REMARK SMILES IDX 14 14 15 15 16 16 17 17 18 18 19 19 20 20 22 21 21 22
REMARK H PARENT
REMARK Flexibility Score: inf
ROOT
ATOM      1  C   UNL     1      96.877 -59.229 105.380  1.00  0.00     0.004 C 
ENDROOT
BRANCH   1   2
ATOM      2  C   UNL     1      95.720 -60.007 104.736  1.00  0.00     0.027 C 
BRANCH   2   3
ATOM      3  C   UNL     1      94.611 -59.093 104.275  1.00  0.00    -0.031 C 
ATOM      4  C   UNL     1      93.881 -59.282 103.161  1.00  0.00    -0.027 C 
BRANCH   4   5
ATOM      5  C   UNL     1      94.013 -60.472 102.245  1.00  0.00     0.054 C 
BRANCH   5   6
ATOM      6  C   UNL     1      93.018 -61.542 102.599  1.00  0.00    -0.027 C 
ATOM      7  C   UNL     1      92.856 -62.611 101.808  1.00  0.00    -0.031 C 
BRANCH   7   8
ATOM      8  C   UNL     1      91.868 -63.697 102.142  1.00  0.00     0.027 C 
BRANCH   8   9
ATOM      9  C   UNL     1      91.712 -63.907 103.658  1.00  0.00     0.004 C 
BRANCH   9  10
ATOM     10  C   UNL     1      91.886 -65.367 104.114  1.00  0.00     0.000 C 
BRANCH  10  11
ATOM     11  C   UNL     1      91.044 -66.351 103.288  1.00  0.00    -0.003 C 
ATOM     12  C   UNL     1      89.601 -66.387 103.783  1.00  0.00     0.004 C 
ENDBRANCH  10  11
ENDBRANCH   9  10
ENDBRANCH   8   9
ENDBRANCH   7   8
ENDBRANCH   5   6
ENDBRANCH   4   5
ENDBRANCH   2   3
ENDBRANCH   1   2
BRANCH   1  13
ATOM     13  C   UNL     1      98.143 -60.092 105.530  1.00  0.00     0.000 C 
BRANCH  13  14
ATOM     14  C   UNL     1      97.903 -61.567 105.173  1.00  0.00     0.000 C 
BRANCH  14  15
ATOM     15  C   UNL     1      98.954 -62.503 105.794  1.00  0.00     0.000 C 
BRANCH  15  16
ATOM     16  C   UNL     1      98.501 -63.105 107.137  1.00  0.00     0.003 C 
BRANCH  16  17
ATOM     17  C   UNL     1      97.969 -64.547 107.060  1.00  0.00     0.042 C 
BRANCH  17  18
ATOM     18  C   UNL     1      96.437 -64.626 107.106  1.00  0.00     0.233 C 
BRANCH  18  19
ATOM     19  O   UNL     1      95.922 -65.062 105.850  1.00  0.00    -0.466 OA
BRANCH  19  20
ATOM     20  C   UNL     1      95.379 -64.193 104.897  1.00  0.00     0.302 C 
ATOM     21  O   UNL     1      94.642 -63.231 105.245  1.00  0.00    -0.253 OA
ATOM     22  C   UNL     1      95.717 -64.377 103.457  1.00  0.00     0.139 C 
ENDBRANCH  19  20
ENDBRANCH  18  19
ENDBRANCH  17  18
ENDBRANCH  16  17
ENDBRANCH  15  16
ENDBRANCH  14  15
ENDBRANCH  13  14
ENDBRANCH   1  13
TORSDOF 16
ENDMDL
MODEL 4
REMARK VINA RESULT:    -5.198      2.205      4.180
REMARK INTER + INTRA:         -11.589
REMARK INTER:                  -9.764
REMARK INTRA:                  -1.825
REMARK UNBOUND:                -1.529
REMARK SMILES CCCCCC=CCC=CCCCCCCCCOC(C)=O
REMARK SMILES IDX 12 1 11 2 10 3 9 4 8 5 7 6 6 7 5 8 4 9 3 10 2 11 1 12 13 13
REMARK SMILES IDX 14 14 15 15 16 16 17 17 18 18 19 19 20 20 22 21 21 22
REMARK H PARENT
REMARK Flexibility Score: inf
ROOT
ATOM      1  C   UNL     1      99.207 -60.771 106.565  1.00  0.00     0.004 C 
ENDROOT
BRANCH   1   2
ATOM      2  C   UNL     1     100.585 -61.290 106.131  1.00  0.00     0.027 C 
BRANCH   2   3
ATOM      3  C   UNL     1     100.577 -61.790 104.707  1.00  0.00    -0.031 C 
ATOM      4  C   UNL     1     100.196 -63.026 104.335  1.00  0.00    -0.027 C 
BRANCH   4   5
ATOM      5  C   UNL     1      99.653 -64.071 105.277  1.00  0.00     0.054 C 
BRANCH   5   6
ATOM      6  C   UNL     1      98.152 -64.121 105.224  1.00  0.00    -0.027 C 
ATOM      7  C   UNL     1      97.419 -63.757 106.285  1.00  0.00    -0.031 C 
BRANCH   7   8
ATOM      8  C   UNL     1      95.914 -63.796 106.256  1.00  0.00     0.027 C 
BRANCH   8   9
ATOM      9  C   UNL     1      95.364 -64.384 104.945  1.00  0.00     0.004 C 
BRANCH   9  10
ATOM     10  C   UNL     1      94.073 -63.711 104.445  1.00  0.00     0.000 C 
BRANCH  10  11
ATOM     11  C   UNL     1      93.194 -64.657 103.614  1.00  0.00    -0.003 C 
ATOM     12  C   UNL     1      91.725 -64.257 103.701  1.00  0.00     0.004 C 
ENDBRANCH  10  11
ENDBRANCH   9  10
ENDBRANCH   8   9
ENDBRANCH   7   8
ENDBRANCH   5   6
ENDBRANCH   4   5
ENDBRANCH   2   3
ENDBRANCH   1   2
BRANCH   1  13
ATOM     13  C   UNL     1      98.568 -59.862 105.498  1.00  0.00     0.000 C 
BRANCH  13  14
ATOM     14  C   UNL     1      97.058 -60.098 105.343  1.00  0.00     0.000 C 
BRANCH  14  15
ATOM     15  C   UNL     1      96.281 -58.797 105.076  1.00  0.00     0.000 C 
BRANCH  15  16
ATOM     16  C   UNL     1      94.945 -59.035 104.349  1.00  0.00     0.003 C 
BRANCH  16  17
ATOM     17  C   UNL     1      94.771 -60.442 103.748  1.00  0.00     0.042 C 
BRANCH  17  18
ATOM     18  C   UNL     1      93.915 -60.449 102.474  1.00  0.00     0.233 C 
BRANCH  18  19
ATOM     19  O   UNL     1      93.055 -59.313 102.444  1.00  0.00    -0.466 OA
BRANCH  19  20
ATOM     20  C   UNL     1      92.197 -59.025 101.376  1.00  0.00     0.302 C 
ATOM     21  O   UNL     1      91.540 -57.949 101.348  1.00  0.00    -0.253 OA
ATOM     22  C   UNL     1      92.099 -59.978 100.234  1.00  0.00     0.139 C 
ENDBRANCH  19  20
ENDBRANCH  18  19
ENDBRANCH  17  18
ENDBRANCH  16  17
ENDBRANCH  15  16
ENDBRANCH  14  15
ENDBRANCH  13  14
ENDBRANCH   1  13
TORSDOF 16
ENDMDL
MODEL 5
REMARK VINA RESULT:    -5.132      2.659      6.072
REMARK INTER + INTRA:         -11.461
REMARK INTER:                  -8.960
REMARK INTRA:                  -2.502
REMARK UNBOUND:                -1.529
REMARK SMILES CCCCCC=CCC=CCCCCCCCCOC(C)=O
REMARK SMILES IDX 12 1 11 2 10 3 9 4 8 5 7 6 6 7 5 8 4 9 3 10 2 11 1 12 13 13
REMARK SMILES IDX 14 14 15 15 16 16 17 17 18 18 19 19 20 20 22 21 21 22
REMARK H PARENT
REMARK Flexibility Score: inf
ROOT
ATOM      1  C   UNL     1      98.456 -63.484 103.701  1.00  0.00     0.004 C 
ENDROOT
BRANCH   1   2
ATOM      2  C   UNL     1      99.707 -62.815 104.288  1.00  0.00     0.027 C 
BRANCH   2   3
ATOM      3  C   UNL     1      99.586 -62.603 105.778  1.00  0.00    -0.031 C 
ATOM      4  C   UNL     1      99.273 -61.430 106.358  1.00  0.00    -0.027 C 
BRANCH   4   5
ATOM      5  C   UNL     1      98.926 -60.171 105.605  1.00  0.00     0.054 C 
BRANCH   5   6
ATOM      6  C   UNL     1      97.441 -59.939 105.591  1.00  0.00    -0.027 C 
ATOM      7  C   UNL     1      96.634 -60.727 104.867  1.00  0.00    -0.031 C 
BRANCH   7   8
ATOM      8  C   UNL     1      95.144 -60.517 104.839  1.00  0.00     0.027 C 
BRANCH   8   9
ATOM      9  C   UNL     1      94.755 -59.103 104.374  1.00  0.00     0.004 C 
BRANCH   9  10
ATOM     10  C   UNL     1      93.662 -59.073 103.291  1.00  0.00     0.000 C 
BRANCH  10  11
ATOM     11  C   UNL     1      93.920 -60.080 102.160  1.00  0.00    -0.003 C 
ATOM     12  C   UNL     1      92.608 -60.581 101.563  1.00  0.00     0.004 C 
ENDBRANCH  10  11
ENDBRANCH   9  10
ENDBRANCH   8   9
ENDBRANCH   7   8
ENDBRANCH   5   6
ENDBRANCH   4   5
ENDBRANCH   2   3
ENDBRANCH   1   2
BRANCH   1  13
ATOM     13  C   UNL     1      97.790 -64.448 104.701  1.00  0.00     0.000 C 
BRANCH  13  14
ATOM     14  C   UNL     1      96.265 -64.520 104.532  1.00  0.00     0.000 C 
BRANCH  14  15
ATOM     15  C   UNL     1      95.815 -64.211 103.093  1.00  0.00     0.000 C 
BRANCH  15  16
ATOM     16  C   UNL     1      94.394 -63.622 103.023  1.00  0.00     0.003 C 
BRANCH  16  17
ATOM     17  C   UNL     1      93.538 -63.831 104.285  1.00  0.00     0.042 C 
BRANCH  17  18
ATOM     18  C   UNL     1      92.058 -64.087 103.971  1.00  0.00     0.233 C 
BRANCH  18  19
ATOM     19  O   UNL     1      91.716 -63.545 102.697  1.00  0.00    -0.466 OA
BRANCH  19  20
ATOM     20  C   UNL     1      91.250 -64.321 101.630  1.00  0.00     0.302 C 
ATOM     21  O   UNL     1      90.420 -65.250 101.821  1.00  0.00    -0.253 OA
ATOM     22  C   UNL     1      91.702 -64.011 100.243  1.00  0.00     0.139 C 
ENDBRANCH  19  20
ENDBRANCH  18  19
ENDBRANCH  17  18
ENDBRANCH  16  17
ENDBRANCH  15  16
ENDBRANCH  14  15
ENDBRANCH  13  14
ENDBRANCH   1  13
TORSDOF 16
ENDMDL
MODEL 6
REMARK VINA RESULT:    -5.113      3.133      8.464
REMARK INTER + INTRA:         -11.425
REMARK INTER:                 -10.100
REMARK INTRA:                  -1.325
REMARK UNBOUND:                -1.529
REMARK SMILES CCCCCC=CCC=CCCCCCCCCOC(C)=O
REMARK SMILES IDX 12 1 11 2 10 3 9 4 8 5 7 6 6 7 5 8 4 9 3 10 2 11 1 12 13 13
REMARK SMILES IDX 14 14 15 15 16 16 17 17 18 18 19 19 20 20 22 21 21 22
REMARK H PARENT
REMARK Flexibility Score: inf
ROOT
ATOM      1  C   UNL     1      92.494 -60.903 101.880  1.00  0.00     0.004 C 
ENDROOT
BRANCH   1   2
ATOM      2  C   UNL     1      93.918 -60.419 102.189  1.00  0.00     0.027 C 
BRANCH   2   3
ATOM      3  C   UNL     1      93.923 -59.266 103.163  1.00  0.00    -0.031 C 
ATOM      4  C   UNL     1      94.600 -59.254 104.326  1.00  0.00    -0.027 C 
BRANCH   4   5
ATOM      5  C   UNL     1      95.510 -60.361 104.796  1.00  0.00     0.054 C 
BRANCH   5   6
ATOM      6  C   UNL     1      96.862 -59.827 105.175  1.00  0.00    -0.027 C 
ATOM      7  C   UNL     1      97.853 -60.661 105.520  1.00  0.00    -0.031 C 
BRANCH   7   8
ATOM      8  C   UNL     1      99.217 -60.151 105.901  1.00  0.00     0.027 C 
BRANCH   8   9
ATOM      9  C   UNL     1     100.102 -61.244 106.527  1.00  0.00     0.004 C 
BRANCH   9  10
ATOM     10  C   UNL     1     100.066 -62.589 105.780  1.00  0.00     0.000 C 
BRANCH  10  11
ATOM     11  C   UNL     1     100.828 -62.549 104.447  1.00  0.00    -0.003 C 
ATOM     12  C   UNL     1      99.973 -63.098 103.310  1.00  0.00     0.004 C 
ENDBRANCH  10  11
ENDBRANCH   9  10
ENDBRANCH   8   9
ENDBRANCH   7   8
ENDBRANCH   5   6
ENDBRANCH   4   5
ENDBRANCH   2   3
ENDBRANCH   1   2
BRANCH   1  13
ATOM     13  C   UNL     1      92.209 -62.290 102.485  1.00  0.00     0.000 C 
BRANCH  13  14
ATOM     14  C   UNL     1      93.487 -63.018 102.929  1.00  0.00     0.000 C 
BRANCH  14  15
ATOM     15  C   UNL     1      93.263 -63.902 104.168  1.00  0.00     0.000 C 
BRANCH  15  16
ATOM     16  C   UNL     1      91.954 -64.710 104.099  1.00  0.00     0.003 C 
BRANCH  16  17
ATOM     17  C   UNL     1      92.094 -66.209 104.421  1.00  0.00     0.042 C 
BRANCH  17  18
ATOM     18  C   UNL     1      91.063 -67.079 103.691  1.00  0.00     0.233 C 
BRANCH  18  19
ATOM     19  O   UNL     1      89.743 -66.767 104.133  1.00  0.00    -0.466 OA
BRANCH  19  20
ATOM     20  C   UNL     1      88.588 -67.252 103.511  1.00  0.00     0.302 C 
ATOM     21  O   UNL     1      88.265 -66.864 102.355  1.00  0.00    -0.253 OA
ATOM     22  C   UNL     1      87.757 -68.280 104.201  1.00  0.00     0.139 C 
ENDBRANCH  19  20
ENDBRANCH  18  19
ENDBRANCH  17  18
ENDBRANCH  16  17
ENDBRANCH  15  16
ENDBRANCH  14  15
ENDBRANCH  13  14
ENDBRANCH   1  13
TORSDOF 16
ENDMDL
MODEL 7
REMARK VINA RESULT:    -5.092      3.222      5.392
REMARK INTER + INTRA:         -11.384
REMARK INTER:                  -8.870
REMARK INTRA:                  -2.514
REMARK UNBOUND:                -1.529
REMARK SMILES CCCCCC=CCC=CCCCCCCCCOC(C)=O
REMARK SMILES IDX 12 1 11 2 10 3 9 4 8 5 7 6 6 7 5 8 4 9 3 10 2 11 1 12 13 13
REMARK SMILES IDX 14 14 15 15 16 16 17 17 18 18 19 19 20 20 22 21 21 22
REMARK H PARENT
REMARK Flexibility Score: inf
ROOT
ATOM      1  C   UNL     1      95.498 -60.640 105.336  1.00  0.00     0.004 C 
ENDROOT
BRANCH   1   2
ATOM      2  C   UNL     1      95.587 -59.419 104.409  1.00  0.00     0.027 C 
BRANCH   2   3
ATOM      3  C   UNL     1      94.250 -58.737 104.245  1.00  0.00    -0.031 C 
ATOM      4  C   UNL     1      93.380 -58.995 103.251  1.00  0.00    -0.027 C 
BRANCH   4   5
ATOM      5  C   UNL     1      93.578 -60.053 102.196  1.00  0.00     0.054 C 
BRANCH   5   6
ATOM      6  C   UNL     1      92.514 -61.111 102.282  1.00  0.00    -0.027 C 
ATOM      7  C   UNL     1      92.842 -62.411 102.292  1.00  0.00    -0.031 C 
BRANCH   7   8
ATOM      8  C   UNL     1      91.795 -63.489 102.381  1.00  0.00     0.027 C 
BRANCH   8   9
ATOM      9  C   UNL     1      91.822 -64.229 103.729  1.00  0.00     0.004 C 
BRANCH   9  10
ATOM     10  C   UNL     1      92.390 -65.658 103.653  1.00  0.00     0.000 C 
BRANCH  10  11
ATOM     11  C   UNL     1      91.708 -66.621 104.636  1.00  0.00    -0.003 C 
ATOM     12  C   UNL     1      90.390 -67.139 104.070  1.00  0.00     0.004 C 
ENDBRANCH  10  11
ENDBRANCH   9  10
ENDBRANCH   8   9
ENDBRANCH   7   8
ENDBRANCH   5   6
ENDBRANCH   4   5
ENDBRANCH   2   3
ENDBRANCH   1   2
BRANCH   1  13
ATOM     13  C   UNL     1      95.627 -61.965 104.563  1.00  0.00     0.000 C 
BRANCH  13  14
ATOM     14  C   UNL     1      95.090 -63.169 105.354  1.00  0.00     0.000 C 
BRANCH  14  15
ATOM     15  C   UNL     1      95.704 -64.501 104.890  1.00  0.00     0.000 C 
BRANCH  15  16
ATOM     16  C   UNL     1      96.433 -65.250 106.021  1.00  0.00     0.003 C 
BRANCH  16  17
ATOM     17  C   UNL     1      96.743 -64.405 107.270  1.00  0.00     0.042 C 
BRANCH  17  18
ATOM     18  C   UNL     1      98.238 -64.098 107.431  1.00  0.00     0.233 C 
BRANCH  18  19
ATOM     19  O   UNL     1      98.489 -62.711 107.215  1.00  0.00    -0.466 OA
BRANCH  19  20
ATOM     20  C   UNL     1      98.925 -62.189 105.992  1.00  0.00     0.302 C 
ATOM     21  O   UNL     1      99.062 -62.934 104.984  1.00  0.00    -0.253 OA
ATOM     22  C   UNL     1      99.180 -60.726 105.867  1.00  0.00     0.139 C 
ENDBRANCH  19  20
ENDBRANCH  18  19
ENDBRANCH  17  18
ENDBRANCH  16  17
ENDBRANCH  15  16
ENDBRANCH  14  15
ENDBRANCH  13  14
ENDBRANCH   1  13
TORSDOF 16
ENDMDL
MODEL 8
REMARK VINA RESULT:    -5.069      3.169      8.297
REMARK INTER + INTRA:         -11.340
REMARK INTER:                  -9.301
REMARK INTRA:                  -2.039
REMARK UNBOUND:                -1.529
REMARK SMILES CCCCCC=CCC=CCCCCCCCCOC(C)=O
REMARK SMILES IDX 12 1 11 2 10 3 9 4 8 5 7 6 6 7 5 8 4 9 3 10 2 11 1 12 13 13
REMARK SMILES IDX 14 14 15 15 16 16 17 17 18 18 19 19 20 20 22 21 21 22
REMARK H PARENT
REMARK Flexibility Score: inf
ROOT
ATOM      1  C   UNL     1      93.933 -59.000 103.604  1.00  0.00     0.004 C 
ENDROOT
BRANCH   1   2
ATOM      2  C   UNL     1      95.118 -59.038 104.580  1.00  0.00     0.027 C 
BRANCH   2   3
ATOM      3  C   UNL     1      95.635 -60.441 104.785  1.00  0.00    -0.031 C 
ATOM      4  C   UNL     1      96.891 -60.742 105.164  1.00  0.00    -0.027 C 
BRANCH   4   5
ATOM      5  C   UNL     1      97.946 -59.722 105.509  1.00  0.00     0.054 C 
BRANCH   5   6
ATOM      6  C   UNL     1      99.214 -60.387 105.966  1.00  0.00    -0.027 C 
ATOM      7  C   UNL     1      99.371 -61.713 105.847  1.00  0.00    -0.031 C 
BRANCH   7   8
ATOM      8  C   UNL     1     100.633 -62.401 106.294  1.00  0.00     0.027 C 
BRANCH   8   9
ATOM      9  C   UNL     1     101.902 -61.709 105.768  1.00  0.00     0.004 C 
BRANCH   9  10
ATOM     10  C   UNL     1     102.579 -62.440 104.595  1.00  0.00     0.000 C 
BRANCH  10  11
ATOM     11  C   UNL     1     101.951 -62.092 103.237  1.00  0.00    -0.003 C 
ATOM     12  C   UNL     1     101.153 -63.269 102.685  1.00  0.00     0.004 C 
ENDBRANCH  10  11
ENDBRANCH   9  10
ENDBRANCH   8   9
ENDBRANCH   7   8
ENDBRANCH   5   6
ENDBRANCH   4   5
ENDBRANCH   2   3
ENDBRANCH   1   2
BRANCH   1  13
ATOM     13  C   UNL     1      93.934 -60.204 102.644  1.00  0.00     0.000 C 
BRANCH  13  14
ATOM     14  C   UNL     1      92.547 -60.850 102.498  1.00  0.00     0.000 C 
BRANCH  14  15
ATOM     15  C   UNL     1      92.538 -62.005 101.481  1.00  0.00     0.000 C 
BRANCH  15  16
ATOM     16  C   UNL     1      92.053 -63.334 102.090  1.00  0.00     0.003 C 
BRANCH  16  17
ATOM     17  C   UNL     1      92.188 -63.439 103.620  1.00  0.00     0.042 C 
BRANCH  17  18
ATOM     18  C   UNL     1      93.268 -64.436 104.061  1.00  0.00     0.233 C 
BRANCH  18  19
ATOM     19  O   UNL     1      94.496 -63.759 104.320  1.00  0.00    -0.466 OA
BRANCH  19  20
ATOM     20  C   UNL     1      95.675 -64.004 103.607  1.00  0.00     0.302 C 
ATOM     21  O   UNL     1      96.472 -64.911 103.969  1.00  0.00    -0.253 OA
ATOM     22  C   UNL     1      95.966 -63.216 102.376  1.00  0.00     0.139 C 
ENDBRANCH  19  20
ENDBRANCH  18  19
ENDBRANCH  17  18
ENDBRANCH  16  17
ENDBRANCH  15  16
ENDBRANCH  14  15
ENDBRANCH  13  14
ENDBRANCH   1  13
TORSDOF 16
ENDMDL
MODEL 9
REMARK VINA RESULT:    -5.058      2.022      2.748
REMARK INTER + INTRA:         -11.317
REMARK INTER:                  -8.793
REMARK INTRA:                  -2.524
REMARK UNBOUND:                -1.529
REMARK SMILES CCCCCC=CCC=CCCCCCCCCOC(C)=O
REMARK SMILES IDX 12 1 11 2 10 3 9 4 8 5 7 6 6 7 5 8 4 9 3 10 2 11 1 12 13 13
REMARK SMILES IDX 14 14 15 15 16 16 17 17 18 18 19 19 20 20 22 21 21 22
REMARK H PARENT
REMARK Flexibility Score: inf
ROOT
ATOM      1  C   UNL     1      99.075 -62.831 106.619  1.00  0.00     0.004 C 
ENDROOT
BRANCH   1   2
ATOM      2  C   UNL     1      98.227 -64.094 106.407  1.00  0.00     0.027 C 
BRANCH   2   3
ATOM      3  C   UNL     1      96.794 -63.890 106.834  1.00  0.00    -0.031 C 
ATOM      4  C   UNL     1      95.736 -63.946 106.003  1.00  0.00    -0.027 C 
BRANCH   4   5
ATOM      5  C   UNL     1      95.820 -64.290 104.538  1.00  0.00     0.054 C 
BRANCH   5   6
ATOM      6  C   UNL     1      94.553 -63.916 103.820  1.00  0.00    -0.027 C 
ATOM      7  C   UNL     1      93.375 -63.937 104.458  1.00  0.00    -0.031 C 
BRANCH   7   8
ATOM      8  C   UNL     1      92.094 -63.563 103.762  1.00  0.00     0.027 C 
BRANCH   8   9
ATOM      9  C   UNL     1      91.464 -64.748 103.009  1.00  0.00     0.004 C 
BRANCH   9  10
ATOM     10  C   UNL     1      91.767 -64.769 101.500  1.00  0.00     0.000 C 
BRANCH  10  11
ATOM     11  C   UNL     1      92.547 -66.020 101.069  1.00  0.00    -0.003 C 
ATOM     12  C   UNL     1      92.841 -66.921 102.264  1.00  0.00     0.004 C 
ENDBRANCH  10  11
ENDBRANCH   9  10
ENDBRANCH   8   9
ENDBRANCH   7   8
ENDBRANCH   5   6
ENDBRANCH   4   5
ENDBRANCH   2   3
ENDBRANCH   1   2
BRANCH   1  13
ATOM     13  C   UNL     1      98.973 -61.859 105.430  1.00  0.00     0.000 C 
BRANCH  13  14
ATOM     14  C   UNL     1      98.924 -60.387 105.868  1.00  0.00     0.000 C 
BRANCH  14  15
ATOM     15  C   UNL     1      97.594 -59.705 105.501  1.00  0.00     0.000 C 
BRANCH  15  16
ATOM     16  C   UNL     1      96.603 -60.659 104.809  1.00  0.00     0.003 C 
BRANCH  16  17
ATOM     17  C   UNL     1      95.118 -60.281 104.959  1.00  0.00     0.042 C 
BRANCH  17  18
ATOM     18  C   UNL     1      94.759 -58.968 104.249  1.00  0.00     0.233 C 
BRANCH  18  19
ATOM     19  O   UNL     1      93.441 -59.038 103.708  1.00  0.00    -0.466 OA
BRANCH  19  20
ATOM     20  C   UNL     1      93.173 -59.390 102.380  1.00  0.00     0.302 C 
ATOM     21  O   UNL     1      92.664 -58.556 101.582  1.00  0.00    -0.253 OA
ATOM     22  C   UNL     1      93.539 -60.749 101.891  1.00  0.00     0.139 C 
ENDBRANCH  19  20
ENDBRANCH  18  19
ENDBRANCH  17  18
ENDBRANCH  16  17
ENDBRANCH  15  16
ENDBRANCH  14  15
ENDBRANCH  13  14
ENDBRANCH   1  13
TORSDOF 16
ENDMDL
