MODEL 1
REMARK VINA RESULT:    -5.018      0.000      0.000
REMARK INTER + INTRA:          -7.381
REMARK INTER:                  -8.244
REMARK INTRA:                   0.863
REMARK UNBOUND:                 0.863
REMARK SMILES C[C@@H]1O[C@H](OC[C@H]2O[C@@H](Oc3c(-c4ccc(O)c(O)c4)oc4cc(O)cc(O)c4c3=O)[C@@H](O)[C@@H](O)[C@@H]2O)[C@@H](O)[C@@H](O)[C@H]1O
REMARK SMILES IDX 7 1 36 2 34 3 32 4 9 5 8 6 6 7 5 8 4 9 1 10 2 11 42 12 3 13
REMARK SMILES IDX 40 14 38 15 43 16 41 18 39 20 37 22 35 24 10 26 11 27 12 28
REMARK SMILES IDX 30 29 21 30 29 31 31 32 22 33 27 34 23 35 26 36 24 37 13 38
REMARK SMILES IDX 20 39 14 40 18 41 15 42 16 43 19 44 17 46 28 48 25 50 33 52
REMARK H PARENT 43 17 41 19 39 21 37 23 35 25 19 45 17 47 28 49 25 51 33 53
REMARK Flexibility Score: inf
ROOT
ATOM      1  C   UNL     1      -3.892 -19.155  33.738  1.00  0.00     0.180 C 
ATOM      2  C   UNL     1      -2.814 -18.125  33.328  1.00  0.00     0.177 C 
ATOM      3  C   UNL     1      -1.757 -17.896  34.407  1.00  0.00     0.180 C 
ATOM      4  C   UNL     1      -2.407 -17.648  35.777  1.00  0.00     0.214 C 
ATOM      5  C   UNL     1      -3.642 -18.540  36.108  1.00  0.00     0.339 C 
ATOM      6  O   UNL     1      -4.453 -19.034  35.040  1.00  0.00    -0.332 OA
ENDROOT
BRANCH   1   7
ATOM      7  C   UNL     1      -3.615 -20.630  33.350  1.00  0.00     0.198 C 
BRANCH   7   8
ATOM      8  O   UNL     1      -4.368 -21.539  34.132  1.00  0.00    -0.347 OA
BRANCH   8   9
ATOM      9  C   UNL     1      -5.365 -22.210  33.384  1.00  0.00     0.281 C 
ATOM     10  C   UNL     1      -6.378 -25.740  33.354  1.00  0.00     0.041 C 
ATOM     11  C   UNL     1      -6.235 -24.312  32.828  1.00  0.00     0.150 C 
ATOM     12  C   UNL     1      -7.636 -23.664  32.577  1.00  0.00     0.174 C 
ATOM     13  O   UNL     1      -5.448 -23.580  33.759  1.00  0.00    -0.344 OA
ATOM     14  C   UNL     1      -7.883 -22.517  33.575  1.00  0.00     0.179 C 
ATOM     15  C   UNL     1      -6.734 -21.488  33.519  1.00  0.00     0.202 C 
BRANCH  12  16
ATOM     16  O   UNL     1      -7.698 -23.183  31.256  1.00  0.00    -0.388 OA
ATOM     17  H   UNL     1      -8.408 -22.496  31.230  1.00  0.00     0.211 HD
ENDBRANCH  12  16
BRANCH  14  18
ATOM     18  O   UNL     1      -9.124 -21.906  33.316  1.00  0.00    -0.387 OA
ATOM     19  H   UNL     1      -9.768 -22.248  33.987  1.00  0.00     0.211 HD
ENDBRANCH  14  18
BRANCH  15  20
ATOM     20  O   UNL     1      -6.922 -20.612  32.431  1.00  0.00    -0.385 OA
ATOM     21  H   UNL     1      -7.613 -21.025  31.851  1.00  0.00     0.211 HD
ENDBRANCH  15  20
ENDBRANCH   8   9
ENDBRANCH   7   8
ENDBRANCH   1   7
BRANCH   2  22
ATOM     22  O   UNL     1      -3.423 -16.888  33.033  1.00  0.00    -0.387 OA
ATOM     23  H   UNL     1      -3.685 -16.472  33.900  1.00  0.00     0.211 HD
ENDBRANCH   2  22
BRANCH   3  24
ATOM     24  O   UNL     1      -0.778 -18.904  34.413  1.00  0.00    -0.387 OA
ATOM     25  H   UNL     1      -0.172 -18.736  33.649  1.00  0.00     0.211 HD
ENDBRANCH   3  24
BRANCH   5  26
ATOM     26  O   UNL     1      -3.378 -19.553  37.099  1.00  0.00    -0.454 OA
BRANCH  26  27
ATOM     27  C   UNL     1      -3.873 -20.858  37.046  1.00  0.00     0.214 A 
ATOM     28  C   UNL     1      -3.010 -21.967  37.086  1.00  0.00     0.180 A 
ATOM     29  C   UNL     1      -5.240 -21.074  36.849  1.00  0.00     0.239 A 
ATOM     30  O   UNL     1      -3.516 -23.193  37.124  1.00  0.00    -0.452 OA
ATOM     31  C   UNL     1      -5.761 -22.384  36.955  1.00  0.00     0.111 A 
ATOM     32  O   UNL     1      -5.962 -20.093  36.527  1.00  0.00    -0.285 OA
ATOM     33  C   UNL     1      -4.818 -23.447  37.078  1.00  0.00     0.146 A 
ATOM     34  C   UNL     1      -7.150 -22.702  36.921  1.00  0.00     0.134 A 
ATOM     35  C   UNL     1      -5.252 -24.773  37.125  1.00  0.00     0.094 A 
ATOM     36  C   UNL     1      -7.544 -24.049  36.935  1.00  0.00     0.093 A 
ATOM     37  C   UNL     1      -6.607 -25.082  37.031  1.00  0.00     0.123 A 
BRANCH  28  38
ATOM     38  C   UNL     1      -1.552 -21.801  36.944  1.00  0.00     0.025 A 
ATOM     39  C   UNL     1      -0.946 -20.537  36.983  1.00  0.00     0.062 A 
ATOM     40  C   UNL     1      -0.750 -22.951  36.822  1.00  0.00     0.016 A 
ATOM     41  C   UNL     1       0.444 -20.418  36.828  1.00  0.00     0.158 A 
ATOM     42  C   UNL     1       0.641 -22.840  36.717  1.00  0.00     0.051 A 
ATOM     43  C   UNL     1       1.239 -21.569  36.683  1.00  0.00     0.157 A 
BRANCH  41  44
ATOM     44  O   UNL     1       1.018 -19.142  36.807  1.00  0.00    -0.504 OA
ATOM     45  H   UNL     1       1.816 -18.895  37.377  1.00  0.00     0.293 HD
ENDBRANCH  41  44
BRANCH  43  46
ATOM     46  O   UNL     1       2.610 -21.453  36.474  1.00  0.00    -0.504 OA
ATOM     47  H   UNL     1       3.038 -20.568  36.211  1.00  0.00     0.293 HD
ENDBRANCH  43  46
ENDBRANCH  28  38
BRANCH  34  48
ATOM     48  O   UNL     1      -8.175 -21.750  36.897  1.00  0.00    -0.507 OA
ATOM     49  H   UNL     1      -8.648 -21.413  36.074  1.00  0.00     0.293 HD
ENDBRANCH  34  48
BRANCH  37  50
ATOM     50  O   UNL     1      -7.008 -26.420  37.041  1.00  0.00    -0.508 OA
ATOM     51  H   UNL     1      -6.928 -27.000  36.208  1.00  0.00     0.293 HD
ENDBRANCH  37  50
ENDBRANCH  26  27
ENDBRANCH   5  26
BRANCH   4  52
ATOM     52  O   UNL     1      -1.464 -17.754  36.809  1.00  0.00    -0.384 OA
ATOM     53  H   UNL     1      -1.779 -18.474  37.417  1.00  0.00     0.211 HD
ENDBRANCH   4  52
TORSDOF 16
ENDMDL
MODEL 2
REMARK VINA RESULT:    -2.022      2.196      6.743
REMARK INTER + INTRA:          -2.460
REMARK INTER:                  -3.370
REMARK INTRA:                   0.911
REMARK UNBOUND:                 0.863
REMARK SMILES C[C@@H]1O[C@H](OC[C@H]2O[C@@H](Oc3c(-c4ccc(O)c(O)c4)oc4cc(O)cc(O)c4c3=O)[C@@H](O)[C@@H](O)[C@@H]2O)[C@@H](O)[C@@H](O)[C@H]1O
REMARK SMILES IDX 7 1 36 2 34 3 32 4 9 5 8 6 6 7 5 8 4 9 1 10 2 11 42 12 3 13
REMARK SMILES IDX 40 14 38 15 43 16 41 18 39 20 37 22 35 24 10 26 11 27 12 28
REMARK SMILES IDX 30 29 21 30 29 31 31 32 22 33 27 34 23 35 26 36 24 37 13 38
REMARK SMILES IDX 20 39 14 40 18 41 15 42 16 43 19 44 17 46 28 48 25 50 33 52
REMARK H PARENT 43 17 41 19 39 21 37 23 35 25 19 45 17 47 28 49 25 51 33 53
REMARK Flexibility Score: inf
ROOT
ATOM      1  C   UNL     1      -2.076 -19.368  34.690  1.00  0.00     0.180 C 
ATOM      2  C   UNL     1      -2.616 -18.769  33.371  1.00  0.00     0.177 C 
ATOM      3  C   UNL     1      -4.107 -19.031  33.156  1.00  0.00     0.180 C 
ATOM      4  C   UNL     1      -4.450 -20.510  33.390  1.00  0.00     0.214 C 
ATOM      5  C   UNL     1      -3.732 -21.186  34.597  1.00  0.00     0.339 C 
ATOM      6  O   UNL     1      -2.451 -20.703  35.007  1.00  0.00    -0.332 OA
ENDROOT
BRANCH   1   7
ATOM      7  C   UNL     1      -2.106 -18.437  35.930  1.00  0.00     0.198 C 
BRANCH   7   8
ATOM      8  O   UNL     1      -1.569 -19.062  37.081  1.00  0.00    -0.347 OA
BRANCH   8   9
ATOM      9  C   UNL     1      -0.162 -19.210  37.018  1.00  0.00     0.281 C 
ATOM     10  C   UNL     1       1.925 -22.213  36.687  1.00  0.00     0.041 C 
ATOM     11  C   UNL     1       1.590 -20.763  37.035  1.00  0.00     0.150 C 
ATOM     12  C   UNL     1       2.476 -19.770  36.212  1.00  0.00     0.174 C 
ATOM     13  O   UNL     1       0.198 -20.572  36.816  1.00  0.00    -0.344 OA
ATOM     14  C   UNL     1       1.610 -18.986  35.208  1.00  0.00     0.179 C 
ATOM     15  C   UNL     1       0.441 -18.282  35.928  1.00  0.00     0.202 C 
BRANCH  12  16
ATOM     16  O   UNL     1       3.125 -18.885  37.092  1.00  0.00    -0.388 OA
ATOM     17  H   UNL     1       3.310 -18.056  36.587  1.00  0.00     0.211 HD
ENDBRANCH  12  16
BRANCH  14  18
ATOM     18  O   UNL     1       2.403 -18.061  34.503  1.00  0.00    -0.387 OA
ATOM     19  H   UNL     1       2.850 -18.554  33.769  1.00  0.00     0.211 HD
ENDBRANCH  14  18
BRANCH  15  20
ATOM     20  O   UNL     1       0.887 -17.081  36.516  1.00  0.00    -0.385 OA
ATOM     21  H   UNL     1       0.192 -16.398  36.328  1.00  0.00     0.211 HD
ENDBRANCH  15  20
ENDBRANCH   8   9
ENDBRANCH   7   8
ENDBRANCH   1   7
BRANCH   2  22
ATOM     22  O   UNL     1      -1.909 -19.308  32.277  1.00  0.00    -0.387 OA
ATOM     23  H   UNL     1      -1.030 -18.837  32.231  1.00  0.00     0.211 HD
ENDBRANCH   2  22
BRANCH   3  24
ATOM     24  O   UNL     1      -4.912 -18.135  33.881  1.00  0.00    -0.387 OA
ATOM     25  H   UNL     1      -4.512 -17.235  33.792  1.00  0.00     0.211 HD
ENDBRANCH   3  24
BRANCH   5  26
ATOM     26  O   UNL     1      -4.599 -21.439  35.721  1.00  0.00    -0.454 OA
BRANCH  26  27
ATOM     27  C   UNL     1      -5.571 -22.443  35.759  1.00  0.00     0.214 A 
ATOM     28  C   UNL     1      -6.939 -22.130  35.814  1.00  0.00     0.180 A 
ATOM     29  C   UNL     1      -5.181 -23.782  35.844  1.00  0.00     0.239 A 
ATOM     30  O   UNL     1      -7.840 -23.103  35.758  1.00  0.00    -0.452 OA
ATOM     31  C   UNL     1      -6.154 -24.800  35.722  1.00  0.00     0.111 A 
ATOM     32  O   UNL     1      -3.971 -24.041  36.085  1.00  0.00    -0.285 OA
ATOM     33  C   UNL     1      -7.520 -24.390  35.699  1.00  0.00     0.146 A 
ATOM     34  C   UNL     1      -5.857 -26.192  35.645  1.00  0.00     0.134 A 
ATOM     35  C   UNL     1      -8.542 -25.340  35.643  1.00  0.00     0.094 A 
ATOM     36  C   UNL     1      -6.913 -27.118  35.626  1.00  0.00     0.093 A 
ATOM     37  C   UNL     1      -8.247 -26.701  35.630  1.00  0.00     0.123 A 
BRANCH  28  38
ATOM     38  C   UNL     1      -7.394 -20.752  36.074  1.00  0.00     0.025 A 
ATOM     39  C   UNL     1      -6.488 -19.693  36.236  1.00  0.00     0.062 A 
ATOM     40  C   UNL     1      -8.777 -20.490  36.105  1.00  0.00     0.016 A 
ATOM     41  C   UNL     1      -6.959 -18.398  36.499  1.00  0.00     0.158 A 
ATOM     42  C   UNL     1      -9.251 -19.192  36.316  1.00  0.00     0.051 A 
ATOM     43  C   UNL     1      -8.342 -18.146  36.551  1.00  0.00     0.157 A 
BRANCH  41  44
ATOM     44  O   UNL     1      -6.034 -17.372  36.720  1.00  0.00    -0.504 OA
ATOM     45  H   UNL     1      -5.203 -17.500  37.285  1.00  0.00     0.293 HD
ENDBRANCH  41  44
BRANCH  43  46
ATOM     46  O   UNL     1      -8.812 -16.875  36.866  1.00  0.00    -0.504 OA
ATOM     47  H   UNL     1      -9.023 -16.189  36.144  1.00  0.00     0.293 HD
ENDBRANCH  43  46
ENDBRANCH  28  38
BRANCH  34  48
ATOM     48  O   UNL     1      -4.562 -26.717  35.564  1.00  0.00    -0.507 OA
ATOM     49  H   UNL     1      -4.230 -27.542  36.037  1.00  0.00     0.293 HD
ENDBRANCH  34  48
BRANCH  37  50
ATOM     50  O   UNL     1      -9.292 -27.629  35.613  1.00  0.00    -0.508 OA
ATOM     51  H   UNL     1      -9.186 -28.548  36.039  1.00  0.00     0.293 HD
ENDBRANCH  37  50
ENDBRANCH  26  27
ENDBRANCH   5  26
BRANCH   4  52
ATOM     52  O   UNL     1      -5.835 -20.693  33.508  1.00  0.00    -0.384 OA
ATOM     53  H   UNL     1      -6.161 -21.014  32.625  1.00  0.00     0.211 HD
ENDBRANCH   4  52
TORSDOF 16
ENDMDL
