MODEL 1
REMARK VINA RESULT:    11.617      0.000      0.000
REMARK INTER + INTRA:          13.231
REMARK INTER:                  12.636
REMARK INTRA:                   0.595
REMARK UNBOUND:                 0.595
REMARK SMILES C[C@H]1[C@H](C)CC[C@]2(C(=O)[O-])CC[C@@]3(C)C(=CC[C@@H]4[C@@]5(C)CC[C@H](O)C(C)(C)[C@H]5CC[C@@]43C)[C@H]12
REMARK SMILES IDX 7 1 6 2 11 3 33 4 5 5 12 6 15 7 2 8 3 9 13 10 16 11 1 12
REMARK SMILES IDX 4 13 14 14 31 15 17 16 18 17 30 18 32 19 19 20 29 21 28 22
REMARK SMILES IDX 21 23 20 24 25 25 22 26 23 27 26 28 27 29 8 30 9 31 10 32
REMARK SMILES IDX 24 33
REMARK H PARENT 24 34
REMARK Flexibility Score: inf
ROOT
ATOM      1  C   UNL     1      44.288  28.813   8.547  1.00  0.00     0.017 C 
ATOM      2  C   UNL     1      45.024  29.293   9.826  1.00  0.00     0.014 C 
ATOM      3  C   UNL     1      43.270  29.911   8.114  1.00  0.00     0.014 C 
ATOM      4  C   UNL     1      43.604  27.417   8.843  1.00  0.00     0.030 C 
ATOM      5  C   UNL     1      46.125  28.322  10.266  1.00  0.00     0.004 C 
ATOM      6  C   UNL     1      41.945  29.931   8.890  1.00  0.00     0.013 C 
ATOM      7  C   UNL     1      42.242  27.610   9.575  1.00  0.00    -0.063 C 
ATOM      8  C   UNL     1      44.620  26.365   9.469  1.00  0.00    -0.003 C 
ATOM      9  C   UNL     1      45.578  26.922  10.584  1.00  0.00    -0.011 C 
ATOM     10  C   UNL     1      41.209  28.552   8.939  1.00  0.00    -0.006 C 
ATOM     11  C   UNL     1      42.013  27.076  10.781  1.00  0.00    -0.027 C 
ATOM     12  C   UNL     1      45.466  25.676   8.376  1.00  0.00     0.008 C 
ATOM     13  C   UNL     1      45.007  26.873  12.010  1.00  0.00     0.008 C 
ATOM     14  C   UNL     1      40.924  28.033   7.487  1.00  0.00     0.017 C 
ATOM     15  C   UNL     1      39.797  28.660   9.750  1.00  0.00    -0.020 C 
ATOM     16  C   UNL     1      40.949  27.503  11.726  1.00  0.00     0.032 C 
ATOM     17  C   UNL     1      40.041  28.705  11.309  1.00  0.00     0.006 C 
ATOM     18  C   UNL     1      38.876  27.429   9.498  1.00  0.00     0.008 C 
ATOM     19  C   UNL     1      39.056  29.939   9.226  1.00  0.00     0.012 C 
ATOM     20  C   UNL     1      38.738  28.724  12.263  1.00  0.00    -0.025 C 
ATOM     21  C   UNL     1      37.577  27.422  10.328  1.00  0.00     0.005 C 
ATOM     22  C   UNL     1      37.743  27.547  11.874  1.00  0.00     0.003 C 
ATOM     23  C   UNL     1      37.994  30.099  12.235  1.00  0.00     0.010 C 
ATOM     24  C   UNL     1      39.257  28.559  13.736  1.00  0.00     0.012 C 
ATOM     25  C   UNL     1      36.330  27.591  12.619  1.00  0.00    -0.006 C 
ATOM     26  C   UNL     1      36.668  30.123  13.012  1.00  0.00     0.033 C 
ATOM     27  C   UNL     1      35.708  29.023  12.542  1.00  0.00     0.120 C 
ATOM     28  C   UNL     1      35.328  26.594  11.962  1.00  0.00     0.014 C 
ATOM     29  C   UNL     1      36.454  27.123  14.101  1.00  0.00     0.014 C 
ENDROOT
BRANCH   1  30
ATOM     30  C   UNL     1      45.268  28.715   7.380  1.00  0.00     0.048 C 
ATOM     31  O   UNL     1      45.249  27.714   6.613  1.00  0.00    -0.550 OA
ATOM     32  O   UNL     1      46.090  29.788   7.051  1.00  0.00    -0.550 OA
ENDBRANCH   1  30
BRANCH  27  33
ATOM     33  O   UNL     1      34.535  29.099  13.317  1.00  0.00    -0.393 OA
ATOM     34  H   UNL     1      34.795  28.954  14.265  1.00  0.00     0.210 HD
ENDBRANCH  27  33
TORSDOF 2
ENDMDL
