MODEL 1
REMARK VINA RESULT:    -3.140      0.000      0.000
REMARK INTER + INTRA:          -5.177
REMARK INTER:                  -4.793
REMARK INTRA:                  -0.384
REMARK UNBOUND:                -0.384
REMARK SMILES O=C([O-])CCCCCCCCC(=O)[O-]
REMARK SMILES IDX 7 1 6 2 5 3 4 4 2 5 1 6 3 7 8 8 9 9 10 10 11 11 12 12 13 13
REMARK SMILES IDX 14 14
REMARK H PARENT
REMARK Flexibility Score: inf
ROOT
ATOM      1  C   UNL     1      -6.749  21.393  15.091  1.00  0.00     0.000 C 
ENDROOT
BRANCH   1   2
ATOM      2  C   UNL     1      -7.857  20.414  15.503  1.00  0.00     0.000 C 
BRANCH   2   3
ATOM      3  C   UNL     1      -8.245  20.549  16.984  1.00  0.00     0.006 C 
BRANCH   3   4
ATOM      4  C   UNL     1      -8.555  21.998  17.383  1.00  0.00     0.053 C 
BRANCH   4   5
ATOM      5  C   UNL     1      -8.320  22.197  18.848  1.00  0.00     0.041 C 
ATOM      6  O   UNL     1      -7.798  21.280  19.535  1.00  0.00    -0.550 OA
ATOM      7  O   UNL     1      -8.630  23.413  19.443  1.00  0.00    -0.550 OA
ENDBRANCH   4   5
ENDBRANCH   3   4
ENDBRANCH   2   3
ENDBRANCH   1   2
BRANCH   1   8
ATOM      8  C   UNL     1      -5.456  20.645  14.743  1.00  0.00     0.000 C 
BRANCH   8   9
ATOM      9  C   UNL     1      -4.816  20.036  15.996  1.00  0.00     0.000 C 
BRANCH   9  10
ATOM     10  C   UNL     1      -3.287  19.990  15.866  1.00  0.00     0.006 C 
BRANCH  10  11
ATOM     11  C   UNL     1      -2.584  20.124  17.223  1.00  0.00     0.053 C 
BRANCH  11  12
ATOM     12  C   UNL     1      -1.399  21.036  17.146  1.00  0.00     0.041 C 
ATOM     13  O   UNL     1      -1.094  21.767  18.126  1.00  0.00    -0.550 OA
ATOM     14  O   UNL     1      -0.648  21.104  15.979  1.00  0.00    -0.550 OA
ENDBRANCH  11  12
ENDBRANCH  10  11
ENDBRANCH   9  10
ENDBRANCH   8   9
ENDBRANCH   1   8
TORSDOF 9
ENDMDL
MODEL 2
REMARK VINA RESULT:    -2.941      0.979      5.854
REMARK INTER + INTRA:          -4.872
REMARK INTER:                  -4.399
REMARK INTRA:                  -0.473
REMARK UNBOUND:                -0.384
REMARK SMILES O=C([O-])CCCCCCCCC(=O)[O-]
REMARK SMILES IDX 7 1 6 2 5 3 4 4 2 5 1 6 3 7 8 8 9 9 10 10 11 11 12 12 13 13
REMARK SMILES IDX 14 14
REMARK H PARENT
REMARK Flexibility Score: inf
ROOT
ATOM      1  C   UNL     1      -6.320  21.525  15.251  1.00  0.00     0.000 C 
ENDROOT
BRANCH   1   2
ATOM      2  C   UNL     1      -5.073  20.707  14.888  1.00  0.00     0.000 C 
BRANCH   2   3
ATOM      3  C   UNL     1      -4.437  20.025  16.111  1.00  0.00     0.006 C 
BRANCH   3   4
ATOM      4  C   UNL     1      -2.903  20.037  16.062  1.00  0.00     0.053 C 
BRANCH   4   5
ATOM      5  C   UNL     1      -2.341  20.369  17.409  1.00  0.00     0.041 C 
ATOM      6  O   UNL     1      -2.867  19.894  18.449  1.00  0.00    -0.550 OA
ATOM      7  O   UNL     1      -1.205  21.162  17.512  1.00  0.00    -0.550 OA
ENDBRANCH   4   5
ENDBRANCH   3   4
ENDBRANCH   2   3
ENDBRANCH   1   2
BRANCH   1   8
ATOM      8  C   UNL     1      -7.600  20.781  14.850  1.00  0.00     0.000 C 
BRANCH   8   9
ATOM      9  C   UNL     1      -8.610  20.760  16.004  1.00  0.00     0.000 C 
BRANCH   9  10
ATOM     10  C   UNL     1      -8.007  21.373  17.276  1.00  0.00     0.006 C 
BRANCH  10  11
ATOM     11  C   UNL     1      -8.986  22.318  17.986  1.00  0.00     0.053 C 
BRANCH  11  12
ATOM     12  C   UNL     1      -8.432  22.814  19.286  1.00  0.00     0.041 C 
ATOM     13  O   UNL     1      -7.570  22.140  19.909  1.00  0.00    -0.550 OA
ATOM     14  O   UNL     1      -8.892  24.009  19.826  1.00  0.00    -0.550 OA
ENDBRANCH  11  12
ENDBRANCH  10  11
ENDBRANCH   9  10
ENDBRANCH   8   9
ENDBRANCH   1   8
TORSDOF 9
ENDMDL
MODEL 3
REMARK VINA RESULT:    -2.326     11.409     16.050
REMARK INTER + INTRA:          -3.934
REMARK INTER:                  -3.554
REMARK INTRA:                  -0.380
REMARK UNBOUND:                -0.384
REMARK SMILES O=C([O-])CCCCCCCCC(=O)[O-]
REMARK SMILES IDX 7 1 6 2 5 3 4 4 2 5 1 6 3 7 8 8 9 9 10 10 11 11 12 12 13 13
REMARK SMILES IDX 14 14
REMARK H PARENT
REMARK Flexibility Score: inf
ROOT
ATOM      1  C   UNL     1      10.004  21.305  12.643  1.00  0.00     0.000 C 
ENDROOT
BRANCH   1   2
ATOM      2  C   UNL     1      10.306  20.849  11.209  1.00  0.00     0.000 C 
BRANCH   2   3
ATOM      3  C   UNL     1      11.012  21.934  10.380  1.00  0.00     0.006 C 
BRANCH   3   4
ATOM      4  C   UNL     1      11.125  23.269  11.129  1.00  0.00     0.053 C 
BRANCH   4   5
ATOM      5  C   UNL     1      10.602  24.388  10.283  1.00  0.00     0.041 C 
ATOM      6  O   UNL     1      10.670  24.318   9.028  1.00  0.00    -0.550 OA
ATOM      7  O   UNL     1       9.995  25.486  10.880  1.00  0.00    -0.550 OA
ENDBRANCH   4   5
ENDBRANCH   3   4
ENDBRANCH   2   3
ENDBRANCH   1   2
BRANCH   1   8
ATOM      8  C   UNL     1      10.283  20.179  13.647  1.00  0.00     0.000 C 
BRANCH   8   9
ATOM      9  C   UNL     1       9.270  20.201  14.797  1.00  0.00     0.000 C 
BRANCH   9  10
ATOM     10  C   UNL     1       7.832  20.094  14.267  1.00  0.00     0.006 C 
BRANCH  10  11
ATOM     11  C   UNL     1       6.812  19.877  15.392  1.00  0.00     0.053 C 
BRANCH  11  12
ATOM     12  C   UNL     1       5.444  20.339  14.996  1.00  0.00     0.041 C 
ATOM     13  O   UNL     1       5.080  20.290  13.791  1.00  0.00    -0.550 OA
ATOM     14  O   UNL     1       4.579  20.853  15.954  1.00  0.00    -0.550 OA
ENDBRANCH  11  12
ENDBRANCH  10  11
ENDBRANCH   9  10
ENDBRANCH   8   9
ENDBRANCH   1   8
TORSDOF 9
ENDMDL
MODEL 4
REMARK VINA RESULT:    -2.321     11.196     15.908
REMARK INTER + INTRA:          -3.927
REMARK INTER:                  -3.423
REMARK INTRA:                  -0.504
REMARK UNBOUND:                -0.384
REMARK SMILES O=C([O-])CCCCCCCCC(=O)[O-]
REMARK SMILES IDX 7 1 6 2 5 3 4 4 2 5 1 6 3 7 8 8 9 9 10 10 11 11 12 12 13 13
REMARK SMILES IDX 14 14
REMARK H PARENT
REMARK Flexibility Score: inf
ROOT
ATOM      1  C   UNL     1       8.795  20.761  12.708  1.00  0.00     0.000 C 
ENDROOT
BRANCH   1   2
ATOM      2  C   UNL     1       9.399  19.962  11.544  1.00  0.00     0.000 C 
BRANCH   2   3
ATOM      3  C   UNL     1      10.798  20.459  11.149  1.00  0.00     0.006 C 
BRANCH   3   4
ATOM      4  C   UNL     1      11.117  20.210   9.668  1.00  0.00     0.053 C 
BRANCH   4   5
ATOM      5  C   UNL     1      10.287  21.102   8.799  1.00  0.00     0.041 C 
ATOM      6  O   UNL     1       9.323  20.628   8.143  1.00  0.00    -0.550 OA
ATOM      7  O   UNL     1      10.547  22.466   8.753  1.00  0.00    -0.550 OA
ENDBRANCH   4   5
ENDBRANCH   3   4
ENDBRANCH   2   3
ENDBRANCH   1   2
BRANCH   1   8
ATOM      8  C   UNL     1       9.799  20.895  13.860  1.00  0.00     0.000 C 
BRANCH   8   9
ATOM      9  C   UNL     1       9.087  20.879  15.218  1.00  0.00     0.000 C 
BRANCH   9  10
ATOM     10  C   UNL     1       7.913  19.889  15.212  1.00  0.00     0.006 C 
BRANCH  10  11
ATOM     11  C   UNL     1       6.712  20.407  16.015  1.00  0.00     0.053 C 
BRANCH  11  12
ATOM     12  C   UNL     1       5.455  20.394  15.200  1.00  0.00     0.041 C 
ATOM     13  O   UNL     1       5.506  20.217  13.955  1.00  0.00    -0.550 OA
ATOM     14  O   UNL     1       4.228  20.610  15.814  1.00  0.00    -0.550 OA
ENDBRANCH  11  12
ENDBRANCH  10  11
ENDBRANCH   9  10
ENDBRANCH   8   9
ENDBRANCH   1   8
TORSDOF 9
ENDMDL
MODEL 5
REMARK VINA RESULT:    -2.252     10.985     14.815
REMARK INTER + INTRA:          -3.821
REMARK INTER:                  -3.411
REMARK INTRA:                  -0.410
REMARK UNBOUND:                -0.384
REMARK SMILES O=C([O-])CCCCCCCCC(=O)[O-]
REMARK SMILES IDX 7 1 6 2 5 3 4 4 2 5 1 6 3 7 8 8 9 9 10 10 11 11 12 12 13 13
REMARK SMILES IDX 14 14
REMARK H PARENT
REMARK Flexibility Score: inf
ROOT
ATOM      1  C   UNL     1       8.545  21.239  14.001  1.00  0.00     0.000 C 
ENDROOT
BRANCH   1   2
ATOM      2  C   UNL     1       8.613  19.977  14.872  1.00  0.00     0.000 C 
BRANCH   2   3
ATOM      3  C   UNL     1       7.438  19.875  15.858  1.00  0.00     0.006 C 
BRANCH   3   4
ATOM      4  C   UNL     1       6.369  20.950  15.616  1.00  0.00     0.053 C 
BRANCH   4   5
ATOM      5  C   UNL     1       5.142  20.339  15.015  1.00  0.00     0.041 C 
ATOM      6  O   UNL     1       4.097  20.209  15.704  1.00  0.00    -0.550 OA
ATOM      7  O   UNL     1       5.137  19.959  13.679  1.00  0.00    -0.550 OA
ENDBRANCH   4   5
ENDBRANCH   3   4
ENDBRANCH   2   3
ENDBRANCH   1   2
BRANCH   1   8
ATOM      8  C   UNL     1       9.922  21.576  13.414  1.00  0.00     0.000 C 
BRANCH   8   9
ATOM      9  C   UNL     1      10.443  20.432  12.537  1.00  0.00     0.000 C 
BRANCH   9  10
ATOM     10  C   UNL     1      10.877  20.950  11.157  1.00  0.00     0.006 C 
BRANCH  10  11
ATOM     11  C   UNL     1      10.421  20.026  10.020  1.00  0.00     0.053 C 
BRANCH  11  12
ATOM     12  C   UNL     1       9.883  20.802   8.858  1.00  0.00     0.041 C 
ATOM     13  O   UNL     1      10.295  21.969   8.627  1.00  0.00    -0.550 OA
ATOM     14  O   UNL     1       8.900  20.247   8.047  1.00  0.00    -0.550 OA
ENDBRANCH  11  12
ENDBRANCH  10  11
ENDBRANCH   9  10
ENDBRANCH   8   9
ENDBRANCH   1   8
TORSDOF 9
ENDMDL
MODEL 6
REMARK VINA RESULT:    -2.179      1.266      2.091
REMARK INTER + INTRA:          -3.709
REMARK INTER:                  -3.407
REMARK INTRA:                  -0.303
REMARK UNBOUND:                -0.384
REMARK SMILES O=C([O-])CCCCCCCCC(=O)[O-]
REMARK SMILES IDX 7 1 6 2 5 3 4 4 2 5 1 6 3 7 8 8 9 9 10 10 11 11 12 12 13 13
REMARK SMILES IDX 14 14
REMARK H PARENT
REMARK Flexibility Score: inf
ROOT
ATOM      1  C   UNL     1      -5.212  19.903  16.226  1.00  0.00     0.000 C 
ENDROOT
BRANCH   1   2
ATOM      2  C   UNL     1      -5.707  20.960  15.228  1.00  0.00     0.000 C 
BRANCH   2   3
ATOM      3  C   UNL     1      -7.232  21.145  15.271  1.00  0.00     0.006 C 
BRANCH   3   4
ATOM      4  C   UNL     1      -7.880  20.433  16.465  1.00  0.00     0.053 C 
BRANCH   4   5
ATOM      5  C   UNL     1      -8.161  21.409  17.565  1.00  0.00     0.041 C 
ATOM      6  O   UNL     1      -7.874  21.121  18.756  1.00  0.00    -0.550 OA
ATOM      7  O   UNL     1      -8.695  22.656  17.267  1.00  0.00    -0.550 OA
ENDBRANCH   4   5
ENDBRANCH   3   4
ENDBRANCH   2   3
ENDBRANCH   1   2
BRANCH   1   8
ATOM      8  C   UNL     1      -3.679  19.875  16.281  1.00  0.00     0.000 C 
BRANCH   8   9
ATOM      9  C   UNL     1      -3.179  19.891  17.730  1.00  0.00     0.000 C 
BRANCH   9  10
ATOM     10  C   UNL     1      -1.644  19.925  17.782  1.00  0.00     0.006 C 
BRANCH  10  11
ATOM     11  C   UNL     1      -1.085  21.326  17.499  1.00  0.00     0.053 C 
BRANCH  11  12
ATOM     12  C   UNL     1      -0.462  21.410  16.140  1.00  0.00     0.041 C 
ATOM     13  O   UNL     1       0.767  21.180  15.988  1.00  0.00    -0.550 OA
ATOM     14  O   UNL     1      -1.234  21.772  15.043  1.00  0.00    -0.550 OA
ENDBRANCH  11  12
ENDBRANCH  10  11
ENDBRANCH   9  10
ENDBRANCH   8   9
ENDBRANCH   1   8
TORSDOF 9
ENDMDL
MODEL 7
REMARK VINA RESULT:    -1.995     14.068     17.096
REMARK INTER + INTRA:          -3.429
REMARK INTER:                  -2.809
REMARK INTRA:                  -0.620
REMARK UNBOUND:                -0.384
REMARK SMILES O=C([O-])CCCCCCCCC(=O)[O-]
REMARK SMILES IDX 7 1 6 2 5 3 4 4 2 5 1 6 3 7 8 8 9 9 10 10 11 11 12 12 13 13
REMARK SMILES IDX 14 14
REMARK H PARENT
REMARK Flexibility Score: inf
ROOT
ATOM      1  C   UNL     1      10.286  23.602  11.549  1.00  0.00     0.000 C 
ENDROOT
BRANCH   1   2
ATOM      2  C   UNL     1      11.115  24.061  10.341  1.00  0.00     0.000 C 
BRANCH   2   3
ATOM      3  C   UNL     1      11.102  23.040   9.192  1.00  0.00     0.006 C 
BRANCH   3   4
ATOM      4  C   UNL     1      11.105  21.589   9.692  1.00  0.00     0.053 C 
BRANCH   4   5
ATOM      5  C   UNL     1      10.070  20.786   8.968  1.00  0.00     0.041 C 
ATOM      6  O   UNL     1       8.927  20.625   9.470  1.00  0.00    -0.550 OA
ATOM      7  O   UNL     1      10.352  20.258   7.714  1.00  0.00    -0.550 OA
ENDBRANCH   4   5
ENDBRANCH   3   4
ENDBRANCH   2   3
ENDBRANCH   1   2
BRANCH   1   8
ATOM      8  C   UNL     1      10.953  24.021  12.865  1.00  0.00     0.000 C 
BRANCH   8   9
ATOM      9  C   UNL     1      11.125  22.821  13.803  1.00  0.00     0.000 C 
BRANCH   9  10
ATOM     10  C   UNL     1      10.181  21.675  13.410  1.00  0.00     0.006 C 
BRANCH  10  11
ATOM     11  C   UNL     1       9.760  20.829  14.619  1.00  0.00     0.053 C 
BRANCH  11  12
ATOM     12  C   UNL     1       8.294  20.522  14.597  1.00  0.00     0.041 C 
ATOM     13  O   UNL     1       7.697  20.347  13.502  1.00  0.00    -0.550 OA
ATOM     14  O   UNL     1       7.578  20.461  15.786  1.00  0.00    -0.550 OA
ENDBRANCH  11  12
ENDBRANCH  10  11
ENDBRANCH   9  10
ENDBRANCH   8   9
ENDBRANCH   1   8
TORSDOF 9
ENDMDL
MODEL 8
REMARK VINA RESULT:    -1.468      2.056      6.984
REMARK INTER + INTRA:          -2.624
REMARK INTER:                  -2.435
REMARK INTRA:                  -0.189
REMARK UNBOUND:                -0.384
REMARK SMILES O=C([O-])CCCCCCCCC(=O)[O-]
REMARK SMILES IDX 7 1 6 2 5 3 4 4 2 5 1 6 3 7 8 8 9 9 10 10 11 11 12 12 13 13
REMARK SMILES IDX 14 14
REMARK H PARENT
REMARK Flexibility Score: inf
ROOT
ATOM      1  C   UNL     1      -4.262  20.058  19.002  1.00  0.00     0.000 C 
ENDROOT
BRANCH   1   2
ATOM      2  C   UNL     1      -3.465  19.875  17.703  1.00  0.00     0.000 C 
BRANCH   2   3
ATOM      3  C   UNL     1      -2.200  20.747  17.657  1.00  0.00     0.006 C 
BRANCH   3   4
ATOM      4  C   UNL     1      -0.919  19.921  17.474  1.00  0.00     0.053 C 
BRANCH   4   5
ATOM      5  C   UNL     1      -0.125  20.440  16.316  1.00  0.00     0.041 C 
ATOM      6  O   UNL     1       0.949  19.876  15.982  1.00  0.00    -0.550 OA
ATOM      7  O   UNL     1      -0.597  21.516  15.576  1.00  0.00    -0.550 OA
ENDBRANCH   4   5
ENDBRANCH   3   4
ENDBRANCH   2   3
ENDBRANCH   1   2
BRANCH   1   8
ATOM      8  C   UNL     1      -5.769  19.949  18.742  1.00  0.00     0.000 C 
BRANCH   8   9
ATOM      9  C   UNL     1      -6.538  21.050  19.483  1.00  0.00     0.000 C 
BRANCH   9  10
ATOM     10  C   UNL     1      -7.973  20.601  19.799  1.00  0.00     0.006 C 
BRANCH  10  11
ATOM     11  C   UNL     1      -8.828  20.454  18.533  1.00  0.00     0.053 C 
BRANCH  11  12
ATOM     12  C   UNL     1      -8.655  21.620  17.609  1.00  0.00     0.041 C 
ATOM     13  O   UNL     1      -8.909  22.788  18.005  1.00  0.00    -0.550 OA
ATOM     14  O   UNL     1      -8.243  21.413  16.299  1.00  0.00    -0.550 OA
ENDBRANCH  11  12
ENDBRANCH  10  11
ENDBRANCH   9  10
ENDBRANCH   8   9
ENDBRANCH   1   8
TORSDOF 9
ENDMDL
