MODEL 1
REMARK VINA RESULT:    -4.549      0.000      0.000
REMARK INTER + INTRA:          -7.092
REMARK INTER:                  -6.942
REMARK INTRA:                  -0.150
REMARK UNBOUND:                -0.150
REMARK SMILES CC1=CCC[C@H](C)C(=O)C[C@@H](C(C)C)C(=O)C1
REMARK SMILES IDX 8 1 9 2 6 3 7 4 5 5 4 6 3 7 2 8 1 9 10 11 11 12 15 13 16 14
REMARK SMILES IDX 17 15 12 17 13 18 14 19
REMARK H PARENT
REMARK Flexibility Score: 70.00
ROOT
ATOM      1  C   UNL     1      49.436   3.245  14.971  1.00  0.00     0.136 C 
ATOM      2  O   UNL     1      48.565   3.603  14.192  1.00  0.00    -0.299 OA
ENDROOT
BRANCH   1   3
ATOM      3  C   UNL     1      50.815   3.868  14.900  1.00  0.00     0.053 C 
ATOM      4  C   UNL     1      51.437   3.573  13.533  1.00  0.00     0.016 C 
BRANCH   3   5
ATOM      5  C   UNL     1      50.766   5.394  15.148  1.00  0.00     0.015 C 
BRANCH   5   6
ATOM      6  C   UNL     1      51.048   5.781  16.608  1.00  0.00     0.028 C 
BRANCH   6   7
ATOM      7  C   UNL     1      52.125   4.911  17.208  1.00  0.00    -0.028 C 
ATOM      8  C   UNL     1      51.960   4.044  18.233  1.00  0.00    -0.070 CG0
ATOM      9  C   UNL     1      53.161   3.258  18.695  1.00  0.00     0.039 C 
ATOM     10  G   UNL     1      50.625   3.803  18.910  1.00  0.00     0.000 G0
ENDBRANCH   6   7
ENDBRANCH   5   6
ENDBRANCH   3   5
ENDBRANCH   1   3
BRANCH   1  11
ATOM     11  C   UNL     1      49.119   2.167  15.978  1.00  0.00     0.087 C 
BRANCH  11  12
ATOM     12  C   UNL     1      48.759   2.757  17.363  1.00  0.00     0.066 C 
BRANCH  12  13
ATOM     13  C   UNL     1      49.909   2.593  18.345  1.00  0.00     0.140 C 
ATOM     14  O   UNL     1      50.252   1.474  18.699  1.00  0.00    -0.299 OA
BRANCH  13  15
ATOM     15  C   UNL     1      50.618   3.789  18.928  1.00  0.00     0.106 CG0
ATOM     16  G   UNL     1      51.938   4.033  18.222  1.00  0.00     0.000 G0
ENDBRANCH  13  15
ENDBRANCH  12  13
BRANCH  12  17
ATOM     17  C   UNL     1      47.425   2.169  17.915  1.00  0.00    -0.006 C 
ATOM     18  C   UNL     1      47.186   2.457  19.407  1.00  0.00     0.008 C 
ATOM     19  C   UNL     1      46.218   2.636  17.087  1.00  0.00     0.008 C 
ENDBRANCH  12  17
ENDBRANCH  11  12
ENDBRANCH   1  11
TORSDOF 1
ENDMDL
MODEL 2
REMARK VINA RESULT:    -4.233      2.336      4.663
REMARK INTER + INTRA:          -6.610
REMARK INTER:                  -7.389
REMARK INTRA:                   0.779
REMARK UNBOUND:                -0.150
REMARK SMILES CC1=CCC[C@H](C)C(=O)C[C@@H](C(C)C)C(=O)C1
REMARK SMILES IDX 8 1 9 2 6 3 7 4 5 5 4 6 3 7 2 8 1 9 10 11 11 12 15 13 16 14
REMARK SMILES IDX 17 15 12 17 13 18 14 19
REMARK H PARENT
REMARK Flexibility Score: 70.00
ROOT
ATOM      1  C   UNL     1      47.528   4.216  19.384  1.00  0.00     0.136 C 
ATOM      2  O   UNL     1      46.800   5.145  19.065  1.00  0.00    -0.299 OA
ENDROOT
BRANCH   1   3
ATOM      3  C   UNL     1      47.077   2.789  19.146  1.00  0.00     0.053 C 
ATOM      4  C   UNL     1      46.120   2.751  17.952  1.00  0.00     0.016 C 
BRANCH   3   5
ATOM      5  C   UNL     1      48.276   1.843  18.903  1.00  0.00     0.015 C 
BRANCH   5   6
ATOM      6  C   UNL     1      48.304   1.250  17.486  1.00  0.00     0.028 C 
BRANCH   6   7
ATOM      7  C   UNL     1      49.009   2.171  16.520  1.00  0.00    -0.028 C 
ATOM      8  C   UNL     1      50.069   2.959  16.811  1.00  0.00    -0.070 CG0
ATOM      9  C   UNL     1      50.639   3.814  15.707  1.00  0.00     0.039 C 
ATOM     10  G   UNL     1      50.727   2.996  18.177  1.00  0.00     0.000 G0
ENDBRANCH   6   7
ENDBRANCH   5   6
ENDBRANCH   3   5
ENDBRANCH   1   3
BRANCH   1  11
ATOM     11  C   UNL     1      48.858   4.517  20.028  1.00  0.00     0.087 C 
BRANCH  11  12
ATOM     12  C   UNL     1      49.797   5.300  19.080  1.00  0.00     0.066 C 
BRANCH  12  13
ATOM     13  C   UNL     1      50.963   4.437  18.625  1.00  0.00     0.140 C 
ATOM     14  O   UNL     1      52.091   4.910  18.585  1.00  0.00    -0.299 OA
BRANCH  13  15
ATOM     15  C   UNL     1      50.756   3.013  18.179  1.00  0.00     0.106 CG0
ATOM     16  G   UNL     1      50.071   2.963  16.827  1.00  0.00     0.000 G0
ENDBRANCH  13  15
ENDBRANCH  12  13
BRANCH  12  17
ATOM     17  C   UNL     1      50.271   6.644  19.714  1.00  0.00    -0.006 C 
ATOM     18  C   UNL     1      49.426   7.861  19.301  1.00  0.00     0.008 C 
ATOM     19  C   UNL     1      50.348   6.548  21.245  1.00  0.00     0.008 C 
ENDBRANCH  12  17
ENDBRANCH  11  12
ENDBRANCH   1  11
TORSDOF 1
ENDMDL
MODEL 3
REMARK VINA RESULT:    -4.157      1.891      2.287
REMARK INTER + INTRA:          -6.495
REMARK INTER:                  -6.480
REMARK INTRA:                  -0.015
REMARK UNBOUND:                -0.150
REMARK SMILES CC1=CCC[C@H](C)C(=O)C[C@@H](C(C)C)C(=O)C1
REMARK SMILES IDX 8 1 9 2 6 3 7 4 5 5 4 6 3 7 2 8 1 9 10 11 11 12 15 13 16 14
REMARK SMILES IDX 17 15 12 17 13 18 14 19
REMARK H PARENT
REMARK Flexibility Score: 70.00
ROOT
ATOM      1  C   UNL     1      49.871   3.333  16.217  1.00  0.00     0.136 C 
ATOM      2  O   UNL     1      48.830   2.990  15.675  1.00  0.00    -0.299 OA
ENDROOT
BRANCH   1   3
ATOM      3  C   UNL     1      50.943   4.038  15.412  1.00  0.00     0.053 C 
ATOM      4  C   UNL     1      50.625   3.910  13.920  1.00  0.00     0.016 C 
BRANCH   3   5
ATOM      5  C   UNL     1      51.069   5.528  15.807  1.00  0.00     0.015 C 
BRANCH   5   6
ATOM      6  C   UNL     1      51.985   5.760  17.019  1.00  0.00     0.028 C 
BRANCH   6   7
ATOM      7  C   UNL     1      51.355   6.711  18.007  1.00  0.00    -0.028 C 
ATOM      8  C   UNL     1      50.820   6.370  19.201  1.00  0.00    -0.070 CG0
ATOM      9  C   UNL     1      50.235   7.466  20.055  1.00  0.00     0.039 C 
ATOM     10  G   UNL     1      50.811   4.949  19.732  1.00  0.00     0.000 G0
ENDBRANCH   6   7
ENDBRANCH   5   6
ENDBRANCH   3   5
ENDBRANCH   1   3
BRANCH   1  11
ATOM     11  C   UNL     1      50.069   3.025  17.680  1.00  0.00     0.087 C 
BRANCH  11  12
ATOM     12  C   UNL     1      48.905   3.561  18.548  1.00  0.00     0.066 C 
BRANCH  12  13
ATOM     13  C   UNL     1      49.426   4.346  19.741  1.00  0.00     0.140 C 
ATOM     14  O   UNL     1      48.705   4.528  20.712  1.00  0.00    -0.299 OA
BRANCH  13  15
ATOM     15  C   UNL     1      50.809   4.947  19.741  1.00  0.00     0.106 CG0
ATOM     16  G   UNL     1      50.783   6.364  19.200  1.00  0.00     0.000 G0
ENDBRANCH  13  15
ENDBRANCH  12  13
BRANCH  12  17
ATOM     17  C   UNL     1      47.928   2.423  18.973  1.00  0.00    -0.006 C 
ATOM     18  C   UNL     1      46.487   2.618  18.472  1.00  0.00     0.008 C 
ATOM     19  C   UNL     1      48.452   1.043  18.550  1.00  0.00     0.008 C 
ENDBRANCH  12  17
ENDBRANCH  11  12
ENDBRANCH   1  11
TORSDOF 1
ENDMDL
MODEL 4
REMARK VINA RESULT:    -3.692      1.879      4.630
REMARK INTER + INTRA:          -5.785
REMARK INTER:                  -5.890
REMARK INTRA:                   0.105
REMARK UNBOUND:                -0.150
REMARK SMILES CC1=CCC[C@H](C)C(=O)C[C@@H](C(C)C)C(=O)C1
REMARK SMILES IDX 8 1 9 2 6 3 7 4 5 5 4 6 3 7 2 8 1 9 10 11 11 12 15 13 16 14
REMARK SMILES IDX 17 15 12 17 13 18 14 19
REMARK H PARENT
REMARK Flexibility Score: 70.00
ROOT
ATOM      1  C   UNL     1      49.022   3.126  18.611  1.00  0.00     0.136 C 
ATOM      2  O   UNL     1      48.400   4.148  18.863  1.00  0.00    -0.299 OA
ENDROOT
BRANCH   1   3
ATOM      3  C   UNL     1      48.292   1.912  18.073  1.00  0.00     0.053 C 
ATOM      4  C   UNL     1      46.782   2.152  18.149  1.00  0.00     0.016 C 
BRANCH   3   5
ATOM      5  C   UNL     1      48.711   1.590  16.620  1.00  0.00     0.015 C 
BRANCH   5   6
ATOM      6  C   UNL     1      48.487   2.760  15.650  1.00  0.00     0.028 C 
BRANCH   6   7
ATOM      7  C   UNL     1      49.565   2.811  14.594  1.00  0.00    -0.028 C 
ATOM      8  C   UNL     1      50.614   3.663  14.576  1.00  0.00    -0.070 CG0
ATOM      9  C   UNL     1      51.591   3.560  13.433  1.00  0.00     0.039 C 
ATOM     10  G   UNL     1      50.869   4.689  15.665  1.00  0.00     0.000 G0
ENDBRANCH   6   7
ENDBRANCH   5   6
ENDBRANCH   3   5
ENDBRANCH   1   3
BRANCH   1  11
ATOM     11  C   UNL     1      50.508   3.094  18.864  1.00  0.00     0.087 C 
BRANCH  11  12
ATOM     12  C   UNL     1      51.223   4.331  18.271  1.00  0.00     0.066 C 
BRANCH  12  13
ATOM     13  C   UNL     1      51.639   4.087  16.828  1.00  0.00     0.140 C 
ATOM     14  O   UNL     1      52.633   3.415  16.587  1.00  0.00    -0.299 OA
BRANCH  13  15
ATOM     15  C   UNL     1      50.873   4.690  15.679  1.00  0.00     0.106 CG0
ATOM     16  G   UNL     1      50.617   3.657  14.598  1.00  0.00     0.000 G0
ENDBRANCH  13  15
ENDBRANCH  12  13
BRANCH  12  17
ATOM     17  C   UNL     1      52.420   4.791  19.159  1.00  0.00    -0.006 C 
ATOM     18  C   UNL     1      52.127   6.044  20.001  1.00  0.00     0.008 C 
ATOM     19  C   UNL     1      52.922   3.653  20.061  1.00  0.00     0.008 C 
ENDBRANCH  12  17
ENDBRANCH  11  12
ENDBRANCH   1  11
TORSDOF 1
ENDMDL
MODEL 5
REMARK VINA RESULT:    -3.655      1.541      4.249
REMARK INTER + INTRA:          -5.728
REMARK INTER:                  -5.647
REMARK INTRA:                  -0.081
REMARK UNBOUND:                -0.150
REMARK SMILES CC1=CCC[C@H](C)C(=O)C[C@@H](C(C)C)C(=O)C1
REMARK SMILES IDX 8 1 9 2 6 3 7 4 5 5 4 6 3 7 2 8 1 9 10 11 11 12 15 13 16 14
REMARK SMILES IDX 17 15 12 17 13 18 14 19
REMARK H PARENT
REMARK Flexibility Score: 70.00
ROOT
ATOM      1  C   UNL     1      49.124   2.553  15.664  1.00  0.00     0.136 C 
ATOM      2  O   UNL     1      48.973   1.499  15.063  1.00  0.00    -0.299 OA
ENDROOT
BRANCH   1   3
ATOM      3  C   UNL     1      48.652   2.678  17.098  1.00  0.00     0.053 C 
ATOM      4  C   UNL     1      47.146   2.407  17.164  1.00  0.00     0.016 C 
BRANCH   3   5
ATOM      5  C   UNL     1      49.411   1.711  18.036  1.00  0.00     0.015 C 
BRANCH   5   6
ATOM      6  C   UNL     1      50.581   2.376  18.778  1.00  0.00     0.028 C 
BRANCH   6   7
ATOM      7  C   UNL     1      50.181   3.720  19.336  1.00  0.00    -0.028 C 
ATOM      8  C   UNL     1      50.689   4.915  18.958  1.00  0.00    -0.070 CG0
ATOM      9  C   UNL     1      50.161   6.155  19.634  1.00  0.00     0.039 C 
ATOM     10  G   UNL     1      51.732   5.067  17.868  1.00  0.00     0.000 G0
ENDBRANCH   6   7
ENDBRANCH   5   6
ENDBRANCH   3   5
ENDBRANCH   1   3
BRANCH   1  11
ATOM     11  C   UNL     1      49.761   3.718  14.949  1.00  0.00     0.087 C 
BRANCH  11  12
ATOM     12  C   UNL     1      51.166   4.043  15.511  1.00  0.00     0.066 C 
BRANCH  12  13
ATOM     13  C   UNL     1      51.107   5.185  16.514  1.00  0.00     0.140 C 
ATOM     14  O   UNL     1      50.557   6.234  16.209  1.00  0.00    -0.299 OA
BRANCH  13  15
ATOM     15  C   UNL     1      51.749   5.069  17.872  1.00  0.00     0.106 CG0
ATOM     16  G   UNL     1      50.700   4.911  18.956  1.00  0.00     0.000 G0
ENDBRANCH  13  15
ENDBRANCH  12  13
BRANCH  12  17
ATOM     17  C   UNL     1      52.198   4.312  14.373  1.00  0.00    -0.006 C 
ATOM     18  C   UNL     1      53.656   4.385  14.856  1.00  0.00     0.008 C 
ATOM     19  C   UNL     1      52.067   3.283  13.240  1.00  0.00     0.008 C 
ENDBRANCH  12  17
ENDBRANCH  11  12
ENDBRANCH   1  11
TORSDOF 1
ENDMDL
MODEL 6
REMARK VINA RESULT:    -3.650      2.104      4.034
REMARK INTER + INTRA:          -5.721
REMARK INTER:                  -6.009
REMARK INTRA:                   0.287
REMARK UNBOUND:                -0.150
REMARK SMILES CC1=CCC[C@H](C)C(=O)C[C@@H](C(C)C)C(=O)C1
REMARK SMILES IDX 8 1 9 2 6 3 7 4 5 5 4 6 3 7 2 8 1 9 10 11 11 12 15 13 16 14
REMARK SMILES IDX 17 15 12 17 13 18 14 19
REMARK H PARENT
REMARK Flexibility Score: 70.00
ROOT
ATOM      1  C   UNL     1      49.491   4.890  20.698  1.00  0.00     0.136 C 
ATOM      2  O   UNL     1      49.126   4.682  21.846  1.00  0.00    -0.299 OA
ENDROOT
BRANCH   1   3
ATOM      3  C   UNL     1      50.808   5.592  20.441  1.00  0.00     0.053 C 
ATOM      4  C   UNL     1      50.700   7.054  20.882  1.00  0.00     0.016 C 
BRANCH   3   5
ATOM      5  C   UNL     1      51.980   4.897  21.173  1.00  0.00     0.015 C 
BRANCH   5   6
ATOM      6  C   UNL     1      52.652   3.798  20.337  1.00  0.00     0.028 C 
BRANCH   6   7
ATOM      7  C   UNL     1      52.855   4.242  18.909  1.00  0.00    -0.028 C 
ATOM      8  C   UNL     1      52.262   3.699  17.821  1.00  0.00    -0.070 CG0
ATOM      9  C   UNL     1      52.591   4.283  16.470  1.00  0.00     0.039 C 
ATOM     10  G   UNL     1      51.263   2.561  17.901  1.00  0.00     0.000 G0
ENDBRANCH   6   7
ENDBRANCH   5   6
ENDBRANCH   3   5
ENDBRANCH   1   3
BRANCH   1  11
ATOM     11  C   UNL     1      48.603   4.457  19.559  1.00  0.00     0.087 C 
BRANCH  11  12
ATOM     12  C   UNL     1      48.945   3.029  19.069  1.00  0.00     0.066 C 
BRANCH  12  13
ATOM     13  C   UNL     1      49.839   3.068  17.839  1.00  0.00     0.140 C 
ATOM     14  O   UNL     1      49.400   3.500  16.782  1.00  0.00    -0.299 OA
BRANCH  13  15
ATOM     15  C   UNL     1      51.252   2.548  17.881  1.00  0.00     0.106 CG0
ATOM     16  G   UNL     1      52.251   3.687  17.813  1.00  0.00     0.000 G0
ENDBRANCH  13  15
ENDBRANCH  12  13
BRANCH  12  17
ATOM     17  C   UNL     1      47.663   2.172  18.838  1.00  0.00    -0.006 C 
ATOM     18  C   UNL     1      46.387   3.004  18.623  1.00  0.00     0.008 C 
ATOM     19  C   UNL     1      47.849   1.180  17.680  1.00  0.00     0.008 C 
ENDBRANCH  12  17
ENDBRANCH  11  12
ENDBRANCH   1  11
TORSDOF 1
ENDMDL
MODEL 7
REMARK VINA RESULT:    -3.558      2.062      4.164
REMARK INTER + INTRA:          -5.581
REMARK INTER:                  -5.365
REMARK INTRA:                  -0.216
REMARK UNBOUND:                -0.150
REMARK SMILES CC1=CCC[C@H](C)C(=O)C[C@@H](C(C)C)C(=O)C1
REMARK SMILES IDX 8 1 9 2 6 3 7 4 5 5 4 6 3 7 2 8 1 9 10 11 11 12 15 13 16 14
REMARK SMILES IDX 17 15 12 17 13 18 14 19
REMARK H PARENT
REMARK Flexibility Score: 70.00
ROOT
ATOM      1  C   UNL     1      48.990   3.037  18.237  1.00  0.00     0.136 C 
ATOM      2  O   UNL     1      47.933   3.493  18.650  1.00  0.00    -0.299 OA
ENDROOT
BRANCH   1   3
ATOM      3  C   UNL     1      48.984   2.002  17.131  1.00  0.00     0.053 C 
ATOM      4  C   UNL     1      47.975   0.901  17.471  1.00  0.00     0.016 C 
BRANCH   3   5
ATOM      5  C   UNL     1      48.648   2.631  15.759  1.00  0.00     0.015 C 
BRANCH   5   6
ATOM      6  C   UNL     1      49.872   2.785  14.845  1.00  0.00     0.028 C 
BRANCH   6   7
ATOM      7  C   UNL     1      50.218   4.238  14.631  1.00  0.00    -0.028 C 
ATOM      8  C   UNL     1      51.191   4.922  15.276  1.00  0.00    -0.070 CG0
ATOM      9  C   UNL     1      51.388   6.375  14.924  1.00  0.00     0.039 C 
ATOM     10  G   UNL     1      52.109   4.289  16.304  1.00  0.00     0.000 G0
ENDBRANCH   6   7
ENDBRANCH   5   6
ENDBRANCH   3   5
ENDBRANCH   1   3
BRANCH   1  11
ATOM     11  C   UNL     1      50.281   3.506  18.859  1.00  0.00     0.087 C 
BRANCH  11  12
ATOM     12  C   UNL     1      50.643   4.947  18.423  1.00  0.00     0.066 C 
BRANCH  12  13
ATOM     13  C   UNL     1      51.962   4.977  17.666  1.00  0.00     0.140 C 
ATOM     14  O   UNL     1      52.918   5.580  18.133  1.00  0.00    -0.299 OA
BRANCH  13  15
ATOM     15  C   UNL     1      52.110   4.307  16.324  1.00  0.00     0.106 CG0
ATOM     16  G   UNL     1      51.186   4.938  15.300  1.00  0.00     0.000 G0
ENDBRANCH  13  15
ENDBRANCH  12  13
BRANCH  12  17
ATOM     17  C   UNL     1      50.633   5.937  19.628  1.00  0.00    -0.006 C 
ATOM     18  C   UNL     1      49.647   7.105  19.467  1.00  0.00     0.008 C 
ATOM     19  C   UNL     1      50.376   5.207  20.955  1.00  0.00     0.008 C 
ENDBRANCH  12  17
ENDBRANCH  11  12
ENDBRANCH   1  11
TORSDOF 1
ENDMDL
MODEL 8
REMARK VINA RESULT:    -3.092      2.327      4.527
REMARK INTER + INTRA:          -4.869
REMARK INTER:                  -5.390
REMARK INTRA:                   0.521
REMARK UNBOUND:                -0.150
REMARK SMILES CC1=CCC[C@H](C)C(=O)C[C@@H](C(C)C)C(=O)C1
REMARK SMILES IDX 8 1 9 2 6 3 7 4 5 5 4 6 3 7 2 8 1 9 10 11 11 12 15 13 16 14
REMARK SMILES IDX 17 15 12 17 13 18 14 19
REMARK H PARENT
REMARK Flexibility Score: 70.00
ROOT
ATOM      1  C   UNL     1      49.675   2.933  17.723  1.00  0.00     0.136 C 
ATOM      2  O   UNL     1      49.557   3.352  16.581  1.00  0.00    -0.299 OA
ENDROOT
BRANCH   1   3
ATOM      3  C   UNL     1      48.446   2.748  18.590  1.00  0.00     0.053 C 
ATOM      4  C   UNL     1      48.256   1.259  18.891  1.00  0.00     0.016 C 
BRANCH   3   5
ATOM      5  C   UNL     1      48.548   3.553  19.906  1.00  0.00     0.015 C 
BRANCH   5   6
ATOM      6  C   UNL     1      48.318   5.060  19.717  1.00  0.00     0.028 C 
BRANCH   6   7
ATOM      7  C   UNL     1      49.386   5.869  20.413  1.00  0.00    -0.028 C 
ATOM      8  C   UNL     1      50.487   6.394  19.829  1.00  0.00    -0.070 CG0
ATOM      9  C   UNL     1      51.443   7.176  20.693  1.00  0.00     0.039 C 
ATOM     10  G   UNL     1      50.783   6.260  18.347  1.00  0.00     0.000 G0
ENDBRANCH   6   7
ENDBRANCH   5   6
ENDBRANCH   3   5
ENDBRANCH   1   3
BRANCH   1  11
ATOM     11  C   UNL     1      51.054   2.628  18.251  1.00  0.00     0.087 C 
BRANCH  11  12
ATOM     12  C   UNL     1      51.674   3.842  18.985  1.00  0.00     0.066 C 
BRANCH  12  13
ATOM     13  C   UNL     1      51.696   5.072  18.091  1.00  0.00     0.140 C 
ATOM     14  O   UNL     1      52.482   5.131  17.156  1.00  0.00    -0.299 OA
BRANCH  13  15
ATOM     15  C   UNL     1      50.791   6.248  18.355  1.00  0.00     0.106 CG0
ATOM     16  G   UNL     1      50.504   6.388  19.838  1.00  0.00     0.000 G0
ENDBRANCH  13  15
ENDBRANCH  12  13
BRANCH  12  17
ATOM     17  C   UNL     1      53.083   3.511  19.565  1.00  0.00    -0.006 C 
ATOM     18  C   UNL     1      53.254   3.890  21.045  1.00  0.00     0.008 C 
ATOM     19  C   UNL     1      53.447   2.033  19.352  1.00  0.00     0.008 C 
ENDBRANCH  12  17
ENDBRANCH  11  12
ENDBRANCH   1  11
TORSDOF 1
ENDMDL
MODEL 9
REMARK VINA RESULT:    -2.904     11.050     13.060
REMARK INTER + INTRA:          -4.583
REMARK INTER:                  -4.362
REMARK INTRA:                  -0.221
REMARK UNBOUND:                -0.150
REMARK SMILES CC1=CCC[C@H](C)C(=O)C[C@@H](C(C)C)C(=O)C1
REMARK SMILES IDX 8 1 9 2 6 3 7 4 5 5 4 6 3 7 2 8 1 9 10 11 11 12 15 13 16 14
REMARK SMILES IDX 17 15 12 17 13 18 14 19
REMARK H PARENT
REMARK Flexibility Score: 70.00
ROOT
ATOM      1  C   UNL     1      42.339  10.197  20.438  1.00  0.00     0.136 C 
ATOM      2  O   UNL     1      43.328   9.855  21.071  1.00  0.00    -0.299 OA
ENDROOT
BRANCH   1   3
ATOM      3  C   UNL     1      41.003  10.330  21.140  1.00  0.00     0.053 C 
ATOM      4  C   UNL     1      40.787   9.121  22.054  1.00  0.00     0.016 C 
BRANCH   3   5
ATOM      5  C   UNL     1      40.913  11.641  21.955  1.00  0.00     0.015 C 
BRANCH   5   6
ATOM      6  C   UNL     1      40.233  12.786  21.191  1.00  0.00     0.028 C 
BRANCH   6   7
ATOM      7  C   UNL     1      39.378  12.261  20.063  1.00  0.00    -0.028 C 
ATOM      8  C   UNL     1      39.547  12.536  18.750  1.00  0.00    -0.070 CG0
ATOM      9  C   UNL     1      38.588  11.913  17.767  1.00  0.00     0.039 C 
ATOM     10  G   UNL     1      40.670  13.408  18.221  1.00  0.00     0.000 G0
ENDBRANCH   6   7
ENDBRANCH   5   6
ENDBRANCH   3   5
ENDBRANCH   1   3
BRANCH   1  11
ATOM     11  C   UNL     1      42.473  10.460  18.959  1.00  0.00     0.087 C 
BRANCH  11  12
ATOM     12  C   UNL     1      42.819  11.940  18.664  1.00  0.00     0.066 C 
BRANCH  12  13
ATOM     13  C   UNL     1      41.812  12.559  17.707  1.00  0.00     0.140 C 
ATOM     14  O   UNL     1      41.939  12.398  16.501  1.00  0.00    -0.299 OA
BRANCH  13  15
ATOM     15  C   UNL     1      40.672  13.407  18.211  1.00  0.00     0.106 CG0
ATOM     16  G   UNL     1      39.551  12.540  18.752  1.00  0.00     0.000 G0
ENDBRANCH  13  15
ENDBRANCH  12  13
BRANCH  12  17
ATOM     17  C   UNL     1      44.286  12.103  18.161  1.00  0.00    -0.006 C 
ATOM     18  C   UNL     1      45.261  12.612  19.235  1.00  0.00     0.008 C 
ATOM     19  C   UNL     1      44.816  10.802  17.538  1.00  0.00     0.008 C 
ENDBRANCH  12  17
ENDBRANCH  11  12
ENDBRANCH   1  11
TORSDOF 1
ENDMDL
