MODEL 1
REMARK VINA RESULT:    -0.677      0.000      0.000
REMARK INTER + INTRA:          -1.790
REMARK INTER:                  -0.894
REMARK INTRA:                  -0.896
REMARK UNBOUND:                -0.896
REMARK SMILES C=C(CC[C@@H](C)[C@H]1CC[C@@]2(C)[C@@H]3CC[C@H]4C(C)(C)[C@H](O)CC[C@]45C[C@]35CC[C@@]12C)C(C)C
REMARK SMILES IDX 4 1 3 2 2 3 1 4 30 5 31 6 32 7 5 8 6 9 7 10 8 11 28 12 9 13
REMARK SMILES IDX 10 14 27 15 29 16 11 17 12 18 26 19 25 20 13 21 23 22 24 23
REMARK SMILES IDX 14 24 15 25 22 26 16 27 21 28 19 29 17 30 18 31 20 32
REMARK H PARENT 20 33
REMARK Flexibility Score: inf
ROOT
ATOM      1  C   UNL     1     140.122 124.338 142.217  1.00  0.00     0.008 C 
ENDROOT
BRANCH   1   2
ATOM      2  C   UNL     1     140.958 125.584 141.881  1.00  0.00     0.031 C 
BRANCH   2   3
ATOM      3  C   UNL     1     142.210 125.628 142.733  1.00  0.00    -0.075 C 
ATOM      4  C   UNL     1     143.146 124.678 142.568  1.00  0.00     0.008 C 
BRANCH   3   5
ATOM      5  C   UNL     1     142.415 126.766 143.730  1.00  0.00     0.008 C 
ATOM      6  C   UNL     1     141.947 126.386 145.144  1.00  0.00     0.012 C 
ATOM      7  C   UNL     1     143.878 127.228 143.736  1.00  0.00     0.012 C 
ENDBRANCH   3   5
ENDBRANCH   2   3
ENDBRANCH   1   2
BRANCH   1   8
ATOM      8  C   UNL     1     139.334 123.747 141.005  1.00  0.00    -0.010 C 
ATOM      9  C   UNL     1     140.050 122.460 140.543  1.00  0.00     0.008 C 
BRANCH   8  10
ATOM     10  C   UNL     1     137.826 123.502 141.401  1.00  0.00    -0.002 C 
ATOM     11  C   UNL     1     137.431 124.326 142.632  1.00  0.00     0.005 C 
ATOM     12  C   UNL     1     136.684 123.782 140.351  1.00  0.00    -0.024 C 
ATOM     13  C   UNL     1     135.924 124.519 142.616  1.00  0.00     0.008 C 
ATOM     14  C   UNL     1     135.382 124.029 141.244  1.00  0.00    -0.024 C 
ATOM     15  C   UNL     1     136.983 125.058 139.494  1.00  0.00     0.008 C 
ATOM     16  C   UNL     1     136.525 122.559 139.387  1.00  0.00     0.012 C 
ATOM     17  C   UNL     1     134.605 122.701 141.509  1.00  0.00     0.012 C 
ATOM     18  C   UNL     1     134.430 125.145 140.646  1.00  0.00     0.002 C 
ATOM     19  C   UNL     1     135.858 125.400 138.496  1.00  0.00     0.008 C 
ATOM     20  C   UNL     1     134.455 125.166 139.104  1.00  0.00    -0.020 C 
ATOM     21  C   UNL     1     133.023 125.210 141.266  1.00  0.00     0.005 C 
ATOM     22  C   UNL     1     133.208 125.732 138.355  1.00  0.00    -0.020 C 
ATOM     23  C   UNL     1     133.525 124.221 138.350  1.00  0.00     0.015 C 
ATOM     24  C   UNL     1     132.225 126.348 140.643  1.00  0.00     0.005 C 
ATOM     25  C   UNL     1     131.889 126.056 139.157  1.00  0.00     0.004 C 
ATOM     26  C   UNL     1     133.367 126.322 136.926  1.00  0.00     0.010 C 
ATOM     27  C   UNL     1     131.034 127.204 138.485  1.00  0.00    -0.006 C 
ATOM     28  C   UNL     1     132.893 127.778 136.781  1.00  0.00     0.033 C 
ATOM     29  C   UNL     1     131.995 128.293 137.923  1.00  0.00     0.120 C 
ATOM     30  C   UNL     1     130.049 127.866 139.491  1.00  0.00     0.014 C 
ATOM     31  C   UNL     1     130.147 126.604 137.361  1.00  0.00     0.014 C 
BRANCH  29  32
ATOM     32  O   UNL     1     131.273 129.404 137.442  1.00  0.00    -0.393 OA
ATOM     33  H   UNL     1     131.454 130.164 138.057  1.00  0.00     0.210 HD
ENDBRANCH  29  32
ENDBRANCH   8  10
ENDBRANCH   1   8
TORSDOF 6
ENDMDL
