MODEL 1
REMARK VINA RESULT:    -5.460      0.000      0.000
REMARK INTER + INTRA:          -5.939
REMARK INTER:                  -5.939
REMARK INTRA:                   0.000
REMARK UNBOUND:                 0.000
REMARK SMILES Cc1cc(O)c2c(c1)C(=O)c1cc(O)cc(O)c1C2=O
REMARK SMILES IDX 1 1 2 2 8 3 7 4 6 5 4 6 3 7 19 8 20 9 18 10 11 11 9 12 10 13
REMARK SMILES IDX 12 14 13 15 15 16 16 17 5 18 17 20 14 22
REMARK H PARENT 5 19 17 21 14 23
REMARK Flexibility Score: inf
ROOT
ATOM      1  C   UNL     1      -3.660 -10.097  -0.866  1.00  0.00     0.044 C 
ATOM      2  C   UNL     1      -4.451  -8.823  -0.831  1.00  0.00    -0.047 A 
ATOM      3  C   UNL     1      -3.932  -7.688  -0.198  1.00  0.00     0.016 A 
ATOM      4  C   UNL     1      -4.652  -6.482  -0.184  1.00  0.00     0.038 A 
ATOM      5  C   UNL     1      -5.914  -6.410  -0.815  1.00  0.00     0.076 A 
ATOM      6  C   UNL     1      -6.397  -7.538  -1.527  1.00  0.00     0.127 A 
ATOM      7  C   UNL     1      -5.672  -8.733  -1.509  1.00  0.00     0.050 A 
ATOM      8  C   UNL     1      -6.711  -5.166  -0.653  1.00  0.00     0.201 C 
ATOM      9  O   UNL     1      -7.970  -5.222  -0.665  1.00  0.00    -0.288 OA
ATOM     10  C   UNL     1      -6.030  -3.896  -0.291  1.00  0.00     0.076 A 
ATOM     11  C   UNL     1      -4.766  -3.971   0.337  1.00  0.00     0.041 A 
ATOM     12  C   UNL     1      -4.090  -5.283   0.481  1.00  0.00     0.194 C 
ATOM     13  O   UNL     1      -3.024  -5.373   1.150  1.00  0.00    -0.289 OA
ATOM     14  C   UNL     1      -4.154  -2.802   0.818  1.00  0.00     0.059 A 
ATOM     15  C   UNL     1      -4.774  -1.562   0.668  1.00  0.00     0.120 A 
ATOM     16  C   UNL     1      -6.006  -1.477   0.011  1.00  0.00     0.093 A 
ATOM     17  C   UNL     1      -6.627  -2.624  -0.495  1.00  0.00     0.131 A 
ENDROOT
BRANCH   6  18
ATOM     18  O   UNL     1      -7.567  -7.506  -2.290  1.00  0.00    -0.507 OA
ATOM     19  H   UNL     1      -8.478  -7.290  -1.907  1.00  0.00     0.293 HD
ENDBRANCH   6  18
BRANCH  17  20
ATOM     20  O   UNL     1      -7.809  -2.450  -1.217  1.00  0.00    -0.507 OA
ATOM     21  H   UNL     1      -8.314  -3.210  -1.654  1.00  0.00     0.293 HD
ENDBRANCH  17  20
BRANCH  15  22
ATOM     22  O   UNL     1      -4.154  -0.418   1.163  1.00  0.00    -0.508 OA
ATOM     23  H   UNL     1      -3.145  -0.326   1.177  1.00  0.00     0.293 HD
ENDBRANCH  15  22
TORSDOF 3
ENDMDL
MODEL 2
REMARK VINA RESULT:    -5.266     12.879     16.290
REMARK INTER + INTRA:          -5.728
REMARK INTER:                  -5.728
REMARK INTRA:                   0.000
REMARK UNBOUND:                 0.000
REMARK SMILES Cc1cc(O)c2c(c1)C(=O)c1cc(O)cc(O)c1C2=O
REMARK SMILES IDX 1 1 2 2 8 3 7 4 6 5 4 6 3 7 19 8 20 9 18 10 11 11 9 12 10 13
REMARK SMILES IDX 12 14 13 15 15 16 16 17 5 18 17 20 14 22
REMARK H PARENT 5 19 17 21 14 23
REMARK Flexibility Score: inf
ROOT
ATOM      1  C   UNL     1       7.984   9.380   1.041  1.00  0.00     0.044 C 
ATOM      2  C   UNL     1       6.887   8.579   0.403  1.00  0.00    -0.047 A 
ATOM      3  C   UNL     1       7.173   7.708  -0.653  1.00  0.00     0.016 A 
ATOM      4  C   UNL     1       6.158   6.932  -1.238  1.00  0.00     0.038 A 
ATOM      5  C   UNL     1       4.834   7.029  -0.756  1.00  0.00     0.076 A 
ATOM      6  C   UNL     1       4.566   7.850   0.370  1.00  0.00     0.127 A 
ATOM      7  C   UNL     1       5.588   8.628   0.921  1.00  0.00     0.050 A 
ATOM      8  C   UNL     1       3.763   6.308  -1.492  1.00  0.00     0.201 C 
ATOM      9  O   UNL     1       2.590   6.770  -1.504  1.00  0.00    -0.288 OA
ATOM     10  C   UNL     1       4.114   5.157  -2.364  1.00  0.00     0.076 A 
ATOM     11  C   UNL     1       5.441   5.061  -2.842  1.00  0.00     0.041 A 
ATOM     12  C   UNL     1       6.472   6.006  -2.352  1.00  0.00     0.194 C 
ATOM     13  O   UNL     1       7.624   6.005  -2.866  1.00  0.00    -0.289 OA
ATOM     14  C   UNL     1       5.777   4.066  -3.775  1.00  0.00     0.059 A 
ATOM     15  C   UNL     1       4.816   3.161  -4.225  1.00  0.00     0.120 A 
ATOM     16  C   UNL     1       3.513   3.226  -3.724  1.00  0.00     0.093 A 
ATOM     17  C   UNL     1       3.157   4.194  -2.779  1.00  0.00     0.131 A 
ENDROOT
BRANCH   6  18
ATOM     18  O   UNL     1       3.315   7.895   0.991  1.00  0.00    -0.507 OA
ATOM     19  H   UNL     1       2.561   7.258   0.774  1.00  0.00     0.293 HD
ENDBRANCH   6  18
BRANCH  17  20
ATOM     20  O   UNL     1       1.863   4.140  -2.258  1.00  0.00    -0.507 OA
ATOM     21  H   UNL     1       1.362   4.952  -1.921  1.00  0.00     0.293 HD
ENDBRANCH  17  20
BRANCH  15  22
ATOM     22  O   UNL     1       5.170   2.191  -5.160  1.00  0.00    -0.508 OA
ATOM     23  H   UNL     1       5.273   1.217  -4.900  1.00  0.00     0.293 HD
ENDBRANCH  15  22
TORSDOF 3
ENDMDL
MODEL 3
REMARK VINA RESULT:    -5.257      8.349     10.339
REMARK INTER + INTRA:          -5.718
REMARK INTER:                  -5.718
REMARK INTRA:                   0.000
REMARK UNBOUND:                 0.000
REMARK SMILES Cc1cc(O)c2c(c1)C(=O)c1cc(O)cc(O)c1C2=O
REMARK SMILES IDX 1 1 2 2 8 3 7 4 6 5 4 6 3 7 19 8 20 9 18 10 11 11 9 12 10 13
REMARK SMILES IDX 12 14 13 15 15 16 16 17 5 18 17 20 14 22
REMARK H PARENT 5 19 17 21 14 23
REMARK Flexibility Score: inf
ROOT
ATOM      1  C   UNL     1       4.448  -4.821  10.125  1.00  0.00     0.044 C 
ATOM      2  C   UNL     1       3.404  -5.130   9.094  1.00  0.00    -0.047 A 
ATOM      3  C   UNL     1       2.050  -4.925   9.379  1.00  0.00     0.016 A 
ATOM      4  C   UNL     1       1.066  -5.185   8.410  1.00  0.00     0.038 A 
ATOM      5  C   UNL     1       1.444  -5.657   7.133  1.00  0.00     0.076 A 
ATOM      6  C   UNL     1       2.823  -5.782   6.822  1.00  0.00     0.127 A 
ATOM      7  C   UNL     1       3.782  -5.537   7.810  1.00  0.00     0.050 A 
ATOM      8  C   UNL     1       0.372  -6.061   6.186  1.00  0.00     0.201 C 
ATOM      9  O   UNL     1       0.592  -6.968   5.340  1.00  0.00    -0.288 OA
ATOM     10  C   UNL     1      -1.005  -5.531   6.363  1.00  0.00     0.076 A 
ATOM     11  C   UNL     1      -1.380  -5.057   7.641  1.00  0.00     0.041 A 
ATOM     12  C   UNL     1      -0.365  -4.957   8.718  1.00  0.00     0.194 C 
ATOM     13  O   UNL     1      -0.718  -4.654   9.890  1.00  0.00    -0.289 OA
ATOM     14  C   UNL     1      -2.710  -4.677   7.883  1.00  0.00     0.059 A 
ATOM     15  C   UNL     1      -3.665  -4.749   6.869  1.00  0.00     0.120 A 
ATOM     16  C   UNL     1      -3.290  -5.180   5.592  1.00  0.00     0.093 A 
ATOM     17  C   UNL     1      -1.968  -5.544   5.320  1.00  0.00     0.131 A 
ENDROOT
BRANCH   6  18
ATOM     18  O   UNL     1       3.283  -6.109   5.544  1.00  0.00    -0.507 OA
ATOM     19  H   UNL     1       3.831  -5.483   4.970  1.00  0.00     0.293 HD
ENDBRANCH   6  18
BRANCH  17  20
ATOM     20  O   UNL     1      -1.650  -5.876   4.001  1.00  0.00    -0.507 OA
ATOM     21  H   UNL     1      -1.410  -5.193   3.295  1.00  0.00     0.293 HD
ENDBRANCH  17  20
BRANCH  15  22
ATOM     22  O   UNL     1      -4.981  -4.379   7.135  1.00  0.00    -0.508 OA
ATOM     23  H   UNL     1      -5.727  -4.561   6.474  1.00  0.00     0.293 HD
ENDBRANCH  15  22
TORSDOF 3
ENDMDL
MODEL 4
REMARK VINA RESULT:    -5.147     13.892     14.418
REMARK INTER + INTRA:          -5.599
REMARK INTER:                  -5.599
REMARK INTRA:                   0.000
REMARK UNBOUND:                 0.000
REMARK SMILES Cc1cc(O)c2c(c1)C(=O)c1cc(O)cc(O)c1C2=O
REMARK SMILES IDX 1 1 2 2 8 3 7 4 6 5 4 6 3 7 19 8 20 9 18 10 11 11 9 12 10 13
REMARK SMILES IDX 12 14 13 15 15 16 16 17 5 18 17 20 14 22
REMARK H PARENT 5 19 17 21 14 23
REMARK Flexibility Score: inf
ROOT
ATOM      1  C   UNL     1       4.236   0.651 -10.120  1.00  0.00     0.044 C 
ATOM      2  C   UNL     1       4.155   1.469  -8.865  1.00  0.00    -0.047 A 
ATOM      3  C   UNL     1       4.913   1.116  -7.744  1.00  0.00     0.016 A 
ATOM      4  C   UNL     1       4.866   1.893  -6.574  1.00  0.00     0.038 A 
ATOM      5  C   UNL     1       4.047   3.043  -6.526  1.00  0.00     0.076 A 
ATOM      6  C   UNL     1       3.347   3.443  -7.693  1.00  0.00     0.127 A 
ATOM      7  C   UNL     1       3.393   2.642  -8.839  1.00  0.00     0.050 A 
ATOM      8  C   UNL     1       3.908   3.754  -5.228  1.00  0.00     0.201 C 
ATOM      9  O   UNL     1       2.840   4.366  -4.960  1.00  0.00    -0.288 OA
ATOM     10  C   UNL     1       4.947   3.583  -4.179  1.00  0.00     0.076 A 
ATOM     11  C   UNL     1       5.767   2.433  -4.232  1.00  0.00     0.041 A 
ATOM     12  C   UNL     1       5.679   1.516  -5.393  1.00  0.00     0.194 C 
ATOM     13  O   UNL     1       6.315   0.427  -5.386  1.00  0.00    -0.289 OA
ATOM     14  C   UNL     1       6.666   2.168  -3.185  1.00  0.00     0.059 A 
ATOM     15  C   UNL     1       6.768   3.037  -2.099  1.00  0.00     0.120 A 
ATOM     16  C   UNL     1       5.988   4.196  -2.062  1.00  0.00     0.093 A 
ATOM     17  C   UNL     1       5.101   4.495  -3.101  1.00  0.00     0.131 A 
ENDROOT
BRANCH   6  18
ATOM     18  O   UNL     1       2.627   4.638  -7.770  1.00  0.00    -0.507 OA
ATOM     19  H   UNL     1       3.055   5.552  -7.717  1.00  0.00     0.293 HD
ENDBRANCH   6  18
BRANCH  17  20
ATOM     20  O   UNL     1       4.423   5.714  -3.040  1.00  0.00    -0.507 OA
ATOM     21  H   UNL     1       4.089   6.125  -2.178  1.00  0.00     0.293 HD
ENDBRANCH  17  20
BRANCH  15  22
ATOM     22  O   UNL     1       7.657   2.746  -1.067  1.00  0.00    -0.508 OA
ATOM     23  H   UNL     1       8.455   3.340  -0.872  1.00  0.00     0.293 HD
ENDBRANCH  15  22
TORSDOF 3
ENDMDL
MODEL 5
REMARK VINA RESULT:    -5.088      8.966     10.686
REMARK INTER + INTRA:          -5.535
REMARK INTER:                  -5.535
REMARK INTRA:                   0.000
REMARK UNBOUND:                 0.000
REMARK SMILES Cc1cc(O)c2c(c1)C(=O)c1cc(O)cc(O)c1C2=O
REMARK SMILES IDX 1 1 2 2 8 3 7 4 6 5 4 6 3 7 19 8 20 9 18 10 11 11 9 12 10 13
REMARK SMILES IDX 12 14 13 15 15 16 16 17 5 18 17 20 14 22
REMARK H PARENT 5 19 17 21 14 23
REMARK Flexibility Score: inf
ROOT
ATOM      1  C   UNL     1      -7.577   0.810  -9.207  1.00  0.00     0.044 C 
ATOM      2  C   UNL     1      -7.202   1.857  -8.200  1.00  0.00    -0.047 A 
ATOM      3  C   UNL     1      -7.521   1.681  -6.849  1.00  0.00     0.016 A 
ATOM      4  C   UNL     1      -7.148   2.642  -5.894  1.00  0.00     0.038 A 
ATOM      5  C   UNL     1      -6.445   3.798  -6.297  1.00  0.00     0.076 A 
ATOM      6  C   UNL     1      -6.051   3.930  -7.654  1.00  0.00     0.127 A 
ATOM      7  C   UNL     1      -6.451   2.971  -8.590  1.00  0.00     0.050 A 
ATOM      8  C   UNL     1      -6.199   4.860  -5.287  1.00  0.00     0.201 C 
ATOM      9  O   UNL     1      -6.125   6.065  -5.650  1.00  0.00    -0.288 OA
ATOM     10  C   UNL     1      -6.231   4.523  -3.840  1.00  0.00     0.076 A 
ATOM     11  C   UNL     1      -6.933   3.363  -3.440  1.00  0.00     0.041 A 
ATOM     12  C   UNL     1      -7.483   2.443  -4.464  1.00  0.00     0.194 C 
ATOM     13  O   UNL     1      -8.215   1.476  -4.115  1.00  0.00    -0.289 OA
ATOM     14  C   UNL     1      -7.101   3.085  -2.074  1.00  0.00     0.059 A 
ATOM     15  C   UNL     1      -6.569   3.936  -1.105  1.00  0.00     0.120 A 
ATOM     16  C   UNL     1      -5.839   5.063  -1.496  1.00  0.00     0.093 A 
ATOM     17  C   UNL     1      -5.639   5.350  -2.850  1.00  0.00     0.131 A 
ENDROOT
BRANCH   6  18
ATOM     18  O   UNL     1      -5.238   4.972  -8.107  1.00  0.00    -0.507 OA
ATOM     19  H   UNL     1      -5.572   5.915  -8.259  1.00  0.00     0.293 HD
ENDBRANCH   6  18
BRANCH  17  20
ATOM     20  O   UNL     1      -4.824   6.440  -3.163  1.00  0.00    -0.507 OA
ATOM     21  H   UNL     1      -4.909   6.974  -4.018  1.00  0.00     0.293 HD
ENDBRANCH  17  20
BRANCH  15  22
ATOM     22  O   UNL     1      -6.759   3.647   0.244  1.00  0.00    -0.508 OA
ATOM     23  H   UNL     1      -6.789   2.692   0.582  1.00  0.00     0.293 HD
ENDBRANCH  15  22
TORSDOF 3
ENDMDL
MODEL 6
REMARK VINA RESULT:    -5.056      9.640     11.785
REMARK INTER + INTRA:          -5.499
REMARK INTER:                  -5.499
REMARK INTRA:                   0.000
REMARK UNBOUND:                 0.000
REMARK SMILES Cc1cc(O)c2c(c1)C(=O)c1cc(O)cc(O)c1C2=O
REMARK SMILES IDX 1 1 2 2 8 3 7 4 6 5 4 6 3 7 19 8 20 9 18 10 11 11 9 12 10 13
REMARK SMILES IDX 12 14 13 15 15 16 16 17 5 18 17 20 14 22
REMARK H PARENT 5 19 17 21 14 23
REMARK Flexibility Score: inf
ROOT
ATOM      1  C   UNL     1      -1.448  -6.881   3.824  1.00  0.00     0.044 C 
ATOM      2  C   UNL     1      -0.585  -6.488   4.987  1.00  0.00    -0.047 A 
ATOM      3  C   UNL     1       0.721  -6.978   5.092  1.00  0.00     0.016 A 
ATOM      4  C   UNL     1       1.546  -6.594   6.163  1.00  0.00     0.038 A 
ATOM      5  C   UNL     1       1.056  -5.704   7.144  1.00  0.00     0.076 A 
ATOM      6  C   UNL     1      -0.239  -5.146   6.987  1.00  0.00     0.127 A 
ATOM      7  C   UNL     1      -1.049  -5.559   5.925  1.00  0.00     0.050 A 
ATOM      8  C   UNL     1       1.901  -5.437   8.337  1.00  0.00     0.201 C 
ATOM      9  O   UNL     1       1.359  -5.166   9.442  1.00  0.00    -0.288 OA
ATOM     10  C   UNL     1       3.367  -5.676   8.270  1.00  0.00     0.076 A 
ATOM     11  C   UNL     1       3.855  -6.564   7.285  1.00  0.00     0.041 A 
ATOM     12  C   UNL     1       2.932  -7.111   6.261  1.00  0.00     0.194 C 
ATOM     13  O   UNL     1       3.333  -7.998   5.459  1.00  0.00    -0.289 OA
ATOM     14  C   UNL     1       5.213  -6.921   7.277  1.00  0.00     0.059 A 
ATOM     15  C   UNL     1       6.091  -6.395   8.225  1.00  0.00     0.120 A 
ATOM     16  C   UNL     1       5.621  -5.485   9.177  1.00  0.00     0.093 A 
ATOM     17  C   UNL     1       4.277  -5.098   9.193  1.00  0.00     0.131 A 
ENDROOT
BRANCH   6  18
ATOM     18  O   UNL     1      -0.744  -4.158   7.836  1.00  0.00    -0.507 OA
ATOM     19  H   UNL     1      -1.399  -4.345   8.583  1.00  0.00     0.293 HD
ENDBRANCH   6  18
BRANCH  17  20
ATOM     20  O   UNL     1       3.901  -4.117  10.114  1.00  0.00    -0.507 OA
ATOM     21  H   UNL     1       3.217  -3.399   9.917  1.00  0.00     0.293 HD
ENDBRANCH  17  20
BRANCH  15  22
ATOM     22  O   UNL     1       7.431  -6.773   8.205  1.00  0.00    -0.508 OA
ATOM     23  H   UNL     1       7.913  -6.973   7.336  1.00  0.00     0.293 HD
ENDBRANCH  15  22
TORSDOF 3
ENDMDL
MODEL 7
REMARK VINA RESULT:    -5.011     13.874     15.166
REMARK INTER + INTRA:          -5.450
REMARK INTER:                  -5.450
REMARK INTRA:                   0.000
REMARK UNBOUND:                 0.000
REMARK SMILES Cc1cc(O)c2c(c1)C(=O)c1cc(O)cc(O)c1C2=O
REMARK SMILES IDX 1 1 2 2 8 3 7 4 6 5 4 6 3 7 19 8 20 9 18 10 11 11 9 12 10 13
REMARK SMILES IDX 12 14 13 15 15 16 16 17 5 18 17 20 14 22
REMARK H PARENT 5 19 17 21 14 23
REMARK Flexibility Score: inf
ROOT
ATOM      1  C   UNL     1       5.468   6.399  -1.510  1.00  0.00     0.044 C 
ATOM      2  C   UNL     1       5.528   5.147  -2.333  1.00  0.00    -0.047 A 
ATOM      3  C   UNL     1       4.839   5.069  -3.548  1.00  0.00     0.016 A 
ATOM      4  C   UNL     1       4.912   3.911  -4.340  1.00  0.00     0.038 A 
ATOM      5  C   UNL     1       5.688   2.812  -3.910  1.00  0.00     0.076 A 
ATOM      6  C   UNL     1       6.452   2.929  -2.720  1.00  0.00     0.127 A 
ATOM      7  C   UNL     1       6.347   4.083  -1.938  1.00  0.00     0.050 A 
ATOM      8  C   UNL     1       5.623   1.553  -4.697  1.00  0.00     0.201 C 
ATOM      9  O   UNL     1       5.785   0.444  -4.121  1.00  0.00    -0.288 OA
ATOM     10  C   UNL     1       5.183   1.593  -6.116  1.00  0.00     0.076 A 
ATOM     11  C   UNL     1       4.409   2.695  -6.545  1.00  0.00     0.041 A 
ATOM     12  C   UNL     1       4.185   3.840  -5.630  1.00  0.00     0.194 C 
ATOM     13  O   UNL     1       3.394   4.766  -5.960  1.00  0.00    -0.289 OA
ATOM     14  C   UNL     1       3.860   2.703  -7.837  1.00  0.00     0.059 A 
ATOM     15  C   UNL     1       4.083   1.638  -8.710  1.00  0.00     0.120 A 
ATOM     16  C   UNL     1       4.882   0.564  -8.305  1.00  0.00     0.093 A 
ATOM     17  C   UNL     1       5.457   0.542  -7.031  1.00  0.00     0.131 A 
ENDROOT
BRANCH   6  18
ATOM     18  O   UNL     1       7.349   1.944  -2.298  1.00  0.00    -0.507 OA
ATOM     19  H   UNL     1       7.326   0.989  -2.629  1.00  0.00     0.293 HD
ENDBRANCH   6  18
BRANCH  17  20
ATOM     20  O   UNL     1       6.316  -0.517  -6.730  1.00  0.00    -0.507 OA
ATOM     21  H   UNL     1       6.857  -1.013  -7.426  1.00  0.00     0.293 HD
ENDBRANCH  17  20
BRANCH  15  22
ATOM     22  O   UNL     1       3.518   1.662  -9.983  1.00  0.00    -0.508 OA
ATOM     23  H   UNL     1       3.506   0.838 -10.573  1.00  0.00     0.293 HD
ENDBRANCH  15  22
TORSDOF 3
ENDMDL
MODEL 8
REMARK VINA RESULT:    -5.009     12.712     15.401
REMARK INTER + INTRA:          -5.448
REMARK INTER:                  -5.448
REMARK INTRA:                   0.000
REMARK UNBOUND:                 0.000
REMARK SMILES Cc1cc(O)c2c(c1)C(=O)c1cc(O)cc(O)c1C2=O
REMARK SMILES IDX 1 1 2 2 8 3 7 4 6 5 4 6 3 7 19 8 20 9 18 10 11 11 9 12 10 13
REMARK SMILES IDX 12 14 13 15 15 16 16 17 5 18 17 20 14 22
REMARK H PARENT 5 19 17 21 14 23
REMARK Flexibility Score: inf
ROOT
ATOM      1  C   UNL     1       4.607   2.583  -6.229  1.00  0.00     0.044 C 
ATOM      2  C   UNL     1       4.437   3.339  -4.944  1.00  0.00    -0.047 A 
ATOM      3  C   UNL     1       5.346   4.342  -4.592  1.00  0.00     0.016 A 
ATOM      4  C   UNL     1       5.178   5.076  -3.405  1.00  0.00     0.038 A 
ATOM      5  C   UNL     1       4.082   4.801  -2.557  1.00  0.00     0.076 A 
ATOM      6  C   UNL     1       3.119   3.842  -2.962  1.00  0.00     0.127 A 
ATOM      7  C   UNL     1       3.318   3.110  -4.136  1.00  0.00     0.050 A 
ATOM      8  C   UNL     1       4.020   5.491  -1.242  1.00  0.00     0.201 C 
ATOM      9  O   UNL     1       3.468   4.923  -0.262  1.00  0.00    -0.288 OA
ATOM     10  C   UNL     1       4.769   6.759  -1.039  1.00  0.00     0.076 A 
ATOM     11  C   UNL     1       5.863   7.032  -1.891  1.00  0.00     0.041 A 
ATOM     12  C   UNL     1       6.142   6.143  -3.043  1.00  0.00     0.194 C 
ATOM     13  O   UNL     1       7.186   6.309  -3.731  1.00  0.00    -0.289 OA
ATOM     14  C   UNL     1       6.678   8.149  -1.644  1.00  0.00     0.059 A 
ATOM     15  C   UNL     1       6.409   9.002  -0.573  1.00  0.00     0.120 A 
ATOM     16  C   UNL     1       5.304   8.758   0.248  1.00  0.00     0.093 A 
ATOM     17  C   UNL     1       4.465   7.664   0.011  1.00  0.00     0.131 A 
ENDROOT
BRANCH   6  18
ATOM     18  O   UNL     1       1.939   3.610  -2.250  1.00  0.00    -0.507 OA
ATOM     19  H   UNL     1       1.122   4.202  -2.316  1.00  0.00     0.293 HD
ENDBRANCH   6  18
BRANCH  17  20
ATOM     20  O   UNL     1       3.331   7.537   0.816  1.00  0.00    -0.507 OA
ATOM     21  H   UNL     1       3.093   8.187   1.553  1.00  0.00     0.293 HD
ENDBRANCH  17  20
BRANCH  15  22
ATOM     22  O   UNL     1       7.239  10.096  -0.341  1.00  0.00    -0.508 OA
ATOM     23  H   UNL     1       6.924  11.045  -0.509  1.00  0.00     0.293 HD
ENDBRANCH  15  22
TORSDOF 3
ENDMDL
MODEL 9
REMARK VINA RESULT:    -4.879     13.367     14.681
REMARK INTER + INTRA:          -5.307
REMARK INTER:                  -5.307
REMARK INTRA:                   0.000
REMARK UNBOUND:                 0.000
REMARK SMILES Cc1cc(O)c2c(c1)C(=O)c1cc(O)cc(O)c1C2=O
REMARK SMILES IDX 1 1 2 2 8 3 7 4 6 5 4 6 3 7 19 8 20 9 18 10 11 11 9 12 10 13
REMARK SMILES IDX 12 14 13 15 15 16 16 17 5 18 17 20 14 22
REMARK H PARENT 5 19 17 21 14 23
REMARK Flexibility Score: inf
ROOT
ATOM      1  C   UNL     1       3.951   3.750  -1.496  1.00  0.00     0.044 C 
ATOM      2  C   UNL     1       4.008   3.465  -2.968  1.00  0.00    -0.047 A 
ATOM      3  C   UNL     1       4.873   2.484  -3.462  1.00  0.00     0.016 A 
ATOM      4  C   UNL     1       4.913   2.189  -4.835  1.00  0.00     0.038 A 
ATOM      5  C   UNL     1       4.073   2.889  -5.729  1.00  0.00     0.076 A 
ATOM      6  C   UNL     1       3.138   3.823  -5.212  1.00  0.00     0.127 A 
ATOM      7  C   UNL     1       3.131   4.114  -3.845  1.00  0.00     0.050 A 
ATOM      8  C   UNL     1       4.248   2.658  -7.187  1.00  0.00     0.201 C 
ATOM      9  O   UNL     1       3.993   3.583  -8.004  1.00  0.00    -0.288 OA
ATOM     10  C   UNL     1       4.899   1.409  -7.662  1.00  0.00     0.076 A 
ATOM     11  C   UNL     1       5.737   0.709  -6.764  1.00  0.00     0.041 A 
ATOM     12  C   UNL     1       5.827   1.142  -5.349  1.00  0.00     0.194 C 
ATOM     13  O   UNL     1       6.666   0.601  -4.577  1.00  0.00    -0.289 OA
ATOM     14  C   UNL     1       6.476  -0.396  -7.216  1.00  0.00     0.059 A 
ATOM     15  C   UNL     1       6.380  -0.821  -8.541  1.00  0.00     0.120 A 
ATOM     16  C   UNL     1       5.522  -0.157  -9.423  1.00  0.00     0.093 A 
ATOM     17  C   UNL     1       4.759   0.934  -8.992  1.00  0.00     0.131 A 
ENDROOT
BRANCH   6  18
ATOM     18  O   UNL     1       2.181   4.455  -6.010  1.00  0.00    -0.507 OA
ATOM     19  H   UNL     1       1.664   5.273  -5.719  1.00  0.00     0.293 HD
ENDBRANCH   6  18
BRANCH  17  20
ATOM     20  O   UNL     1       3.857   1.489  -9.903  1.00  0.00    -0.507 OA
ATOM     21  H   UNL     1       3.998   2.383 -10.354  1.00  0.00     0.293 HD
ENDBRANCH  17  20
BRANCH  15  22
ATOM     22  O   UNL     1       7.132  -1.912  -8.970  1.00  0.00    -0.508 OA
ATOM     23  H   UNL     1       7.778  -1.838  -9.747  1.00  0.00     0.293 HD
ENDBRANCH  15  22
TORSDOF 3
ENDMDL
