MODEL 1
REMARK VINA RESULT:    -2.567      0.000      0.000
REMARK INTER + INTRA:          -3.036
REMARK INTER:                  -3.017
REMARK INTRA:                  -0.019
REMARK UNBOUND:                -0.019
REMARK SMILES CCCCC(=O)[O-]
REMARK SMILES IDX 4 1 5 2 6 3 7 4 3 5 2 6 1 7
REMARK H PARENT
REMARK Flexibility Score: inf
ROOT
ATOM      1  C   UNL     1      -8.583  22.079  17.393  1.00  0.00     0.053 C 
ENDROOT
BRANCH   1   2
ATOM      2  C   UNL     1      -8.395  22.191  18.874  1.00  0.00     0.041 C 
ATOM      3  O   UNL     1      -7.902  21.231  19.525  1.00  0.00    -0.550 OA
ATOM      4  O   UNL     1      -8.735  23.366  19.532  1.00  0.00    -0.550 OA
ENDBRANCH   1   2
BRANCH   1   5
ATOM      5  C   UNL     1      -7.631  21.045  16.768  1.00  0.00     0.006 C 
BRANCH   5   6
ATOM      6  C   UNL     1      -7.623  21.045  15.229  1.00  0.00    -0.003 C 
ATOM      7  C   UNL     1      -6.212  21.007  14.643  1.00  0.00     0.004 C 
ENDBRANCH   5   6
ENDBRANCH   1   5
TORSDOF 3
ENDMDL
MODEL 2
REMARK VINA RESULT:    -2.437      1.143      1.686
REMARK INTER + INTRA:          -2.883
REMARK INTER:                  -2.862
REMARK INTRA:                  -0.021
REMARK UNBOUND:                -0.019
REMARK SMILES CCCCC(=O)[O-]
REMARK SMILES IDX 4 1 5 2 6 3 7 4 3 5 2 6 1 7
REMARK H PARENT
REMARK Flexibility Score: inf
ROOT
ATOM      1  C   UNL     1      -8.077  21.310  18.141  1.00  0.00     0.053 C 
ENDROOT
BRANCH   1   2
ATOM      2  C   UNL     1      -7.330  21.248  19.438  1.00  0.00     0.041 C 
ATOM      3  O   UNL     1      -7.851  21.702  20.491  1.00  0.00    -0.550 OA
ATOM      4  O   UNL     1      -6.073  20.659  19.490  1.00  0.00    -0.550 OA
ENDBRANCH   1   2
BRANCH   1   5
ATOM      5  C   UNL     1      -7.337  20.569  17.015  1.00  0.00     0.006 C 
BRANCH   5   6
ATOM      6  C   UNL     1      -7.630  21.111  15.605  1.00  0.00    -0.003 C 
ATOM      7  C   UNL     1      -6.396  21.120  14.704  1.00  0.00     0.004 C 
ENDBRANCH   5   6
ENDBRANCH   1   5
TORSDOF 3
ENDMDL
MODEL 3
REMARK VINA RESULT:    -2.201      2.323      4.032
REMARK INTER + INTRA:          -2.606
REMARK INTER:                  -2.559
REMARK INTRA:                  -0.047
REMARK UNBOUND:                -0.019
REMARK SMILES CCCCC(=O)[O-]
REMARK SMILES IDX 4 1 5 2 6 3 7 4 3 5 2 6 1 7
REMARK H PARENT
REMARK Flexibility Score: inf
ROOT
ATOM      1  C   UNL     1      -8.780  21.215  16.736  1.00  0.00     0.053 C 
ENDROOT
BRANCH   1   2
ATOM      2  C   UNL     1      -7.437  20.889  16.159  1.00  0.00     0.041 C 
ATOM      3  O   UNL     1      -6.575  20.292  16.857  1.00  0.00    -0.550 OA
ATOM      4  O   UNL     1      -7.148  21.217  14.840  1.00  0.00    -0.550 OA
ENDBRANCH   1   2
BRANCH   1   5
ATOM      5  C   UNL     1      -8.760  22.531  17.531  1.00  0.00     0.006 C 
BRANCH   5   6
ATOM      6  C   UNL     1      -8.723  22.345  19.058  1.00  0.00    -0.003 C 
ATOM      7  C   UNL     1      -9.125  23.607  19.820  1.00  0.00     0.004 C 
ENDBRANCH   5   6
ENDBRANCH   1   5
TORSDOF 3
ENDMDL
MODEL 4
REMARK VINA RESULT:    -2.099     14.123     15.385
REMARK INTER + INTRA:          -2.486
REMARK INTER:                  -2.441
REMARK INTRA:                  -0.045
REMARK UNBOUND:                -0.019
REMARK SMILES CCCCC(=O)[O-]
REMARK SMILES IDX 4 1 5 2 6 3 7 4 3 5 2 6 1 7
REMARK H PARENT
REMARK Flexibility Score: inf
ROOT
ATOM      1  C   UNL     1       7.134  20.209  15.977  1.00  0.00     0.053 C 
ENDROOT
BRANCH   1   2
ATOM      2  C   UNL     1       5.879  20.991  15.741  1.00  0.00     0.041 C 
ATOM      3  O   UNL     1       5.404  21.719  16.652  1.00  0.00    -0.550 OA
ATOM      4  O   UNL     1       5.250  20.940  14.503  1.00  0.00    -0.550 OA
ENDBRANCH   1   2
BRANCH   1   5
ATOM      5  C   UNL     1       7.912  19.961  14.675  1.00  0.00     0.006 C 
BRANCH   5   6
ATOM      6  C   UNL     1       9.221  20.763  14.560  1.00  0.00    -0.003 C 
ATOM      7  C   UNL     1       9.387  21.437  13.199  1.00  0.00     0.004 C 
ENDBRANCH   5   6
ENDBRANCH   1   5
TORSDOF 3
ENDMDL
MODEL 5
REMARK VINA RESULT:    -2.017     14.240     15.507
REMARK INTER + INTRA:          -2.390
REMARK INTER:                  -2.350
REMARK INTRA:                  -0.040
REMARK UNBOUND:                -0.019
REMARK SMILES CCCCC(=O)[O-]
REMARK SMILES IDX 4 1 5 2 6 3 7 4 3 5 2 6 1 7
REMARK H PARENT
REMARK Flexibility Score: inf
ROOT
ATOM      1  C   UNL     1       7.250  20.166  15.812  1.00  0.00     0.053 C 
ENDROOT
BRANCH   1   2
ATOM      2  C   UNL     1       5.929  20.813  15.526  1.00  0.00     0.041 C 
ATOM      3  O   UNL     1       5.416  20.723  14.379  1.00  0.00    -0.550 OA
ATOM      4  O   UNL     1       5.252  21.487  16.533  1.00  0.00    -0.550 OA
ENDBRANCH   1   2
BRANCH   1   5
ATOM      5  C   UNL     1       8.103  20.013  14.542  1.00  0.00     0.006 C 
BRANCH   5   6
ATOM      6  C   UNL     1       9.377  20.877  14.531  1.00  0.00    -0.003 C 
ATOM      7  C   UNL     1       9.609  21.574  13.191  1.00  0.00     0.004 C 
ENDBRANCH   5   6
ENDBRANCH   1   5
TORSDOF 3
ENDMDL
MODEL 6
REMARK VINA RESULT:    -1.994      2.171      2.973
REMARK INTER + INTRA:          -2.362
REMARK INTER:                  -2.270
REMARK INTRA:                  -0.093
REMARK UNBOUND:                -0.019
REMARK SMILES CCCCC(=O)[O-]
REMARK SMILES IDX 4 1 5 2 6 3 7 4 3 5 2 6 1 7
REMARK H PARENT
REMARK Flexibility Score: inf
ROOT
ATOM      1  C   UNL     1      -7.734  22.079  19.950  1.00  0.00     0.053 C 
ENDROOT
BRANCH   1   2
ATOM      2  C   UNL     1      -8.126  21.038  20.954  1.00  0.00     0.041 C 
ATOM      3  O   UNL     1      -8.659  19.962  20.575  1.00  0.00    -0.550 OA
ATOM      4  O   UNL     1      -7.873  21.245  22.304  1.00  0.00    -0.550 OA
ENDBRANCH   1   2
BRANCH   1   5
ATOM      5  C   UNL     1      -8.960  22.731  19.290  1.00  0.00     0.006 C 
BRANCH   5   6
ATOM      6  C   UNL     1      -8.894  22.784  17.753  1.00  0.00    -0.003 C 
ATOM      7  C   UNL     1      -8.257  21.536  17.142  1.00  0.00     0.004 C 
ENDBRANCH   5   6
ENDBRANCH   1   5
TORSDOF 3
ENDMDL
MODEL 7
REMARK VINA RESULT:    -1.926     15.576     16.908
REMARK INTER + INTRA:          -2.283
REMARK INTER:                  -2.234
REMARK INTRA:                  -0.049
REMARK UNBOUND:                -0.019
REMARK SMILES CCCCC(=O)[O-]
REMARK SMILES IDX 4 1 5 2 6 3 7 4 3 5 2 6 1 7
REMARK H PARENT
REMARK Flexibility Score: inf
ROOT
ATOM      1  C   UNL     1       8.233  20.626  13.744  1.00  0.00     0.053 C 
ENDROOT
BRANCH   1   2
ATOM      2  C   UNL     1       9.537  21.362  13.772  1.00  0.00     0.041 C 
ATOM      3  O   UNL     1      10.253  21.344  14.808  1.00  0.00    -0.550 OA
ATOM      4  O   UNL     1       9.976  22.041  12.643  1.00  0.00    -0.550 OA
ENDBRANCH   1   2
BRANCH   1   5
ATOM      5  C   UNL     1       7.968  19.875  15.060  1.00  0.00     0.006 C 
BRANCH   5   6
ATOM      6  C   UNL     1       7.034  20.618  16.033  1.00  0.00    -0.003 C 
ATOM      7  C   UNL     1       5.588  20.672  15.542  1.00  0.00     0.004 C 
ENDBRANCH   5   6
ENDBRANCH   1   5
TORSDOF 3
ENDMDL
MODEL 8
REMARK VINA RESULT:    -1.871     17.708     18.716
REMARK INTER + INTRA:          -2.218
REMARK INTER:                  -2.168
REMARK INTRA:                  -0.050
REMARK UNBOUND:                -0.019
REMARK SMILES CCCCC(=O)[O-]
REMARK SMILES IDX 4 1 5 2 6 3 7 4 3 5 2 6 1 7
REMARK H PARENT
REMARK Flexibility Score: inf
ROOT
ATOM      1  C   UNL     1      10.833  21.179  13.007  1.00  0.00     0.053 C 
ENDROOT
BRANCH   1   2
ATOM      2  C   UNL     1       9.445  20.961  13.524  1.00  0.00     0.041 C 
ATOM      3  O   UNL     1       8.503  20.711  12.725  1.00  0.00    -0.550 OA
ATOM      4  O   UNL     1       9.196  21.004  14.889  1.00  0.00    -0.550 OA
ENDBRANCH   1   2
BRANCH   1   5
ATOM      5  C   UNL     1      10.881  22.276  11.931  1.00  0.00     0.006 C 
BRANCH   5   6
ATOM      6  C   UNL     1      11.076  23.698  12.489  1.00  0.00    -0.003 C 
ATOM      7  C   UNL     1      10.706  24.786  11.482  1.00  0.00     0.004 C 
ENDBRANCH   5   6
ENDBRANCH   1   5
TORSDOF 3
ENDMDL
MODEL 9
REMARK VINA RESULT:    -1.759     19.480     20.074
REMARK INTER + INTRA:          -2.087
REMARK INTER:                  -2.066
REMARK INTRA:                  -0.020
REMARK UNBOUND:                -0.019
REMARK SMILES CCCCC(=O)[O-]
REMARK SMILES IDX 4 1 5 2 6 3 7 4 3 5 2 6 1 7
REMARK H PARENT
REMARK Flexibility Score: inf
ROOT
ATOM      1  C   UNL     1      10.778  21.863   8.875  1.00  0.00     0.053 C 
ENDROOT
BRANCH   1   2
ATOM      2  C   UNL     1       9.758  20.784   9.069  1.00  0.00     0.041 C 
ATOM      3  O   UNL     1       8.968  20.483   8.135  1.00  0.00    -0.550 OA
ATOM      4  O   UNL     1       9.701  20.089  10.270  1.00  0.00    -0.550 OA
ENDBRANCH   1   2
BRANCH   1   5
ATOM      5  C   UNL     1      11.125  22.571  10.195  1.00  0.00     0.006 C 
BRANCH   5   6
ATOM      6  C   UNL     1      11.042  24.107  10.127  1.00  0.00    -0.003 C 
ATOM      7  C   UNL     1      10.796  24.748  11.492  1.00  0.00     0.004 C 
ENDBRANCH   5   6
ENDBRANCH   1   5
TORSDOF 3
ENDMDL
