MODEL 1
REMARK VINA RESULT:    -7.423      0.000      0.000
REMARK INTER + INTRA:          -8.238
REMARK INTER:                  -8.725
REMARK INTRA:                   0.487
REMARK UNBOUND:                 0.487
REMARK SMILES O=c1c(O)c(-c2ccc(O)cc2)oc2cc(O)cc(O)c12
REMARK SMILES IDX 5 1 3 2 2 3 1 4 21 5 19 6 18 7 16 8 15 9 14 10 13 11 6 12
REMARK SMILES IDX 7 13 8 14 9 15 12 16 11 17 10 18 4 20 20 22 17 24
REMARK H PARENT 10 19 4 21 20 23 17 25
REMARK Flexibility Score: inf
ROOT
ATOM      1  C   UNL     1      16.369  29.940  23.823  1.00  0.00     0.180 A 
ATOM      2  C   UNL     1      16.302  31.238  23.282  1.00  0.00     0.208 A 
ATOM      3  C   UNL     1      15.367  31.502  22.268  1.00  0.00     0.238 A 
ATOM      4  O   UNL     1      15.290  32.664  21.783  1.00  0.00    -0.285 OA
ATOM      5  C   UNL     1      14.534  30.465  21.801  1.00  0.00     0.111 A 
ATOM      6  C   UNL     1      13.570  30.648  20.781  1.00  0.00     0.134 A 
ATOM      7  C   UNL     1      12.784  29.563  20.364  1.00  0.00     0.093 A 
ATOM      8  C   UNL     1      12.945  28.301  20.948  1.00  0.00     0.123 A 
ATOM      9  C   UNL     1      13.895  28.117  21.953  1.00  0.00     0.094 A 
ATOM     10  C   UNL     1      14.686  29.185  22.384  1.00  0.00     0.146 A 
ATOM     11  O   UNL     1      15.578  28.983  23.347  1.00  0.00    -0.452 OA
ENDROOT
BRANCH   1  12
ATOM     12  C   UNL     1      17.315  29.588  24.907  1.00  0.00     0.021 A 
ATOM     13  C   UNL     1      17.670  28.252  25.165  1.00  0.00     0.016 A 
ATOM     14  C   UNL     1      18.584  27.947  26.178  1.00  0.00     0.047 A 
ATOM     15  C   UNL     1      19.164  28.972  26.937  1.00  0.00     0.115 A 
ATOM     16  C   UNL     1      17.917  30.612  25.658  1.00  0.00     0.016 A 
ATOM     17  C   UNL     1      18.830  30.304  26.672  1.00  0.00     0.047 A 
BRANCH  15  18
ATOM     18  O   UNL     1      20.074  28.680  27.950  1.00  0.00    -0.508 OA
ATOM     19  H   UNL     1      20.751  29.364  28.267  1.00  0.00     0.293 HD
ENDBRANCH  15  18
ENDBRANCH   1  12
BRANCH   2  20
ATOM     20  O   UNL     1      17.173  32.236  23.728  1.00  0.00    -0.502 OA
ATOM     21  H   UNL     1      18.143  32.279  23.438  1.00  0.00     0.293 HD
ENDBRANCH   2  20
BRANCH   6  22
ATOM     22  O   UNL     1      13.386  31.894  20.180  1.00  0.00    -0.507 OA
ATOM     23  H   UNL     1      12.462  32.260  19.981  1.00  0.00     0.293 HD
ENDBRANCH   6  22
BRANCH   8  24
ATOM     24  O   UNL     1      12.166  27.223  20.533  1.00  0.00    -0.508 OA
ATOM     25  H   UNL     1      11.452  26.824  21.131  1.00  0.00     0.293 HD
ENDBRANCH   8  24
TORSDOF 5
ENDMDL
MODEL 2
REMARK VINA RESULT:    -7.396      5.514      7.270
REMARK INTER + INTRA:          -8.206
REMARK INTER:                  -7.923
REMARK INTRA:                  -0.283
REMARK UNBOUND:                 0.487
REMARK SMILES O=c1c(O)c(-c2ccc(O)cc2)oc2cc(O)cc(O)c12
REMARK SMILES IDX 5 1 3 2 2 3 1 4 21 5 19 6 18 7 16 8 15 9 14 10 13 11 6 12
REMARK SMILES IDX 7 13 8 14 9 15 12 16 11 17 10 18 4 20 20 22 17 24
REMARK H PARENT 10 19 4 21 20 23 17 25
REMARK Flexibility Score: inf
ROOT
ATOM      1  C   UNL     1      11.743  32.591  21.427  1.00  0.00     0.180 A 
ATOM      2  C   UNL     1      10.555  32.900  20.738  1.00  0.00     0.208 A 
ATOM      3  C   UNL     1       9.377  33.104  21.475  1.00  0.00     0.238 A 
ATOM      4  O   UNL     1       8.309  33.392  20.870  1.00  0.00    -0.285 OA
ATOM      5  C   UNL     1       9.403  32.975  22.878  1.00  0.00     0.111 A 
ATOM      6  C   UNL     1       8.259  33.160  23.693  1.00  0.00     0.134 A 
ATOM      7  C   UNL     1       8.363  33.005  25.083  1.00  0.00     0.093 A 
ATOM      8  C   UNL     1       9.588  32.669  25.673  1.00  0.00     0.123 A 
ATOM      9  C   UNL     1      10.717  32.486  24.873  1.00  0.00     0.094 A 
ATOM     10  C   UNL     1      10.634  32.638  23.487  1.00  0.00     0.146 A 
ATOM     11  O   UNL     1      11.726  32.463  22.751  1.00  0.00    -0.452 OA
ENDROOT
BRANCH   1  12
ATOM     12  C   UNL     1      13.029  32.382  20.722  1.00  0.00     0.021 A 
ATOM     13  C   UNL     1      13.455  31.097  20.339  1.00  0.00     0.016 A 
ATOM     14  C   UNL     1      14.661  30.928  19.653  1.00  0.00     0.047 A 
ATOM     15  C   UNL     1      15.451  32.039  19.331  1.00  0.00     0.115 A 
ATOM     16  C   UNL     1      13.816  33.493  20.377  1.00  0.00     0.016 A 
ATOM     17  C   UNL     1      15.023  33.321  19.692  1.00  0.00     0.047 A 
BRANCH  15  18
ATOM     18  O   UNL     1      16.656  31.882  18.649  1.00  0.00    -0.508 OA
ATOM     19  H   UNL     1      16.891  32.461  17.851  1.00  0.00     0.293 HD
ENDBRANCH  15  18
ENDBRANCH   1  12
BRANCH   2  20
ATOM     20  O   UNL     1      10.546  32.974  19.342  1.00  0.00    -0.502 OA
ATOM     21  H   UNL     1      10.327  32.176  18.759  1.00  0.00     0.293 HD
ENDBRANCH   2  20
BRANCH   6  22
ATOM     22  O   UNL     1       7.025  33.494  23.134  1.00  0.00    -0.507 OA
ATOM     23  H   UNL     1       6.378  34.118  23.604  1.00  0.00     0.293 HD
ENDBRANCH   6  22
BRANCH   8  24
ATOM     24  O   UNL     1       9.692  32.514  27.054  1.00  0.00    -0.508 OA
ATOM     25  H   UNL     1      10.541  32.755  27.551  1.00  0.00     0.293 HD
ENDBRANCH   8  24
TORSDOF 5
ENDMDL
MODEL 3
REMARK VINA RESULT:    -7.223      5.455      8.076
REMARK INTER + INTRA:          -8.003
REMARK INTER:                  -7.743
REMARK INTRA:                  -0.260
REMARK UNBOUND:                 0.487
REMARK SMILES O=c1c(O)c(-c2ccc(O)cc2)oc2cc(O)cc(O)c12
REMARK SMILES IDX 5 1 3 2 2 3 1 4 21 5 19 6 18 7 16 8 15 9 14 10 13 11 6 12
REMARK SMILES IDX 7 13 8 14 9 15 12 16 11 17 10 18 4 20 20 22 17 24
REMARK H PARENT 10 19 4 21 20 23 17 25
REMARK Flexibility Score: inf
ROOT
ATOM      1  C   UNL     1      10.203  33.161  21.932  1.00  0.00     0.180 A 
ATOM      2  C   UNL     1       9.770  33.764  20.736  1.00  0.00     0.208 A 
ATOM      3  C   UNL     1      10.727  34.119  19.771  1.00  0.00     0.238 A 
ATOM      4  O   UNL     1      10.350  34.651  18.691  1.00  0.00    -0.285 OA
ATOM      5  C   UNL     1      12.093  33.887  20.027  1.00  0.00     0.111 A 
ATOM      6  C   UNL     1      13.119  34.220  19.109  1.00  0.00     0.134 A 
ATOM      7  C   UNL     1      14.458  33.965  19.441  1.00  0.00     0.093 A 
ATOM      8  C   UNL     1      14.789  33.384  20.670  1.00  0.00     0.123 A 
ATOM      9  C   UNL     1      13.781  33.055  21.577  1.00  0.00     0.094 A 
ATOM     10  C   UNL     1      12.441  33.299  21.265  1.00  0.00     0.146 A 
ATOM     11  O   UNL     1      11.502  32.970  22.145  1.00  0.00    -0.452 OA
ENDROOT
BRANCH   1  12
ATOM     12  C   UNL     1       9.254  32.739  22.989  1.00  0.00     0.021 A 
ATOM     13  C   UNL     1       8.491  31.564  22.863  1.00  0.00     0.016 A 
ATOM     14  C   UNL     1       7.621  31.175  23.885  1.00  0.00     0.047 A 
ATOM     15  C   UNL     1       7.511  31.946  25.050  1.00  0.00     0.115 A 
ATOM     16  C   UNL     1       9.154  33.496  24.168  1.00  0.00     0.016 A 
ATOM     17  C   UNL     1       8.281  33.105  25.189  1.00  0.00     0.047 A 
BRANCH  15  18
ATOM     18  O   UNL     1       6.645  31.569  26.074  1.00  0.00    -0.508 OA
ATOM     19  H   UNL     1       6.261  30.632  26.124  1.00  0.00     0.293 HD
ENDBRANCH  15  18
ENDBRANCH   1  12
BRANCH   2  20
ATOM     20  O   UNL     1       8.414  34.029  20.529  1.00  0.00    -0.502 OA
ATOM     21  H   UNL     1       7.946  34.822  20.949  1.00  0.00     0.293 HD
ENDBRANCH   2  20
BRANCH   6  22
ATOM     22  O   UNL     1      12.820  34.800  17.876  1.00  0.00    -0.507 OA
ATOM     23  H   UNL     1      11.964  35.322  17.726  1.00  0.00     0.293 HD
ENDBRANCH   6  22
BRANCH   8  24
ATOM     24  O   UNL     1      16.120  33.131  21.001  1.00  0.00    -0.508 OA
ATOM     25  H   UNL     1      16.747  33.876  21.278  1.00  0.00     0.293 HD
ENDBRANCH   8  24
TORSDOF 5
ENDMDL
MODEL 4
REMARK VINA RESULT:    -7.158      2.724      3.926
REMARK INTER + INTRA:          -7.926
REMARK INTER:                  -7.820
REMARK INTRA:                  -0.106
REMARK UNBOUND:                 0.487
REMARK SMILES O=c1c(O)c(-c2ccc(O)cc2)oc2cc(O)cc(O)c12
REMARK SMILES IDX 5 1 3 2 2 3 1 4 21 5 19 6 18 7 16 8 15 9 14 10 13 11 6 12
REMARK SMILES IDX 7 13 8 14 9 15 12 16 11 17 10 18 4 20 20 22 17 24
REMARK H PARENT 10 19 4 21 20 23 17 25
REMARK Flexibility Score: inf
ROOT
ATOM      1  C   UNL     1      14.534  31.641  22.336  1.00  0.00     0.180 A 
ATOM      2  C   UNL     1      14.750  32.103  21.023  1.00  0.00     0.208 A 
ATOM      3  C   UNL     1      13.693  32.726  20.341  1.00  0.00     0.238 A 
ATOM      4  O   UNL     1      13.877  33.153  19.169  1.00  0.00    -0.285 OA
ATOM      5  C   UNL     1      12.439  32.858  20.972  1.00  0.00     0.111 A 
ATOM      6  C   UNL     1      11.322  33.470  20.352  1.00  0.00     0.134 A 
ATOM      7  C   UNL     1      10.103  33.555  21.042  1.00  0.00     0.093 A 
ATOM      8  C   UNL     1       9.982  33.041  22.338  1.00  0.00     0.123 A 
ATOM      9  C   UNL     1      11.080  32.437  22.952  1.00  0.00     0.094 A 
ATOM     10  C   UNL     1      12.303  32.344  22.282  1.00  0.00     0.146 A 
ATOM     11  O   UNL     1      13.333  31.770  22.893  1.00  0.00    -0.452 OA
ENDROOT
BRANCH   1  12
ATOM     12  C   UNL     1      15.604  30.991  23.127  1.00  0.00     0.021 A 
ATOM     13  C   UNL     1      16.806  31.658  23.422  1.00  0.00     0.016 A 
ATOM     14  C   UNL     1      17.791  31.033  24.192  1.00  0.00     0.047 A 
ATOM     15  C   UNL     1      17.582  29.739  24.688  1.00  0.00     0.115 A 
ATOM     16  C   UNL     1      15.393  29.702  23.646  1.00  0.00     0.016 A 
ATOM     17  C   UNL     1      16.381  29.078  24.415  1.00  0.00     0.047 A 
BRANCH  15  18
ATOM     18  O   UNL     1      18.557  29.105  25.455  1.00  0.00    -0.508 OA
ATOM     19  H   UNL     1      19.544  29.216  25.253  1.00  0.00     0.293 HD
ENDBRANCH  15  18
ENDBRANCH   1  12
BRANCH   2  20
ATOM     20  O   UNL     1      15.988  31.915  20.403  1.00  0.00    -0.502 OA
ATOM     21  H   UNL     1      16.820  32.416  20.691  1.00  0.00     0.293 HD
ENDBRANCH   2  20
BRANCH   6  22
ATOM     22  O   UNL     1      11.413  33.991  19.061  1.00  0.00    -0.507 OA
ATOM     23  H   UNL     1      12.100  34.695  18.817  1.00  0.00     0.293 HD
ENDBRANCH   6  22
BRANCH   8  24
ATOM     24  O   UNL     1       8.772  33.125  23.024  1.00  0.00    -0.508 OA
ATOM     25  H   UNL     1       8.504  32.432  23.713  1.00  0.00     0.293 HD
ENDBRANCH   8  24
TORSDOF 5
ENDMDL
MODEL 5
REMARK VINA RESULT:    -7.042      5.313      7.608
REMARK INTER + INTRA:          -7.790
REMARK INTER:                  -7.502
REMARK INTRA:                  -0.288
REMARK UNBOUND:                 0.487
REMARK SMILES O=c1c(O)c(-c2ccc(O)cc2)oc2cc(O)cc(O)c12
REMARK SMILES IDX 5 1 3 2 2 3 1 4 21 5 19 6 18 7 16 8 15 9 14 10 13 11 6 12
REMARK SMILES IDX 7 13 8 14 9 15 12 16 11 17 10 18 4 20 20 22 17 24
REMARK H PARENT 10 19 4 21 20 23 17 25
REMARK Flexibility Score: inf
ROOT
ATOM      1  C   UNL     1      12.279  32.784  21.157  1.00  0.00     0.180 A 
ATOM      2  C   UNL     1      12.840  31.509  20.952  1.00  0.00     0.208 A 
ATOM      3  C   UNL     1      13.992  31.395  20.157  1.00  0.00     0.238 A 
ATOM      4  O   UNL     1      14.510  30.260  19.974  1.00  0.00    -0.285 OA
ATOM      5  C   UNL     1      14.547  32.549  19.566  1.00  0.00     0.111 A 
ATOM      6  C   UNL     1      15.702  32.519  18.749  1.00  0.00     0.134 A 
ATOM      7  C   UNL     1      16.189  33.710  18.189  1.00  0.00     0.093 A 
ATOM      8  C   UNL     1      15.543  34.927  18.431  1.00  0.00     0.123 A 
ATOM      9  C   UNL     1      14.404  34.960  19.237  1.00  0.00     0.094 A 
ATOM     10  C   UNL     1      13.904  33.786  19.805  1.00  0.00     0.146 A 
ATOM     11  O   UNL     1      12.822  33.848  20.572  1.00  0.00    -0.452 OA
ENDROOT
BRANCH   1  12
ATOM     12  C   UNL     1      11.077  32.988  21.999  1.00  0.00     0.021 A 
ATOM     13  C   UNL     1       9.783  32.971  21.447  1.00  0.00     0.016 A 
ATOM     14  C   UNL     1       8.664  33.141  22.266  1.00  0.00     0.047 A 
ATOM     15  C   UNL     1       8.820  33.318  23.647  1.00  0.00     0.115 A 
ATOM     16  C   UNL     1      11.225  33.144  23.388  1.00  0.00     0.016 A 
ATOM     17  C   UNL     1      10.103  33.316  24.205  1.00  0.00     0.047 A 
BRANCH  15  18
ATOM     18  O   UNL     1       7.711  33.491  24.473  1.00  0.00    -0.508 OA
ATOM     19  H   UNL     1       6.862  32.956  24.336  1.00  0.00     0.293 HD
ENDBRANCH  15  18
ENDBRANCH   1  12
BRANCH   2  20
ATOM     20  O   UNL     1      12.241  30.375  21.509  1.00  0.00    -0.502 OA
ATOM     21  H   UNL     1      11.604  29.787  20.986  1.00  0.00     0.293 HD
ENDBRANCH   2  20
BRANCH   6  22
ATOM     22  O   UNL     1      16.368  31.321  18.488  1.00  0.00    -0.507 OA
ATOM     23  H   UNL     1      16.140  30.748  17.683  1.00  0.00     0.293 HD
ENDBRANCH   6  22
BRANCH   8  24
ATOM     24  O   UNL     1      16.025  36.110  17.875  1.00  0.00    -0.508 OA
ATOM     25  H   UNL     1      16.559  36.112  17.014  1.00  0.00     0.293 HD
ENDBRANCH   8  24
TORSDOF 5
ENDMDL
MODEL 6
REMARK VINA RESULT:    -6.981      2.742      4.279
REMARK INTER + INTRA:          -7.718
REMARK INTER:                  -7.530
REMARK INTRA:                  -0.188
REMARK UNBOUND:                 0.487
REMARK SMILES O=c1c(O)c(-c2ccc(O)cc2)oc2cc(O)cc(O)c12
REMARK SMILES IDX 5 1 3 2 2 3 1 4 21 5 19 6 18 7 16 8 15 9 14 10 13 11 6 12
REMARK SMILES IDX 7 13 8 14 9 15 12 16 11 17 10 18 4 20 20 22 17 24
REMARK H PARENT 10 19 4 21 20 23 17 25
REMARK Flexibility Score: inf
ROOT
ATOM      1  C   UNL     1      14.073  30.935  22.299  1.00  0.00     0.180 A 
ATOM      2  C   UNL     1      13.765  30.234  21.118  1.00  0.00     0.208 A 
ATOM      3  C   UNL     1      12.588  30.560  20.425  1.00  0.00     0.238 A 
ATOM      4  O   UNL     1      12.306  29.947  19.359  1.00  0.00    -0.285 OA
ATOM      5  C   UNL     1      11.734  31.560  20.933  1.00  0.00     0.111 A 
ATOM      6  C   UNL     1      10.528  31.943  20.297  1.00  0.00     0.134 A 
ATOM      7  C   UNL     1       9.726  32.941  20.871  1.00  0.00     0.093 A 
ATOM      8  C   UNL     1      10.108  33.561  22.066  1.00  0.00     0.123 A 
ATOM      9  C   UNL     1      11.295  33.186  22.696  1.00  0.00     0.094 A 
ATOM     10  C   UNL     1      12.108  32.195  22.140  1.00  0.00     0.146 A 
ATOM     11  O   UNL     1      13.236  31.862  22.757  1.00  0.00    -0.452 OA
ENDROOT
BRANCH   1  12
ATOM     12  C   UNL     1      15.305  30.663  23.076  1.00  0.00     0.021 A 
ATOM     13  C   UNL     1      16.353  31.599  23.140  1.00  0.00     0.016 A 
ATOM     14  C   UNL     1      17.495  31.330  23.900  1.00  0.00     0.047 A 
ATOM     15  C   UNL     1      17.600  30.130  24.615  1.00  0.00     0.115 A 
ATOM     16  C   UNL     1      15.408  29.472  23.813  1.00  0.00     0.016 A 
ATOM     17  C   UNL     1      16.553  29.204  24.572  1.00  0.00     0.047 A 
BRANCH  15  18
ATOM     18  O   UNL     1      18.734  29.851  25.374  1.00  0.00    -0.508 OA
ATOM     19  H   UNL     1      19.141  28.923  25.394  1.00  0.00     0.293 HD
ENDBRANCH  15  18
ENDBRANCH   1  12
BRANCH   2  20
ATOM     20  O   UNL     1      14.604  29.214  20.662  1.00  0.00    -0.502 OA
ATOM     21  H   UNL     1      15.054  29.246  19.755  1.00  0.00     0.293 HD
ENDBRANCH   2  20
BRANCH   6  22
ATOM     22  O   UNL     1      10.121  31.343  19.105  1.00  0.00    -0.507 OA
ATOM     23  H   UNL     1      10.703  30.667  18.623  1.00  0.00     0.293 HD
ENDBRANCH   6  22
BRANCH   8  24
ATOM     24  O   UNL     1       9.311  34.552  22.637  1.00  0.00    -0.508 OA
ATOM     25  H   UNL     1       9.475  34.886  23.580  1.00  0.00     0.293 HD
ENDBRANCH   8  24
TORSDOF 5
ENDMDL
MODEL 7
REMARK VINA RESULT:    -6.881      5.006      6.301
REMARK INTER + INTRA:          -7.601
REMARK INTER:                  -7.305
REMARK INTRA:                  -0.297
REMARK UNBOUND:                 0.487
REMARK SMILES O=c1c(O)c(-c2ccc(O)cc2)oc2cc(O)cc(O)c12
REMARK SMILES IDX 5 1 3 2 2 3 1 4 21 5 19 6 18 7 16 8 15 9 14 10 13 11 6 12
REMARK SMILES IDX 7 13 8 14 9 15 12 16 11 17 10 18 4 20 20 22 17 24
REMARK H PARENT 10 19 4 21 20 23 17 25
REMARK Flexibility Score: inf
ROOT
ATOM      1  C   UNL     1      12.236  31.747  21.632  1.00  0.00     0.180 A 
ATOM      2  C   UNL     1      13.447  32.235  21.106  1.00  0.00     0.208 A 
ATOM      3  C   UNL     1      14.221  31.391  20.293  1.00  0.00     0.238 A 
ATOM      4  O   UNL     1      15.303  31.819  19.807  1.00  0.00    -0.285 OA
ATOM      5  C   UNL     1      13.783  30.075  20.038  1.00  0.00     0.111 A 
ATOM      6  C   UNL     1      14.505  29.162  19.233  1.00  0.00     0.134 A 
ATOM      7  C   UNL     1      14.008  27.866  19.034  1.00  0.00     0.093 A 
ATOM      8  C   UNL     1      12.802  27.467  19.624  1.00  0.00     0.123 A 
ATOM      9  C   UNL     1      12.087  28.364  20.418  1.00  0.00     0.094 A 
ATOM     10  C   UNL     1      12.565  29.661  20.627  1.00  0.00     0.146 A 
ATOM     11  O   UNL     1      11.862  30.496  21.382  1.00  0.00    -0.452 OA
ENDROOT
BRANCH   1  12
ATOM     12  C   UNL     1      11.355  32.582  22.482  1.00  0.00     0.021 A 
ATOM     13  C   UNL     1      10.400  33.448  21.920  1.00  0.00     0.016 A 
ATOM     14  C   UNL     1       9.563  34.207  22.744  1.00  0.00     0.047 A 
ATOM     15  C   UNL     1       9.661  34.102  24.137  1.00  0.00     0.115 A 
ATOM     16  C   UNL     1      11.433  32.466  23.880  1.00  0.00     0.016 A 
ATOM     17  C   UNL     1      10.596  33.228  24.702  1.00  0.00     0.047 A 
BRANCH  15  18
ATOM     18  O   UNL     1       8.834  34.855  24.968  1.00  0.00    -0.508 OA
ATOM     19  H   UNL     1       9.179  35.674  25.454  1.00  0.00     0.293 HD
ENDBRANCH  15  18
ENDBRANCH   1  12
BRANCH   2  20
ATOM     20  O   UNL     1      13.883  33.526  21.415  1.00  0.00    -0.502 OA
ATOM     21  H   UNL     1      14.122  33.807  22.358  1.00  0.00     0.293 HD
ENDBRANCH   2  20
BRANCH   6  22
ATOM     22  O   UNL     1      15.710  29.530  18.632  1.00  0.00    -0.507 OA
ATOM     23  H   UNL     1      15.751  29.846  17.669  1.00  0.00     0.293 HD
ENDBRANCH   6  22
BRANCH   8  24
ATOM     24  O   UNL     1      12.308  26.179  19.427  1.00  0.00    -0.508 OA
ATOM     25  H   UNL     1      12.926  25.393  19.265  1.00  0.00     0.293 HD
ENDBRANCH   8  24
TORSDOF 5
ENDMDL
MODEL 8
REMARK VINA RESULT:    -6.741      5.940      7.880
REMARK INTER + INTRA:          -7.436
REMARK INTER:                  -7.304
REMARK INTRA:                  -0.133
REMARK UNBOUND:                 0.487
REMARK SMILES O=c1c(O)c(-c2ccc(O)cc2)oc2cc(O)cc(O)c12
REMARK SMILES IDX 5 1 3 2 2 3 1 4 21 5 19 6 18 7 16 8 15 9 14 10 13 11 6 12
REMARK SMILES IDX 7 13 8 14 9 15 12 16 11 17 10 18 4 20 20 22 17 24
REMARK H PARENT 10 19 4 21 20 23 17 25
REMARK Flexibility Score: inf
ROOT
ATOM      1  C   UNL     1      10.310  32.459  22.526  1.00  0.00     0.180 A 
ATOM      2  C   UNL     1      10.059  32.956  23.819  1.00  0.00     0.208 A 
ATOM      3  C   UNL     1       8.997  32.413  24.559  1.00  0.00     0.238 A 
ATOM      4  O   UNL     1       8.768  32.843  25.723  1.00  0.00    -0.285 OA
ATOM      5  C   UNL     1       8.195  31.403  23.990  1.00  0.00     0.111 A 
ATOM      6  C   UNL     1       7.104  30.807  24.668  1.00  0.00     0.134 A 
ATOM      7  C   UNL     1       6.348  29.813  24.030  1.00  0.00     0.093 A 
ATOM      8  C   UNL     1       6.663  29.404  22.728  1.00  0.00     0.123 A 
ATOM      9  C   UNL     1       7.737  29.989  22.057  1.00  0.00     0.094 A 
ATOM     10  C   UNL     1       8.503  30.980  22.676  1.00  0.00     0.146 A 
ATOM     11  O   UNL     1       9.524  31.515  22.016  1.00  0.00    -0.452 OA
ENDROOT
BRANCH   1  12
ATOM     12  C   UNL     1      11.424  32.966  21.691  1.00  0.00     0.021 A 
ATOM     13  C   UNL     1      12.764  32.835  22.097  1.00  0.00     0.016 A 
ATOM     14  C   UNL     1      13.798  33.299  21.280  1.00  0.00     0.047 A 
ATOM     15  C   UNL     1      13.509  33.888  20.042  1.00  0.00     0.115 A 
ATOM     16  C   UNL     1      11.142  33.538  20.439  1.00  0.00     0.016 A 
ATOM     17  C   UNL     1      12.179  34.003  19.624  1.00  0.00     0.047 A 
BRANCH  15  18
ATOM     18  O   UNL     1      14.531  34.357  19.220  1.00  0.00    -0.508 OA
ATOM     19  H   UNL     1      14.518  34.202  18.219  1.00  0.00     0.293 HD
ENDBRANCH  15  18
ENDBRANCH   1  12
BRANCH   2  20
ATOM     20  O   UNL     1      10.837  33.993  24.341  1.00  0.00    -0.502 OA
ATOM     21  H   UNL     1      11.561  33.833  25.031  1.00  0.00     0.293 HD
ENDBRANCH   2  20
BRANCH   6  22
ATOM     22  O   UNL     1       6.766  31.194  25.965  1.00  0.00    -0.507 OA
ATOM     23  H   UNL     1       6.346  32.096  26.161  1.00  0.00     0.293 HD
ENDBRANCH   6  22
BRANCH   8  24
ATOM     24  O   UNL     1       5.911  28.417  22.093  1.00  0.00    -0.508 OA
ATOM     25  H   UNL     1       5.525  27.633  22.606  1.00  0.00     0.293 HD
ENDBRANCH   8  24
TORSDOF 5
ENDMDL
MODEL 9
REMARK VINA RESULT:    -6.545      6.094      7.783
REMARK INTER + INTRA:          -7.205
REMARK INTER:                  -6.916
REMARK INTRA:                  -0.289
REMARK UNBOUND:                 0.487
REMARK SMILES O=c1c(O)c(-c2ccc(O)cc2)oc2cc(O)cc(O)c12
REMARK SMILES IDX 5 1 3 2 2 3 1 4 21 5 19 6 18 7 16 8 15 9 14 10 13 11 6 12
REMARK SMILES IDX 7 13 8 14 9 15 12 16 11 17 10 18 4 20 20 22 17 24
REMARK H PARENT 10 19 4 21 20 23 17 25
REMARK Flexibility Score: inf
ROOT
ATOM      1  C   UNL     1      11.959  33.022  20.524  1.00  0.00     0.180 A 
ATOM      2  C   UNL     1      11.502  31.774  20.060  1.00  0.00     0.208 A 
ATOM      3  C   UNL     1      10.393  31.183  20.686  1.00  0.00     0.238 A 
ATOM      4  O   UNL     1       9.967  30.070  20.272  1.00  0.00    -0.285 OA
ATOM      5  C   UNL     1       9.776  31.836  21.772  1.00  0.00     0.111 A 
ATOM      6  C   UNL     1       8.657  31.306  22.459  1.00  0.00     0.134 A 
ATOM      7  C   UNL     1       8.105  32.012  23.538  1.00  0.00     0.093 A 
ATOM      8  C   UNL     1       8.650  33.237  23.941  1.00  0.00     0.123 A 
ATOM      9  C   UNL     1       9.752  33.763  23.267  1.00  0.00     0.094 A 
ATOM     10  C   UNL     1      10.316  33.075  22.189  1.00  0.00     0.146 A 
ATOM     11  O   UNL     1      11.362  33.601  21.561  1.00  0.00    -0.452 OA
ENDROOT
BRANCH   1  12
ATOM     12  C   UNL     1      13.111  33.718  19.904  1.00  0.00     0.021 A 
ATOM     13  C   UNL     1      14.423  33.525  20.371  1.00  0.00     0.016 A 
ATOM     14  C   UNL     1      15.496  34.174  19.754  1.00  0.00     0.047 A 
ATOM     15  C   UNL     1      15.273  35.014  18.654  1.00  0.00     0.115 A 
ATOM     16  C   UNL     1      12.898  34.544  18.788  1.00  0.00     0.016 A 
ATOM     17  C   UNL     1      13.973  35.194  18.172  1.00  0.00     0.047 A 
BRANCH  15  18
ATOM     18  O   UNL     1      16.334  35.668  18.032  1.00  0.00    -0.508 OA
ATOM     19  H   UNL     1      17.163  35.167  17.735  1.00  0.00     0.293 HD
ENDBRANCH  15  18
ENDBRANCH   1  12
BRANCH   2  20
ATOM     20  O   UNL     1      12.162  31.124  19.013  1.00  0.00    -0.502 OA
ATOM     21  H   UNL     1      12.086  30.126  18.861  1.00  0.00     0.293 HD
ENDBRANCH   2  20
BRANCH   6  22
ATOM     22  O   UNL     1       8.093  30.088  22.081  1.00  0.00    -0.507 OA
ATOM     23  H   UNL     1       7.133  29.851  22.307  1.00  0.00     0.293 HD
ENDBRANCH   6  22
BRANCH   8  24
ATOM     24  O   UNL     1       8.102  33.939  25.013  1.00  0.00    -0.508 OA
ATOM     25  H   UNL     1       8.160  33.588  25.962  1.00  0.00     0.293 HD
ENDBRANCH   8  24
TORSDOF 5
ENDMDL
