MODEL 1
REMARK VINA RESULT:    -4.235      0.000      0.000
REMARK INTER + INTRA:          -4.359
REMARK INTER:                  -4.359
REMARK INTRA:                   0.000
REMARK UNBOUND:                 0.000
REMARK SMILES Nc1ncnc2nc[nH]c12
REMARK SMILES IDX 8 1 7 2 6 3 5 4 4 5 3 6 2 7 10 8 9 9 1 11
REMARK H PARENT 9 10 1 12 1 13
REMARK Flexibility Score: inf
ROOT
ATOM      1  C   UNL     1       7.021   4.867   0.666  1.00  0.00     0.199 A 
ATOM      2  N   UNL     1       6.839   5.966  -0.116  1.00  0.00    -0.217 NA
ATOM      3  C   UNL     1       5.734   6.516   0.416  1.00  0.00     0.182 A 
ATOM      4  N   UNL     1       5.116   7.648   0.003  1.00  0.00    -0.215 NA
ATOM      5  C   UNL     1       3.995   8.053   0.674  1.00  0.00     0.226 A 
ATOM      6  N   UNL     1       3.519   7.326   1.736  1.00  0.00    -0.217 NA
ATOM      7  C   UNL     1       4.141   6.184   2.153  1.00  0.00     0.152 A 
ATOM      8  C   UNL     1       5.281   5.785   1.460  1.00  0.00     0.127 A 
ATOM      9  N   UNL     1       6.084   4.729   1.639  1.00  0.00    -0.340 N 
ATOM     10  H   UNL     1       6.017   3.972   2.353  1.00  0.00     0.168 HD
ENDROOT
BRANCH   7  11
ATOM     11  N   UNL     1       3.628   5.443   3.261  1.00  0.00    -0.382 N 
ATOM     12  H   UNL     1       4.284   4.961   3.916  1.00  0.00     0.158 HD
ATOM     13  H   UNL     1       2.602   5.368   3.438  1.00  0.00     0.158 HD
ENDBRANCH   7  11
TORSDOF 1
ENDMDL
MODEL 2
REMARK VINA RESULT:    -4.106      1.228      3.842
REMARK INTER + INTRA:          -4.226
REMARK INTER:                  -4.226
REMARK INTRA:                   0.000
REMARK UNBOUND:                 0.000
REMARK SMILES Nc1ncnc2nc[nH]c12
REMARK SMILES IDX 8 1 7 2 6 3 5 4 4 5 3 6 2 7 10 8 9 9 1 11
REMARK H PARENT 9 10 1 12 1 13
REMARK Flexibility Score: inf
ROOT
ATOM      1  C   UNL     1       2.878   7.711   2.032  1.00  0.00     0.199 A 
ATOM      2  N   UNL     1       2.980   6.411   2.421  1.00  0.00    -0.217 NA
ATOM      3  C   UNL     1       4.005   5.968   1.672  1.00  0.00     0.182 A 
ATOM      4  N   UNL     1       4.525   4.718   1.672  1.00  0.00    -0.215 NA
ATOM      5  C   UNL     1       5.574   4.455   0.836  1.00  0.00     0.226 A 
ATOM      6  N   UNL     1       6.080   5.438   0.024  1.00  0.00    -0.217 NA
ATOM      7  C   UNL     1       5.557   6.701   0.022  1.00  0.00     0.152 A 
ATOM      8  C   UNL     1       4.489   6.952   0.880  1.00  0.00     0.127 A 
ATOM      9  N   UNL     1       3.787   8.072   1.091  1.00  0.00    -0.340 N 
ATOM     10  H   UNL     1       3.902   9.008   0.644  1.00  0.00     0.168 HD
ENDROOT
BRANCH   7  11
ATOM     11  N   UNL     1       6.100   7.709  -0.831  1.00  0.00    -0.382 N 
ATOM     12  H   UNL     1       6.887   8.308  -0.496  1.00  0.00     0.158 HD
ATOM     13  H   UNL     1       5.727   7.866  -1.793  1.00  0.00     0.158 HD
ENDBRANCH   7  11
TORSDOF 1
ENDMDL
MODEL 3
REMARK VINA RESULT:    -4.052      1.675      2.170
REMARK INTER + INTRA:          -4.170
REMARK INTER:                  -4.170
REMARK INTRA:                   0.000
REMARK UNBOUND:                 0.000
REMARK SMILES Nc1ncnc2nc[nH]c12
REMARK SMILES IDX 8 1 7 2 6 3 5 4 4 5 3 6 2 7 10 8 9 9 1 11
REMARK H PARENT 9 10 1 12 1 13
REMARK Flexibility Score: inf
ROOT
ATOM      1  C   UNL     1       7.207   7.719   2.164  1.00  0.00     0.199 A 
ATOM      2  N   UNL     1       7.370   7.101   0.963  1.00  0.00    -0.217 NA
ATOM      3  C   UNL     1       6.279   6.319   0.893  1.00  0.00     0.182 A 
ATOM      4  N   UNL     1       5.949   5.481  -0.118  1.00  0.00    -0.215 NA
ATOM      5  C   UNL     1       4.791   4.761  -0.008  1.00  0.00     0.226 A 
ATOM      6  N   UNL     1       3.993   4.892   1.100  1.00  0.00    -0.217 NA
ATOM      7  C   UNL     1       4.325   5.737   2.121  1.00  0.00     0.152 A 
ATOM      8  C   UNL     1       5.507   6.463   1.994  1.00  0.00     0.127 A 
ATOM      9  N   UNL     1       6.077   7.349   2.819  1.00  0.00    -0.340 N 
ATOM     10  H   UNL     1       5.742   7.686   3.748  1.00  0.00     0.168 HD
ENDROOT
BRANCH   7  11
ATOM     11  N   UNL     1       3.479   5.857   3.265  1.00  0.00    -0.382 N 
ATOM     12  H   UNL     1       2.767   6.620   3.310  1.00  0.00     0.158 HD
ATOM     13  H   UNL     1       3.553   5.197   4.070  1.00  0.00     0.158 HD
ENDBRANCH   7  11
TORSDOF 1
ENDMDL
MODEL 4
REMARK VINA RESULT:    -3.986      1.781      2.287
REMARK INTER + INTRA:          -4.102
REMARK INTER:                  -4.102
REMARK INTRA:                   0.000
REMARK UNBOUND:                 0.000
REMARK SMILES Nc1ncnc2nc[nH]c12
REMARK SMILES IDX 8 1 7 2 6 3 5 4 4 5 3 6 2 7 10 8 9 9 1 11
REMARK H PARENT 9 10 1 12 1 13
REMARK Flexibility Score: inf
ROOT
ATOM      1  C   UNL     1       5.359   4.413   0.984  1.00  0.00     0.199 A 
ATOM      2  N   UNL     1       4.051   4.761   0.840  1.00  0.00    -0.217 NA
ATOM      3  C   UNL     1       3.977   5.896   1.556  1.00  0.00     0.182 A 
ATOM      4  N   UNL     1       2.877   6.662   1.742  1.00  0.00    -0.215 NA
ATOM      5  C   UNL     1       2.997   7.789   2.508  1.00  0.00     0.226 A 
ATOM      6  N   UNL     1       4.204   8.125   3.066  1.00  0.00    -0.217 NA
ATOM      7  C   UNL     1       5.315   7.352   2.880  1.00  0.00     0.152 A 
ATOM      8  C   UNL     1       5.176   6.209   2.097  1.00  0.00     0.127 A 
ATOM      9  N   UNL     1       6.073   5.279   1.748  1.00  0.00    -0.340 N 
ATOM     10  H   UNL     1       7.085   5.221   1.996  1.00  0.00     0.168 HD
ENDROOT
BRANCH   7  11
ATOM     11  N   UNL     1       6.561   7.721   3.471  1.00  0.00    -0.382 N 
ATOM     12  H   UNL     1       6.583   8.122   4.435  1.00  0.00     0.158 HD
ATOM     13  H   UNL     1       7.464   7.601   2.960  1.00  0.00     0.158 HD
ENDBRANCH   7  11
TORSDOF 1
ENDMDL
MODEL 5
REMARK VINA RESULT:    -3.888      1.931      2.717
REMARK INTER + INTRA:          -4.002
REMARK INTER:                  -4.002
REMARK INTRA:                   0.000
REMARK UNBOUND:                 0.000
REMARK SMILES Nc1ncnc2nc[nH]c12
REMARK SMILES IDX 8 1 7 2 6 3 5 4 4 5 3 6 2 7 10 8 9 9 1 11
REMARK H PARENT 9 10 1 12 1 13
REMARK Flexibility Score: inf
ROOT
ATOM      1  C   UNL     1       4.622   4.738   0.895  1.00  0.00     0.199 A 
ATOM      2  N   UNL     1       5.335   5.025  -0.228  1.00  0.00    -0.217 NA
ATOM      3  C   UNL     1       6.206   5.948   0.215  1.00  0.00     0.182 A 
ATOM      4  N   UNL     1       7.160   6.574  -0.514  1.00  0.00    -0.215 NA
ATOM      5  C   UNL     1       7.957   7.489   0.117  1.00  0.00     0.226 A 
ATOM      6  N   UNL     1       7.788   7.757   1.452  1.00  0.00    -0.217 NA
ATOM      7  C   UNL     1       6.826   7.126   2.189  1.00  0.00     0.152 A 
ATOM      8  C   UNL     1       6.023   6.197   1.532  1.00  0.00     0.127 A 
ATOM      9  N   UNL     1       5.018   5.439   1.987  1.00  0.00    -0.340 N 
ATOM     10  H   UNL     1       4.624   5.388   2.952  1.00  0.00     0.168 HD
ENDROOT
BRANCH   7  11
ATOM     11  N   UNL     1       6.667   7.420   3.577  1.00  0.00    -0.382 N 
ATOM     12  H   UNL     1       5.713   7.578   3.972  1.00  0.00     0.158 HD
ATOM     13  H   UNL     1       7.489   7.484   4.217  1.00  0.00     0.158 HD
ENDBRANCH   7  11
TORSDOF 1
ENDMDL
MODEL 6
REMARK VINA RESULT:    -3.842      0.928      2.971
REMARK INTER + INTRA:          -3.955
REMARK INTER:                  -3.955
REMARK INTRA:                   0.000
REMARK UNBOUND:                 0.000
REMARK SMILES Nc1ncnc2nc[nH]c12
REMARK SMILES IDX 8 1 7 2 6 3 5 4 4 5 3 6 2 7 10 8 9 9 1 11
REMARK H PARENT 9 10 1 12 1 13
REMARK Flexibility Score: inf
ROOT
ATOM      1  C   UNL     1       3.234   6.623   2.977  1.00  0.00     0.199 A 
ATOM      2  N   UNL     1       3.451   7.706   2.182  1.00  0.00    -0.217 NA
ATOM      3  C   UNL     1       4.357   7.240   1.305  1.00  0.00     0.182 A 
ATOM      4  N   UNL     1       4.919   7.926   0.283  1.00  0.00    -0.215 NA
ATOM      5  C   UNL     1       5.828   7.278  -0.508  1.00  0.00     0.226 A 
ATOM      6  N   UNL     1       6.153   5.967  -0.263  1.00  0.00    -0.217 NA
ATOM      7  C   UNL     1       5.586   5.273   0.768  1.00  0.00     0.152 A 
ATOM      8  C   UNL     1       4.663   5.948   1.563  1.00  0.00     0.127 A 
ATOM      9  N   UNL     1       3.960   5.532   2.624  1.00  0.00    -0.340 N 
ATOM     10  H   UNL     1       3.961   4.594   3.081  1.00  0.00     0.168 HD
ENDROOT
BRANCH   7  11
ATOM     11  N   UNL     1       5.939   3.910   1.003  1.00  0.00    -0.382 N 
ATOM     12  H   UNL     1       6.939   3.613   0.951  1.00  0.00     0.158 HD
ATOM     13  H   UNL     1       5.217   3.191   1.228  1.00  0.00     0.158 HD
ENDBRANCH   7  11
TORSDOF 1
ENDMDL
MODEL 7
REMARK VINA RESULT:    -3.842      1.141      2.572
REMARK INTER + INTRA:          -3.954
REMARK INTER:                  -3.954
REMARK INTRA:                   0.000
REMARK UNBOUND:                 0.000
REMARK SMILES Nc1ncnc2nc[nH]c12
REMARK SMILES IDX 8 1 7 2 6 3 5 4 4 5 3 6 2 7 10 8 9 9 1 11
REMARK H PARENT 9 10 1 12 1 13
REMARK Flexibility Score: inf
ROOT
ATOM      1  C   UNL     1       6.882   7.667  -0.587  1.00  0.00     0.199 A 
ATOM      2  N   UNL     1       7.165   6.418  -0.127  1.00  0.00    -0.217 NA
ATOM      3  C   UNL     1       6.026   6.079   0.501  1.00  0.00     0.182 A 
ATOM      4  N   UNL     1       5.774   4.914   1.142  1.00  0.00    -0.215 NA
ATOM      5  C   UNL     1       4.548   4.750   1.725  1.00  0.00     0.226 A 
ATOM      6  N   UNL     1       3.606   5.745   1.655  1.00  0.00    -0.217 NA
ATOM      7  C   UNL     1       3.859   6.922   1.008  1.00  0.00     0.152 A 
ATOM      8  C   UNL     1       5.112   7.072   0.419  1.00  0.00     0.127 A 
ATOM      9  N   UNL     1       5.634   8.096  -0.268  1.00  0.00    -0.340 N 
ATOM     10  H   UNL     1       5.195   9.011  -0.509  1.00  0.00     0.168 HD
ENDROOT
BRANCH   7  11
ATOM     11  N   UNL     1       2.863   7.943   0.947  1.00  0.00    -0.382 N 
ATOM     12  H   UNL     1       3.143   8.948   0.994  1.00  0.00     0.158 HD
ATOM     13  H   UNL     1       1.850   7.712   0.856  1.00  0.00     0.158 HD
ENDBRANCH   7  11
TORSDOF 1
ENDMDL
MODEL 8
REMARK VINA RESULT:    -3.815      1.245      3.041
REMARK INTER + INTRA:          -3.926
REMARK INTER:                  -3.926
REMARK INTRA:                   0.000
REMARK UNBOUND:                 0.000
REMARK SMILES Nc1ncnc2nc[nH]c12
REMARK SMILES IDX 8 1 7 2 6 3 5 4 4 5 3 6 2 7 10 8 9 9 1 11
REMARK H PARENT 9 10 1 12 1 13
REMARK Flexibility Score: inf
ROOT
ATOM      1  C   UNL     1       5.192   8.084  -0.538  1.00  0.00     0.199 A 
ATOM      2  N   UNL     1       6.460   7.743  -0.897  1.00  0.00    -0.217 NA
ATOM      3  C   UNL     1       6.660   6.611  -0.199  1.00  0.00     0.182 A 
ATOM      4  N   UNL     1       7.780   5.851  -0.197  1.00  0.00    -0.215 NA
ATOM      5  C   UNL     1       7.796   4.727   0.583  1.00  0.00     0.226 A 
ATOM      6  N   UNL     1       6.701   4.388   1.336  1.00  0.00    -0.217 NA
ATOM      7  C   UNL     1       5.569   5.154   1.335  1.00  0.00     0.152 A 
ATOM      8  C   UNL     1       5.569   6.295   0.536  1.00  0.00     0.127 A 
ATOM      9  N   UNL     1       4.621   7.218   0.337  1.00  0.00    -0.340 N 
ATOM     10  H   UNL     1       3.665   7.271   0.751  1.00  0.00     0.168 HD
ENDROOT
BRANCH   7  11
ATOM     11  N   UNL     1       4.441   4.781   2.127  1.00  0.00    -0.382 N 
ATOM     12  H   UNL     1       4.437   4.974   3.153  1.00  0.00     0.158 HD
ATOM     13  H   UNL     1       3.609   4.314   1.704  1.00  0.00     0.158 HD
ENDBRANCH   7  11
TORSDOF 1
ENDMDL
MODEL 9
REMARK VINA RESULT:    -3.690      1.652      2.227
REMARK INTER + INTRA:          -3.797
REMARK INTER:                  -3.797
REMARK INTRA:                   0.000
REMARK UNBOUND:                 0.000
REMARK SMILES Nc1ncnc2nc[nH]c12
REMARK SMILES IDX 8 1 7 2 6 3 5 4 4 5 3 6 2 7 10 8 9 9 1 11
REMARK H PARENT 9 10 1 12 1 13
REMARK Flexibility Score: inf
ROOT
ATOM      1  C   UNL     1       7.799   6.758   0.853  1.00  0.00     0.199 A 
ATOM      2  N   UNL     1       7.243   7.454   1.881  1.00  0.00    -0.217 NA
ATOM      3  C   UNL     1       5.990   6.968   1.912  1.00  0.00     0.182 A 
ATOM      4  N   UNL     1       5.004   7.330   2.766  1.00  0.00    -0.215 NA
ATOM      5  C   UNL     1       3.786   6.719   2.641  1.00  0.00     0.226 A 
ATOM      6  N   UNL     1       3.581   5.767   1.675  1.00  0.00    -0.217 NA
ATOM      7  C   UNL     1       4.575   5.401   0.812  1.00  0.00     0.152 A 
ATOM      8  C   UNL     1       5.809   6.032   0.953  1.00  0.00     0.127 A 
ATOM      9  N   UNL     1       6.947   5.881   0.264  1.00  0.00    -0.340 N 
ATOM     10  H   UNL     1       7.145   5.242  -0.537  1.00  0.00     0.168 HD
ENDROOT
BRANCH   7  11
ATOM     11  N   UNL     1       4.339   4.407  -0.185  1.00  0.00    -0.382 N 
ATOM     12  H   UNL     1       3.361   4.169  -0.464  1.00  0.00     0.158 HD
ATOM     13  H   UNL     1       5.126   3.904  -0.651  1.00  0.00     0.158 HD
ENDBRANCH   7  11
TORSDOF 1
ENDMDL
