MODEL 1
REMARK VINA RESULT:    -6.739      0.000      0.000
REMARK INTER + INTRA:          -8.188
REMARK INTER:                  -7.921
REMARK INTRA:                  -0.267
REMARK UNBOUND:                -0.267
REMARK SMILES O=c1cc(-c2ccc(O)c(O)c2)oc2cc(O)cc(O)c12
REMARK SMILES IDX 4 1 3 2 2 3 1 4 21 5 19 6 18 7 16 8 15 9 14 10 13 11 5 12
REMARK SMILES IDX 6 13 7 14 8 15 12 16 10 17 9 18 11 20 20 22 17 24
REMARK H PARENT 9 19 11 21 20 23 17 25
REMARK Flexibility Score: inf
ROOT
ATOM      1  C   UNL     1     156.333 162.675 159.946  1.00  0.00     0.138 A 
ATOM      2  C   UNL     1     155.764 163.742 160.655  1.00  0.00     0.100 A 
ATOM      3  C   UNL     1     154.729 164.479 160.078  1.00  0.00     0.197 A 
ATOM      4  O   UNL     1     154.281 165.469 160.712  1.00  0.00    -0.289 OA
ATOM      5  C   UNL     1     154.240 164.123 158.799  1.00  0.00     0.107 A 
ATOM      6  C   UNL     1     153.161 164.777 158.131  1.00  0.00     0.134 A 
ATOM      7  C   UNL     1     152.841 164.412 156.817  1.00  0.00     0.093 A 
ATOM      8  C   UNL     1     153.521 163.378 156.171  1.00  0.00     0.123 A 
ATOM      9  C   UNL     1     154.539 162.698 156.833  1.00  0.00     0.094 A 
ATOM     10  C   UNL     1     154.905 163.061 158.132  1.00  0.00     0.146 A 
ATOM     11  O   UNL     1     155.893 162.397 158.724  1.00  0.00    -0.456 OA
ENDROOT
BRANCH   1  12
ATOM     12  C   UNL     1     157.436 161.858 160.512  1.00  0.00     0.021 A 
ATOM     13  C   UNL     1     158.762 162.134 160.137  1.00  0.00     0.016 A 
ATOM     14  C   UNL     1     159.818 161.375 160.649  1.00  0.00     0.051 A 
ATOM     15  C   UNL     1     159.566 160.321 161.536  1.00  0.00     0.157 A 
ATOM     16  C   UNL     1     157.189 160.789 161.394  1.00  0.00     0.062 A 
ATOM     17  C   UNL     1     158.244 160.025 161.907  1.00  0.00     0.158 A 
BRANCH  15  18
ATOM     18  O   UNL     1     160.622 159.567 162.046  1.00  0.00    -0.504 OA
ATOM     19  H   UNL     1     160.811 159.522 163.040  1.00  0.00     0.293 HD
ENDBRANCH  15  18
BRANCH  17  20
ATOM     20  O   UNL     1     157.960 158.976 162.780  1.00  0.00    -0.504 OA
ATOM     21  H   UNL     1     157.646 159.136 163.730  1.00  0.00     0.293 HD
ENDBRANCH  17  20
ENDBRANCH   1  12
BRANCH   6  22
ATOM     22  O   UNL     1     152.362 165.764 158.717  1.00  0.00    -0.507 OA
ATOM     23  H   UNL     1     151.490 165.592 159.193  1.00  0.00     0.293 HD
ENDBRANCH   6  22
BRANCH   8  24
ATOM     24  O   UNL     1     153.185 163.012 154.869  1.00  0.00    -0.508 OA
ATOM     25  H   UNL     1     152.605 163.602 154.285  1.00  0.00     0.293 HD
ENDBRANCH   8  24
TORSDOF 5
ENDMDL
MODEL 2
REMARK VINA RESULT:    -6.696      7.728     12.476
REMARK INTER + INTRA:          -8.137
REMARK INTER:                  -7.874
REMARK INTRA:                  -0.264
REMARK UNBOUND:                -0.267
REMARK SMILES O=c1cc(-c2ccc(O)c(O)c2)oc2cc(O)cc(O)c12
REMARK SMILES IDX 4 1 3 2 2 3 1 4 21 5 19 6 18 7 16 8 15 9 14 10 13 11 5 12
REMARK SMILES IDX 6 13 7 14 8 15 12 16 10 17 9 18 11 20 20 22 17 24
REMARK H PARENT 9 19 11 21 20 23 17 25
REMARK Flexibility Score: inf
ROOT
ATOM      1  C   UNL     1     166.124 159.833 159.870  1.00  0.00     0.138 A 
ATOM      2  C   UNL     1     166.722 158.789 160.591  1.00  0.00     0.100 A 
ATOM      3  C   UNL     1     167.754 158.051 160.008  1.00  0.00     0.197 A 
ATOM      4  O   UNL     1     168.227 157.081 160.653  1.00  0.00    -0.289 OA
ATOM      5  C   UNL     1     168.209 158.382 158.709  1.00  0.00     0.107 A 
ATOM      6  C   UNL     1     169.281 157.726 158.033  1.00  0.00     0.134 A 
ATOM      7  C   UNL     1     169.567 158.064 156.704  1.00  0.00     0.093 A 
ATOM      8  C   UNL     1     168.860 159.075 156.050  1.00  0.00     0.123 A 
ATOM      9  C   UNL     1     167.849 159.758 156.719  1.00  0.00     0.094 A 
ATOM     10  C   UNL     1     167.516 159.422 158.033  1.00  0.00     0.146 A 
ATOM     11  O   UNL     1     166.534 160.088 158.632  1.00  0.00    -0.456 OA
ENDROOT
BRANCH   1  12
ATOM     12  C   UNL     1     165.025 160.650 160.442  1.00  0.00     0.021 A 
ATOM     13  C   UNL     1     163.707 160.438 160.003  1.00  0.00     0.016 A 
ATOM     14  C   UNL     1     162.655 161.198 160.519  1.00  0.00     0.051 A 
ATOM     15  C   UNL     1     162.902 162.191 161.476  1.00  0.00     0.157 A 
ATOM     16  C   UNL     1     165.268 161.658 161.394  1.00  0.00     0.062 A 
ATOM     17  C   UNL     1     164.217 162.423 161.911  1.00  0.00     0.158 A 
BRANCH  15  18
ATOM     18  O   UNL     1     161.850 162.946 161.990  1.00  0.00    -0.504 OA
ATOM     19  H   UNL     1     162.005 163.681 162.669  1.00  0.00     0.293 HD
ENDBRANCH  15  18
BRANCH  17  20
ATOM     20  O   UNL     1     164.498 163.411 162.855  1.00  0.00    -0.504 OA
ATOM     21  H   UNL     1     164.952 163.201 163.735  1.00  0.00     0.293 HD
ENDBRANCH  17  20
ENDBRANCH   1  12
BRANCH   6  22
ATOM     22  O   UNL     1     170.104 156.762 158.623  1.00  0.00    -0.507 OA
ATOM     23  H   UNL     1     171.053 156.565 158.342  1.00  0.00     0.293 HD
ENDBRANCH   6  22
BRANCH   8  24
ATOM     24  O   UNL     1     169.162 159.415 154.732  1.00  0.00    -0.508 OA
ATOM     25  H   UNL     1     169.969 159.028 154.257  1.00  0.00     0.293 HD
ENDBRANCH   8  24
TORSDOF 5
ENDMDL
MODEL 3
REMARK VINA RESULT:    -6.511      0.570      1.463
REMARK INTER + INTRA:          -7.919
REMARK INTER:                  -7.654
REMARK INTRA:                  -0.265
REMARK UNBOUND:                -0.267
REMARK SMILES O=c1cc(-c2ccc(O)c(O)c2)oc2cc(O)cc(O)c12
REMARK SMILES IDX 4 1 3 2 2 3 1 4 21 5 19 6 18 7 16 8 15 9 14 10 13 11 5 12
REMARK SMILES IDX 6 13 7 14 8 15 12 16 10 17 9 18 11 20 20 22 17 24
REMARK H PARENT 9 19 11 21 20 23 17 25
REMARK Flexibility Score: inf
ROOT
ATOM      1  C   UNL     1     156.293 162.647 159.963  1.00  0.00     0.138 A 
ATOM      2  C   UNL     1     155.736 163.739 160.645  1.00  0.00     0.100 A 
ATOM      3  C   UNL     1     154.722 164.485 160.041  1.00  0.00     0.197 A 
ATOM      4  O   UNL     1     154.286 165.495 160.650  1.00  0.00    -0.289 OA
ATOM      5  C   UNL     1     154.243 164.114 158.762  1.00  0.00     0.107 A 
ATOM      6  C   UNL     1     153.185 164.775 158.069  1.00  0.00     0.134 A 
ATOM      7  C   UNL     1     152.874 164.391 156.758  1.00  0.00     0.093 A 
ATOM      8  C   UNL     1     153.542 163.332 156.140  1.00  0.00     0.123 A 
ATOM      9  C   UNL     1     154.538 162.646 156.828  1.00  0.00     0.094 A 
ATOM     10  C   UNL     1     154.895 163.026 158.124  1.00  0.00     0.146 A 
ATOM     11  O   UNL     1     155.862 162.355 158.741  1.00  0.00    -0.456 OA
ENDROOT
BRANCH   1  12
ATOM     12  C   UNL     1     157.373 161.821 160.558  1.00  0.00     0.021 A 
ATOM     13  C   UNL     1     157.053 160.879 161.551  1.00  0.00     0.016 A 
ATOM     14  C   UNL     1     158.052 160.094 162.133  1.00  0.00     0.051 A 
ATOM     15  C   UNL     1     159.388 160.244 161.741  1.00  0.00     0.157 A 
ATOM     16  C   UNL     1     158.719 161.975 160.178  1.00  0.00     0.062 A 
ATOM     17  C   UNL     1     159.722 161.193 160.761  1.00  0.00     0.158 A 
BRANCH  15  18
ATOM     18  O   UNL     1     160.381 159.458 162.323  1.00  0.00    -0.504 OA
ATOM     19  H   UNL     1     160.435 159.326 163.326  1.00  0.00     0.293 HD
ENDBRANCH  15  18
BRANCH  17  20
ATOM     20  O   UNL     1     161.045 161.373 160.356  1.00  0.00    -0.504 OA
ATOM     21  H   UNL     1     161.285 161.870 159.507  1.00  0.00     0.293 HD
ENDBRANCH  17  20
ENDBRANCH   1  12
BRANCH   6  22
ATOM     22  O   UNL     1     152.398 165.788 158.625  1.00  0.00    -0.507 OA
ATOM     23  H   UNL     1     151.741 166.356 158.111  1.00  0.00     0.293 HD
ENDBRANCH   6  22
BRANCH   8  24
ATOM     24  O   UNL     1     153.215 162.948 154.841  1.00  0.00    -0.508 OA
ATOM     25  H   UNL     1     153.908 162.558 154.213  1.00  0.00     0.293 HD
ENDBRANCH   8  24
TORSDOF 5
ENDMDL
MODEL 4
REMARK VINA RESULT:    -6.450      8.175     11.672
REMARK INTER + INTRA:          -7.848
REMARK INTER:                  -7.571
REMARK INTRA:                  -0.277
REMARK UNBOUND:                -0.267
REMARK SMILES O=c1cc(-c2ccc(O)c(O)c2)oc2cc(O)cc(O)c12
REMARK SMILES IDX 4 1 3 2 2 3 1 4 21 5 19 6 18 7 16 8 15 9 14 10 13 11 5 12
REMARK SMILES IDX 6 13 7 14 8 15 12 16 10 17 9 18 11 20 20 22 17 24
REMARK H PARENT 9 19 11 21 20 23 17 25
REMARK Flexibility Score: inf
ROOT
ATOM      1  C   UNL     1     165.407 160.957 160.439  1.00  0.00     0.138 A 
ATOM      2  C   UNL     1     165.953 161.790 159.451  1.00  0.00     0.100 A 
ATOM      3  C   UNL     1     166.861 161.265 158.530  1.00  0.00     0.197 A 
ATOM      4  O   UNL     1     167.381 162.049 157.696  1.00  0.00    -0.289 OA
ATOM      5  C   UNL     1     167.198 159.891 158.581  1.00  0.00     0.107 A 
ATOM      6  C   UNL     1     168.080 159.238 157.668  1.00  0.00     0.134 A 
ATOM      7  C   UNL     1     168.430 157.899 157.885  1.00  0.00     0.093 A 
ATOM      8  C   UNL     1     167.883 157.175 158.947  1.00  0.00     0.123 A 
ATOM      9  C   UNL     1     166.980 157.788 159.811  1.00  0.00     0.094 A 
ATOM     10  C   UNL     1     166.637 159.132 159.641  1.00  0.00     0.146 A 
ATOM     11  O   UNL     1     165.783 159.684 160.497  1.00  0.00    -0.456 OA
ENDROOT
BRANCH   1  12
ATOM     12  C   UNL     1     164.437 161.463 161.442  1.00  0.00     0.021 A 
ATOM     13  C   UNL     1     163.280 160.717 161.722  1.00  0.00     0.016 A 
ATOM     14  C   UNL     1     162.348 161.175 162.656  1.00  0.00     0.051 A 
ATOM     15  C   UNL     1     162.550 162.392 163.319  1.00  0.00     0.157 A 
ATOM     16  C   UNL     1     164.628 162.692 162.102  1.00  0.00     0.062 A 
ATOM     17  C   UNL     1     163.695 163.155 163.036  1.00  0.00     0.158 A 
BRANCH  15  18
ATOM     18  O   UNL     1     161.618 162.845 164.251  1.00  0.00    -0.504 OA
ATOM     19  H   UNL     1     161.648 162.549 165.219  1.00  0.00     0.293 HD
ENDBRANCH  15  18
BRANCH  17  20
ATOM     20  O   UNL     1     163.920 164.376 163.671  1.00  0.00    -0.504 OA
ATOM     21  H   UNL     1     163.242 165.128 163.648  1.00  0.00     0.293 HD
ENDBRANCH  17  20
ENDBRANCH   1  12
BRANCH   6  22
ATOM     22  O   UNL     1     168.615 159.845 156.528  1.00  0.00    -0.507 OA
ATOM     23  H   UNL     1     169.037 160.761 156.506  1.00  0.00     0.293 HD
ENDBRANCH   6  22
BRANCH   8  24
ATOM     24  O   UNL     1     168.226 155.839 159.147  1.00  0.00    -0.508 OA
ATOM     25  H   UNL     1     167.945 155.116 158.495  1.00  0.00     0.293 HD
ENDBRANCH   8  24
TORSDOF 5
ENDMDL
MODEL 5
REMARK VINA RESULT:    -6.393      1.523      2.988
REMARK INTER + INTRA:          -7.780
REMARK INTER:                  -7.505
REMARK INTRA:                  -0.276
REMARK UNBOUND:                -0.267
REMARK SMILES O=c1cc(-c2ccc(O)c(O)c2)oc2cc(O)cc(O)c12
REMARK SMILES IDX 4 1 3 2 2 3 1 4 21 5 19 6 18 7 16 8 15 9 14 10 13 11 5 12
REMARK SMILES IDX 6 13 7 14 8 15 12 16 10 17 9 18 11 20 20 22 17 24
REMARK H PARENT 9 19 11 21 20 23 17 25
REMARK Flexibility Score: inf
ROOT
ATOM      1  C   UNL     1     157.177 161.461 160.500  1.00  0.00     0.138 A 
ATOM      2  C   UNL     1     156.694 160.627 159.480  1.00  0.00     0.100 A 
ATOM      3  C   UNL     1     155.779 161.131 158.554  1.00  0.00     0.197 A 
ATOM      4  O   UNL     1     155.316 160.343 157.689  1.00  0.00    -0.289 OA
ATOM      5  C   UNL     1     155.371 162.483 158.632  1.00  0.00     0.107 A 
ATOM      6  C   UNL     1     154.476 163.115 157.718  1.00  0.00     0.134 A 
ATOM      7  C   UNL     1     154.054 164.428 157.962  1.00  0.00     0.093 A 
ATOM      8  C   UNL     1     154.542 165.151 159.053  1.00  0.00     0.123 A 
ATOM      9  C   UNL     1     155.458 164.561 159.920  1.00  0.00     0.094 A 
ATOM     10  C   UNL     1     155.872 163.242 159.723  1.00  0.00     0.146 A 
ATOM     11  O   UNL     1     156.736 162.711 160.582  1.00  0.00    -0.456 OA
ENDROOT
BRANCH   1  12
ATOM     12  C   UNL     1     158.152 160.977 161.510  1.00  0.00     0.021 A 
ATOM     13  C   UNL     1     159.289 161.750 161.797  1.00  0.00     0.016 A 
ATOM     14  C   UNL     1     160.225 161.315 162.738  1.00  0.00     0.051 A 
ATOM     15  C   UNL     1     160.047 160.093 163.400  1.00  0.00     0.157 A 
ATOM     16  C   UNL     1     157.985 159.745 162.170  1.00  0.00     0.062 A 
ATOM     17  C   UNL     1     158.922 159.304 163.111  1.00  0.00     0.158 A 
BRANCH  15  18
ATOM     18  O   UNL     1     160.983 159.663 164.339  1.00  0.00    -0.504 OA
ATOM     19  H   UNL     1     161.186 158.680 164.474  1.00  0.00     0.293 HD
ENDBRANCH  15  18
BRANCH  17  20
ATOM     20  O   UNL     1     158.721 158.079 163.746  1.00  0.00    -0.504 OA
ATOM     21  H   UNL     1     157.795 157.710 163.923  1.00  0.00     0.293 HD
ENDBRANCH  17  20
ENDBRANCH   1  12
BRANCH   6  22
ATOM     22  O   UNL     1     153.995 162.512 156.551  1.00  0.00    -0.507 OA
ATOM     23  H   UNL     1     153.204 161.888 156.509  1.00  0.00     0.293 HD
ENDBRANCH   6  22
BRANCH   8  24
ATOM     24  O   UNL     1     154.128 166.462 159.279  1.00  0.00    -0.508 OA
ATOM     25  H   UNL     1     154.623 167.251 158.880  1.00  0.00     0.293 HD
ENDBRANCH   8  24
TORSDOF 5
ENDMDL
MODEL 6
REMARK VINA RESULT:    -6.208      1.487      7.138
REMARK INTER + INTRA:          -7.563
REMARK INTER:                  -7.296
REMARK INTRA:                  -0.267
REMARK UNBOUND:                -0.267
REMARK SMILES O=c1cc(-c2ccc(O)c(O)c2)oc2cc(O)cc(O)c12
REMARK SMILES IDX 4 1 3 2 2 3 1 4 21 5 19 6 18 7 16 8 15 9 14 10 13 11 5 12
REMARK SMILES IDX 6 13 7 14 8 15 12 16 10 17 9 18 11 20 20 22 17 24
REMARK H PARENT 9 19 11 21 20 23 17 25
REMARK Flexibility Score: inf
ROOT
ATOM      1  C   UNL     1     156.382 163.118 159.423  1.00  0.00     0.138 A 
ATOM      2  C   UNL     1     157.573 163.343 158.718  1.00  0.00     0.100 A 
ATOM      3  C   UNL     1     158.683 162.532 158.964  1.00  0.00     0.197 A 
ATOM      4  O   UNL     1     159.756 162.798 158.362  1.00  0.00    -0.289 OA
ATOM      5  C   UNL     1     158.587 161.472 159.896  1.00  0.00     0.107 A 
ATOM      6  C   UNL     1     159.641 160.557 160.196  1.00  0.00     0.134 A 
ATOM      7  C   UNL     1     159.469 159.619 161.221  1.00  0.00     0.093 A 
ATOM      8  C   UNL     1     158.261 159.524 161.915  1.00  0.00     0.123 A 
ATOM      9  C   UNL     1     157.208 160.377 161.593  1.00  0.00     0.094 A 
ATOM     10  C   UNL     1     157.360 161.346 160.599  1.00  0.00     0.146 A 
ATOM     11  O   UNL     1     156.336 162.150 160.332  1.00  0.00    -0.456 OA
ENDROOT
BRANCH   1  12
ATOM     12  C   UNL     1     155.172 163.949 159.201  1.00  0.00     0.021 A 
ATOM     13  C   UNL     1     154.906 165.025 160.065  1.00  0.00     0.016 A 
ATOM     14  C   UNL     1     153.770 165.818 159.883  1.00  0.00     0.051 A 
ATOM     15  C   UNL     1     152.875 165.543 158.841  1.00  0.00     0.157 A 
ATOM     16  C   UNL     1     154.262 163.670 158.164  1.00  0.00     0.062 A 
ATOM     17  C   UNL     1     153.122 164.461 157.980  1.00  0.00     0.158 A 
BRANCH  15  18
ATOM     18  O   UNL     1     151.744 166.337 158.661  1.00  0.00    -0.504 OA
ATOM     19  H   UNL     1     150.903 165.974 158.229  1.00  0.00     0.293 HD
ENDBRANCH  15  18
BRANCH  17  20
ATOM     20  O   UNL     1     152.245 164.156 156.939  1.00  0.00    -0.504 OA
ATOM     21  H   UNL     1     151.919 164.857 156.286  1.00  0.00     0.293 HD
ENDBRANCH  17  20
ENDBRANCH   1  12
BRANCH   6  22
ATOM     22  O   UNL     1     160.856 160.510 159.505  1.00  0.00    -0.507 OA
ATOM     23  H   UNL     1     161.475 161.296 159.375  1.00  0.00     0.293 HD
ENDBRANCH   6  22
BRANCH   8  24
ATOM     24  O   UNL     1     158.094 158.578 162.924  1.00  0.00    -0.508 OA
ATOM     25  H   UNL     1     158.485 157.646 162.848  1.00  0.00     0.293 HD
ENDBRANCH   8  24
TORSDOF 5
ENDMDL
MODEL 7
REMARK VINA RESULT:    -6.168      8.262     11.107
REMARK INTER + INTRA:          -7.516
REMARK INTER:                  -7.234
REMARK INTRA:                  -0.282
REMARK UNBOUND:                -0.267
REMARK SMILES O=c1cc(-c2ccc(O)c(O)c2)oc2cc(O)cc(O)c12
REMARK SMILES IDX 4 1 3 2 2 3 1 4 21 5 19 6 18 7 16 8 15 9 14 10 13 11 5 12
REMARK SMILES IDX 6 13 7 14 8 15 12 16 10 17 9 18 11 20 20 22 17 24
REMARK H PARENT 9 19 11 21 20 23 17 25
REMARK Flexibility Score: inf
ROOT
ATOM      1  C   UNL     1     166.405 160.398 159.085  1.00  0.00     0.138 A 
ATOM      2  C   UNL     1     165.804 160.984 157.962  1.00  0.00     0.100 A 
ATOM      3  C   UNL     1     164.862 161.999 158.136  1.00  0.00     0.197 A 
ATOM      4  O   UNL     1     164.293 162.463 157.115  1.00  0.00    -0.289 OA
ATOM      5  C   UNL     1     164.547 162.450 159.440  1.00  0.00     0.107 A 
ATOM      6  C   UNL     1     163.633 163.507 159.735  1.00  0.00     0.134 A 
ATOM      7  C   UNL     1     163.313 163.789 161.069  1.00  0.00     0.093 A 
ATOM      8  C   UNL     1     163.917 163.093 162.118  1.00  0.00     0.123 A 
ATOM      9  C   UNL     1     164.850 162.097 161.842  1.00  0.00     0.094 A 
ATOM     10  C   UNL     1     165.166 161.769 160.521  1.00  0.00     0.146 A 
ATOM     11  O   UNL     1     166.051 160.802 160.299  1.00  0.00    -0.456 OA
ENDROOT
BRANCH   1  12
ATOM     12  C   UNL     1     167.413 159.315 158.957  1.00  0.00     0.021 A 
ATOM     13  C   UNL     1     167.402 158.249 159.873  1.00  0.00     0.016 A 
ATOM     14  C   UNL     1     168.344 157.222 159.780  1.00  0.00     0.051 A 
ATOM     15  C   UNL     1     169.320 157.247 158.776  1.00  0.00     0.157 A 
ATOM     16  C   UNL     1     168.405 159.340 157.958  1.00  0.00     0.062 A 
ATOM     17  C   UNL     1     169.352 158.314 157.863  1.00  0.00     0.158 A 
BRANCH  15  18
ATOM     18  O   UNL     1     170.257 156.219 158.685  1.00  0.00    -0.504 OA
ATOM     19  H   UNL     1     171.124 156.334 158.173  1.00  0.00     0.293 HD
ENDBRANCH  15  18
BRANCH  17  20
ATOM     20  O   UNL     1     170.317 158.373 156.859  1.00  0.00    -0.504 OA
ATOM     21  H   UNL     1     170.190 157.918 155.963  1.00  0.00     0.293 HD
ENDBRANCH  17  20
ENDBRANCH   1  12
BRANCH   6  22
ATOM     22  O   UNL     1     163.038 164.319 158.766  1.00  0.00    -0.507 OA
ATOM     23  H   UNL     1     162.687 163.994 157.877  1.00  0.00     0.293 HD
ENDBRANCH   6  22
BRANCH   8  24
ATOM     24  O   UNL     1     163.603 163.390 163.443  1.00  0.00    -0.508 OA
ATOM     25  H   UNL     1     163.502 162.663 164.140  1.00  0.00     0.293 HD
ENDBRANCH   8  24
TORSDOF 5
ENDMDL
MODEL 8
REMARK VINA RESULT:    -6.109      7.961     10.334
REMARK INTER + INTRA:          -7.447
REMARK INTER:                  -7.176
REMARK INTRA:                  -0.270
REMARK UNBOUND:                -0.267
REMARK SMILES O=c1cc(-c2ccc(O)c(O)c2)oc2cc(O)cc(O)c12
REMARK SMILES IDX 4 1 3 2 2 3 1 4 21 5 19 6 18 7 16 8 15 9 14 10 13 11 5 12
REMARK SMILES IDX 6 13 7 14 8 15 12 16 10 17 9 18 11 20 20 22 17 24
REMARK H PARENT 9 19 11 21 20 23 17 25
REMARK Flexibility Score: inf
ROOT
ATOM      1  C   UNL     1     161.988 163.857 166.271  1.00  0.00     0.138 A 
ATOM      2  C   UNL     1     161.448 162.861 167.098  1.00  0.00     0.100 A 
ATOM      3  C   UNL     1     161.239 161.579 166.587  1.00  0.00     0.197 A 
ATOM      4  O   UNL     1     160.696 160.725 167.333  1.00  0.00    -0.289 OA
ATOM      5  C   UNL     1     161.603 161.287 165.251  1.00  0.00     0.107 A 
ATOM      6  C   UNL     1     161.475 160.005 164.637  1.00  0.00     0.134 A 
ATOM      7  C   UNL     1     161.760 159.862 163.273  1.00  0.00     0.093 A 
ATOM      8  C   UNL     1     162.225 160.940 162.517  1.00  0.00     0.123 A 
ATOM      9  C   UNL     1     162.406 162.182 163.121  1.00  0.00     0.094 A 
ATOM     10  C   UNL     1     162.098 162.365 164.471  1.00  0.00     0.146 A 
ATOM     11  O   UNL     1     162.270 163.570 165.005  1.00  0.00    -0.456 OA
ENDROOT
BRANCH   1  12
ATOM     12  C   UNL     1     162.231 165.237 166.763  1.00  0.00     0.021 A 
ATOM     13  C   UNL     1     161.141 166.104 166.954  1.00  0.00     0.016 A 
ATOM     14  C   UNL     1     161.343 167.409 167.409  1.00  0.00     0.051 A 
ATOM     15  C   UNL     1     162.638 167.875 167.670  1.00  0.00     0.157 A 
ATOM     16  C   UNL     1     163.531 165.715 167.015  1.00  0.00     0.062 A 
ATOM     17  C   UNL     1     163.737 167.023 167.468  1.00  0.00     0.158 A 
BRANCH  15  18
ATOM     18  O   UNL     1     162.836 169.177 168.125  1.00  0.00    -0.504 OA
ATOM     19  H   UNL     1     162.677 169.432 169.092  1.00  0.00     0.293 HD
ENDBRANCH  15  18
BRANCH  17  20
ATOM     20  O   UNL     1     165.039 167.460 167.709  1.00  0.00    -0.504 OA
ATOM     21  H   UNL     1     165.235 168.336 168.177  1.00  0.00     0.293 HD
ENDBRANCH  17  20
ENDBRANCH   1  12
BRANCH   6  22
ATOM     22  O   UNL     1     161.099 158.844 165.320  1.00  0.00    -0.507 OA
ATOM     23  H   UNL     1     161.146 157.911 164.940  1.00  0.00     0.293 HD
ENDBRANCH   6  22
BRANCH   8  24
ATOM     24  O   UNL     1     162.520 160.785 161.164  1.00  0.00    -0.508 OA
ATOM     25  H   UNL     1     161.806 160.876 160.452  1.00  0.00     0.293 HD
ENDBRANCH   8  24
TORSDOF 5
ENDMDL
MODEL 9
REMARK VINA RESULT:    -6.086      7.500     12.495
REMARK INTER + INTRA:          -7.420
REMARK INTER:                  -7.136
REMARK INTRA:                  -0.284
REMARK UNBOUND:                -0.267
REMARK SMILES O=c1cc(-c2ccc(O)c(O)c2)oc2cc(O)cc(O)c12
REMARK SMILES IDX 4 1 3 2 2 3 1 4 21 5 19 6 18 7 16 8 15 9 14 10 13 11 5 12
REMARK SMILES IDX 6 13 7 14 8 15 12 16 10 17 9 18 11 20 20 22 17 24
REMARK H PARENT 9 19 11 21 20 23 17 25
REMARK Flexibility Score: inf
ROOT
ATOM      1  C   UNL     1     165.630 159.752 159.223  1.00  0.00     0.138 A 
ATOM      2  C   UNL     1     165.831 159.938 157.847  1.00  0.00     0.100 A 
ATOM      3  C   UNL     1     166.888 159.284 157.211  1.00  0.00     0.197 A 
ATOM      4  O   UNL     1     167.082 159.519 155.990  1.00  0.00    -0.289 OA
ATOM      5  C   UNL     1     167.725 158.416 157.950  1.00  0.00     0.107 A 
ATOM      6  C   UNL     1     168.806 157.665 157.398  1.00  0.00     0.134 A 
ATOM      7  C   UNL     1     169.639 156.927 158.249  1.00  0.00     0.093 A 
ATOM      8  C   UNL     1     169.393 156.866 159.622  1.00  0.00     0.123 A 
ATOM      9  C   UNL     1     168.309 157.551 160.163  1.00  0.00     0.094 A 
ATOM     10  C   UNL     1     167.480 158.323 159.346  1.00  0.00     0.146 A 
ATOM     11  O   UNL     1     166.464 158.974 159.904  1.00  0.00    -0.456 OA
ENDROOT
BRANCH   1  12
ATOM     12  C   UNL     1     164.523 160.423 159.950  1.00  0.00     0.021 A 
ATOM     13  C   UNL     1     163.206 160.289 159.477  1.00  0.00     0.016 A 
ATOM     14  C   UNL     1     162.147 160.916 160.138  1.00  0.00     0.051 A 
ATOM     15  C   UNL     1     162.386 161.697 161.276  1.00  0.00     0.157 A 
ATOM     16  C   UNL     1     164.758 161.219 161.086  1.00  0.00     0.062 A 
ATOM     17  C   UNL     1     163.699 161.851 161.749  1.00  0.00     0.158 A 
BRANCH  15  18
ATOM     18  O   UNL     1     161.326 162.319 161.933  1.00  0.00    -0.504 OA
ATOM     19  H   UNL     1     160.923 163.183 161.591  1.00  0.00     0.293 HD
ENDBRANCH  15  18
BRANCH  17  20
ATOM     20  O   UNL     1     163.971 162.630 162.873  1.00  0.00    -0.504 OA
ATOM     21  H   UNL     1     164.152 162.220 163.781  1.00  0.00     0.293 HD
ENDBRANCH  17  20
ENDBRANCH   1  12
BRANCH   6  22
ATOM     22  O   UNL     1     169.087 157.589 156.030  1.00  0.00    -0.507 OA
ATOM     23  H   UNL     1     169.993 157.381 155.639  1.00  0.00     0.293 HD
ENDBRANCH   6  22
BRANCH   8  24
ATOM     24  O   UNL     1     170.219 156.117 160.459  1.00  0.00    -0.508 OA
ATOM     25  H   UNL     1     170.408 156.403 161.412  1.00  0.00     0.293 HD
ENDBRANCH   8  24
TORSDOF 5
ENDMDL
