MODEL 1
REMARK VINA RESULT:    -5.078      0.000      0.000
REMARK INTER + INTRA:          -4.218
REMARK INTER:                  -6.859
REMARK INTRA:                   2.641
REMARK UNBOUND:                 2.641
REMARK SMILES C=C1C(=O)O[C@H]2[C@@H]1CCC(C)=CCC[C@@]1(C)O[C@H]21
REMARK SMILES IDX 6 1 7 2 2 3 1 4 3 5 4 6 5 7 8 8 9 9 10 10 11 11 12 12 18 14
REMARK SMILES IDX 15 15 17 16 16 17 14 18 13 19
REMARK H PARENT
REMARK Flexibility Score: 70.00
ROOT
ATOM      1  C   UNL     1       3.759   8.809  22.003  1.00  0.00     0.216 C 
ATOM      2  C   UNL     1       3.770   9.587  20.631  1.00  0.00     0.070 C 
ATOM      3  C   UNL     1       5.156   9.341  20.102  1.00  0.00     0.037 C 
ATOM      4  C   UNL     1       5.661   9.742  18.935  1.00  0.00     0.021 C 
ATOM      5  C   UNL     1       5.939   8.857  21.222  1.00  0.00     0.334 C 
ATOM      6  O   UNL     1       7.184   8.670  21.216  1.00  0.00    -0.247 OA
ATOM      7  O   UNL     1       5.141   8.644  22.330  1.00  0.00    -0.455 OA
ENDROOT
BRANCH   2   8
ATOM      8  C   UNL     1       2.573   9.507  19.604  1.00  0.00     0.017 C 
BRANCH   8   9
ATOM      9  C   UNL     1       1.550   8.330  19.458  1.00  0.00     0.031 C 
BRANCH   9  10
ATOM     10  C   UNL     1       1.962   7.081  18.687  1.00  0.00    -0.077 C 
ATOM     11  C   UNL     1       2.447   7.258  17.272  1.00  0.00     0.039 C 
ATOM     12  C   UNL     1       1.783   5.800  19.136  1.00  0.00    -0.028 CG0
ATOM     13  G   UNL     1       1.400   5.353  20.546  1.00  0.00     0.000 G0
ENDBRANCH   9  10
ENDBRANCH   8   9
ENDBRANCH   2   8
BRANCH   1  14
ATOM     14  C   UNL     1       3.084   7.452  21.854  1.00  0.00     0.192 C 
ATOM     15  C   UNL     1       3.478   6.015  22.048  1.00  0.00     0.096 C 
ATOM     16  O   UNL     1       3.971   6.752  20.992  1.00  0.00    -0.362 OA
ATOM     17  C   UNL     1       4.572   5.657  23.051  1.00  0.00     0.045 C 
BRANCH  15  18
ATOM     18  C   UNL     1       2.599   4.886  21.448  1.00  0.00     0.042 C 
BRANCH  18  19
ATOM     19  C   UNL     1       1.394   5.337  20.560  1.00  0.00     0.030 CG0
ATOM     20  G   UNL     1       1.794   5.808  19.163  1.00  0.00     0.000 G0
ENDBRANCH  18  19
ENDBRANCH  15  18
ENDBRANCH   1  14
TORSDOF 0
ENDMDL
MODEL 2
REMARK VINA RESULT:    -4.837      1.039      1.203
REMARK INTER + INTRA:          -3.892
REMARK INTER:                  -6.689
REMARK INTRA:                   2.796
REMARK UNBOUND:                 2.641
REMARK SMILES C=C1C(=O)O[C@H]2[C@@H]1CCC(C)=CCC[C@@]1(C)O[C@H]21
REMARK SMILES IDX 6 1 7 2 2 3 1 4 3 5 4 6 5 7 8 8 9 9 10 10 11 11 12 12 18 14
REMARK SMILES IDX 15 15 17 16 16 17 14 18 13 19
REMARK H PARENT
REMARK Flexibility Score: 70.00
ROOT
ATOM      1  C   UNL     1       3.906   8.589  21.993  1.00  0.00     0.216 C 
ATOM      2  C   UNL     1       4.566   9.083  20.650  1.00  0.00     0.070 C 
ATOM      3  C   UNL     1       6.026   8.775  20.845  1.00  0.00     0.037 C 
ATOM      4  C   UNL     1       7.015   8.954  19.969  1.00  0.00     0.021 C 
ATOM      5  C   UNL     1       6.206   8.541  22.264  1.00  0.00     0.334 C 
ATOM      6  O   UNL     1       7.313   8.390  22.844  1.00  0.00    -0.247 OA
ATOM      7  O   UNL     1       4.990   8.528  22.923  1.00  0.00    -0.455 OA
ENDROOT
BRANCH   2   8
ATOM      8  C   UNL     1       3.939   8.771  19.235  1.00  0.00     0.017 C 
BRANCH   8   9
ATOM      9  C   UNL     1       3.696   7.353  18.617  1.00  0.00     0.031 C 
BRANCH   9  10
ATOM     10  C   UNL     1       2.291   6.761  18.648  1.00  0.00    -0.077 C 
ATOM     11  C   UNL     1       1.180   7.558  18.018  1.00  0.00     0.039 C 
ATOM     12  C   UNL     1       1.943   5.629  19.335  1.00  0.00    -0.028 CG0
ATOM     13  G   UNL     1       2.879   4.603  19.973  1.00  0.00     0.000 G0
ENDBRANCH   9  10
ENDBRANCH   8   9
ENDBRANCH   2   8
BRANCH   1  14
ATOM     14  C   UNL     1       3.280   7.211  21.818  1.00  0.00     0.192 C 
ATOM     15  C   UNL     1       3.633   5.801  22.199  1.00  0.00     0.096 C 
ATOM     16  O   UNL     1       4.326   6.465  21.210  1.00  0.00    -0.362 OA
ATOM     17  C   UNL     1       4.504   5.542  23.426  1.00  0.00     0.045 C 
BRANCH  15  18
ATOM     18  C   UNL     1       2.897   4.613  21.525  1.00  0.00     0.042 C 
BRANCH  18  19
ATOM     19  C   UNL     1       2.887   4.594  19.962  1.00  0.00     0.030 CG0
ATOM     20  G   UNL     1       1.956   5.631  19.335  1.00  0.00     0.000 G0
ENDBRANCH  18  19
ENDBRANCH  15  18
ENDBRANCH   1  14
TORSDOF 0
ENDMDL
MODEL 3
REMARK VINA RESULT:    -4.828      1.627      3.732
REMARK INTER + INTRA:          -3.880
REMARK INTER:                  -6.485
REMARK INTRA:                   2.606
REMARK UNBOUND:                 2.641
REMARK SMILES C=C1C(=O)O[C@H]2[C@@H]1CCC(C)=CCC[C@@]1(C)O[C@H]21
REMARK SMILES IDX 6 1 7 2 2 3 1 4 3 5 4 6 5 7 8 8 9 9 10 10 11 11 12 12 18 14
REMARK SMILES IDX 15 15 17 16 16 17 14 18 13 19
REMARK H PARENT
REMARK Flexibility Score: 70.00
ROOT
ATOM      1  C   UNL     1       5.578   7.768  22.182  1.00  0.00     0.216 C 
ATOM      2  C   UNL     1       5.250   6.664  23.259  1.00  0.00     0.070 C 
ATOM      3  C   UNL     1       4.731   7.458  24.426  1.00  0.00     0.037 C 
ATOM      4  C   UNL     1       4.262   6.987  25.582  1.00  0.00     0.021 C 
ATOM      5  C   UNL     1       5.120   8.834  24.188  1.00  0.00     0.334 C 
ATOM      6  O   UNL     1       4.991   9.782  25.006  1.00  0.00    -0.247 OA
ATOM      7  O   UNL     1       5.688   8.979  22.935  1.00  0.00    -0.455 OA
ENDROOT
BRANCH   2   8
ATOM      8  C   UNL     1       4.496   5.326  22.894  1.00  0.00     0.017 C 
BRANCH   8   9
ATOM      9  C   UNL     1       3.071   5.206  22.255  1.00  0.00     0.031 C 
BRANCH   9  10
ATOM     10  C   UNL     1       2.949   4.986  20.751  1.00  0.00    -0.077 C 
ATOM     11  C   UNL     1       3.644   3.788  20.159  1.00  0.00     0.039 C 
ATOM     12  C   UNL     1       2.378   5.876  19.882  1.00  0.00    -0.028 CG0
ATOM     13  G   UNL     1       1.537   7.105  20.227  1.00  0.00     0.000 G0
ENDBRANCH   9  10
ENDBRANCH   8   9
ENDBRANCH   2   8
BRANCH   1  14
ATOM     14  C   UNL     1       4.456   7.881  21.158  1.00  0.00     0.192 C 
ATOM     15  C   UNL     1       3.406   8.895  20.804  1.00  0.00     0.096 C 
ATOM     16  O   UNL     1       3.320   8.158  21.965  1.00  0.00    -0.362 OA
ATOM     17  C   UNL     1       3.654  10.375  21.088  1.00  0.00     0.045 C 
BRANCH  15  18
ATOM     18  C   UNL     1       2.207   8.484  19.909  1.00  0.00     0.042 C 
BRANCH  18  19
ATOM     19  C   UNL     1       1.528   7.115  20.238  1.00  0.00     0.030 CG0
ATOM     20  G   UNL     1       2.377   5.897  19.875  1.00  0.00     0.000 G0
ENDBRANCH  18  19
ENDBRANCH  15  18
ENDBRANCH   1  14
TORSDOF 0
ENDMDL
MODEL 4
REMARK VINA RESULT:    -4.778      2.238      4.390
REMARK INTER + INTRA:          -3.813
REMARK INTER:                  -6.321
REMARK INTRA:                   2.509
REMARK UNBOUND:                 2.641
REMARK SMILES C=C1C(=O)O[C@H]2[C@@H]1CCC(C)=CCC[C@@]1(C)O[C@H]21
REMARK SMILES IDX 6 1 7 2 2 3 1 4 3 5 4 6 5 7 8 8 9 9 10 10 11 11 12 12 18 14
REMARK SMILES IDX 15 15 17 16 16 17 14 18 13 19
REMARK H PARENT
REMARK Flexibility Score: 70.00
ROOT
ATOM      1  C   UNL     1       3.752   5.662  19.591  1.00  0.00     0.216 C 
ATOM      2  C   UNL     1       2.704   6.167  18.528  1.00  0.00     0.070 C 
ATOM      3  C   UNL     1       1.384   5.737  19.108  1.00  0.00     0.037 C 
ATOM      4  C   UNL     1       0.167   5.972  18.615  1.00  0.00     0.021 C 
ATOM      5  C   UNL     1       1.689   4.757  20.131  1.00  0.00     0.334 C 
ATOM      6  O   UNL     1       0.844   4.059  20.750  1.00  0.00    -0.247 OA
ATOM      7  O   UNL     1       3.054   4.658  20.333  1.00  0.00    -0.455 OA
ENDROOT
BRANCH   2   8
ATOM      8  C   UNL     1       2.782   7.605  17.881  1.00  0.00     0.017 C 
BRANCH   8   9
ATOM      9  C   UNL     1       3.398   8.887  18.535  1.00  0.00     0.031 C 
BRANCH   9  10
ATOM     10  C   UNL     1       2.610   9.619  19.616  1.00  0.00    -0.077 C 
ATOM     11  C   UNL     1       1.218  10.084  19.276  1.00  0.00     0.039 C 
ATOM     12  C   UNL     1       3.129  10.013  20.821  1.00  0.00    -0.028 CG0
ATOM     13  G   UNL     1       4.464   9.598  21.438  1.00  0.00     0.000 G0
ENDBRANCH   9  10
ENDBRANCH   8   9
ENDBRANCH   2   8
BRANCH   1  14
ATOM     14  C   UNL     1       4.184   6.796  20.512  1.00  0.00     0.192 C 
ATOM     15  C   UNL     1       4.208   7.044  21.993  1.00  0.00     0.096 C 
ATOM     16  O   UNL     1       3.020   7.026  21.295  1.00  0.00    -0.362 OA
ATOM     17  C   UNL     1       4.318   5.865  22.958  1.00  0.00     0.045 C 
BRANCH  15  18
ATOM     18  C   UNL     1       4.402   8.486  22.532  1.00  0.00     0.042 C 
BRANCH  18  19
ATOM     19  C   UNL     1       4.493   9.624  21.464  1.00  0.00     0.030 CG0
ATOM     20  G   UNL     1       3.149  10.001  20.843  1.00  0.00     0.000 G0
ENDBRANCH  18  19
ENDBRANCH  15  18
ENDBRANCH   1  14
TORSDOF 0
ENDMDL
MODEL 5
REMARK VINA RESULT:    -4.760      2.390      5.268
REMARK INTER + INTRA:          -3.788
REMARK INTER:                  -6.491
REMARK INTRA:                   2.704
REMARK UNBOUND:                 2.641
REMARK SMILES C=C1C(=O)O[C@H]2[C@@H]1CCC(C)=CCC[C@@]1(C)O[C@H]21
REMARK SMILES IDX 6 1 7 2 2 3 1 4 3 5 4 6 5 7 8 8 9 9 10 10 11 11 12 12 18 14
REMARK SMILES IDX 15 15 17 16 16 17 14 18 13 19
REMARK H PARENT
REMARK Flexibility Score: 70.00
ROOT
ATOM      1  C   UNL     1       1.567   6.294  21.080  1.00  0.00     0.216 C 
ATOM      2  C   UNL     1       2.547   5.073  21.262  1.00  0.00     0.070 C 
ATOM      3  C   UNL     1       2.894   4.691  19.850  1.00  0.00     0.037 C 
ATOM      4  C   UNL     1       3.740   3.740  19.452  1.00  0.00     0.021 C 
ATOM      5  C   UNL     1       1.910   5.333  19.001  1.00  0.00     0.334 C 
ATOM      6  O   UNL     1       1.778   5.144  17.763  1.00  0.00    -0.247 OA
ATOM      7  O   UNL     1       1.098   6.178  19.734  1.00  0.00    -0.455 OA
ENDROOT
BRANCH   2   8
ATOM      8  C   UNL     1       3.715   5.078  22.324  1.00  0.00     0.017 C 
BRANCH   8   9
ATOM      9  C   UNL     1       4.825   6.172  22.481  1.00  0.00     0.031 C 
BRANCH   9  10
ATOM     10  C   UNL     1       4.584   7.342  23.427  1.00  0.00    -0.077 C 
ATOM     11  C   UNL     1       4.249   7.027  24.862  1.00  0.00     0.039 C 
ATOM     12  C   UNL     1       4.505   8.652  23.035  1.00  0.00    -0.028 CG0
ATOM     13  G   UNL     1       4.887   9.241  21.678  1.00  0.00     0.000 G0
ENDBRANCH   9  10
ENDBRANCH   8   9
ENDBRANCH   2   8
BRANCH   1  14
ATOM     14  C   UNL     1       2.300   7.615  21.273  1.00  0.00     0.192 C 
ATOM     15  C   UNL     1       2.557   8.846  20.452  1.00  0.00     0.096 C 
ATOM     16  O   UNL     1       3.181   7.652  20.159  1.00  0.00    -0.362 OA
ATOM     17  C   UNL     1       1.567   9.251  19.362  1.00  0.00     0.045 C 
BRANCH  15  18
ATOM     18  C   UNL     1       3.661   9.847  20.884  1.00  0.00     0.042 C 
BRANCH  18  19
ATOM     19  C   UNL     1       4.877   9.250  21.666  1.00  0.00     0.030 CG0
ATOM     20  G   UNL     1       4.512   8.667  23.030  1.00  0.00     0.000 G0
ENDBRANCH  18  19
ENDBRANCH  15  18
ENDBRANCH   1  14
TORSDOF 0
ENDMDL
MODEL 6
REMARK VINA RESULT:    -4.756      2.378      3.707
REMARK INTER + INTRA:          -3.783
REMARK INTER:                  -6.310
REMARK INTRA:                   2.527
REMARK UNBOUND:                 2.641
REMARK SMILES C=C1C(=O)O[C@H]2[C@@H]1CCC(C)=CCC[C@@]1(C)O[C@H]21
REMARK SMILES IDX 6 1 7 2 2 3 1 4 3 5 4 6 5 7 8 8 9 9 10 10 11 11 12 12 18 14
REMARK SMILES IDX 15 15 17 16 16 17 14 18 13 19
REMARK H PARENT
REMARK Flexibility Score: 70.00
ROOT
ATOM      1  C   UNL     1       1.977   4.684  20.976  1.00  0.00     0.216 C 
ATOM      2  C   UNL     1       1.874   6.253  21.099  1.00  0.00     0.070 C 
ATOM      3  C   UNL     1       3.188   6.641  21.718  1.00  0.00     0.037 C 
ATOM      4  C   UNL     1       3.625   7.873  21.985  1.00  0.00     0.021 C 
ATOM      5  C   UNL     1       3.760   5.423  22.257  1.00  0.00     0.334 C 
ATOM      6  O   UNL     1       4.791   5.356  22.975  1.00  0.00    -0.247 OA
ATOM      7  O   UNL     1       3.005   4.321  21.900  1.00  0.00    -0.455 OA
ENDROOT
BRANCH   2   8
ATOM      8  C   UNL     1       1.324   7.158  19.928  1.00  0.00     0.017 C 
BRANCH   8   9
ATOM      9  C   UNL     1       1.894   7.244  18.472  1.00  0.00     0.031 C 
BRANCH   9  10
ATOM     10  C   UNL     1       1.238   6.422  17.369  1.00  0.00    -0.077 C 
ATOM     11  C   UNL     1      -0.234   6.625  17.124  1.00  0.00     0.039 C 
ATOM     12  C   UNL     1       1.856   5.408  16.686  1.00  0.00    -0.028 CG0
ATOM     13  G   UNL     1       3.344   5.063  16.681  1.00  0.00     0.000 G0
ENDBRANCH   9  10
ENDBRANCH   8   9
ENDBRANCH   2   8
BRANCH   1  14
ATOM     14  C   UNL     1       2.367   4.273  19.561  1.00  0.00     0.192 C 
ATOM     15  C   UNL     1       3.551   3.622  18.907  1.00  0.00     0.096 C 
ATOM     16  O   UNL     1       3.623   4.913  19.383  1.00  0.00    -0.362 OA
ATOM     17  C   UNL     1       4.435   2.671  19.712  1.00  0.00     0.045 C 
BRANCH  15  18
ATOM     18  C   UNL     1       3.717   3.690  17.366  1.00  0.00     0.042 C 
BRANCH  18  19
ATOM     19  C   UNL     1       3.375   5.057  16.688  1.00  0.00     0.030 CG0
ATOM     20  G   UNL     1       1.884   5.392  16.683  1.00  0.00     0.000 G0
ENDBRANCH  18  19
ENDBRANCH  15  18
ENDBRANCH   1  14
TORSDOF 0
ENDMDL
MODEL 7
REMARK VINA RESULT:    -4.702      1.369      1.716
REMARK INTER + INTRA:          -3.710
REMARK INTER:                  -6.298
REMARK INTRA:                   2.588
REMARK UNBOUND:                 2.641
REMARK SMILES C=C1C(=O)O[C@H]2[C@@H]1CCC(C)=CCC[C@@]1(C)O[C@H]21
REMARK SMILES IDX 6 1 7 2 2 3 1 4 3 5 4 6 5 7 8 8 9 9 10 10 11 11 12 12 18 14
REMARK SMILES IDX 15 15 17 16 16 17 14 18 13 19
REMARK H PARENT
REMARK Flexibility Score: 70.00
ROOT
ATOM      1  C   UNL     1       2.956   7.425  21.956  1.00  0.00     0.216 C 
ATOM      2  C   UNL     1       3.545   8.467  20.930  1.00  0.00     0.070 C 
ATOM      3  C   UNL     1       5.025   8.418  21.195  1.00  0.00     0.037 C 
ATOM      4  C   UNL     1       5.986   9.080  20.549  1.00  0.00     0.021 C 
ATOM      5  C   UNL     1       5.188   7.761  22.477  1.00  0.00     0.334 C 
ATOM      6  O   UNL     1       6.270   7.654  23.110  1.00  0.00    -0.247 OA
ATOM      7  O   UNL     1       3.979   7.278  22.943  1.00  0.00    -0.455 OA
ENDROOT
BRANCH   2   8
ATOM      8  C   UNL     1       3.076   8.529  19.424  1.00  0.00     0.017 C 
BRANCH   8   9
ATOM      9  C   UNL     1       3.152   7.367  18.377  1.00  0.00     0.031 C 
BRANCH   9  10
ATOM     10  C   UNL     1       1.915   6.512  18.126  1.00  0.00    -0.077 C 
ATOM     11  C   UNL     1       0.653   7.215  17.700  1.00  0.00     0.039 C 
ATOM     12  C   UNL     1       1.828   5.174  18.401  1.00  0.00    -0.028 CG0
ATOM     13  G   UNL     1       2.971   4.221  18.751  1.00  0.00     0.000 G0
ENDBRANCH   9  10
ENDBRANCH   8   9
ENDBRANCH   2   8
BRANCH   1  14
ATOM     14  C   UNL     1       2.680   6.089  21.277  1.00  0.00     0.192 C 
ATOM     15  C   UNL     1       3.237   4.696  21.351  1.00  0.00     0.096 C 
ATOM     16  O   UNL     1       3.957   5.721  20.775  1.00  0.00    -0.362 OA
ATOM     17  C   UNL     1       3.885   4.206  22.645  1.00  0.00     0.045 C 
BRANCH  15  18
ATOM     18  C   UNL     1       2.914   3.674  20.230  1.00  0.00     0.042 C 
BRANCH  18  19
ATOM     19  C   UNL     1       2.968   4.209  18.761  1.00  0.00     0.030 CG0
ATOM     20  G   UNL     1       1.839   5.177  18.411  1.00  0.00     0.000 G0
ENDBRANCH  18  19
ENDBRANCH  15  18
ENDBRANCH   1  14
TORSDOF 0
ENDMDL
MODEL 8
REMARK VINA RESULT:    -4.673      1.777      2.647
REMARK INTER + INTRA:          -3.671
REMARK INTER:                  -6.266
REMARK INTRA:                   2.595
REMARK UNBOUND:                 2.641
REMARK SMILES C=C1C(=O)O[C@H]2[C@@H]1CCC(C)=CCC[C@@]1(C)O[C@H]21
REMARK SMILES IDX 6 1 7 2 2 3 1 4 3 5 4 6 5 7 8 8 9 9 10 10 11 11 12 12 18 14
REMARK SMILES IDX 15 15 17 16 16 17 14 18 13 19
REMARK H PARENT
REMARK Flexibility Score: 70.00
ROOT
ATOM      1  C   UNL     1       3.575   7.832  23.071  1.00  0.00     0.216 C 
ATOM      2  C   UNL     1       4.615   8.952  22.685  1.00  0.00     0.070 C 
ATOM      3  C   UNL     1       5.912   8.431  23.241  1.00  0.00     0.037 C 
ATOM      4  C   UNL     1       7.120   8.985  23.135  1.00  0.00     0.021 C 
ATOM      5  C   UNL     1       5.561   7.380  24.175  1.00  0.00     0.334 C 
ATOM      6  O   UNL     1       6.362   6.793  24.949  1.00  0.00    -0.247 OA
ATOM      7  O   UNL     1       4.205   7.111  24.133  1.00  0.00    -0.455 OA
ENDROOT
BRANCH   2   8
ATOM      8  C   UNL     1       4.650   9.615  21.253  1.00  0.00     0.017 C 
BRANCH   8   9
ATOM      9  C   UNL     1       4.836   8.871  19.888  1.00  0.00     0.031 C 
BRANCH   9  10
ATOM     10  C   UNL     1       3.604   8.512  19.065  1.00  0.00    -0.077 C 
ATOM     11  C   UNL     1       2.665   9.627  18.684  1.00  0.00     0.039 C 
ATOM     12  C   UNL     1       3.212   7.232  18.774  1.00  0.00    -0.028 CG0
ATOM     13  G   UNL     1       4.018   5.948  18.963  1.00  0.00     0.000 G0
ENDBRANCH   9  10
ENDBRANCH   8   9
ENDBRANCH   2   8
BRANCH   1  14
ATOM     14  C   UNL     1       3.306   6.908  21.890  1.00  0.00     0.192 C 
ATOM     15  C   UNL     1       3.575   5.469  21.554  1.00  0.00     0.096 C 
ATOM     16  O   UNL     1       4.597   6.392  21.594  1.00  0.00    -0.362 OA
ATOM     17  C   UNL     1       3.697   4.437  22.674  1.00  0.00     0.045 C 
BRANCH  15  18
ATOM     18  C   UNL     1       3.452   4.983  20.085  1.00  0.00     0.042 C 
BRANCH  18  19
ATOM     19  C   UNL     1       4.024   5.936  18.985  1.00  0.00     0.030 CG0
ATOM     20  G   UNL     1       3.212   7.214  18.787  1.00  0.00     0.000 G0
ENDBRANCH  18  19
ENDBRANCH  15  18
ENDBRANCH   1  14
TORSDOF 0
ENDMDL
MODEL 9
REMARK VINA RESULT:    -4.494      2.870      5.609
REMARK INTER + INTRA:          -3.429
REMARK INTER:                  -5.997
REMARK INTRA:                   2.568
REMARK UNBOUND:                 2.641
REMARK SMILES C=C1C(=O)O[C@H]2[C@@H]1CCC(C)=CCC[C@@]1(C)O[C@H]21
REMARK SMILES IDX 6 1 7 2 2 3 1 4 3 5 4 6 5 7 8 8 9 9 10 10 11 11 12 12 18 14
REMARK SMILES IDX 15 15 17 16 16 17 14 18 13 19
REMARK H PARENT
REMARK Flexibility Score: 70.00
ROOT
ATOM      1  C   UNL     1       3.294   7.876  21.285  1.00  0.00     0.216 C 
ATOM      2  C   UNL     1       3.126   6.620  22.222  1.00  0.00     0.070 C 
ATOM      3  C   UNL     1       3.400   5.461  21.303  1.00  0.00     0.037 C 
ATOM      4  C   UNL     1       3.437   4.166  21.621  1.00  0.00     0.021 C 
ATOM      5  C   UNL     1       3.308   5.981  19.953  1.00  0.00     0.334 C 
ATOM      6  O   UNL     1       3.336   5.290  18.901  1.00  0.00    -0.247 OA
ATOM      7  O   UNL     1       3.155   7.355  19.960  1.00  0.00    -0.455 OA
ENDROOT
BRANCH   2   8
ATOM      8  C   UNL     1       3.743   6.560  23.674  1.00  0.00     0.017 C 
BRANCH   8   9
ATOM      9  C   UNL     1       5.244   6.792  24.057  1.00  0.00     0.031 C 
BRANCH   9  10
ATOM     10  C   UNL     1       5.697   8.189  24.467  1.00  0.00    -0.077 C 
ATOM     11  C   UNL     1       4.982   8.849  25.616  1.00  0.00     0.039 C 
ATOM     12  C   UNL     1       6.606   8.943  23.773  1.00  0.00    -0.028 CG0
ATOM     13  G   UNL     1       7.526   8.483  22.643  1.00  0.00     0.000 G0
ENDBRANCH   9  10
ENDBRANCH   8   9
ENDBRANCH   2   8
BRANCH   1  14
ATOM     14  C   UNL     1       4.668   8.510  21.463  1.00  0.00     0.192 C 
ATOM     15  C   UNL     1       5.854   8.798  20.587  1.00  0.00     0.096 C 
ATOM     16  O   UNL     1       5.544   7.509  20.963  1.00  0.00    -0.362 OA
ATOM     17  C   UNL     1       5.655   9.016  19.089  1.00  0.00     0.045 C 
BRANCH  15  18
ATOM     18  C   UNL     1       7.222   9.147  21.231  1.00  0.00     0.042 C 
BRANCH  18  19
ATOM     19  C   UNL     1       7.532   8.485  22.613  1.00  0.00     0.030 CG0
ATOM     20  G   UNL     1       6.617   8.951  23.744  1.00  0.00     0.000 G0
ENDBRANCH  18  19
ENDBRANCH  15  18
ENDBRANCH   1  14
TORSDOF 0
ENDMDL
