MODEL 1
REMARK VINA RESULT:    -0.900      0.000      0.000
REMARK INTER + INTRA:          -0.926
REMARK INTER:                  -0.926
REMARK INTRA:                   0.000
REMARK UNBOUND:                 0.000
REMARK SMILES C=C1CCC[C@@]2(C)C[C@@]3(O)OC(=O)C(C)=C3C[C@H]12
REMARK SMILES IDX 15 1 14 2 16 3 17 4 18 5 2 6 1 7 3 8 4 9 5 10 6 11 8 12 9 13
REMARK SMILES IDX 11 14 12 15 13 16 7 17 10 18
REMARK H PARENT 10 19
REMARK Flexibility Score: inf
ROOT
ATOM      1  C   UNL     1      12.168  24.167   1.181  1.00  0.00     0.052 C 
ATOM      2  C   UNL     1      13.237  24.042   0.139  1.00  0.00     0.040 C 
ATOM      3  C   UNL     1      13.655  22.919  -0.446  1.00  0.00     0.012 C 
ATOM      4  C   UNL     1      13.074  21.547  -0.265  1.00  0.00     0.047 C 
ATOM      5  C   UNL     1      12.467  21.098  -1.614  1.00  0.00     0.025 C 
ATOM      6  C   UNL     1      11.796  19.731  -1.616  1.00  0.00    -0.073 C 
ATOM      7  C   UNL     1      11.829  18.875  -0.578  1.00  0.00     0.008 C 
ATOM      8  C   UNL     1      11.080  19.353  -2.891  1.00  0.00     0.031 C 
ATOM      9  C   UNL     1      12.022  19.488  -4.095  1.00  0.00     0.005 C 
ATOM     10  C   UNL     1      12.740  20.854  -4.125  1.00  0.00     0.008 C 
ATOM     11  C   UNL     1      13.489  21.194  -2.799  1.00  0.00    -0.019 C 
ATOM     12  C   UNL     1      14.034  22.658  -2.911  1.00  0.00     0.092 C 
ATOM     13  C   UNL     1      14.595  23.227  -1.589  1.00  0.00     0.235 C 
ATOM     14  O   UNL     1      14.620  24.654  -1.624  1.00  0.00    -0.426 OA
ATOM     15  C   UNL     1      13.834  25.138  -0.594  1.00  0.00     0.336 C 
ATOM     16  O   UNL     1      13.652  26.362  -0.365  1.00  0.00    -0.246 OA
ATOM     17  C   UNL     1      14.674  20.205  -2.619  1.00  0.00     0.012 C 
ENDROOT
BRANCH  13  18
ATOM     18  O   UNL     1      15.886  22.732  -1.337  1.00  0.00    -0.353 OA
ATOM     19  H   UNL     1      15.784  21.827  -0.941  1.00  0.00     0.215 HD
ENDBRANCH  13  18
TORSDOF 1
ENDMDL
MODEL 2
REMARK VINA RESULT:    -0.778      1.735      2.710
REMARK INTER + INTRA:          -0.801
REMARK INTER:                  -0.801
REMARK INTRA:                   0.000
REMARK UNBOUND:                 0.000
REMARK SMILES C=C1CCC[C@@]2(C)C[C@@]3(O)OC(=O)C(C)=C3C[C@H]12
REMARK SMILES IDX 15 1 14 2 16 3 17 4 18 5 2 6 1 7 3 8 4 9 5 10 6 11 8 12 9 13
REMARK SMILES IDX 11 14 12 15 13 16 7 17 10 18
REMARK H PARENT 10 19
REMARK Flexibility Score: inf
ROOT
ATOM      1  C   UNL     1      17.092  21.499   0.349  1.00  0.00     0.052 C 
ATOM      2  C   UNL     1      16.154  22.524  -0.211  1.00  0.00     0.040 C 
ATOM      3  C   UNL     1      15.431  22.421  -1.326  1.00  0.00     0.012 C 
ATOM      4  C   UNL     1      15.317  21.211  -2.208  1.00  0.00     0.047 C 
ATOM      5  C   UNL     1      13.858  20.704  -2.146  1.00  0.00     0.025 C 
ATOM      6  C   UNL     1      13.557  19.452  -2.960  1.00  0.00    -0.073 C 
ATOM      7  C   UNL     1      14.432  18.875  -3.804  1.00  0.00     0.008 C 
ATOM      8  C   UNL     1      12.172  18.875  -2.787  1.00  0.00     0.031 C 
ATOM      9  C   UNL     1      11.107  19.950  -3.046  1.00  0.00     0.005 C 
ATOM     10  C   UNL     1      11.381  21.246  -2.254  1.00  0.00     0.008 C 
ATOM     11  C   UNL     1      12.813  21.824  -2.481  1.00  0.00    -0.019 C 
ATOM     12  C   UNL     1      13.007  23.036  -1.508  1.00  0.00     0.092 C 
ATOM     13  C   UNL     1      14.455  23.568  -1.442  1.00  0.00     0.235 C 
ATOM     14  O   UNL     1      14.667  24.307  -0.239  1.00  0.00    -0.426 OA
ATOM     15  C   UNL     1      15.682  23.704   0.481  1.00  0.00     0.336 C 
ATOM     16  O   UNL     1      16.098  24.121   1.594  1.00  0.00    -0.246 OA
ATOM     17  C   UNL     1      12.937  22.306  -3.952  1.00  0.00     0.012 C 
ENDROOT
BRANCH  13  18
ATOM     18  O   UNL     1      14.744  24.375  -2.556  1.00  0.00    -0.353 OA
ATOM     19  H   UNL     1      13.929  24.401  -3.122  1.00  0.00     0.215 HD
ENDBRANCH  13  18
TORSDOF 1
ENDMDL
MODEL 3
REMARK VINA RESULT:     0.593      2.692      5.418
REMARK INTER + INTRA:           0.610
REMARK INTER:                   0.610
REMARK INTRA:                   0.000
REMARK UNBOUND:                 0.000
REMARK SMILES C=C1CCC[C@@]2(C)C[C@@]3(O)OC(=O)C(C)=C3C[C@H]12
REMARK SMILES IDX 15 1 14 2 16 3 17 4 18 5 2 6 1 7 3 8 4 9 5 10 6 11 8 12 9 13
REMARK SMILES IDX 11 14 12 15 13 16 7 17 10 18
REMARK H PARENT 10 19
REMARK Flexibility Score: inf
ROOT
ATOM      1  C   UNL     1      13.973  19.268  -4.120  1.00  0.00     0.052 C 
ATOM      2  C   UNL     1      12.969  19.592  -3.056  1.00  0.00     0.040 C 
ATOM      3  C   UNL     1      13.189  20.272  -1.931  1.00  0.00     0.012 C 
ATOM      4  C   UNL     1      14.467  20.952  -1.533  1.00  0.00     0.047 C 
ATOM      5  C   UNL     1      14.206  22.474  -1.478  1.00  0.00     0.025 C 
ATOM      6  C   UNL     1      15.408  23.340  -1.120  1.00  0.00    -0.073 C 
ATOM      7  C   UNL     1      16.599  22.849  -0.730  1.00  0.00     0.008 C 
ATOM      8  C   UNL     1      15.191  24.832  -1.206  1.00  0.00     0.031 C 
ATOM      9  C   UNL     1      13.969  25.244  -0.374  1.00  0.00     0.005 C 
ATOM     10  C   UNL     1      12.728  24.381  -0.691  1.00  0.00     0.008 C 
ATOM     11  C   UNL     1      12.987  22.848  -0.565  1.00  0.00    -0.019 C 
ATOM     12  C   UNL     1      11.706  22.097  -1.061  1.00  0.00     0.092 C 
ATOM     13  C   UNL     1      11.890  20.571  -1.221  1.00  0.00     0.235 C 
ATOM     14  O   UNL     1      10.900  20.034  -2.099  1.00  0.00    -0.426 OA
ATOM     15  C   UNL     1      11.535  19.439  -3.174  1.00  0.00     0.336 C 
ATOM     16  O   UNL     1      10.930  18.878  -4.125  1.00  0.00    -0.246 OA
ATOM     17  C   UNL     1      13.257  22.500   0.925  1.00  0.00     0.012 C 
ENDROOT
BRANCH  13  18
ATOM     18  O   UNL     1      11.825  19.924   0.024  1.00  0.00    -0.353 OA
ATOM     19  H   UNL     1      11.870  18.947  -0.147  1.00  0.00     0.215 HD
ENDBRANCH  13  18
TORSDOF 1
ENDMDL
MODEL 4
REMARK VINA RESULT:     1.223      1.402      1.603
REMARK INTER + INTRA:           1.259
REMARK INTER:                   1.259
REMARK INTRA:                   0.000
REMARK UNBOUND:                 0.000
REMARK SMILES C=C1CCC[C@@]2(C)C[C@@]3(O)OC(=O)C(C)=C3C[C@H]12
REMARK SMILES IDX 15 1 14 2 16 3 17 4 18 5 2 6 1 7 3 8 4 9 5 10 6 11 8 12 9 13
REMARK SMILES IDX 11 14 12 15 13 16 7 17 10 18
REMARK H PARENT 10 19
REMARK Flexibility Score: inf
ROOT
ATOM      1  C   UNL     1      12.569  25.202  -1.010  1.00  0.00     0.052 C 
ATOM      2  C   UNL     1      13.700  24.228  -0.887  1.00  0.00     0.040 C 
ATOM      3  C   UNL     1      13.609  22.899  -0.848  1.00  0.00     0.012 C 
ATOM      4  C   UNL     1      12.361  22.083  -1.024  1.00  0.00     0.047 C 
ATOM      5  C   UNL     1      12.506  21.253  -2.320  1.00  0.00     0.025 C 
ATOM      6  C   UNL     1      11.311  20.380  -2.684  1.00  0.00    -0.073 C 
ATOM      7  C   UNL     1      10.240  20.201  -1.889  1.00  0.00     0.008 C 
ATOM      8  C   UNL     1      11.394  19.681  -4.021  1.00  0.00     0.031 C 
ATOM      9  C   UNL     1      12.696  18.876  -4.125  1.00  0.00     0.005 C 
ATOM     10  C   UNL     1      13.934  19.717  -3.747  1.00  0.00     0.008 C 
ATOM     11  C   UNL     1      13.821  20.400  -2.349  1.00  0.00    -0.019 C 
ATOM     12  C   UNL     1      15.062  21.336  -2.164  1.00  0.00     0.092 C 
ATOM     13  C   UNL     1      14.977  22.263  -0.931  1.00  0.00     0.235 C 
ATOM     14  O   UNL     1      15.854  23.381  -1.079  1.00  0.00    -0.426 OA
ATOM     15  C   UNL     1      15.105  24.543  -1.035  1.00  0.00     0.336 C 
ATOM     16  O   UNL     1      15.594  25.698  -1.142  1.00  0.00    -0.246 OA
ATOM     17  C   UNL     1      13.820  19.304  -1.248  1.00  0.00     0.012 C 
ENDROOT
BRANCH  13  18
ATOM     18  O   UNL     1      15.289  21.563   0.246  1.00  0.00    -0.353 OA
ATOM     19  H   UNL     1      14.911  22.079   1.006  1.00  0.00     0.215 HD
ENDBRANCH  13  18
TORSDOF 1
ENDMDL
MODEL 5
REMARK VINA RESULT:     1.806      2.264      4.938
REMARK INTER + INTRA:           1.859
REMARK INTER:                   1.859
REMARK INTRA:                   0.000
REMARK UNBOUND:                 0.000
REMARK SMILES C=C1CCC[C@@]2(C)C[C@@]3(O)OC(=O)C(C)=C3C[C@H]12
REMARK SMILES IDX 15 1 14 2 16 3 17 4 18 5 2 6 1 7 3 8 4 9 5 10 6 11 8 12 9 13
REMARK SMILES IDX 11 14 12 15 13 16 7 17 10 18
REMARK H PARENT 10 19
REMARK Flexibility Score: inf
ROOT
ATOM      1  C   UNL     1      10.861  19.801  -1.728  1.00  0.00     0.052 C 
ATOM      2  C   UNL     1      11.960  20.515  -2.455  1.00  0.00     0.040 C 
ATOM      3  C   UNL     1      12.543  21.659  -2.097  1.00  0.00     0.012 C 
ATOM      4  C   UNL     1      12.299  22.429  -0.832  1.00  0.00     0.047 C 
ATOM      5  C   UNL     1      13.600  22.413   0.002  1.00  0.00     0.025 C 
ATOM      6  C   UNL     1      13.533  23.123   1.348  1.00  0.00    -0.073 C 
ATOM      7  C   UNL     1      12.480  23.851   1.763  1.00  0.00     0.008 C 
ATOM      8  C   UNL     1      14.756  22.986   2.224  1.00  0.00     0.031 C 
ATOM      9  C   UNL     1      16.015  23.412   1.456  1.00  0.00     0.005 C 
ATOM     10  C   UNL     1      16.117  22.730   0.075  1.00  0.00     0.008 C 
ATOM     11  C   UNL     1      14.844  22.918  -0.808  1.00  0.00    -0.019 C 
ATOM     12  C   UNL     1      15.019  22.053  -2.101  1.00  0.00     0.092 C 
ATOM     13  C   UNL     1      13.744  21.945  -2.967  1.00  0.00     0.235 C 
ATOM     14  O   UNL     1      13.812  20.805  -3.825  1.00  0.00    -0.426 OA
ATOM     15  C   UNL     1      12.750  19.968  -3.537  1.00  0.00     0.336 C 
ATOM     16  O   UNL     1      12.538  18.875  -4.125  1.00  0.00    -0.246 OA
ATOM     17  C   UNL     1      14.711  24.417  -1.192  1.00  0.00     0.012 C 
ENDROOT
BRANCH  13  18
ATOM     18  O   UNL     1      13.557  23.108  -3.732  1.00  0.00    -0.353 OA
ATOM     19  H   UNL     1      14.446  23.537  -3.841  1.00  0.00     0.215 HD
ENDBRANCH  13  18
TORSDOF 1
ENDMDL
