MODEL 1
REMARK VINA RESULT:    -4.610      0.000      0.000
REMARK INTER + INTRA:         -10.784
REMARK INTER:                  -8.382
REMARK INTRA:                  -2.402
REMARK UNBOUND:                -2.402
REMARK SMILES CCCCCCCCCCCCCCCC(=O)[O-]
REMARK SMILES IDX 9 1 10 2 11 3 12 4 13 5 14 6 15 7 16 8 17 9 18 10 8 11 7 12
REMARK SMILES IDX 6 13 5 14 4 15 3 16 2 17 1 18
REMARK H PARENT
REMARK Flexibility Score: inf
ROOT
ATOM      1  C   UNL     1      15.009 -33.650  22.931  1.00  0.00     0.000 C 
ENDROOT
BRANCH   1   2
ATOM      2  C   UNL     1      15.003 -33.766  21.393  1.00  0.00     0.000 C 
BRANCH   2   3
ATOM      3  C   UNL     1      14.021 -32.819  20.674  1.00  0.00     0.000 C 
BRANCH   3   4
ATOM      4  C   UNL     1      14.029 -31.362  21.184  1.00  0.00     0.000 C 
BRANCH   4   5
ATOM      5  C   UNL     1      12.791 -30.956  22.003  1.00  0.00     0.000 C 
BRANCH   5   6
ATOM      6  C   UNL     1      13.154 -30.433  23.402  1.00  0.00     0.006 C 
BRANCH   6   7
ATOM      7  C   UNL     1      13.736 -29.019  23.329  1.00  0.00     0.053 C 
BRANCH   7   8
ATOM      8  C   UNL     1      12.785 -28.034  23.939  1.00  0.00     0.041 C 
ATOM      9  O   UNL     1      13.217 -26.946  24.407  1.00  0.00    -0.550 OA
ATOM     10  O   UNL     1      11.437 -28.357  24.071  1.00  0.00    -0.550 OA
ENDBRANCH   7   8
ENDBRANCH   6   7
ENDBRANCH   5   6
ENDBRANCH   4   5
ENDBRANCH   3   4
ENDBRANCH   2   3
ENDBRANCH   1   2
BRANCH   1  11
ATOM     11  C   UNL     1      16.299 -34.154  23.616  1.00  0.00     0.000 C 
BRANCH  11  12
ATOM     12  C   UNL     1      17.149 -33.025  24.242  1.00  0.00    -0.000 C 
BRANCH  12  13
ATOM     13  C   UNL     1      16.671 -31.627  23.803  1.00  0.00    -0.000 C 
BRANCH  13  14
ATOM     14  C   UNL     1      17.737 -30.865  23.003  1.00  0.00    -0.000 C 
BRANCH  14  15
ATOM     15  C   UNL     1      17.587 -31.063  21.481  1.00  0.00    -0.000 C 
BRANCH  15  16
ATOM     16  C   UNL     1      18.733 -31.890  20.872  1.00  0.00    -0.000 C 
BRANCH  16  17
ATOM     17  C   UNL     1      18.291 -33.197  20.192  1.00  0.00    -0.003 C 
ATOM     18  C   UNL     1      18.729 -34.447  20.959  1.00  0.00     0.004 C 
ENDBRANCH  16  17
ENDBRANCH  15  16
ENDBRANCH  14  15
ENDBRANCH  13  14
ENDBRANCH  12  13
ENDBRANCH  11  12
ENDBRANCH   1  11
TORSDOF 14
ENDMDL
MODEL 2
REMARK VINA RESULT:    -4.380      1.006      2.494
REMARK INTER + INTRA:         -10.368
REMARK INTER:                  -8.359
REMARK INTRA:                  -2.008
REMARK UNBOUND:                -2.402
REMARK SMILES CCCCCCCCCCCCCCCC(=O)[O-]
REMARK SMILES IDX 9 1 10 2 11 3 12 4 13 5 14 6 15 7 16 8 17 9 18 10 8 11 7 12
REMARK SMILES IDX 6 13 5 14 4 15 3 16 2 17 1 18
REMARK H PARENT
REMARK Flexibility Score: inf
ROOT
ATOM      1  C   UNL     1      16.184 -34.446  22.463  1.00  0.00     0.000 C 
ENDROOT
BRANCH   1   2
ATOM      2  C   UNL     1      15.434 -34.651  21.131  1.00  0.00     0.000 C 
BRANCH   2   3
ATOM      3  C   UNL     1      14.575 -33.453  20.678  1.00  0.00     0.000 C 
BRANCH   3   4
ATOM      4  C   UNL     1      14.294 -32.402  21.773  1.00  0.00     0.000 C 
BRANCH   4   5
ATOM      5  C   UNL     1      13.402 -31.228  21.329  1.00  0.00     0.000 C 
BRANCH   5   6
ATOM      6  C   UNL     1      12.362 -30.843  22.393  1.00  0.00     0.006 C 
BRANCH   6   7
ATOM      7  C   UNL     1      12.989 -29.981  23.492  1.00  0.00     0.053 C 
BRANCH   7   8
ATOM      8  C   UNL     1      12.193 -28.726  23.685  1.00  0.00     0.041 C 
ATOM      9  O   UNL     1      10.995 -28.672  23.297  1.00  0.00    -0.550 OA
ATOM     10  O   UNL     1      12.801 -27.590  24.212  1.00  0.00    -0.550 OA
ENDBRANCH   7   8
ENDBRANCH   6   7
ENDBRANCH   5   6
ENDBRANCH   4   5
ENDBRANCH   3   4
ENDBRANCH   2   3
ENDBRANCH   1   2
BRANCH   1  11
ATOM     11  C   UNL     1      17.714 -34.276  22.328  1.00  0.00     0.000 C 
BRANCH  11  12
ATOM     12  C   UNL     1      18.218 -34.351  20.869  1.00  0.00    -0.000 C 
BRANCH  12  13
ATOM     13  C   UNL     1      18.566 -32.960  20.303  1.00  0.00    -0.000 C 
BRANCH  13  14
ATOM     14  C   UNL     1      19.550 -32.191  21.196  1.00  0.00    -0.000 C 
BRANCH  14  15
ATOM     15  C   UNL     1      19.073 -30.757  21.500  1.00  0.00    -0.000 C 
BRANCH  15  16
ATOM     16  C   UNL     1      17.548 -30.597  21.373  1.00  0.00    -0.000 C 
BRANCH  16  17
ATOM     17  C   UNL     1      16.833 -30.198  22.677  1.00  0.00    -0.003 C 
ATOM     18  C   UNL     1      17.392 -30.915  23.907  1.00  0.00     0.004 C 
ENDBRANCH  16  17
ENDBRANCH  15  16
ENDBRANCH  14  15
ENDBRANCH  13  14
ENDBRANCH  12  13
ENDBRANCH  11  12
ENDBRANCH   1  11
TORSDOF 14
ENDMDL
MODEL 3
REMARK VINA RESULT:    -4.356      1.290      3.134
REMARK INTER + INTRA:         -10.323
REMARK INTER:                  -8.048
REMARK INTRA:                  -2.274
REMARK UNBOUND:                -2.402
REMARK SMILES CCCCCCCCCCCCCCCC(=O)[O-]
REMARK SMILES IDX 9 1 10 2 11 3 12 4 13 5 14 6 15 7 16 8 17 9 18 10 8 11 7 12
REMARK SMILES IDX 6 13 5 14 4 15 3 16 2 17 1 18
REMARK H PARENT
REMARK Flexibility Score: inf
ROOT
ATOM      1  C   UNL     1      17.980 -34.011  19.395  1.00  0.00     0.000 C 
ENDROOT
BRANCH   1   2
ATOM      2  C   UNL     1      16.731 -34.913  19.315  1.00  0.00     0.000 C 
BRANCH   2   3
ATOM      3  C   UNL     1      15.765 -34.793  20.512  1.00  0.00     0.000 C 
BRANCH   3   4
ATOM      4  C   UNL     1      14.641 -33.750  20.341  1.00  0.00     0.000 C 
BRANCH   4   5
ATOM      5  C   UNL     1      14.412 -32.838  21.559  1.00  0.00     0.000 C 
BRANCH   5   6
ATOM      6  C   UNL     1      13.765 -31.497  21.180  1.00  0.00     0.006 C 
BRANCH   6   7
ATOM      7  C   UNL     1      13.683 -30.561  22.389  1.00  0.00     0.053 C 
BRANCH   7   8
ATOM      8  C   UNL     1      12.276 -30.084  22.582  1.00  0.00     0.041 C 
ATOM      9  O   UNL     1      12.000 -29.298  23.528  1.00  0.00    -0.550 OA
ATOM     10  O   UNL     1      11.256 -30.578  21.773  1.00  0.00    -0.550 OA
ENDBRANCH   7   8
ENDBRANCH   6   7
ENDBRANCH   5   6
ENDBRANCH   4   5
ENDBRANCH   3   4
ENDBRANCH   2   3
ENDBRANCH   1   2
BRANCH   1  11
ATOM     11  C   UNL     1      18.488 -33.731  20.828  1.00  0.00     0.000 C 
BRANCH  11  12
ATOM     12  C   UNL     1      19.059 -32.307  21.013  1.00  0.00    -0.000 C 
BRANCH  12  13
ATOM     13  C   UNL     1      18.023 -31.217  20.677  1.00  0.00    -0.000 C 
BRANCH  13  14
ATOM     14  C   UNL     1      17.379 -30.610  21.932  1.00  0.00    -0.000 C 
BRANCH  14  15
ATOM     15  C   UNL     1      17.945 -31.209  23.234  1.00  0.00    -0.000 C 
BRANCH  15  16
ATOM     16  C   UNL     1      16.875 -31.930  24.073  1.00  0.00    -0.000 C 
BRANCH  16  17
ATOM     17  C   UNL     1      17.354 -33.229  24.745  1.00  0.00    -0.003 C 
ATOM     18  C   UNL     1      16.783 -34.487  24.087  1.00  0.00     0.004 C 
ENDBRANCH  16  17
ENDBRANCH  15  16
ENDBRANCH  14  15
ENDBRANCH  13  14
ENDBRANCH  12  13
ENDBRANCH  11  12
ENDBRANCH   1  11
TORSDOF 14
ENDMDL
MODEL 4
REMARK VINA RESULT:    -4.350      3.935      6.108
REMARK INTER + INTRA:         -10.313
REMARK INTER:                  -8.002
REMARK INTRA:                  -2.311
REMARK UNBOUND:                -2.402
REMARK SMILES CCCCCCCCCCCCCCCC(=O)[O-]
REMARK SMILES IDX 9 1 10 2 11 3 12 4 13 5 14 6 15 7 16 8 17 9 18 10 8 11 7 12
REMARK SMILES IDX 6 13 5 14 4 15 3 16 2 17 1 18
REMARK H PARENT
REMARK Flexibility Score: inf
ROOT
ATOM      1  C   UNL     1      16.273 -33.593  22.861  1.00  0.00     0.000 C 
ENDROOT
BRANCH   1   2
ATOM      2  C   UNL     1      15.284 -34.406  22.000  1.00  0.00     0.000 C 
BRANCH   2   3
ATOM      3  C   UNL     1      15.181 -33.955  20.529  1.00  0.00     0.000 C 
BRANCH   3   4
ATOM      4  C   UNL     1      16.284 -34.503  19.600  1.00  0.00     0.000 C 
BRANCH   4   5
ATOM      5  C   UNL     1      16.486 -36.028  19.663  1.00  0.00     0.000 C 
BRANCH   5   6
ATOM      6  C   UNL     1      17.954 -36.420  19.891  1.00  0.00     0.006 C 
BRANCH   6   7
ATOM      7  C   UNL     1      18.128 -37.158  21.221  1.00  0.00     0.053 C 
BRANCH   7   8
ATOM      8  C   UNL     1      18.747 -36.251  22.241  1.00  0.00     0.041 C 
ATOM      9  O   UNL     1      18.412 -36.342  23.453  1.00  0.00    -0.550 OA
ATOM     10  O   UNL     1      19.624 -35.247  21.839  1.00  0.00    -0.550 OA
ENDBRANCH   7   8
ENDBRANCH   6   7
ENDBRANCH   5   6
ENDBRANCH   4   5
ENDBRANCH   3   4
ENDBRANCH   2   3
ENDBRANCH   1   2
BRANCH   1  11
ATOM     11  C   UNL     1      15.649 -32.917  24.103  1.00  0.00     0.000 C 
BRANCH  11  12
ATOM     12  C   UNL     1      14.113 -32.772  24.022  1.00  0.00    -0.000 C 
BRANCH  12  13
ATOM     13  C   UNL     1      13.683 -31.337  23.659  1.00  0.00    -0.000 C 
BRANCH  13  14
ATOM     14  C   UNL     1      13.433 -31.161  22.154  1.00  0.00    -0.000 C 
BRANCH  14  15
ATOM     15  C   UNL     1      14.607 -30.464  21.438  1.00  0.00    -0.000 C 
BRANCH  15  16
ATOM     16  C   UNL     1      15.426 -29.562  22.378  1.00  0.00    -0.000 C 
BRANCH  16  17
ATOM     17  C   UNL     1      16.924 -29.905  22.456  1.00  0.00    -0.003 C 
ATOM     18  C   UNL     1      17.412 -30.719  21.256  1.00  0.00     0.004 C 
ENDBRANCH  16  17
ENDBRANCH  15  16
ENDBRANCH  14  15
ENDBRANCH  13  14
ENDBRANCH  12  13
ENDBRANCH  11  12
ENDBRANCH   1  11
TORSDOF 14
ENDMDL
MODEL 5
REMARK VINA RESULT:    -4.295      1.598      2.718
REMARK INTER + INTRA:         -10.211
REMARK INTER:                  -8.526
REMARK INTRA:                  -1.686
REMARK UNBOUND:                -2.402
REMARK SMILES CCCCCCCCCCCCCCCC(=O)[O-]
REMARK SMILES IDX 9 1 10 2 11 3 12 4 13 5 14 6 15 7 16 8 17 9 18 10 8 11 7 12
REMARK SMILES IDX 6 13 5 14 4 15 3 16 2 17 1 18
REMARK H PARENT
REMARK Flexibility Score: inf
ROOT
ATOM      1  C   UNL     1      17.083 -34.032  23.495  1.00  0.00     0.000 C 
ENDROOT
BRANCH   1   2
ATOM      2  C   UNL     1      15.730 -34.340  22.821  1.00  0.00     0.000 C 
BRANCH   2   3
ATOM      3  C   UNL     1      14.755 -33.147  22.748  1.00  0.00     0.000 C 
BRANCH   3   4
ATOM      4  C   UNL     1      14.340 -32.729  21.322  1.00  0.00     0.000 C 
BRANCH   4   5
ATOM      5  C   UNL     1      13.328 -31.572  21.254  1.00  0.00     0.000 C 
BRANCH   5   6
ATOM      6  C   UNL     1      12.929 -31.055  22.645  1.00  0.00     0.006 C 
BRANCH   6   7
ATOM      7  C   UNL     1      13.265 -29.569  22.800  1.00  0.00     0.053 C 
BRANCH   7   8
ATOM      8  C   UNL     1      12.236 -28.891  23.652  1.00  0.00     0.041 C 
ATOM      9  O   UNL     1      12.537 -28.493  24.810  1.00  0.00    -0.550 OA
ATOM     10  O   UNL     1      10.923 -28.777  23.202  1.00  0.00    -0.550 OA
ENDBRANCH   7   8
ENDBRANCH   6   7
ENDBRANCH   5   6
ENDBRANCH   4   5
ENDBRANCH   3   4
ENDBRANCH   2   3
ENDBRANCH   1   2
BRANCH   1  11
ATOM     11  C   UNL     1      18.222 -33.650  22.522  1.00  0.00     0.000 C 
BRANCH  11  12
ATOM     12  C   UNL     1      17.954 -32.344  21.739  1.00  0.00    -0.000 C 
BRANCH  12  13
ATOM     13  C   UNL     1      18.340 -32.468  20.252  1.00  0.00    -0.000 C 
BRANCH  13  14
ATOM     14  C   UNL     1      18.306 -33.920  19.755  1.00  0.00    -0.000 C 
BRANCH  14  15
ATOM     15  C   UNL     1      16.933 -34.312  19.172  1.00  0.00    -0.000 C 
BRANCH  15  16
ATOM     16  C   UNL     1      16.445 -35.685  19.669  1.00  0.00    -0.000 C 
BRANCH  16  17
ATOM     17  C   UNL     1      17.457 -36.830  19.488  1.00  0.00    -0.003 C 
ATOM     18  C   UNL     1      17.945 -37.410  20.817  1.00  0.00     0.004 C 
ENDBRANCH  16  17
ENDBRANCH  15  16
ENDBRANCH  14  15
ENDBRANCH  13  14
ENDBRANCH  12  13
ENDBRANCH  11  12
ENDBRANCH   1  11
TORSDOF 14
ENDMDL
MODEL 6
REMARK VINA RESULT:    -4.269      3.802      6.465
REMARK INTER + INTRA:         -10.164
REMARK INTER:                  -8.247
REMARK INTRA:                  -1.917
REMARK UNBOUND:                -2.402
REMARK SMILES CCCCCCCCCCCCCCCC(=O)[O-]
REMARK SMILES IDX 9 1 10 2 11 3 12 4 13 5 14 6 15 7 16 8 17 9 18 10 8 11 7 12
REMARK SMILES IDX 6 13 5 14 4 15 3 16 2 17 1 18
REMARK H PARENT
REMARK Flexibility Score: inf
ROOT
ATOM      1  C   UNL     1      18.791 -31.846  21.695  1.00  0.00     0.000 C 
ENDROOT
BRANCH   1   2
ATOM      2  C   UNL     1      18.681 -33.252  22.320  1.00  0.00     0.000 C 
BRANCH   2   3
ATOM      3  C   UNL     1      17.510 -33.433  23.307  1.00  0.00     0.000 C 
BRANCH   3   4
ATOM      4  C   UNL     1      16.541 -34.585  22.965  1.00  0.00     0.000 C 
BRANCH   4   5
ATOM      5  C   UNL     1      15.356 -34.188  22.066  1.00  0.00     0.000 C 
BRANCH   5   6
ATOM      6  C   UNL     1      15.354 -34.941  20.726  1.00  0.00     0.006 C 
BRANCH   6   7
ATOM      7  C   UNL     1      16.131 -34.169  19.657  1.00  0.00     0.053 C 
BRANCH   7   8
ATOM      8  C   UNL     1      17.369 -34.920  19.271  1.00  0.00     0.041 C 
ATOM      9  O   UNL     1      18.368 -34.300  18.818  1.00  0.00    -0.550 OA
ATOM     10  O   UNL     1      17.385 -36.311  19.327  1.00  0.00    -0.550 OA
ENDBRANCH   7   8
ENDBRANCH   6   7
ENDBRANCH   5   6
ENDBRANCH   4   5
ENDBRANCH   3   4
ENDBRANCH   2   3
ENDBRANCH   1   2
BRANCH   1  11
ATOM     11  C   UNL     1      17.444 -31.215  21.275  1.00  0.00     0.000 C 
BRANCH  11  12
ATOM     12  C   UNL     1      16.919 -30.159  22.274  1.00  0.00    -0.000 C 
BRANCH  12  13
ATOM     13  C   UNL     1      15.527 -29.626  21.879  1.00  0.00    -0.000 C 
BRANCH  13  14
ATOM     14  C   UNL     1      14.580 -30.743  21.416  1.00  0.00    -0.000 C 
BRANCH  14  15
ATOM     15  C   UNL     1      13.392 -30.945  22.378  1.00  0.00    -0.000 C 
BRANCH  15  16
ATOM     16  C   UNL     1      13.509 -30.095  23.655  1.00  0.00    -0.000 C 
BRANCH  16  17
ATOM     17  C   UNL     1      12.391 -29.053  23.837  1.00  0.00    -0.003 C 
ATOM     18  C   UNL     1      12.926 -27.654  24.152  1.00  0.00     0.004 C 
ENDBRANCH  16  17
ENDBRANCH  15  16
ENDBRANCH  14  15
ENDBRANCH  13  14
ENDBRANCH  12  13
ENDBRANCH  11  12
ENDBRANCH   1  11
TORSDOF 14
ENDMDL
MODEL 7
REMARK VINA RESULT:    -4.261      3.809      6.760
REMARK INTER + INTRA:         -10.150
REMARK INTER:                  -8.408
REMARK INTRA:                  -1.741
REMARK UNBOUND:                -2.402
REMARK SMILES CCCCCCCCCCCCCCCC(=O)[O-]
REMARK SMILES IDX 9 1 10 2 11 3 12 4 13 5 14 6 15 7 16 8 17 9 18 10 8 11 7 12
REMARK SMILES IDX 6 13 5 14 4 15 3 16 2 17 1 18
REMARK H PARENT
REMARK Flexibility Score: inf
ROOT
ATOM      1  C   UNL     1      15.457 -33.020  23.812  1.00  0.00     0.000 C 
ENDROOT
BRANCH   1   2
ATOM      2  C   UNL     1      16.934 -32.611  23.987  1.00  0.00     0.000 C 
BRANCH   2   3
ATOM      3  C   UNL     1      17.886 -33.130  22.891  1.00  0.00     0.000 C 
BRANCH   3   4
ATOM      4  C   UNL     1      18.413 -32.051  21.920  1.00  0.00     0.000 C 
BRANCH   4   5
ATOM      5  C   UNL     1      18.695 -32.548  20.491  1.00  0.00     0.000 C 
BRANCH   5   6
ATOM      6  C   UNL     1      17.671 -33.590  20.016  1.00  0.00     0.006 C 
BRANCH   6   7
ATOM      7  C   UNL     1      18.366 -34.812  19.410  1.00  0.00     0.053 C 
BRANCH   7   8
ATOM      8  C   UNL     1      17.709 -36.072  19.885  1.00  0.00     0.041 C 
ATOM      9  O   UNL     1      17.345 -36.947  19.054  1.00  0.00    -0.550 OA
ATOM     10  O   UNL     1      17.418 -36.239  21.237  1.00  0.00    -0.550 OA
ENDBRANCH   7   8
ENDBRANCH   6   7
ENDBRANCH   5   6
ENDBRANCH   4   5
ENDBRANCH   3   4
ENDBRANCH   2   3
ENDBRANCH   1   2
BRANCH   1  11
ATOM     11  C   UNL     1      15.169 -33.897  22.572  1.00  0.00     0.000 C 
BRANCH  11  12
ATOM     12  C   UNL     1      14.520 -33.120  21.404  1.00  0.00    -0.000 C 
BRANCH  12  13
ATOM     13  C   UNL     1      13.840 -31.821  21.876  1.00  0.00    -0.000 C 
BRANCH  13  14
ATOM     14  C   UNL     1      14.654 -30.568  21.522  1.00  0.00    -0.000 C 
BRANCH  14  15
ATOM     15  C   UNL     1      14.669 -29.531  22.662  1.00  0.00    -0.000 C 
BRANCH  15  16
ATOM     16  C   UNL     1      13.497 -29.709  23.644  1.00  0.00    -0.000 C 
BRANCH  16  17
ATOM     17  C   UNL     1      12.795 -28.401  24.050  1.00  0.00    -0.003 C 
ATOM     18  C   UNL     1      11.312 -28.378  23.674  1.00  0.00     0.004 C 
ENDBRANCH  16  17
ENDBRANCH  15  16
ENDBRANCH  14  15
ENDBRANCH  13  14
ENDBRANCH  12  13
ENDBRANCH  11  12
ENDBRANCH   1  11
TORSDOF 14
ENDMDL
MODEL 8
REMARK VINA RESULT:    -4.231      1.642      4.109
REMARK INTER + INTRA:         -10.095
REMARK INTER:                  -7.862
REMARK INTRA:                  -2.233
REMARK UNBOUND:                -2.402
REMARK SMILES CCCCCCCCCCCCCCCC(=O)[O-]
REMARK SMILES IDX 9 1 10 2 11 3 12 4 13 5 14 6 15 7 16 8 17 9 18 10 8 11 7 12
REMARK SMILES IDX 6 13 5 14 4 15 3 16 2 17 1 18
REMARK H PARENT
REMARK Flexibility Score: inf
ROOT
ATOM      1  C   UNL     1      18.778 -33.792  20.627  1.00  0.00     0.000 C 
ENDROOT
BRANCH   1   2
ATOM      2  C   UNL     1      18.862 -32.349  21.165  1.00  0.00     0.000 C 
BRANCH   2   3
ATOM      3  C   UNL     1      17.586 -31.506  20.963  1.00  0.00     0.000 C 
BRANCH   3   4
ATOM      4  C   UNL     1      17.021 -30.861  22.247  1.00  0.00     0.000 C 
BRANCH   4   5
ATOM      5  C   UNL     1      16.360 -29.486  22.043  1.00  0.00     0.000 C 
BRANCH   5   6
ATOM      6  C   UNL     1      15.072 -29.323  22.865  1.00  0.00     0.006 C 
BRANCH   6   7
ATOM      7  C   UNL     1      14.352 -30.663  23.036  1.00  0.00     0.053 C 
BRANCH   7   8
ATOM      8  C   UNL     1      12.986 -30.601  22.422  1.00  0.00     0.041 C 
ATOM      9  O   UNL     1      12.696 -31.349  21.450  1.00  0.00    -0.550 OA
ATOM     10  O   UNL     1      12.066 -29.655  22.865  1.00  0.00    -0.550 OA
ENDBRANCH   7   8
ENDBRANCH   6   7
ENDBRANCH   5   6
ENDBRANCH   4   5
ENDBRANCH   3   4
ENDBRANCH   2   3
ENDBRANCH   1   2
BRANCH   1  11
ATOM     11  C   UNL     1      18.020 -33.945  19.289  1.00  0.00     0.000 C 
BRANCH  11  12
ATOM     12  C   UNL     1      17.255 -35.282  19.161  1.00  0.00    -0.000 C 
BRANCH  12  13
ATOM     13  C   UNL     1      16.289 -35.514  20.339  1.00  0.00    -0.000 C 
BRANCH  13  14
ATOM     14  C   UNL     1      15.246 -34.395  20.474  1.00  0.00    -0.000 C 
BRANCH  14  15
ATOM     15  C   UNL     1      15.003 -33.989  21.942  1.00  0.00    -0.000 C 
BRANCH  15  16
ATOM     16  C   UNL     1      16.146 -34.423  22.876  1.00  0.00    -0.000 C 
BRANCH  16  17
ATOM     17  C   UNL     1      16.036 -33.890  24.316  1.00  0.00    -0.003 C 
ATOM     18  C   UNL     1      17.387 -33.478  24.904  1.00  0.00     0.004 C 
ENDBRANCH  16  17
ENDBRANCH  15  16
ENDBRANCH  14  15
ENDBRANCH  13  14
ENDBRANCH  12  13
ENDBRANCH  11  12
ENDBRANCH   1  11
TORSDOF 14
ENDMDL
MODEL 9
REMARK VINA RESULT:    -4.229      1.945      3.812
REMARK INTER + INTRA:         -10.092
REMARK INTER:                  -7.965
REMARK INTRA:                  -2.127
REMARK UNBOUND:                -2.402
REMARK SMILES CCCCCCCCCCCCCCCC(=O)[O-]
REMARK SMILES IDX 9 1 10 2 11 3 12 4 13 5 14 6 15 7 16 8 17 9 18 10 8 11 7 12
REMARK SMILES IDX 6 13 5 14 4 15 3 16 2 17 1 18
REMARK H PARENT
REMARK Flexibility Score: inf
ROOT
ATOM      1  C   UNL     1      16.621 -34.377  19.450  1.00  0.00     0.000 C 
ENDROOT
BRANCH   1   2
ATOM      2  C   UNL     1      15.383 -34.714  20.306  1.00  0.00     0.000 C 
BRANCH   2   3
ATOM      3  C   UNL     1      14.840 -33.544  21.152  1.00  0.00     0.000 C 
BRANCH   3   4
ATOM      4  C   UNL     1      15.848 -32.404  21.410  1.00  0.00     0.000 C 
BRANCH   4   5
ATOM      5  C   UNL     1      15.653 -31.656  22.741  1.00  0.00     0.000 C 
BRANCH   5   6
ATOM      6  C   UNL     1      14.285 -31.938  23.381  1.00  0.00     0.006 C 
BRANCH   6   7
ATOM      7  C   UNL     1      13.595 -30.639  23.806  1.00  0.00     0.053 C 
BRANCH   7   8
ATOM      8  C   UNL     1      12.515 -30.282  22.832  1.00  0.00     0.041 C 
ATOM      9  O   UNL     1      12.359 -30.964  21.783  1.00  0.00    -0.550 OA
ATOM     10  O   UNL     1      11.739 -29.143  23.038  1.00  0.00    -0.550 OA
ENDBRANCH   7   8
ENDBRANCH   6   7
ENDBRANCH   5   6
ENDBRANCH   4   5
ENDBRANCH   3   4
ENDBRANCH   2   3
ENDBRANCH   1   2
BRANCH   1  11
ATOM     11  C   UNL     1      17.834 -35.309  19.668  1.00  0.00     0.000 C 
BRANCH  11  12
ATOM     12  C   UNL     1      17.560 -36.459  20.663  1.00  0.00    -0.000 C 
BRANCH  12  13
ATOM     13  C   UNL     1      18.355 -36.295  21.974  1.00  0.00    -0.000 C 
BRANCH  13  14
ATOM     14  C   UNL     1      18.808 -34.847  22.210  1.00  0.00    -0.000 C 
BRANCH  14  15
ATOM     15  C   UNL     1      18.221 -34.250  23.505  1.00  0.00    -0.000 C 
BRANCH  15  16
ATOM     16  C   UNL     1      16.943 -34.972  23.968  1.00  0.00    -0.000 C 
BRANCH  16  17
ATOM     17  C   UNL     1      16.873 -35.246  25.481  1.00  0.00    -0.003 C 
ATOM     18  C   UNL     1      17.592 -36.535  25.887  1.00  0.00     0.004 C 
ENDBRANCH  16  17
ENDBRANCH  15  16
ENDBRANCH  14  15
ENDBRANCH  13  14
ENDBRANCH  12  13
ENDBRANCH  11  12
ENDBRANCH   1  11
TORSDOF 14
ENDMDL
