MODEL 1
REMARK VINA RESULT:    -1.445      0.000      0.000
REMARK INTER + INTRA:          -3.207
REMARK INTER:                  -2.628
REMARK INTRA:                  -0.580
REMARK UNBOUND:                -0.580
REMARK SMILES CCCCCC=CCC=CCCCCCCCC(=O)[O-]
REMARK SMILES IDX 11 1 12 2 13 3 14 4 15 5 16 6 17 7 18 8 19 9 20 10 10 11
REMARK SMILES IDX 9 12 8 13 7 14 6 15 5 16 4 17 3 18 2 19 1 20
REMARK H PARENT
REMARK Flexibility Score: inf
ROOT
ATOM      1  C   UNL     1      52.975 147.890   1.383  1.00  0.00     0.027 C 
ENDROOT
BRANCH   1   2
ATOM      2  C   UNL     1      52.407 146.517   1.765  1.00  0.00     0.004 C 
BRANCH   2   3
ATOM      3  C   UNL     1      50.867 146.501   1.750  1.00  0.00     0.000 C 
BRANCH   3   4
ATOM      4  C   UNL     1      50.273 147.644   0.912  1.00  0.00     0.000 C 
BRANCH   4   5
ATOM      5  C   UNL     1      48.911 148.125   1.442  1.00  0.00     0.000 C 
BRANCH   5   6
ATOM      6  C   UNL     1      47.808 148.075   0.374  1.00  0.00     0.006 C 
BRANCH   6   7
ATOM      7  C   UNL     1      48.369 148.089  -1.055  1.00  0.00     0.053 C 
BRANCH   7   8
ATOM      8  C   UNL     1      47.604 147.145  -1.927  1.00  0.00     0.041 C 
ATOM      9  O   UNL     1      46.948 146.200  -1.413  1.00  0.00    -0.550 OA
ATOM     10  O   UNL     1      47.584 147.331  -3.305  1.00  0.00    -0.550 OA
ENDBRANCH   7   8
ENDBRANCH   6   7
ENDBRANCH   5   6
ENDBRANCH   4   5
ENDBRANCH   3   4
ENDBRANCH   2   3
ENDBRANCH   1   2
BRANCH   1  11
ATOM     11  C   UNL     1      52.946 148.107  -0.106  1.00  0.00    -0.031 C 
ATOM     12  C   UNL     1      53.988 147.782  -0.888  1.00  0.00    -0.027 C 
BRANCH  12  13
ATOM     13  C   UNL     1      53.933 147.967  -2.380  1.00  0.00     0.054 C 
BRANCH  13  14
ATOM     14  C   UNL     1      52.508 148.102  -2.860  1.00  0.00    -0.027 C 
ATOM     15  C   UNL     1      52.174 148.124  -4.161  1.00  0.00    -0.031 C 
BRANCH  15  16
ATOM     16  C   UNL     1      53.191 148.021  -5.273  1.00  0.00     0.027 C 
BRANCH  16  17
ATOM     17  C   UNL     1      52.540 147.779  -6.646  1.00  0.00     0.004 C 
BRANCH  17  18
ATOM     18  C   UNL     1      51.009 147.964  -6.673  1.00  0.00     0.000 C 
BRANCH  18  19
ATOM     19  C   UNL     1      50.326 147.574  -7.997  1.00  0.00    -0.003 C 
ATOM     20  C   UNL     1      48.934 146.975  -7.800  1.00  0.00     0.004 C 
ENDBRANCH  18  19
ENDBRANCH  17  18
ENDBRANCH  16  17
ENDBRANCH  15  16
ENDBRANCH  13  14
ENDBRANCH  12  13
ENDBRANCH   1  11
TORSDOF 14
ENDMDL
