MODEL 1
REMARK VINA RESULT:    -5.284      0.000      0.000
REMARK INTER + INTRA:          -5.885
REMARK INTER:                  -5.747
REMARK INTRA:                  -0.138
REMARK UNBOUND:                -0.138
REMARK SMILES CC1=CC[C@@](O)(C(C)C)CC1
REMARK SMILES IDX 1 1 2 2 3 3 4 4 5 5 10 6 11 7 7 8 8 9 9 10 6 11
REMARK H PARENT 6 12
REMARK Flexibility Score: inf
ROOT
ATOM      1  C   UNL     1     122.445 119.525 120.420  1.00  0.00     0.039 C 
ATOM      2  C   UNL     1     123.704 120.310 120.180  1.00  0.00    -0.077 C 
ATOM      3  C   UNL     1     123.717 121.248 119.210  1.00  0.00    -0.025 C 
ATOM      4  C   UNL     1     124.915 122.123 118.935  1.00  0.00     0.062 C 
ATOM      5  C   UNL     1     126.245 121.448 119.348  1.00  0.00     0.071 C 
ATOM      6  C   UNL     1     126.083 120.970 120.818  1.00  0.00     0.040 C 
ATOM      7  C   UNL     1     124.957 119.934 120.947  1.00  0.00     0.033 C 
ENDROOT
BRANCH   5   8
ATOM      8  C   UNL     1     127.447 122.449 119.159  1.00  0.00     0.015 C 
ATOM      9  C   UNL     1     127.213 123.844 119.774  1.00  0.00     0.010 C 
ATOM     10  C   UNL     1     128.782 121.890 119.686  1.00  0.00     0.010 C 
ENDBRANCH   5   8
BRANCH   5  11
ATOM     11  O   UNL     1     126.424 120.343 118.485  1.00  0.00    -0.389 OA
ATOM     12  H   UNL     1     125.864 120.476 117.676  1.00  0.00     0.211 HD
ENDBRANCH   5  11
TORSDOF 2
ENDMDL
MODEL 2
REMARK VINA RESULT:    -5.029     14.988     15.557
REMARK INTER + INTRA:          -5.608
REMARK INTER:                  -5.453
REMARK INTRA:                  -0.155
REMARK UNBOUND:                -0.138
REMARK SMILES CC1=CC[C@@](O)(C(C)C)CC1
REMARK SMILES IDX 1 1 2 2 3 3 4 4 5 5 10 6 11 7 7 8 8 9 9 10 6 11
REMARK H PARENT 6 12
REMARK Flexibility Score: inf
ROOT
ATOM      1  C   UNL     1     117.918 127.245 130.702  1.00  0.00     0.039 C 
ATOM      2  C   UNL     1     118.643 128.561 130.644  1.00  0.00    -0.077 C 
ATOM      3  C   UNL     1     119.887 128.601 130.123  1.00  0.00    -0.025 C 
ATOM      4  C   UNL     1     120.668 129.882 129.970  1.00  0.00     0.062 C 
ATOM      5  C   UNL     1     120.251 130.954 131.005  1.00  0.00     0.071 C 
ATOM      6  C   UNL     1     118.705 131.094 130.926  1.00  0.00     0.040 C 
ATOM      7  C   UNL     1     118.006 129.776 131.289  1.00  0.00     0.033 C 
ENDROOT
BRANCH   5   8
ATOM      8  C   UNL     1     121.004 132.308 130.723  1.00  0.00     0.015 C 
ATOM      9  C   UNL     1     122.213 132.176 129.775  1.00  0.00     0.010 C 
ATOM     10  C   UNL     1     120.072 133.413 130.190  1.00  0.00     0.010 C 
ENDBRANCH   5   8
BRANCH   5  11
ATOM     11  O   UNL     1     120.640 130.466 132.274  1.00  0.00    -0.389 OA
ATOM     12  H   UNL     1     119.982 130.775 132.950  1.00  0.00     0.211 HD
ENDBRANCH   5  11
TORSDOF 2
ENDMDL
MODEL 3
REMARK VINA RESULT:    -4.913     15.545     16.898
REMARK INTER + INTRA:          -5.482
REMARK INTER:                  -5.356
REMARK INTRA:                  -0.127
REMARK UNBOUND:                -0.138
REMARK SMILES CC1=CC[C@@](O)(C(C)C)CC1
REMARK SMILES IDX 1 1 2 2 3 3 4 4 5 5 10 6 11 7 7 8 8 9 9 10 6 11
REMARK H PARENT 6 12
REMARK Flexibility Score: inf
ROOT
ATOM      1  C   UNL     1     117.649 120.344 135.377  1.00  0.00     0.039 C 
ATOM      2  C   UNL     1     116.648 120.459 134.262  1.00  0.00    -0.077 C 
ATOM      3  C   UNL     1     117.086 120.719 133.012  1.00  0.00    -0.025 C 
ATOM      4  C   UNL     1     116.162 120.795 131.822  1.00  0.00     0.062 C 
ATOM      5  C   UNL     1     114.724 121.208 132.217  1.00  0.00     0.071 C 
ATOM      6  C   UNL     1     114.270 120.260 133.363  1.00  0.00     0.040 C 
ATOM      7  C   UNL     1     115.170 120.407 134.598  1.00  0.00     0.033 C 
ENDROOT
BRANCH   5   8
ATOM      8  C   UNL     1     113.774 121.149 130.962  1.00  0.00     0.015 C 
ATOM      9  C   UNL     1     113.444 122.527 130.352  1.00  0.00     0.010 C 
ATOM     10  C   UNL     1     114.307 120.227 129.848  1.00  0.00     0.010 C 
ENDBRANCH   5   8
BRANCH   5  11
ATOM     11  O   UNL     1     114.797 122.543 132.678  1.00  0.00    -0.389 OA
ATOM     12  H   UNL     1     115.668 122.674 133.135  1.00  0.00     0.211 HD
ENDBRANCH   5  11
TORSDOF 2
ENDMDL
MODEL 4
REMARK VINA RESULT:    -4.882     14.375     16.399
REMARK INTER + INTRA:          -5.448
REMARK INTER:                  -5.301
REMARK INTRA:                  -0.147
REMARK UNBOUND:                -0.138
REMARK SMILES CC1=CC[C@@](O)(C(C)C)CC1
REMARK SMILES IDX 1 1 2 2 3 3 4 4 5 5 10 6 11 7 7 8 8 9 9 10 6 11
REMARK H PARENT 6 12
REMARK Flexibility Score: inf
ROOT
ATOM      1  C   UNL     1     115.234 120.293 134.343  1.00  0.00     0.039 C 
ATOM      2  C   UNL     1     115.005 121.082 133.084  1.00  0.00    -0.077 C 
ATOM      3  C   UNL     1     115.883 122.051 132.750  1.00  0.00    -0.025 C 
ATOM      4  C   UNL     1     115.767 122.854 131.478  1.00  0.00     0.062 C 
ATOM      5  C   UNL     1     114.308 122.954 130.974  1.00  0.00     0.071 C 
ATOM      6  C   UNL     1     113.742 121.507 130.911  1.00  0.00     0.040 C 
ATOM      7  C   UNL     1     113.729 120.852 132.300  1.00  0.00     0.033 C 
ENDROOT
BRANCH   5   8
ATOM      8  C   UNL     1     114.259 123.691 129.583  1.00  0.00     0.015 C 
ATOM      9  C   UNL     1     115.493 123.446 128.692  1.00  0.00     0.010 C 
ATOM     10  C   UNL     1     112.989 123.365 128.775  1.00  0.00     0.010 C 
ENDBRANCH   5   8
BRANCH   5  11
ATOM     11  O   UNL     1     113.600 123.721 131.928  1.00  0.00    -0.389 OA
ATOM     12  H   UNL     1     113.966 124.644 131.930  1.00  0.00     0.211 HD
ENDBRANCH   5  11
TORSDOF 2
ENDMDL
MODEL 5
REMARK VINA RESULT:    -4.800     14.505     15.681
REMARK INTER + INTRA:          -5.359
REMARK INTER:                  -5.223
REMARK INTRA:                  -0.136
REMARK UNBOUND:                -0.138
REMARK SMILES CC1=CC[C@@](O)(C(C)C)CC1
REMARK SMILES IDX 1 1 2 2 3 3 4 4 5 5 10 6 11 7 7 8 8 9 9 10 6 11
REMARK H PARENT 6 12
REMARK Flexibility Score: inf
ROOT
ATOM      1  C   UNL     1     113.006 122.615 126.749  1.00  0.00     0.039 C 
ATOM      2  C   UNL     1     113.436 122.070 128.082  1.00  0.00    -0.077 C 
ATOM      3  C   UNL     1     113.386 122.874 129.165  1.00  0.00    -0.025 C 
ATOM      4  C   UNL     1     113.742 122.399 130.552  1.00  0.00     0.062 C 
ATOM      5  C   UNL     1     114.747 121.223 130.533  1.00  0.00     0.071 C 
ATOM      6  C   UNL     1     114.172 120.140 129.577  1.00  0.00     0.040 C 
ATOM      7  C   UNL     1     114.032 120.678 128.145  1.00  0.00     0.033 C 
ENDROOT
BRANCH   5   8
ATOM      8  C   UNL     1     114.986 120.685 131.994  1.00  0.00     0.015 C 
ATOM      9  C   UNL     1     115.618 121.715 132.953  1.00  0.00     0.010 C 
ATOM     10  C   UNL     1     113.708 120.120 132.642  1.00  0.00     0.010 C 
ENDBRANCH   5   8
BRANCH   5  11
ATOM     11  O   UNL     1     115.963 121.737 130.026  1.00  0.00    -0.389 OA
ATOM     12  H   UNL     1     116.064 122.676 130.331  1.00  0.00     0.211 HD
ENDBRANCH   5  11
TORSDOF 2
ENDMDL
MODEL 6
REMARK VINA RESULT:    -4.775      1.135      4.393
REMARK INTER + INTRA:          -5.332
REMARK INTER:                  -5.176
REMARK INTRA:                  -0.156
REMARK UNBOUND:                -0.138
REMARK SMILES CC1=CC[C@@](O)(C(C)C)CC1
REMARK SMILES IDX 1 1 2 2 3 3 4 4 5 5 10 6 11 7 7 8 8 9 9 10 6 11
REMARK H PARENT 6 12
REMARK Flexibility Score: inf
ROOT
ATOM      1  C   UNL     1     127.090 123.749 119.561  1.00  0.00     0.039 C 
ATOM      2  C   UNL     1     126.204 122.554 119.784  1.00  0.00    -0.077 C 
ATOM      3  C   UNL     1     126.520 121.678 120.761  1.00  0.00    -0.025 C 
ATOM      4  C   UNL     1     125.662 120.484 121.095  1.00  0.00     0.062 C 
ATOM      5  C   UNL     1     124.833 119.994 119.883  1.00  0.00     0.071 C 
ATOM      6  C   UNL     1     124.079 121.228 119.312  1.00  0.00     0.040 C 
ATOM      7  C   UNL     1     125.059 122.304 118.824  1.00  0.00     0.033 C 
ENDROOT
BRANCH   5   8
ATOM      8  C   UNL     1     123.865 118.830 120.317  1.00  0.00     0.015 C 
ATOM      9  C   UNL     1     124.208 118.195 121.680  1.00  0.00     0.010 C 
ATOM     10  C   UNL     1     122.384 119.254 120.326  1.00  0.00     0.010 C 
ENDBRANCH   5   8
BRANCH   5  11
ATOM     11  O   UNL     1     125.757 119.496 118.935  1.00  0.00    -0.389 OA
ATOM     12  H   UNL     1     126.143 118.650 119.281  1.00  0.00     0.211 HD
ENDBRANCH   5  11
TORSDOF 2
ENDMDL
MODEL 7
REMARK VINA RESULT:    -4.583     14.785     16.443
REMARK INTER + INTRA:          -5.123
REMARK INTER:                  -4.997
REMARK INTRA:                  -0.126
REMARK UNBOUND:                -0.138
REMARK SMILES CC1=CC[C@@](O)(C(C)C)CC1
REMARK SMILES IDX 1 1 2 2 3 3 4 4 5 5 10 6 11 7 7 8 8 9 9 10 6 11
REMARK H PARENT 6 12
REMARK Flexibility Score: inf
ROOT
ATOM      1  C   UNL     1     115.907 119.695 134.943  1.00  0.00     0.039 C 
ATOM      2  C   UNL     1     115.501 120.426 133.694  1.00  0.00    -0.077 C 
ATOM      3  C   UNL     1     114.216 120.364 133.287  1.00  0.00    -0.025 C 
ATOM      4  C   UNL     1     113.704 121.110 132.080  1.00  0.00     0.062 C 
ATOM      5  C   UNL     1     114.813 121.372 131.034  1.00  0.00     0.071 C 
ATOM      6  C   UNL     1     116.005 122.034 131.781  1.00  0.00     0.040 C 
ATOM      7  C   UNL     1     116.572 121.104 132.863  1.00  0.00     0.033 C 
ENDROOT
BRANCH   5   8
ATOM      8  C   UNL     1     114.257 122.260 129.858  1.00  0.00     0.015 C 
ATOM      9  C   UNL     1     114.042 121.498 128.535  1.00  0.00     0.010 C 
ATOM     10  C   UNL     1     112.955 122.996 130.226  1.00  0.00     0.010 C 
ENDBRANCH   5   8
BRANCH   5  11
ATOM     11  O   UNL     1     115.192 120.110 130.520  1.00  0.00    -0.389 OA
ATOM     12  H   UNL     1     116.117 120.174 130.167  1.00  0.00     0.211 HD
ENDBRANCH   5  11
TORSDOF 2
ENDMDL
MODEL 8
REMARK VINA RESULT:    -4.468     14.960     16.207
REMARK INTER + INTRA:          -4.998
REMARK INTER:                  -4.863
REMARK INTRA:                  -0.135
REMARK UNBOUND:                -0.138
REMARK SMILES CC1=CC[C@@](O)(C(C)C)CC1
REMARK SMILES IDX 1 1 2 2 3 3 4 4 5 5 10 6 11 7 7 8 8 9 9 10 6 11
REMARK H PARENT 6 12
REMARK Flexibility Score: inf
ROOT
ATOM      1  C   UNL     1     113.766 122.669 127.863  1.00  0.00     0.039 C 
ATOM      2  C   UNL     1     114.310 122.366 129.232  1.00  0.00    -0.077 C 
ATOM      3  C   UNL     1     113.954 121.214 129.838  1.00  0.00    -0.025 C 
ATOM      4  C   UNL     1     114.493 120.800 131.184  1.00  0.00     0.062 C 
ATOM      5  C   UNL     1     114.907 122.011 132.053  1.00  0.00     0.071 C 
ATOM      6  C   UNL     1     115.852 122.895 131.192  1.00  0.00     0.040 C 
ATOM      7  C   UNL     1     115.136 123.421 129.940  1.00  0.00     0.033 C 
ENDROOT
BRANCH   5   8
ATOM      8  C   UNL     1     115.578 121.521 133.391  1.00  0.00     0.015 C 
ATOM      9  C   UNL     1     114.622 120.774 134.343  1.00  0.00     0.010 C 
ATOM     10  C   UNL     1     116.825 120.647 133.152  1.00  0.00     0.010 C 
ENDBRANCH   5   8
BRANCH   5  11
ATOM     11  O   UNL     1     113.719 122.713 132.363  1.00  0.00    -0.389 OA
ATOM     12  H   UNL     1     113.046 122.066 132.700  1.00  0.00     0.211 HD
ENDBRANCH   5  11
TORSDOF 2
ENDMDL
MODEL 9
REMARK VINA RESULT:    -4.465     13.481     14.657
REMARK INTER + INTRA:          -4.994
REMARK INTER:                  -4.841
REMARK INTRA:                  -0.153
REMARK UNBOUND:                -0.138
REMARK SMILES CC1=CC[C@@](O)(C(C)C)CC1
REMARK SMILES IDX 1 1 2 2 3 3 4 4 5 5 10 6 11 7 7 8 8 9 9 10 6 11
REMARK H PARENT 6 12
REMARK Flexibility Score: inf
ROOT
ATOM      1  C   UNL     1     116.769 128.330 133.105  1.00  0.00     0.039 C 
ATOM      2  C   UNL     1     116.945 127.568 131.821  1.00  0.00    -0.077 C 
ATOM      3  C   UNL     1     117.665 128.123 130.824  1.00  0.00    -0.025 C 
ATOM      4  C   UNL     1     117.943 127.412 129.523  1.00  0.00     0.062 C 
ATOM      5  C   UNL     1     116.853 126.371 129.175  1.00  0.00     0.071 C 
ATOM      6  C   UNL     1     116.675 125.456 130.419  1.00  0.00     0.040 C 
ATOM      7  C   UNL     1     116.202 126.259 131.639  1.00  0.00     0.033 C 
ENDROOT
BRANCH   5   8
ATOM      8  C   UNL     1     117.254 125.571 127.879  1.00  0.00     0.015 C 
ATOM      9  C   UNL     1     118.753 125.649 127.525  1.00  0.00     0.010 C 
ATOM     10  C   UNL     1     116.833 124.090 127.933  1.00  0.00     0.010 C 
ENDBRANCH   5   8
BRANCH   5  11
ATOM     11  O   UNL     1     115.666 127.096 128.920  1.00  0.00    -0.389 OA
ATOM     12  H   UNL     1     114.955 126.770 129.532  1.00  0.00     0.211 HD
ENDBRANCH   5  11
TORSDOF 2
ENDMDL
