MODEL 1
REMARK VINA RESULT:    -4.282      0.000      0.000
REMARK INTER + INTRA:          -6.750
REMARK INTER:                  -6.534
REMARK INTRA:                  -0.216
REMARK UNBOUND:                -0.216
REMARK SMILES CC1=CCC[C@@H](C)C(=O)C[C@H](C(C)C)C(=O)C1
REMARK SMILES IDX 8 1 9 2 6 3 7 4 5 5 4 6 3 7 2 8 1 9 10 11 11 12 15 13 16 14
REMARK SMILES IDX 17 15 12 17 13 18 14 19
REMARK H PARENT
REMARK Flexibility Score: 70.00
ROOT
ATOM      1  C   UNL     1     -15.680  13.846 -30.635  1.00  0.00     0.136 C 
ATOM      2  O   UNL     1     -16.188  13.920 -31.743  1.00  0.00    -0.299 OA
ENDROOT
BRANCH   1   3
ATOM      3  C   UNL     1     -14.165  13.957 -30.534  1.00  0.00     0.053 C 
ATOM      4  C   UNL     1     -13.659  15.350 -30.937  1.00  0.00     0.016 C 
BRANCH   3   5
ATOM      5  C   UNL     1     -13.463  12.850 -31.345  1.00  0.00     0.015 C 
BRANCH   5   6
ATOM      6  C   UNL     1     -13.580  11.471 -30.663  1.00  0.00     0.028 C 
BRANCH   6   7
ATOM      7  C   UNL     1     -12.960  11.458 -29.289  1.00  0.00    -0.028 C 
ATOM      8  C   UNL     1     -13.584  11.033 -28.165  1.00  0.00    -0.070 CG0
ATOM      9  C   UNL     1     -12.833  11.103 -26.861  1.00  0.00     0.039 C 
ATOM     10  G   UNL     1     -14.992  10.457 -28.168  1.00  0.00     0.000 G0
ENDBRANCH   6   7
ENDBRANCH   5   6
ENDBRANCH   3   5
ENDBRANCH   1   3
BRANCH   1  11
ATOM     11  C   UNL     1     -16.566  13.573 -29.430  1.00  0.00     0.087 C 
BRANCH  11  12
ATOM     12  C   UNL     1     -16.879  12.083 -29.105  1.00  0.00     0.066 C 
BRANCH  12  13
ATOM     13  C   UNL     1     -16.057  11.518 -27.955  1.00  0.00     0.140 C 
ATOM     14  O   UNL     1     -16.217  11.995 -26.838  1.00  0.00    -0.299 OA
BRANCH  13  15
ATOM     15  C   UNL     1     -15.005  10.451 -28.147  1.00  0.00     0.106 CG0
ATOM     16  G   UNL     1     -13.600  11.033 -28.161  1.00  0.00     0.000 G0
ENDBRANCH  13  15
ENDBRANCH  12  13
BRANCH  12  17
ATOM     17  C   UNL     1     -18.389  11.659 -29.082  1.00  0.00    -0.006 C 
ATOM     18  C   UNL     1     -18.549  10.148 -29.331  1.00  0.00     0.008 C 
ATOM     19  C   UNL     1     -19.304  12.422 -30.049  1.00  0.00     0.008 C 
ENDBRANCH  12  17
ENDBRANCH  11  12
ENDBRANCH   1  11
TORSDOF 1
ENDMDL
MODEL 2
REMARK VINA RESULT:    -4.110      1.187      4.142
REMARK INTER + INTRA:          -6.489
REMARK INTER:                  -6.947
REMARK INTRA:                   0.458
REMARK UNBOUND:                -0.216
REMARK SMILES CC1=CCC[C@@H](C)C(=O)C[C@H](C(C)C)C(=O)C1
REMARK SMILES IDX 8 1 9 2 6 3 7 4 5 5 4 6 3 7 2 8 1 9 10 11 11 12 15 13 16 14
REMARK SMILES IDX 17 15 12 17 13 18 14 19
REMARK H PARENT
REMARK Flexibility Score: 70.00
ROOT
ATOM      1  C   UNL     1     -16.849  13.211 -29.217  1.00  0.00     0.136 C 
ATOM      2  O   UNL     1     -16.966  13.394 -28.016  1.00  0.00    -0.299 OA
ENDROOT
BRANCH   1   3
ATOM      3  C   UNL     1     -17.562  12.013 -29.830  1.00  0.00     0.053 C 
ATOM      4  C   UNL     1     -19.057  12.284 -30.056  1.00  0.00     0.016 C 
BRANCH   3   5
ATOM      5  C   UNL     1     -17.344  10.737 -28.994  1.00  0.00     0.015 C 
BRANCH   5   6
ATOM      6  C   UNL     1     -15.999  10.056 -29.318  1.00  0.00     0.028 C 
BRANCH   6   7
ATOM      7  C   UNL     1     -14.902  10.476 -28.372  1.00  0.00    -0.028 C 
ATOM      8  C   UNL     1     -13.709  10.990 -28.754  1.00  0.00    -0.070 CG0
ATOM      9  C   UNL     1     -12.708  11.341 -27.684  1.00  0.00     0.039 C 
ATOM     10  G   UNL     1     -13.352  11.262 -30.207  1.00  0.00     0.000 G0
ENDBRANCH   6   7
ENDBRANCH   5   6
ENDBRANCH   3   5
ENDBRANCH   1   3
BRANCH   1  11
ATOM     11  C   UNL     1     -15.946  14.130 -30.023  1.00  0.00     0.087 C 
BRANCH  11  12
ATOM     12  C   UNL     1     -14.453  13.714 -30.160  1.00  0.00     0.066 C 
BRANCH  12  13
ATOM     13  C   UNL     1     -14.250  12.353 -30.810  1.00  0.00     0.140 C 
ATOM     14  O   UNL     1     -14.884  12.095 -31.826  1.00  0.00    -0.299 OA
BRANCH  13  15
ATOM     15  C   UNL     1     -13.360  11.286 -30.216  1.00  0.00     0.106 CG0
ATOM     16  G   UNL     1     -13.697  11.010 -28.759  1.00  0.00     0.000 G0
ENDBRANCH  13  15
ENDBRANCH  12  13
BRANCH  12  17
ATOM     17  C   UNL     1     -13.446  14.813 -30.649  1.00  0.00    -0.006 C 
ATOM     18  C   UNL     1     -14.105  16.205 -30.667  1.00  0.00     0.008 C 
ATOM     19  C   UNL     1     -12.796  14.552 -32.014  1.00  0.00     0.008 C 
ENDBRANCH  12  17
ENDBRANCH  11  12
ENDBRANCH   1  11
TORSDOF 1
ENDMDL
MODEL 3
REMARK VINA RESULT:    -3.426      1.651      4.168
REMARK INTER + INTRA:          -5.444
REMARK INTER:                  -5.999
REMARK INTRA:                   0.554
REMARK UNBOUND:                -0.216
REMARK SMILES CC1=CCC[C@@H](C)C(=O)C[C@H](C(C)C)C(=O)C1
REMARK SMILES IDX 8 1 9 2 6 3 7 4 5 5 4 6 3 7 2 8 1 9 10 11 11 12 15 13 16 14
REMARK SMILES IDX 17 15 12 17 13 18 14 19
REMARK H PARENT
REMARK Flexibility Score: 70.00
ROOT
ATOM      1  C   UNL     1     -13.711  12.931 -30.716  1.00  0.00     0.136 C 
ATOM      2  O   UNL     1     -12.963  13.701 -31.298  1.00  0.00    -0.299 OA
ENDROOT
BRANCH   1   3
ATOM      3  C   UNL     1     -15.212  13.136 -30.873  1.00  0.00     0.053 C 
ATOM      4  C   UNL     1     -15.632  13.221 -32.348  1.00  0.00     0.016 C 
BRANCH   3   5
ATOM      5  C   UNL     1     -15.700  14.364 -30.080  1.00  0.00     0.015 C 
BRANCH   5   6
ATOM      6  C   UNL     1     -16.648  13.969 -28.929  1.00  0.00     0.028 C 
BRANCH   6   7
ATOM      7  C   UNL     1     -17.629  12.899 -29.337  1.00  0.00    -0.028 C 
ATOM      8  C   UNL     1     -17.551  11.599 -28.966  1.00  0.00    -0.070 CG0
ATOM      9  C   UNL     1     -18.601  10.647 -29.476  1.00  0.00     0.039 C 
ATOM     10  G   UNL     1     -16.475  11.069 -28.030  1.00  0.00     0.000 G0
ENDBRANCH   6   7
ENDBRANCH   5   6
ENDBRANCH   3   5
ENDBRANCH   1   3
BRANCH   1  11
ATOM     11  C   UNL     1     -13.118  11.864 -29.810  1.00  0.00     0.087 C 
BRANCH  11  12
ATOM     12  C   UNL     1     -13.904  11.522 -28.510  1.00  0.00     0.066 C 
BRANCH  12  13
ATOM     13  C   UNL     1     -15.193  10.750 -28.754  1.00  0.00     0.140 C 
ATOM     14  O   UNL     1     -15.192   9.876 -29.612  1.00  0.00    -0.299 OA
BRANCH  13  15
ATOM     15  C   UNL     1     -16.485  11.068 -28.038  1.00  0.00     0.106 CG0
ATOM     16  G   UNL     1     -17.550  11.590 -28.989  1.00  0.00     0.000 G0
ENDBRANCH  13  15
ENDBRANCH  12  13
BRANCH  12  17
ATOM     17  C   UNL     1     -13.070  11.005 -27.287  1.00  0.00    -0.006 C 
ATOM     18  C   UNL     1     -11.663  10.552 -27.721  1.00  0.00     0.008 C 
ATOM     19  C   UNL     1     -13.724   9.882 -26.470  1.00  0.00     0.008 C 
ENDBRANCH  12  17
ENDBRANCH  11  12
ENDBRANCH   1  11
TORSDOF 1
ENDMDL
MODEL 4
REMARK VINA RESULT:    -3.229      9.511     12.118
REMARK INTER + INTRA:          -5.144
REMARK INTER:                  -5.990
REMARK INTRA:                   0.846
REMARK UNBOUND:                -0.216
REMARK SMILES CC1=CCC[C@@H](C)C(=O)C[C@H](C(C)C)C(=O)C1
REMARK SMILES IDX 8 1 9 2 6 3 7 4 5 5 4 6 3 7 2 8 1 9 10 11 11 12 15 13 16 14
REMARK SMILES IDX 17 15 12 17 13 18 14 19
REMARK H PARENT
REMARK Flexibility Score: 70.00
ROOT
ATOM      1  C   UNL     1     -24.998  12.738 -29.625  1.00  0.00     0.136 C 
ATOM      2  O   UNL     1     -24.119  13.105 -30.387  1.00  0.00    -0.299 OA
ENDROOT
BRANCH   1   3
ATOM      3  C   UNL     1     -24.636  11.718 -28.553  1.00  0.00     0.053 C 
ATOM      4  C   UNL     1     -23.896  10.506 -29.136  1.00  0.00     0.016 C 
BRANCH   3   5
ATOM      5  C   UNL     1     -25.875  11.284 -27.746  1.00  0.00     0.015 C 
BRANCH   5   6
ATOM      6  C   UNL     1     -26.391   9.896 -28.183  1.00  0.00     0.028 C 
BRANCH   6   7
ATOM      7  C   UNL     1     -27.716   9.977 -28.896  1.00  0.00    -0.028 C 
ATOM      8  C   UNL     1     -27.867  10.266 -30.211  1.00  0.00    -0.070 CG0
ATOM      9  C   UNL     1     -29.265  10.329 -30.771  1.00  0.00     0.039 C 
ATOM     10  G   UNL     1     -26.692  10.492 -31.149  1.00  0.00     0.000 G0
ENDBRANCH   6   7
ENDBRANCH   5   6
ENDBRANCH   3   5
ENDBRANCH   1   3
BRANCH   1  11
ATOM     11  C   UNL     1     -26.415  13.251 -29.825  1.00  0.00     0.087 C 
BRANCH  11  12
ATOM     12  C   UNL     1     -27.016  13.129 -31.256  1.00  0.00     0.066 C 
BRANCH  12  13
ATOM     13  C   UNL     1     -26.744  11.790 -31.926  1.00  0.00     0.140 C 
ATOM     14  O   UNL     1     -26.637  11.763 -33.146  1.00  0.00    -0.299 OA
BRANCH  13  15
ATOM     15  C   UNL     1     -26.675  10.489 -31.159  1.00  0.00     0.106 CG0
ATOM     16  G   UNL     1     -27.863  10.315 -30.227  1.00  0.00     0.000 G0
ENDBRANCH  13  15
ENDBRANCH  12  13
BRANCH  12  17
ATOM     17  C   UNL     1     -28.476  13.664 -31.466  1.00  0.00    -0.006 C 
ATOM     18  C   UNL     1     -28.470  15.129 -31.944  1.00  0.00     0.008 C 
ATOM     19  C   UNL     1     -29.405  13.541 -30.250  1.00  0.00     0.008 C 
ENDBRANCH  12  17
ENDBRANCH  11  12
ENDBRANCH   1  11
TORSDOF 1
ENDMDL
MODEL 5
REMARK VINA RESULT:    -3.195      8.697     10.591
REMARK INTER + INTRA:          -5.092
REMARK INTER:                  -5.135
REMARK INTRA:                   0.043
REMARK UNBOUND:                -0.216
REMARK SMILES CC1=CCC[C@@H](C)C(=O)C[C@H](C(C)C)C(=O)C1
REMARK SMILES IDX 8 1 9 2 6 3 7 4 5 5 4 6 3 7 2 8 1 9 10 11 11 12 15 13 16 14
REMARK SMILES IDX 17 15 12 17 13 18 14 19
REMARK H PARENT
REMARK Flexibility Score: 70.00
ROOT
ATOM      1  C   UNL     1     -27.171  14.006 -30.639  1.00  0.00     0.136 C 
ATOM      2  O   UNL     1     -27.809  14.543 -31.530  1.00  0.00    -0.299 OA
ENDROOT
BRANCH   1   3
ATOM      3  C   UNL     1     -25.809  14.589 -30.284  1.00  0.00     0.053 C 
ATOM      4  C   UNL     1     -25.759  16.109 -30.495  1.00  0.00     0.016 C 
BRANCH   3   5
ATOM      5  C   UNL     1     -24.675  13.879 -31.048  1.00  0.00     0.015 C 
BRANCH   5   6
ATOM      6  C   UNL     1     -23.435  13.650 -30.159  1.00  0.00     0.028 C 
BRANCH   6   7
ATOM      7  C   UNL     1     -23.074  12.190 -30.047  1.00  0.00    -0.028 C 
ATOM      8  C   UNL     1     -23.711  11.298 -29.252  1.00  0.00    -0.070 CG0
ATOM      9  C   UNL     1     -23.214   9.875 -29.236  1.00  0.00     0.039 C 
ATOM     10  G   UNL     1     -24.923  11.658 -28.407  1.00  0.00     0.000 G0
ENDBRANCH   6   7
ENDBRANCH   5   6
ENDBRANCH   3   5
ENDBRANCH   1   3
BRANCH   1  11
ATOM     11  C   UNL     1     -27.722  12.750 -29.985  1.00  0.00     0.087 C 
BRANCH  11  12
ATOM     12  C   UNL     1     -26.904  11.439 -30.169  1.00  0.00     0.066 C 
BRANCH  12  13
ATOM     13  C   UNL     1     -26.184  10.979 -28.909  1.00  0.00     0.140 C 
ATOM     14  O   UNL     1     -26.685  10.075 -28.252  1.00  0.00    -0.299 OA
BRANCH  13  15
ATOM     15  C   UNL     1     -24.924  11.639 -28.399  1.00  0.00     0.106 CG0
ATOM     16  G   UNL     1     -23.720  11.314 -29.268  1.00  0.00     0.000 G0
ENDBRANCH  13  15
ENDBRANCH  12  13
BRANCH  12  17
ATOM     17  C   UNL     1     -27.585  10.278 -30.976  1.00  0.00    -0.006 C 
ATOM     18  C   UNL     1     -27.333  10.425 -32.488  1.00  0.00     0.008 C 
ATOM     19  C   UNL     1     -29.092  10.106 -30.738  1.00  0.00     0.008 C 
ENDBRANCH  12  17
ENDBRANCH  11  12
ENDBRANCH   1  11
TORSDOF 1
ENDMDL
MODEL 6
REMARK VINA RESULT:    -3.192      1.909      4.469
REMARK INTER + INTRA:          -5.088
REMARK INTER:                  -5.424
REMARK INTRA:                   0.336
REMARK UNBOUND:                -0.216
REMARK SMILES CC1=CCC[C@@H](C)C(=O)C[C@H](C(C)C)C(=O)C1
REMARK SMILES IDX 8 1 9 2 6 3 7 4 5 5 4 6 3 7 2 8 1 9 10 11 11 12 15 13 16 14
REMARK SMILES IDX 17 15 12 17 13 18 14 19
REMARK H PARENT
REMARK Flexibility Score: 70.00
ROOT
ATOM      1  C   UNL     1     -16.267  12.341 -28.001  1.00  0.00     0.136 C 
ATOM      2  O   UNL     1     -16.834  11.797 -27.067  1.00  0.00    -0.299 OA
ENDROOT
BRANCH   1   3
ATOM      3  C   UNL     1     -17.124  12.969 -29.091  1.00  0.00     0.053 C 
ATOM      4  C   UNL     1     -17.597  11.935 -30.123  1.00  0.00     0.016 C 
BRANCH   3   5
ATOM      5  C   UNL     1     -16.399  14.147 -29.770  1.00  0.00     0.015 C 
BRANCH   5   6
ATOM      6  C   UNL     1     -16.175  13.897 -31.276  1.00  0.00     0.028 C 
BRANCH   6   7
ATOM      7  C   UNL     1     -14.715  13.934 -31.651  1.00  0.00    -0.028 C 
ATOM      8  C   UNL     1     -13.870  12.880 -31.564  1.00  0.00    -0.070 CG0
ATOM      9  C   UNL     1     -12.430  13.085 -31.959  1.00  0.00     0.039 C 
ATOM     10  G   UNL     1     -14.316  11.495 -31.122  1.00  0.00     0.000 G0
ENDBRANCH   6   7
ENDBRANCH   5   6
ENDBRANCH   3   5
ENDBRANCH   1   3
BRANCH   1  11
ATOM     11  C   UNL     1     -14.749  12.298 -28.073  1.00  0.00     0.087 C 
BRANCH  11  12
ATOM     12  C   UNL     1     -14.099  10.954 -28.513  1.00  0.00     0.066 C 
BRANCH  12  13
ATOM     13  C   UNL     1     -13.519  10.981 -29.920  1.00  0.00     0.140 C 
ATOM     14  O   UNL     1     -12.350  10.649 -30.073  1.00  0.00    -0.299 OA
BRANCH  13  15
ATOM     15  C   UNL     1     -14.300  11.470 -31.118  1.00  0.00     0.106 CG0
ATOM     16  G   UNL     1     -13.875  12.867 -31.543  1.00  0.00     0.000 G0
ENDBRANCH  13  15
ENDBRANCH  12  13
BRANCH  12  17
ATOM     17  C   UNL     1     -13.193  10.220 -27.463  1.00  0.00    -0.006 C 
ATOM     18  C   UNL     1     -13.979   9.893 -26.179  1.00  0.00     0.008 C 
ATOM     19  C   UNL     1     -11.899  10.952 -27.081  1.00  0.00     0.008 C 
ENDBRANCH  12  17
ENDBRANCH  11  12
ENDBRANCH   1  11
TORSDOF 1
ENDMDL
MODEL 7
REMARK VINA RESULT:    -3.029      2.538      4.715
REMARK INTER + INTRA:          -4.839
REMARK INTER:                  -4.937
REMARK INTRA:                   0.098
REMARK UNBOUND:                -0.216
REMARK SMILES CC1=CCC[C@@H](C)C(=O)C[C@H](C(C)C)C(=O)C1
REMARK SMILES IDX 8 1 9 2 6 3 7 4 5 5 4 6 3 7 2 8 1 9 10 11 11 12 15 13 16 14
REMARK SMILES IDX 17 15 12 17 13 18 14 19
REMARK H PARENT
REMARK Flexibility Score: 70.00
ROOT
ATOM      1  C   UNL     1     -11.502  12.758 -32.260  1.00  0.00     0.136 C 
ATOM      2  O   UNL     1     -10.307  12.510 -32.288  1.00  0.00    -0.299 OA
ENDROOT
BRANCH   1   3
ATOM      3  C   UNL     1     -11.937  14.206 -32.442  1.00  0.00     0.053 C 
ATOM      4  C   UNL     1     -10.786  15.099 -32.925  1.00  0.00     0.016 C 
BRANCH   3   5
ATOM      5  C   UNL     1     -12.580  14.767 -31.158  1.00  0.00     0.015 C 
BRANCH   5   6
ATOM      6  C   UNL     1     -13.935  15.448 -31.441  1.00  0.00     0.028 C 
BRANCH   6   7
ATOM      7  C   UNL     1     -14.964  15.136 -30.385  1.00  0.00    -0.028 C 
ATOM      8  C   UNL     1     -15.677  13.986 -30.318  1.00  0.00    -0.070 CG0
ATOM      9  C   UNL     1     -16.686  13.835 -29.209  1.00  0.00     0.039 C 
ATOM     10  G   UNL     1     -15.477  12.831 -31.286  1.00  0.00     0.000 G0
ENDBRANCH   6   7
ENDBRANCH   5   6
ENDBRANCH   3   5
ENDBRANCH   1   3
BRANCH   1  11
ATOM     11  C   UNL     1     -12.485  11.635 -31.971  1.00  0.00     0.087 C 
BRANCH  11  12
ATOM     12  C   UNL     1     -13.196  11.655 -30.587  1.00  0.00     0.066 C 
BRANCH  12  13
ATOM     13  C   UNL     1     -14.716  11.679 -30.676  1.00  0.00     0.140 C 
ATOM     14  O   UNL     1     -15.336  10.702 -30.274  1.00  0.00    -0.299 OA
BRANCH  13  15
ATOM     15  C   UNL     1     -15.481  12.821 -31.303  1.00  0.00     0.106 CG0
ATOM     16  G   UNL     1     -15.668  13.980 -30.337  1.00  0.00     0.000 G0
ENDBRANCH  13  15
ENDBRANCH  12  13
BRANCH  12  17
ATOM     17  C   UNL     1     -12.635  10.695 -29.481  1.00  0.00    -0.006 C 
ATOM     18  C   UNL     1     -12.638  11.373 -28.098  1.00  0.00     0.008 C 
ATOM     19  C   UNL     1     -11.236  10.123 -29.752  1.00  0.00     0.008 C 
ENDBRANCH  12  17
ENDBRANCH  11  12
ENDBRANCH   1  11
TORSDOF 1
ENDMDL
MODEL 8
REMARK VINA RESULT:    -3.018      1.575      3.716
REMARK INTER + INTRA:          -4.822
REMARK INTER:                  -4.935
REMARK INTRA:                   0.113
REMARK UNBOUND:                -0.216
REMARK SMILES CC1=CCC[C@@H](C)C(=O)C[C@H](C(C)C)C(=O)C1
REMARK SMILES IDX 8 1 9 2 6 3 7 4 5 5 4 6 3 7 2 8 1 9 10 11 11 12 15 13 16 14
REMARK SMILES IDX 17 15 12 17 13 18 14 19
REMARK H PARENT
REMARK Flexibility Score: 70.00
ROOT
ATOM      1  C   UNL     1     -15.953  13.741 -29.938  1.00  0.00     0.136 C 
ATOM      2  O   UNL     1     -16.684  14.095 -29.027  1.00  0.00    -0.299 OA
ENDROOT
BRANCH   1   3
ATOM      3  C   UNL     1     -16.552  12.884 -31.044  1.00  0.00     0.053 C 
ATOM      4  C   UNL     1     -16.934  13.716 -32.277  1.00  0.00     0.016 C 
BRANCH   3   5
ATOM      5  C   UNL     1     -17.749  12.059 -30.533  1.00  0.00     0.015 C 
BRANCH   5   6
ATOM      6  C   UNL     1     -17.306  10.710 -29.930  1.00  0.00     0.028 C 
BRANCH   6   7
ATOM      7  C   UNL     1     -16.933  10.828 -28.474  1.00  0.00    -0.028 C 
ATOM      8  C   UNL     1     -15.665  10.798 -27.998  1.00  0.00    -0.070 CG0
ATOM      9  C   UNL     1     -15.460  10.908 -26.510  1.00  0.00     0.039 C 
ATOM     10  G   UNL     1     -14.445  10.694 -28.899  1.00  0.00     0.000 G0
ENDBRANCH   6   7
ENDBRANCH   5   6
ENDBRANCH   3   5
ENDBRANCH   1   3
BRANCH   1  11
ATOM     11  C   UNL     1     -14.477  14.103 -29.888  1.00  0.00     0.087 C 
BRANCH  11  12
ATOM     12  C   UNL     1     -13.457  12.931 -29.973  1.00  0.00     0.066 C 
BRANCH  12  13
ATOM     13  C   UNL     1     -13.568  11.934 -28.828  1.00  0.00     0.140 C 
ATOM     14  O   UNL     1     -12.879  12.115 -27.832  1.00  0.00    -0.299 OA
BRANCH  13  15
ATOM     15  C   UNL     1     -14.431  10.696 -28.901  1.00  0.00     0.106 CG0
ATOM     16  G   UNL     1     -15.652  10.799 -28.000  1.00  0.00     0.000 G0
ENDBRANCH  13  15
ENDBRANCH  12  13
BRANCH  12  17
ATOM     17  C   UNL     1     -13.245  12.269 -31.379  1.00  0.00    -0.006 C 
ATOM     18  C   UNL     1     -11.987  11.381 -31.395  1.00  0.00     0.008 C 
ATOM     19  C   UNL     1     -13.181  13.243 -32.564  1.00  0.00     0.008 C 
ENDBRANCH  12  17
ENDBRANCH  11  12
ENDBRANCH   1  11
TORSDOF 1
ENDMDL
MODEL 9
REMARK VINA RESULT:    -2.770      9.506     11.921
REMARK INTER + INTRA:          -4.444
REMARK INTER:                  -4.708
REMARK INTRA:                   0.264
REMARK UNBOUND:                -0.216
REMARK SMILES CC1=CCC[C@@H](C)C(=O)C[C@H](C(C)C)C(=O)C1
REMARK SMILES IDX 8 1 9 2 6 3 7 4 5 5 4 6 3 7 2 8 1 9 10 11 11 12 15 13 16 14
REMARK SMILES IDX 17 15 12 17 13 18 14 19
REMARK H PARENT
REMARK Flexibility Score: 70.00
ROOT
ATOM      1  C   UNL     1     -27.895  11.699 -31.538  1.00  0.00     0.136 C 
ATOM      2  O   UNL     1     -27.709  10.585 -32.000  1.00  0.00    -0.299 OA
ENDROOT
BRANCH   1   3
ATOM      3  C   UNL     1     -29.175  11.942 -30.749  1.00  0.00     0.053 C 
ATOM      4  C   UNL     1     -29.357  13.422 -30.385  1.00  0.00     0.016 C 
BRANCH   3   5
ATOM      5  C   UNL     1     -29.245  11.045 -29.498  1.00  0.00     0.015 C 
BRANCH   5   6
ATOM      6  C   UNL     1     -28.441  11.632 -28.320  1.00  0.00     0.028 C 
BRANCH   6   7
ATOM      7  C   UNL     1     -27.379  10.684 -27.822  1.00  0.00    -0.028 C 
ATOM      8  C   UNL     1     -26.050  10.944 -27.826  1.00  0.00    -0.070 CG0
ATOM      9  C   UNL     1     -25.114   9.881 -27.313  1.00  0.00     0.039 C 
ATOM     10  G   UNL     1     -25.467  12.270 -28.290  1.00  0.00     0.000 G0
ENDBRANCH   6   7
ENDBRANCH   5   6
ENDBRANCH   3   5
ENDBRANCH   1   3
BRANCH   1  11
ATOM     11  C   UNL     1     -26.890  12.801 -31.832  1.00  0.00     0.087 C 
BRANCH  11  12
ATOM     12  C   UNL     1     -26.125  13.404 -30.618  1.00  0.00     0.066 C 
BRANCH  12  13
ATOM     13  C   UNL     1     -25.356  12.375 -29.801  1.00  0.00     0.140 C 
ATOM     14  O   UNL     1     -24.673  11.553 -30.399  1.00  0.00    -0.299 OA
BRANCH  13  15
ATOM     15  C   UNL     1     -25.461  12.280 -28.297  1.00  0.00     0.106 CG0
ATOM     16  G   UNL     1     -26.045  10.949 -27.850  1.00  0.00     0.000 G0
ENDBRANCH  13  15
ENDBRANCH  12  13
BRANCH  12  17
ATOM     17  C   UNL     1     -25.343  14.742 -30.859  1.00  0.00    -0.006 C 
ATOM     18  C   UNL     1     -23.822  14.503 -30.892  1.00  0.00     0.008 C 
ATOM     19  C   UNL     1     -25.648  15.873 -29.866  1.00  0.00     0.008 C 
ENDBRANCH  12  17
ENDBRANCH  11  12
ENDBRANCH   1  11
TORSDOF 1
ENDMDL
