MODEL 1
REMARK VINA RESULT:    -2.925      0.000      0.000
REMARK INTER + INTRA:          -6.200
REMARK INTER:                  -5.148
REMARK INTRA:                  -1.052
REMARK UNBOUND:                -1.052
REMARK SMILES CCCCCCC=CCCCCCCCC(=O)[O-]
REMARK SMILES IDX 10 1 11 2 12 3 13 4 14 5 15 6 16 7 17 8 18 9 9 10 8 11 7 12
REMARK SMILES IDX 6 13 5 14 4 15 3 16 2 17 1 18
REMARK H PARENT
REMARK Flexibility Score: inf
ROOT
ATOM      1  C   UNL     1     -53.947 121.362  -8.727  1.00  0.00     0.004 C 
ENDROOT
BRANCH   1   2
ATOM      2  C   UNL     1     -54.803 122.296  -9.604  1.00  0.00     0.000 C 
BRANCH   2   3
ATOM      3  C   UNL     1     -54.034 123.018 -10.727  1.00  0.00     0.000 C 
BRANCH   3   4
ATOM      4  C   UNL     1     -54.611 122.728 -12.124  1.00  0.00     0.000 C 
BRANCH   4   5
ATOM      5  C   UNL     1     -55.942 121.962 -12.067  1.00  0.00     0.006 C 
BRANCH   5   6
ATOM      6  C   UNL     1     -55.754 120.439 -12.030  1.00  0.00     0.053 C 
BRANCH   6   7
ATOM      7  C   UNL     1     -56.788 119.806 -11.154  1.00  0.00     0.041 C 
ATOM      8  O   UNL     1     -56.639 118.621 -10.753  1.00  0.00    -0.550 OA
ATOM      9  O   UNL     1     -57.889 120.542 -10.734  1.00  0.00    -0.550 OA
ENDBRANCH   6   7
ENDBRANCH   5   6
ENDBRANCH   4   5
ENDBRANCH   3   4
ENDBRANCH   2   3
ENDBRANCH   1   2
BRANCH   1  10
ATOM     10  C   UNL     1     -53.260 120.250  -9.538  1.00  0.00     0.027 C 
BRANCH  10  11
ATOM     11  C   UNL     1     -51.989 120.745 -10.172  1.00  0.00    -0.031 C 
ATOM     12  C   UNL     1     -51.780 120.655 -11.494  1.00  0.00    -0.031 C 
BRANCH  12  13
ATOM     13  C   UNL     1     -50.500 121.134 -12.125  1.00  0.00     0.027 C 
BRANCH  13  14
ATOM     14  C   UNL     1     -49.524 121.715 -11.091  1.00  0.00     0.004 C 
BRANCH  14  15
ATOM     15  C   UNL     1     -48.993 123.096 -11.514  1.00  0.00     0.000 C 
BRANCH  15  16
ATOM     16  C   UNL     1     -48.917 124.086 -10.342  1.00  0.00    -0.000 C 
BRANCH  16  17
ATOM     17  C   UNL     1     -49.436 123.485  -9.027  1.00  0.00    -0.003 C 
ATOM     18  C   UNL     1     -50.895 123.863  -8.787  1.00  0.00     0.004 C 
ENDBRANCH  16  17
ENDBRANCH  15  16
ENDBRANCH  14  15
ENDBRANCH  13  14
ENDBRANCH  12  13
ENDBRANCH  10  11
ENDBRANCH   1  10
TORSDOF 13
ENDMDL
MODEL 2
REMARK VINA RESULT:    -2.504      2.163      3.366
REMARK INTER + INTRA:          -5.459
REMARK INTER:                  -4.631
REMARK INTRA:                  -0.827
REMARK UNBOUND:                -1.052
REMARK SMILES CCCCCCC=CCCCCCCCC(=O)[O-]
REMARK SMILES IDX 10 1 11 2 12 3 13 4 14 5 15 6 16 7 17 8 18 9 9 10 8 11 7 12
REMARK SMILES IDX 6 13 5 14 4 15 3 16 2 17 1 18
REMARK H PARENT
REMARK Flexibility Score: inf
ROOT
ATOM      1  C   UNL     1     -55.768 120.019 -12.000  1.00  0.00     0.004 C 
ENDROOT
BRANCH   1   2
ATOM      2  C   UNL     1     -56.410 119.401 -10.743  1.00  0.00     0.000 C 
BRANCH   2   3
ATOM      3  C   UNL     1     -57.319 120.353  -9.943  1.00  0.00     0.000 C 
BRANCH   3   4
ATOM      4  C   UNL     1     -56.566 121.579  -9.400  1.00  0.00     0.000 C 
BRANCH   4   5
ATOM      5  C   UNL     1     -55.445 121.199  -8.419  1.00  0.00     0.006 C 
BRANCH   5   6
ATOM      6  C   UNL     1     -54.055 121.642  -8.900  1.00  0.00     0.053 C 
BRANCH   6   7
ATOM      7  C   UNL     1     -54.041 123.114  -9.169  1.00  0.00     0.041 C 
ATOM      8  O   UNL     1     -53.878 123.929  -8.224  1.00  0.00    -0.550 OA
ATOM      9  O   UNL     1     -54.153 123.583 -10.472  1.00  0.00    -0.550 OA
ENDBRANCH   6   7
ENDBRANCH   5   6
ENDBRANCH   4   5
ENDBRANCH   3   4
ENDBRANCH   2   3
ENDBRANCH   1   2
BRANCH   1  10
ATOM     10  C   UNL     1     -54.269 119.701 -12.119  1.00  0.00     0.027 C 
BRANCH  10  11
ATOM     11  C   UNL     1     -53.434 120.939 -11.941  1.00  0.00    -0.031 C 
ATOM     12  C   UNL     1     -52.095 120.901 -12.011  1.00  0.00    -0.031 C 
BRANCH  12  13
ATOM     13  C   UNL     1     -51.259 122.138 -11.815  1.00  0.00     0.027 C 
BRANCH  13  14
ATOM     14  C   UNL     1     -49.774 121.890 -12.120  1.00  0.00     0.004 C 
BRANCH  14  15
ATOM     15  C   UNL     1     -48.968 121.580 -10.846  1.00  0.00     0.000 C 
BRANCH  15  16
ATOM     16  C   UNL     1     -49.251 122.575  -9.710  1.00  0.00    -0.000 C 
BRANCH  16  17
ATOM     17  C   UNL     1     -48.879 124.018 -10.083  1.00  0.00    -0.003 C 
ATOM     18  C   UNL     1     -48.966 124.940  -8.870  1.00  0.00     0.004 C 
ENDBRANCH  16  17
ENDBRANCH  15  16
ENDBRANCH  14  15
ENDBRANCH  13  14
ENDBRANCH  12  13
ENDBRANCH  10  11
ENDBRANCH   1  10
TORSDOF 13
ENDMDL
MODEL 3
REMARK VINA RESULT:    -2.038      1.622      2.110
REMARK INTER + INTRA:          -4.638
REMARK INTER:                  -4.909
REMARK INTRA:                   0.271
REMARK UNBOUND:                -1.052
REMARK SMILES CCCCCCC=CCCCCCCCC(=O)[O-]
REMARK SMILES IDX 10 1 11 2 12 3 13 4 14 5 15 6 16 7 17 8 18 9 9 10 8 11 7 12
REMARK SMILES IDX 6 13 5 14 4 15 3 16 2 17 1 18
REMARK H PARENT
REMARK Flexibility Score: inf
ROOT
ATOM      1  C   UNL     1     -54.130 120.870  -8.946  1.00  0.00     0.004 C 
ENDROOT
BRANCH   1   2
ATOM      2  C   UNL     1     -53.519 119.633  -9.634  1.00  0.00     0.000 C 
BRANCH   2   3
ATOM      3  C   UNL     1     -53.725 119.570 -11.159  1.00  0.00     0.000 C 
BRANCH   3   4
ATOM      4  C   UNL     1     -55.000 120.299 -11.619  1.00  0.00     0.000 C 
BRANCH   4   5
ATOM      5  C   UNL     1     -56.278 119.499 -11.320  1.00  0.00     0.006 C 
BRANCH   5   6
ATOM      6  C   UNL     1     -57.473 120.396 -10.961  1.00  0.00     0.053 C 
BRANCH   6   7
ATOM      7  C   UNL     1     -56.998 121.686 -10.371  1.00  0.00     0.041 C 
ATOM      8  O   UNL     1     -57.043 121.866  -9.126  1.00  0.00    -0.550 OA
ATOM      9  O   UNL     1     -56.456 122.668 -11.190  1.00  0.00    -0.550 OA
ENDBRANCH   6   7
ENDBRANCH   5   6
ENDBRANCH   4   5
ENDBRANCH   3   4
ENDBRANCH   2   3
ENDBRANCH   1   2
BRANCH   1  10
ATOM     10  C   UNL     1     -53.148 122.049  -8.863  1.00  0.00     0.027 C 
BRANCH  10  11
ATOM     11  C   UNL     1     -52.611 122.407 -10.222  1.00  0.00    -0.031 C 
ATOM     12  C   UNL     1     -51.439 121.926 -10.664  1.00  0.00    -0.031 C 
BRANCH  12  13
ATOM     13  C   UNL     1     -50.893 122.298 -12.017  1.00  0.00     0.027 C 
BRANCH  13  14
ATOM     14  C   UNL     1     -49.429 122.756 -11.947  1.00  0.00     0.004 C 
BRANCH  14  15
ATOM     15  C   UNL     1     -49.304 124.291 -11.975  1.00  0.00     0.000 C 
BRANCH  15  16
ATOM     16  C   UNL     1     -48.881 124.875 -10.619  1.00  0.00    -0.000 C 
BRANCH  16  17
ATOM     17  C   UNL     1     -49.037 123.869  -9.468  1.00  0.00    -0.003 C 
ATOM     18  C   UNL     1     -49.787 124.490  -8.292  1.00  0.00     0.004 C 
ENDBRANCH  16  17
ENDBRANCH  15  16
ENDBRANCH  14  15
ENDBRANCH  13  14
ENDBRANCH  12  13
ENDBRANCH  10  11
ENDBRANCH   1  10
TORSDOF 13
ENDMDL
MODEL 4
REMARK VINA RESULT:    -1.732      1.729      2.497
REMARK INTER + INTRA:          -4.100
REMARK INTER:                  -3.570
REMARK INTRA:                  -0.529
REMARK UNBOUND:                -1.052
REMARK SMILES CCCCCCC=CCCCCCCCC(=O)[O-]
REMARK SMILES IDX 10 1 11 2 12 3 13 4 14 5 15 6 16 7 17 8 18 9 9 10 8 11 7 12
REMARK SMILES IDX 6 13 5 14 4 15 3 16 2 17 1 18
REMARK H PARENT
REMARK Flexibility Score: inf
ROOT
ATOM      1  C   UNL     1     -54.494 122.128  -8.674  1.00  0.00     0.004 C 
ENDROOT
BRANCH   1   2
ATOM      2  C   UNL     1     -55.847 121.393  -8.736  1.00  0.00     0.000 C 
BRANCH   2   3
ATOM      3  C   UNL     1     -56.690 121.688  -9.991  1.00  0.00     0.000 C 
BRANCH   3   4
ATOM      4  C   UNL     1     -57.488 120.465 -10.473  1.00  0.00     0.000 C 
BRANCH   4   5
ATOM      5  C   UNL     1     -56.588 119.361 -11.052  1.00  0.00     0.006 C 
BRANCH   5   6
ATOM      6  C   UNL     1     -55.451 119.915 -11.923  1.00  0.00     0.053 C 
BRANCH   6   7
ATOM      7  C   UNL     1     -54.123 119.500 -11.372  1.00  0.00     0.041 C 
ATOM      8  O   UNL     1     -53.112 119.459 -12.122  1.00  0.00    -0.550 OA
ATOM      9  O   UNL     1     -53.990 119.212 -10.020  1.00  0.00    -0.550 OA
ENDBRANCH   6   7
ENDBRANCH   5   6
ENDBRANCH   4   5
ENDBRANCH   3   4
ENDBRANCH   2   3
ENDBRANCH   1   2
BRANCH   1  10
ATOM     10  C   UNL     1     -54.389 123.266  -9.703  1.00  0.00     0.027 C 
BRANCH  10  11
ATOM     11  C   UNL     1     -53.603 122.836 -10.912  1.00  0.00    -0.031 C 
ATOM     12  C   UNL     1     -52.309 122.495 -10.825  1.00  0.00    -0.031 C 
BRANCH  12  13
ATOM     13  C   UNL     1     -51.519 122.082 -12.038  1.00  0.00     0.027 C 
BRANCH  13  14
ATOM     14  C   UNL     1     -50.066 122.579 -11.983  1.00  0.00     0.004 C 
BRANCH  14  15
ATOM     15  C   UNL     1     -49.248 121.847 -10.903  1.00  0.00     0.000 C 
BRANCH  15  16
ATOM     16  C   UNL     1     -49.349 122.522  -9.526  1.00  0.00    -0.000 C 
BRANCH  16  17
ATOM     17  C   UNL     1     -48.875 123.983  -9.548  1.00  0.00    -0.003 C 
ATOM     18  C   UNL     1     -49.515 124.786  -8.419  1.00  0.00     0.004 C 
ENDBRANCH  16  17
ENDBRANCH  15  16
ENDBRANCH  14  15
ENDBRANCH  13  14
ENDBRANCH  12  13
ENDBRANCH  10  11
ENDBRANCH   1  10
TORSDOF 13
ENDMDL
