MODEL 1
REMARK VINA RESULT:    -3.705      0.000      0.000
REMARK INTER + INTRA:          -9.641
REMARK INTER:                  -7.170
REMARK INTRA:                  -2.471
REMARK UNBOUND:                -2.471
REMARK SMILES CCCCCCCCCCCCCCCCCC(=O)[O-]
REMARK SMILES IDX 10 1 11 2 12 3 13 4 14 5 15 6 16 7 17 8 18 9 19 10 20 11
REMARK SMILES IDX 9 12 8 13 7 14 6 15 5 16 4 17 3 18 2 19 1 20
REMARK H PARENT
REMARK Flexibility Score: inf
ROOT
ATOM      1  C   UNL     1       6.939   1.228  48.811  1.00  0.00     0.000 C 
ENDROOT
BRANCH   1   2
ATOM      2  C   UNL     1       6.515   1.955  47.523  1.00  0.00     0.000 C 
BRANCH   2   3
ATOM      3  C   UNL     1       6.104   3.414  47.775  1.00  0.00     0.000 C 
BRANCH   3   4
ATOM      4  C   UNL     1       5.036   3.545  48.876  1.00  0.00     0.000 C 
BRANCH   4   5
ATOM      5  C   UNL     1       5.401   4.625  49.918  1.00  0.00     0.000 C 
BRANCH   5   6
ATOM      6  C   UNL     1       6.878   4.588  50.355  1.00  0.00     0.000 C 
BRANCH   6   7
ATOM      7  C   UNL     1       7.560   5.964  50.441  1.00  0.00     0.006 C 
BRANCH   7   8
ATOM      8  C   UNL     1       6.723   7.079  49.799  1.00  0.00     0.053 C 
BRANCH   8   9
ATOM      9  C   UNL     1       7.288   7.446  48.462  1.00  0.00     0.041 C 
ATOM     10  O   UNL     1       8.235   6.779  47.970  1.00  0.00    -0.550 OA
ATOM     11  O   UNL     1       6.735   8.496  47.739  1.00  0.00    -0.550 OA
ENDBRANCH   8   9
ENDBRANCH   7   8
ENDBRANCH   6   7
ENDBRANCH   5   6
ENDBRANCH   4   5
ENDBRANCH   3   4
ENDBRANCH   2   3
ENDBRANCH   1   2
BRANCH   1  12
ATOM     12  C   UNL     1       5.956   0.118  49.224  1.00  0.00     0.000 C 
BRANCH  12  13
ATOM     13  C   UNL     1       5.868  -0.148  50.739  1.00  0.00    -0.000 C 
BRANCH  13  14
ATOM     14  C   UNL     1       6.399   1.022  51.585  1.00  0.00    -0.000 C 
BRANCH  14  15
ATOM     15  C   UNL     1       5.277   1.823  52.272  1.00  0.00    -0.000 C 
BRANCH  15  16
ATOM     16  C   UNL     1       3.875   1.193  52.181  1.00  0.00    -0.000 C 
BRANCH  16  17
ATOM     17  C   UNL     1       2.902   2.018  51.321  1.00  0.00    -0.000 C 
BRANCH  17  18
ATOM     18  C   UNL     1       2.491   1.290  50.032  1.00  0.00    -0.000 C 
BRANCH  18  19
ATOM     19  C   UNL     1       1.272   0.378  50.232  1.00  0.00    -0.003 C 
ATOM     20  C   UNL     1       0.942  -0.388  48.955  1.00  0.00     0.004 C 
ENDBRANCH  18  19
ENDBRANCH  17  18
ENDBRANCH  16  17
ENDBRANCH  15  16
ENDBRANCH  14  15
ENDBRANCH  13  14
ENDBRANCH  12  13
ENDBRANCH   1  12
TORSDOF 16
ENDMDL
MODEL 2
REMARK VINA RESULT:    -3.643      3.586      6.392
REMARK INTER + INTRA:          -9.522
REMARK INTER:                  -6.399
REMARK INTRA:                  -3.123
REMARK UNBOUND:                -2.471
REMARK SMILES CCCCCCCCCCCCCCCCCC(=O)[O-]
REMARK SMILES IDX 10 1 11 2 12 3 13 4 14 5 15 6 16 7 17 8 18 9 19 10 20 11
REMARK SMILES IDX 9 12 8 13 7 14 6 15 5 16 4 17 3 18 2 19 1 20
REMARK H PARENT
REMARK Flexibility Score: inf
ROOT
ATOM      1  C   UNL     1       5.750   3.232  48.063  1.00  0.00     0.000 C 
ENDROOT
BRANCH   1   2
ATOM      2  C   UNL     1       4.357   2.948  48.651  1.00  0.00     0.000 C 
BRANCH   2   3
ATOM      3  C   UNL     1       4.070   3.771  49.917  1.00  0.00     0.000 C 
BRANCH   3   4
ATOM      4  C   UNL     1       3.026   3.104  50.831  1.00  0.00     0.000 C 
BRANCH   4   5
ATOM      5  C   UNL     1       3.076   1.564  50.747  1.00  0.00     0.000 C 
BRANCH   5   6
ATOM      6  C   UNL     1       1.776   0.930  50.217  1.00  0.00     0.000 C 
BRANCH   6   7
ATOM      7  C   UNL     1       1.894  -0.554  49.829  1.00  0.00     0.006 C 
BRANCH   7   8
ATOM      8  C   UNL     1       3.265  -1.149  50.177  1.00  0.00     0.053 C 
BRANCH   8   9
ATOM      9  C   UNL     1       3.668  -2.159  49.149  1.00  0.00     0.041 C 
ATOM     10  O   UNL     1       4.818  -2.672  49.181  1.00  0.00    -0.550 OA
ATOM     11  O   UNL     1       2.757  -2.570  48.184  1.00  0.00    -0.550 OA
ENDBRANCH   8   9
ENDBRANCH   7   8
ENDBRANCH   6   7
ENDBRANCH   5   6
ENDBRANCH   4   5
ENDBRANCH   3   4
ENDBRANCH   2   3
ENDBRANCH   1   2
BRANCH   1  12
ATOM     12  C   UNL     1       6.764   2.111  48.356  1.00  0.00     0.000 C 
BRANCH  12  13
ATOM     13  C   UNL     1       6.154   0.796  48.876  1.00  0.00    -0.000 C 
BRANCH  13  14
ATOM     14  C   UNL     1       6.496   0.518  50.351  1.00  0.00    -0.000 C 
BRANCH  14  15
ATOM     15  C   UNL     1       7.235   1.689  51.025  1.00  0.00    -0.000 C 
BRANCH  15  16
ATOM     16  C   UNL     1       6.518   2.300  52.244  1.00  0.00    -0.000 C 
BRANCH  16  17
ATOM     17  C   UNL     1       6.843   3.790  52.446  1.00  0.00    -0.000 C 
BRANCH  17  18
ATOM     18  C   UNL     1       7.539   4.414  51.226  1.00  0.00    -0.000 C 
BRANCH  18  19
ATOM     19  C   UNL     1       7.050   5.840  50.934  1.00  0.00    -0.003 C 
ATOM     20  C   UNL     1       7.359   6.243  49.495  1.00  0.00     0.004 C 
ENDBRANCH  18  19
ENDBRANCH  17  18
ENDBRANCH  16  17
ENDBRANCH  15  16
ENDBRANCH  14  15
ENDBRANCH  13  14
ENDBRANCH  12  13
ENDBRANCH   1  12
TORSDOF 16
ENDMDL
MODEL 3
REMARK VINA RESULT:    -3.625      1.377      2.711
REMARK INTER + INTRA:          -9.487
REMARK INTER:                  -6.994
REMARK INTRA:                  -2.493
REMARK UNBOUND:                -2.471
REMARK SMILES CCCCCCCCCCCCCCCCCC(=O)[O-]
REMARK SMILES IDX 10 1 11 2 12 3 13 4 14 5 15 6 16 7 17 8 18 9 19 10 20 11
REMARK SMILES IDX 9 12 8 13 7 14 6 15 5 16 4 17 3 18 2 19 1 20
REMARK H PARENT
REMARK Flexibility Score: inf
ROOT
ATOM      1  C   UNL     1       5.807   3.217  48.123  1.00  0.00     0.000 C 
ENDROOT
BRANCH   1   2
ATOM      2  C   UNL     1       6.648   4.500  48.238  1.00  0.00     0.000 C 
BRANCH   2   3
ATOM      3  C   UNL     1       7.031   4.828  49.690  1.00  0.00     0.000 C 
BRANCH   3   4
ATOM      4  C   UNL     1       5.954   5.659  50.411  1.00  0.00     0.000 C 
BRANCH   4   5
ATOM      5  C   UNL     1       6.389   7.126  50.615  1.00  0.00     0.000 C 
BRANCH   5   6
ATOM      6  C   UNL     1       5.695   8.116  49.659  1.00  0.00     0.000 C 
BRANCH   6   7
ATOM      7  C   UNL     1       6.649   8.928  48.768  1.00  0.00     0.006 C 
BRANCH   7   8
ATOM      8  C   UNL     1       7.413   8.051  47.766  1.00  0.00     0.053 C 
BRANCH   8   9
ATOM      9  C   UNL     1       8.886   8.276  47.897  1.00  0.00     0.041 C 
ATOM     10  O   UNL     1       9.322   9.362  48.360  1.00  0.00    -0.550 OA
ATOM     11  O   UNL     1       9.777   7.267  47.553  1.00  0.00    -0.550 OA
ENDBRANCH   8   9
ENDBRANCH   7   8
ENDBRANCH   6   7
ENDBRANCH   5   6
ENDBRANCH   4   5
ENDBRANCH   3   4
ENDBRANCH   2   3
ENDBRANCH   1   2
BRANCH   1  12
ATOM     12  C   UNL     1       6.619   2.011  47.614  1.00  0.00     0.000 C 
BRANCH  12  13
ATOM     13  C   UNL     1       7.036   0.998  48.697  1.00  0.00    -0.000 C 
BRANCH  13  14
ATOM     14  C   UNL     1       6.138   1.051  49.944  1.00  0.00    -0.000 C 
BRANCH  14  15
ATOM     15  C   UNL     1       6.897   1.483  51.212  1.00  0.00    -0.000 C 
BRANCH  15  16
ATOM     16  C   UNL     1       6.077   2.318  52.213  1.00  0.00    -0.000 C 
BRANCH  16  17
ATOM     17  C   UNL     1       4.579   1.963  52.204  1.00  0.00    -0.000 C 
BRANCH  17  18
ATOM     18  C   UNL     1       3.688   3.170  51.875  1.00  0.00    -0.000 C 
BRANCH  18  19
ATOM     19  C   UNL     1       3.128   3.118  50.446  1.00  0.00    -0.003 C 
ATOM     20  C   UNL     1       2.603   1.725  50.112  1.00  0.00     0.004 C 
ENDBRANCH  18  19
ENDBRANCH  17  18
ENDBRANCH  16  17
ENDBRANCH  15  16
ENDBRANCH  14  15
ENDBRANCH  13  14
ENDBRANCH  12  13
ENDBRANCH   1  12
TORSDOF 16
ENDMDL
MODEL 4
REMARK VINA RESULT:    -3.623      4.069      6.897
REMARK INTER + INTRA:          -9.483
REMARK INTER:                  -6.440
REMARK INTRA:                  -3.044
REMARK UNBOUND:                -2.471
REMARK SMILES CCCCCCCCCCCCCCCCCC(=O)[O-]
REMARK SMILES IDX 10 1 11 2 12 3 13 4 14 5 15 6 16 7 17 8 18 9 19 10 20 11
REMARK SMILES IDX 9 12 8 13 7 14 6 15 5 16 4 17 3 18 2 19 1 20
REMARK H PARENT
REMARK Flexibility Score: inf
ROOT
ATOM      1  C   UNL     1       4.701   3.401  48.608  1.00  0.00     0.000 C 
ENDROOT
BRANCH   1   2
ATOM      2  C   UNL     1       4.487   3.897  50.047  1.00  0.00     0.000 C 
BRANCH   2   3
ATOM      3  C   UNL     1       3.367   3.138  50.775  1.00  0.00     0.000 C 
BRANCH   3   4
ATOM      4  C   UNL     1       2.785   1.990  49.930  1.00  0.00     0.000 C 
BRANCH   4   5
ATOM      5  C   UNL     1       1.808   1.108  50.737  1.00  0.00     0.000 C 
BRANCH   5   6
ATOM      6  C   UNL     1       2.205  -0.379  50.776  1.00  0.00     0.000 C 
BRANCH   6   7
ATOM      7  C   UNL     1       1.846  -1.176  49.511  1.00  0.00     0.006 C 
BRANCH   7   8
ATOM      8  C   UNL     1       2.955  -2.152  49.092  1.00  0.00     0.053 C 
BRANCH   8   9
ATOM      9  C   UNL     1       3.265  -3.096  50.211  1.00  0.00     0.041 C 
ATOM     10  O   UNL     1       2.353  -3.806  50.712  1.00  0.00    -0.550 OA
ATOM     11  O   UNL     1       4.569  -3.227  50.669  1.00  0.00    -0.550 OA
ENDBRANCH   8   9
ENDBRANCH   7   8
ENDBRANCH   6   7
ENDBRANCH   5   6
ENDBRANCH   4   5
ENDBRANCH   3   4
ENDBRANCH   2   3
ENDBRANCH   1   2
BRANCH   1  12
ATOM     12  C   UNL     1       6.187   3.334  48.210  1.00  0.00     0.000 C 
BRANCH  12  13
ATOM     13  C   UNL     1       6.631   2.014  47.552  1.00  0.00    -0.000 C 
BRANCH  13  14
ATOM     14  C   UNL     1       7.094   0.961  48.574  1.00  0.00    -0.000 C 
BRANCH  14  15
ATOM     15  C   UNL     1       5.936   0.109  49.125  1.00  0.00    -0.000 C 
BRANCH  15  16
ATOM     16  C   UNL     1       5.779   0.128  50.656  1.00  0.00    -0.000 C 
BRANCH  16  17
ATOM     17  C   UNL     1       6.827   1.012  51.355  1.00  0.00    -0.000 C 
BRANCH  17  18
ATOM     18  C   UNL     1       6.265   1.730  52.591  1.00  0.00    -0.000 C 
BRANCH  18  19
ATOM     19  C   UNL     1       6.902   3.110  52.812  1.00  0.00    -0.003 C 
ATOM     20  C   UNL     1       7.844   3.471  51.667  1.00  0.00     0.004 C 
ENDBRANCH  18  19
ENDBRANCH  17  18
ENDBRANCH  16  17
ENDBRANCH  15  16
ENDBRANCH  14  15
ENDBRANCH  13  14
ENDBRANCH  12  13
ENDBRANCH   1  12
TORSDOF 16
ENDMDL
MODEL 5
REMARK VINA RESULT:    -3.620      1.308      2.229
REMARK INTER + INTRA:          -9.477
REMARK INTER:                  -6.454
REMARK INTRA:                  -3.024
REMARK UNBOUND:                -2.471
REMARK SMILES CCCCCCCCCCCCCCCCCC(=O)[O-]
REMARK SMILES IDX 10 1 11 2 12 3 13 4 14 5 15 6 16 7 17 8 18 9 19 10 20 11
REMARK SMILES IDX 9 12 8 13 7 14 6 15 5 16 4 17 3 18 2 19 1 20
REMARK H PARENT
REMARK Flexibility Score: inf
ROOT
ATOM      1  C   UNL     1       6.690   2.377  48.183  1.00  0.00     0.000 C 
ENDROOT
BRANCH   1   2
ATOM      2  C   UNL     1       5.392   3.129  47.844  1.00  0.00     0.000 C 
BRANCH   2   3
ATOM      3  C   UNL     1       4.356   3.062  48.977  1.00  0.00     0.000 C 
BRANCH   3   4
ATOM      4  C   UNL     1       4.494   4.228  49.973  1.00  0.00     0.000 C 
BRANCH   4   5
ATOM      5  C   UNL     1       5.008   3.760  51.352  1.00  0.00     0.000 C 
BRANCH   5   6
ATOM      6  C   UNL     1       6.240   4.538  51.850  1.00  0.00     0.000 C 
BRANCH   6   7
ATOM      7  C   UNL     1       7.309   4.808  50.777  1.00  0.00     0.006 C 
BRANCH   7   8
ATOM      8  C   UNL     1       7.572   6.306  50.570  1.00  0.00     0.053 C 
BRANCH   8   9
ATOM      9  C   UNL     1       7.234   6.703  49.167  1.00  0.00     0.041 C 
ATOM     10  O   UNL     1       6.727   7.831  48.933  1.00  0.00    -0.550 OA
ATOM     11  O   UNL     1       7.525   5.847  48.113  1.00  0.00    -0.550 OA
ENDBRANCH   8   9
ENDBRANCH   7   8
ENDBRANCH   6   7
ENDBRANCH   5   6
ENDBRANCH   4   5
ENDBRANCH   3   4
ENDBRANCH   2   3
ENDBRANCH   1   2
BRANCH   1  12
ATOM     12  C   UNL     1       6.438   0.960  48.728  1.00  0.00     0.000 C 
BRANCH  12  13
ATOM     13  C   UNL     1       6.744   0.770  50.226  1.00  0.00    -0.000 C 
BRANCH  13  14
ATOM     14  C   UNL     1       5.604   0.072  50.987  1.00  0.00    -0.000 C 
BRANCH  14  15
ATOM     15  C   UNL     1       4.597  -0.625  50.051  1.00  0.00    -0.000 C 
BRANCH  15  16
ATOM     16  C   UNL     1       3.123  -0.245  50.279  1.00  0.00    -0.000 C 
BRANCH  16  17
ATOM     17  C   UNL     1       2.923   0.686  51.487  1.00  0.00    -0.000 C 
BRANCH  17  18
ATOM     18  C   UNL     1       1.779   1.690  51.277  1.00  0.00    -0.000 C 
BRANCH  18  19
ATOM     19  C   UNL     1       1.598   2.636  52.473  1.00  0.00    -0.003 C 
ATOM     20  C   UNL     1       1.323   4.063  52.009  1.00  0.00     0.004 C 
ENDBRANCH  18  19
ENDBRANCH  17  18
ENDBRANCH  16  17
ENDBRANCH  15  16
ENDBRANCH  14  15
ENDBRANCH  13  14
ENDBRANCH  12  13
ENDBRANCH   1  12
TORSDOF 16
ENDMDL
MODEL 6
REMARK VINA RESULT:    -3.615      1.579      3.355
REMARK INTER + INTRA:          -9.468
REMARK INTER:                  -6.924
REMARK INTRA:                  -2.544
REMARK UNBOUND:                -2.471
REMARK SMILES CCCCCCCCCCCCCCCCCC(=O)[O-]
REMARK SMILES IDX 10 1 11 2 12 3 13 4 14 5 15 6 16 7 17 8 18 9 19 10 20 11
REMARK SMILES IDX 9 12 8 13 7 14 6 15 5 16 4 17 3 18 2 19 1 20
REMARK H PARENT
REMARK Flexibility Score: inf
ROOT
ATOM      1  C   UNL     1       6.606   2.401  52.165  1.00  0.00     0.000 C 
ENDROOT
BRANCH   1   2
ATOM      2  C   UNL     1       7.713   3.215  51.475  1.00  0.00     0.000 C 
BRANCH   2   3
ATOM      3  C   UNL     1       7.818   4.649  52.017  1.00  0.00     0.000 C 
BRANCH   3   4
ATOM      4  C   UNL     1       6.745   5.584  51.430  1.00  0.00     0.000 C 
BRANCH   4   5
ATOM      5  C   UNL     1       7.352   6.658  50.501  1.00  0.00     0.000 C 
BRANCH   5   6
ATOM      6  C   UNL     1       7.488   6.204  49.036  1.00  0.00     0.000 C 
BRANCH   6   7
ATOM      7  C   UNL     1       7.405   7.337  47.999  1.00  0.00     0.006 C 
BRANCH   7   8
ATOM      8  C   UNL     1       7.793   8.702  48.584  1.00  0.00     0.053 C 
BRANCH   8   9
ATOM      9  C   UNL     1       6.661   9.670  48.437  1.00  0.00     0.041 C 
ATOM     10  O   UNL     1       6.744  10.822  48.938  1.00  0.00    -0.550 OA
ATOM     11  O   UNL     1       5.535   9.317  47.704  1.00  0.00    -0.550 OA
ENDBRANCH   8   9
ENDBRANCH   7   8
ENDBRANCH   6   7
ENDBRANCH   5   6
ENDBRANCH   4   5
ENDBRANCH   3   4
ENDBRANCH   2   3
ENDBRANCH   1   2
BRANCH   1  12
ATOM     12  C   UNL     1       6.204   1.144  51.373  1.00  0.00     0.000 C 
BRANCH  12  13
ATOM     13  C   UNL     1       7.041   0.871  50.108  1.00  0.00    -0.000 C 
BRANCH  13  14
ATOM     14  C   UNL     1       6.205   0.910  48.817  1.00  0.00    -0.000 C 
BRANCH  14  15
ATOM     15  C   UNL     1       6.594   2.075  47.887  1.00  0.00    -0.000 C 
BRANCH  15  16
ATOM     16  C   UNL     1       5.764   3.360  48.068  1.00  0.00    -0.000 C 
BRANCH  16  17
ATOM     17  C   UNL     1       4.373   3.095  48.668  1.00  0.00    -0.000 C 
BRANCH  17  18
ATOM     18  C   UNL     1       4.116   3.911  49.945  1.00  0.00    -0.000 C 
BRANCH  18  19
ATOM     19  C   UNL     1       3.090   3.244  50.873  1.00  0.00    -0.003 C 
ATOM     20  C   UNL     1       2.763   1.829  50.407  1.00  0.00     0.004 C 
ENDBRANCH  18  19
ENDBRANCH  17  18
ENDBRANCH  16  17
ENDBRANCH  15  16
ENDBRANCH  14  15
ENDBRANCH  13  14
ENDBRANCH  12  13
ENDBRANCH   1  12
TORSDOF 16
ENDMDL
MODEL 7
REMARK VINA RESULT:    -3.578      1.601      3.747
REMARK INTER + INTRA:          -9.397
REMARK INTER:                  -6.700
REMARK INTRA:                  -2.696
REMARK UNBOUND:                -2.471
REMARK SMILES CCCCCCCCCCCCCCCCCC(=O)[O-]
REMARK SMILES IDX 10 1 11 2 12 3 13 4 14 5 15 6 16 7 17 8 18 9 19 10 20 11
REMARK SMILES IDX 9 12 8 13 7 14 6 15 5 16 4 17 3 18 2 19 1 20
REMARK H PARENT
REMARK Flexibility Score: inf
ROOT
ATOM      1  C   UNL     1       5.444   3.455  52.386  1.00  0.00     0.000 C 
ENDROOT
BRANCH   1   2
ATOM      2  C   UNL     1       6.762   2.696  52.153  1.00  0.00     0.000 C 
BRANCH   2   3
ATOM      3  C   UNL     1       7.884   3.606  51.630  1.00  0.00     0.000 C 
BRANCH   3   4
ATOM      4  C   UNL     1       7.500   5.097  51.662  1.00  0.00     0.000 C 
BRANCH   4   5
ATOM      5  C   UNL     1       7.530   5.737  50.257  1.00  0.00     0.000 C 
BRANCH   5   6
ATOM      6  C   UNL     1       6.645   6.991  50.129  1.00  0.00     0.000 C 
BRANCH   6   7
ATOM      7  C   UNL     1       7.414   8.323  50.101  1.00  0.00     0.006 C 
BRANCH   7   8
ATOM      8  C   UNL     1       7.550   8.897  48.684  1.00  0.00     0.053 C 
BRANCH   8   9
ATOM      9  C   UNL     1       8.965   8.781  48.211  1.00  0.00     0.041 C 
ATOM     10  O   UNL     1       9.774   9.727  48.397  1.00  0.00    -0.550 OA
ATOM     11  O   UNL     1       9.403   7.608  47.610  1.00  0.00    -0.550 OA
ENDBRANCH   8   9
ENDBRANCH   7   8
ENDBRANCH   6   7
ENDBRANCH   5   6
ENDBRANCH   4   5
ENDBRANCH   3   4
ENDBRANCH   2   3
ENDBRANCH   1   2
BRANCH   1  12
ATOM     12  C   UNL     1       4.345   3.072  51.378  1.00  0.00     0.000 C 
BRANCH  12  13
ATOM     13  C   UNL     1       4.295   3.936  50.104  1.00  0.00    -0.000 C 
BRANCH  13  14
ATOM     14  C   UNL     1       4.509   3.120  48.818  1.00  0.00    -0.000 C 
BRANCH  14  15
ATOM     15  C   UNL     1       5.931   3.268  48.244  1.00  0.00    -0.000 C 
BRANCH  15  16
ATOM     16  C   UNL     1       6.625   1.946  47.868  1.00  0.00    -0.000 C 
BRANCH  16  17
ATOM     17  C   UNL     1       6.805   1.000  49.069  1.00  0.00    -0.000 C 
BRANCH  17  18
ATOM     18  C   UNL     1       5.839  -0.194  49.031  1.00  0.00    -0.000 C 
BRANCH  18  19
ATOM     19  C   UNL     1       5.199  -0.478  50.397  1.00  0.00    -0.003 C 
ATOM     20  C   UNL     1       3.683  -0.314  50.340  1.00  0.00     0.004 C 
ENDBRANCH  18  19
ENDBRANCH  17  18
ENDBRANCH  16  17
ENDBRANCH  15  16
ENDBRANCH  14  15
ENDBRANCH  13  14
ENDBRANCH  12  13
ENDBRANCH   1  12
TORSDOF 16
ENDMDL
MODEL 8
REMARK VINA RESULT:    -3.562      3.455      6.184
REMARK INTER + INTRA:          -9.366
REMARK INTER:                  -6.712
REMARK INTRA:                  -2.654
REMARK UNBOUND:                -2.471
REMARK SMILES CCCCCCCCCCCCCCCCCC(=O)[O-]
REMARK SMILES IDX 10 1 11 2 12 3 13 4 14 5 15 6 16 7 17 8 18 9 19 10 20 11
REMARK SMILES IDX 9 12 8 13 7 14 6 15 5 16 4 17 3 18 2 19 1 20
REMARK H PARENT
REMARK Flexibility Score: inf
ROOT
ATOM      1  C   UNL     1       5.926   0.597  48.987  1.00  0.00     0.000 C 
ENDROOT
BRANCH   1   2
ATOM      2  C   UNL     1       6.949   1.584  48.398  1.00  0.00     0.000 C 
BRANCH   2   3
ATOM      3  C   UNL     1       6.355   2.981  48.162  1.00  0.00     0.000 C 
BRANCH   3   4
ATOM      4  C   UNL     1       4.827   3.013  48.347  1.00  0.00     0.000 C 
BRANCH   4   5
ATOM      5  C   UNL     1       4.409   3.802  49.607  1.00  0.00     0.000 C 
BRANCH   5   6
ATOM      6  C   UNL     1       3.356   3.080  50.469  1.00  0.00     0.000 C 
BRANCH   6   7
ATOM      7  C   UNL     1       2.647   1.906  49.771  1.00  0.00     0.006 C 
BRANCH   7   8
ATOM      8  C   UNL     1       2.321   0.756  50.734  1.00  0.00     0.053 C 
BRANCH   8   9
ATOM      9  C   UNL     1       2.047  -0.500  49.968  1.00  0.00     0.041 C 
ATOM     10  O   UNL     1       2.923  -1.401  49.895  1.00  0.00    -0.550 OA
ATOM     11  O   UNL     1       0.806  -0.696  49.375  1.00  0.00    -0.550 OA
ENDBRANCH   8   9
ENDBRANCH   7   8
ENDBRANCH   6   7
ENDBRANCH   5   6
ENDBRANCH   4   5
ENDBRANCH   3   4
ENDBRANCH   2   3
ENDBRANCH   1   2
BRANCH   1  12
ATOM     12  C   UNL     1       6.009   0.491  50.520  1.00  0.00     0.000 C 
BRANCH  12  13
ATOM     13  C   UNL     1       7.184   1.249  51.166  1.00  0.00    -0.000 C 
BRANCH  13  14
ATOM     14  C   UNL     1       6.732   2.480  51.972  1.00  0.00    -0.000 C 
BRANCH  14  15
ATOM     15  C   UNL     1       7.711   3.663  51.858  1.00  0.00    -0.000 C 
BRANCH  15  16
ATOM     16  C   UNL     1       7.055   5.032  51.598  1.00  0.00    -0.000 C 
BRANCH  16  17
ATOM     17  C   UNL     1       7.803   5.865  50.543  1.00  0.00    -0.000 C 
BRANCH  17  18
ATOM     18  C   UNL     1       6.863   6.460  49.484  1.00  0.00    -0.000 C 
BRANCH  18  19
ATOM     19  C   UNL     1       7.487   6.470  48.081  1.00  0.00    -0.003 C 
ATOM     20  C   UNL     1       8.219   7.781  47.813  1.00  0.00     0.004 C 
ENDBRANCH  18  19
ENDBRANCH  17  18
ENDBRANCH  16  17
ENDBRANCH  15  16
ENDBRANCH  14  15
ENDBRANCH  13  14
ENDBRANCH  12  13
ENDBRANCH   1  12
TORSDOF 16
ENDMDL
MODEL 9
REMARK VINA RESULT:    -3.542      1.573      2.672
REMARK INTER + INTRA:          -9.326
REMARK INTER:                  -7.342
REMARK INTRA:                  -1.984
REMARK UNBOUND:                -2.471
REMARK SMILES CCCCCCCCCCCCCCCCCC(=O)[O-]
REMARK SMILES IDX 10 1 11 2 12 3 13 4 14 5 15 6 16 7 17 8 18 9 19 10 20 11
REMARK SMILES IDX 9 12 8 13 7 14 6 15 5 16 4 17 3 18 2 19 1 20
REMARK H PARENT
REMARK Flexibility Score: inf
ROOT
ATOM      1  C   UNL     1       6.733   0.880  48.619  1.00  0.00     0.000 C 
ENDROOT
BRANCH   1   2
ATOM      2  C   UNL     1       6.679   2.012  47.580  1.00  0.00     0.000 C 
BRANCH   2   3
ATOM      3  C   UNL     1       5.857   3.218  48.060  1.00  0.00     0.000 C 
BRANCH   3   4
ATOM      4  C   UNL     1       6.720   4.475  48.272  1.00  0.00     0.000 C 
BRANCH   4   5
ATOM      5  C   UNL     1       6.596   5.034  49.706  1.00  0.00     0.000 C 
BRANCH   5   6
ATOM      6  C   UNL     1       7.315   6.381  49.910  1.00  0.00     0.000 C 
BRANCH   6   7
ATOM      7  C   UNL     1       6.480   7.620  49.543  1.00  0.00     0.006 C 
BRANCH   7   8
ATOM      8  C   UNL     1       6.965   8.299  48.256  1.00  0.00     0.053 C 
BRANCH   8   9
ATOM      9  C   UNL     1       8.384   8.750  48.410  1.00  0.00     0.041 C 
ATOM     10  O   UNL     1       8.690   9.586  49.299  1.00  0.00    -0.550 OA
ATOM     11  O   UNL     1       9.377   8.209  47.603  1.00  0.00    -0.550 OA
ENDBRANCH   8   9
ENDBRANCH   7   8
ENDBRANCH   6   7
ENDBRANCH   5   6
ENDBRANCH   4   5
ENDBRANCH   3   4
ENDBRANCH   2   3
ENDBRANCH   1   2
BRANCH   1  12
ATOM     12  C   UNL     1       6.710   1.395  50.069  1.00  0.00     0.000 C 
BRANCH  12  13
ATOM     13  C   UNL     1       6.062   0.443  51.092  1.00  0.00    -0.000 C 
BRANCH  13  14
ATOM     14  C   UNL     1       4.636   0.866  51.486  1.00  0.00    -0.000 C 
BRANCH  14  15
ATOM     15  C   UNL     1       3.632   0.741  50.324  1.00  0.00    -0.000 C 
BRANCH  15  16
ATOM     16  C   UNL     1       2.958   2.059  49.898  1.00  0.00    -0.000 C 
BRANCH  16  17
ATOM     17  C   UNL     1       3.338   3.246  50.800  1.00  0.00    -0.000 C 
BRANCH  17  18
ATOM     18  C   UNL     1       2.134   3.811  51.569  1.00  0.00    -0.000 C 
BRANCH  18  19
ATOM     19  C   UNL     1       1.870   5.289  51.246  1.00  0.00    -0.003 C 
ATOM     20  C   UNL     1       3.086   5.935  50.590  1.00  0.00     0.004 C 
ENDBRANCH  18  19
ENDBRANCH  17  18
ENDBRANCH  16  17
ENDBRANCH  15  16
ENDBRANCH  14  15
ENDBRANCH  13  14
ENDBRANCH  12  13
ENDBRANCH   1  12
TORSDOF 16
ENDMDL
