MODEL 1
REMARK VINA RESULT:    -5.464      0.000      0.000
REMARK INTER + INTRA:          -6.857
REMARK INTER:                  -6.582
REMARK INTRA:                  -0.274
REMARK UNBOUND:                -0.274
REMARK SMILES Oc1cc(O)c2cc(O)c(-c3ccc(O)c(O)c3)[o+]c2c1
REMARK SMILES IDX 10 1 19 2 20 3 21 4 2 5 3 6 4 7 6 8 7 9 8 10 11 11 12 12
REMARK SMILES IDX 13 13 14 14 18 15 16 16 15 17 17 19 9 21 1 23 5 25
REMARK H PARENT 15 18 17 20 9 22 1 24 5 26
REMARK Flexibility Score: inf
ROOT
ATOM      1  C   UNL     1      -4.598  91.163 -15.014  1.00  0.00     0.402 A 
ATOM      2  O   UNL     1      -4.300  92.243 -14.298  1.00  0.00    -0.202 OA
ATOM      3  C   UNL     1      -4.407  92.295 -12.975  1.00  0.00     0.368 A 
ATOM      4  C   UNL     1      -4.067  93.477 -12.311  1.00  0.00     0.162 A 
ATOM      5  C   UNL     1      -4.167  93.559 -10.921  1.00  0.00     0.128 A 
ATOM      6  C   UNL     1      -4.611  92.452 -10.188  1.00  0.00     0.093 A 
ATOM      7  C   UNL     1      -4.957  91.257 -10.831  1.00  0.00     0.136 A 
ATOM      8  C   UNL     1      -4.860  91.171 -12.243  1.00  0.00     0.125 A 
ATOM      9  C   UNL     1      -5.199  90.019 -12.972  1.00  0.00     0.078 A 
ATOM     10  C   UNL     1      -5.081  90.010 -14.365  1.00  0.00     0.223 A 
ENDROOT
BRANCH   1  11
ATOM     11  C   UNL     1      -4.427  91.226 -16.483  1.00  0.00     0.087 A 
ATOM     12  C   UNL     1      -3.152  91.223 -17.074  1.00  0.00     0.022 A 
ATOM     13  C   UNL     1      -3.015  91.307 -18.462  1.00  0.00     0.051 A 
ATOM     14  C   UNL     1      -4.148  91.410 -19.280  1.00  0.00     0.157 A 
ATOM     15  C   UNL     1      -5.559  91.350 -17.307  1.00  0.00     0.068 A 
ATOM     16  C   UNL     1      -5.427  91.435 -18.697  1.00  0.00     0.158 A 
BRANCH  14  17
ATOM     17  O   UNL     1      -4.008  91.492 -20.664  1.00  0.00    -0.504 OA
ATOM     18  H   UNL     1      -4.762  91.237 -21.290  1.00  0.00     0.293 HD
ENDBRANCH  14  17
BRANCH  16  19
ATOM     19  O   UNL     1      -6.573  91.542 -19.482  1.00  0.00    -0.504 OA
ATOM     20  H   UNL     1      -6.852  92.416 -19.913  1.00  0.00     0.293 HD
ENDBRANCH  16  19
ENDBRANCH   1  11
BRANCH  10  21
ATOM     21  O   UNL     1      -5.464  88.885 -15.093  1.00  0.00    -0.500 OA
ATOM     22  H   UNL     1      -5.873  88.961 -16.017  1.00  0.00     0.294 HD
ENDBRANCH  10  21
BRANCH   5  23
ATOM     23  O   UNL     1      -3.822  94.745 -10.278  1.00  0.00    -0.507 OA
ATOM     24  H   UNL     1      -3.359  94.743  -9.376  1.00  0.00     0.293 HD
ENDBRANCH   5  23
BRANCH   7  25
ATOM     25  O   UNL     1      -5.389  90.197 -10.028  1.00  0.00    -0.507 OA
ATOM     26  H   UNL     1      -6.203  89.631 -10.219  1.00  0.00     0.293 HD
ENDBRANCH   7  25
TORSDOF 6
ENDMDL
MODEL 2
REMARK VINA RESULT:    -5.195     10.468     11.879
REMARK INTER + INTRA:          -6.532
REMARK INTER:                  -6.179
REMARK INTRA:                  -0.353
REMARK UNBOUND:                -0.274
REMARK SMILES Oc1cc(O)c2cc(O)c(-c3ccc(O)c(O)c3)[o+]c2c1
REMARK SMILES IDX 10 1 19 2 20 3 21 4 2 5 3 6 4 7 6 8 7 9 8 10 11 11 12 12
REMARK SMILES IDX 13 13 14 14 18 15 16 16 15 17 17 19 9 21 1 23 5 25
REMARK H PARENT 15 18 17 20 9 22 1 24 5 26
REMARK Flexibility Score: inf
ROOT
ATOM      1  C   UNL     1      -9.491  83.535  -8.857  1.00  0.00     0.402 A 
ATOM      2  O   UNL     1      -9.946  84.771  -9.039  1.00  0.00    -0.202 OA
ATOM      3  C   UNL     1     -11.219  85.051  -9.294  1.00  0.00     0.368 A 
ATOM      4  C   UNL     1     -11.602  86.384  -9.468  1.00  0.00     0.162 A 
ATOM      5  C   UNL     1     -12.933  86.707  -9.735  1.00  0.00     0.128 A 
ATOM      6  C   UNL     1     -13.891  85.691  -9.828  1.00  0.00     0.093 A 
ATOM      7  C   UNL     1     -13.533  84.348  -9.658  1.00  0.00     0.136 A 
ATOM      8  C   UNL     1     -12.180  84.015  -9.390  1.00  0.00     0.125 A 
ATOM      9  C   UNL     1     -11.728  82.696  -9.219  1.00  0.00     0.078 A 
ATOM     10  C   UNL     1     -10.377  82.446  -8.961  1.00  0.00     0.223 A 
ENDROOT
BRANCH   1  11
ATOM     11  C   UNL     1      -8.051  83.353  -8.568  1.00  0.00     0.087 A 
ATOM     12  C   UNL     1      -7.562  83.344  -7.250  1.00  0.00     0.022 A 
ATOM     13  C   UNL     1      -6.195  83.194  -7.003  1.00  0.00     0.051 A 
ATOM     14  C   UNL     1      -5.294  83.066  -8.068  1.00  0.00     0.157 A 
ATOM     15  C   UNL     1      -7.140  83.246  -9.633  1.00  0.00     0.068 A 
ATOM     16  C   UNL     1      -5.771  83.096  -9.390  1.00  0.00     0.158 A 
BRANCH  14  17
ATOM     17  O   UNL     1      -3.931  82.915  -7.818  1.00  0.00    -0.504 OA
ATOM     18  H   UNL     1      -3.415  82.112  -8.155  1.00  0.00     0.293 HD
ENDBRANCH  14  17
BRANCH  16  19
ATOM     19  O   UNL     1      -4.899  82.977 -10.471  1.00  0.00    -0.504 OA
ATOM     20  H   UNL     1      -4.158  83.646 -10.642  1.00  0.00     0.293 HD
ENDBRANCH  16  19
ENDBRANCH   1  11
BRANCH  10  21
ATOM     21  O   UNL     1      -9.920  81.135  -8.841  1.00  0.00    -0.500 OA
ATOM     22  H   UNL     1     -10.412  80.357  -9.266  1.00  0.00     0.294 HD
ENDBRANCH  10  21
BRANCH   5  23
ATOM     23  O   UNL     1     -13.294  88.042  -9.903  1.00  0.00    -0.507 OA
ATOM     24  H   UNL     1     -13.897  88.336 -10.663  1.00  0.00     0.293 HD
ENDBRANCH   5  23
BRANCH   7  25
ATOM     25  O   UNL     1     -14.549  83.393  -9.764  1.00  0.00    -0.507 OA
ATOM     26  H   UNL     1     -15.520  83.611  -9.931  1.00  0.00     0.293 HD
ENDBRANCH   7  25
TORSDOF 6
ENDMDL
MODEL 3
REMARK VINA RESULT:    -5.137      4.265      6.600
REMARK INTER + INTRA:          -6.463
REMARK INTER:                  -6.118
REMARK INTRA:                  -0.345
REMARK UNBOUND:                -0.274
REMARK SMILES Oc1cc(O)c2cc(O)c(-c3ccc(O)c(O)c3)[o+]c2c1
REMARK SMILES IDX 10 1 19 2 20 3 21 4 2 5 3 6 4 7 6 8 7 9 8 10 11 11 12 12
REMARK SMILES IDX 13 13 14 14 18 15 16 16 15 17 17 19 9 21 1 23 5 25
REMARK H PARENT 15 18 17 20 9 22 1 24 5 26
REMARK Flexibility Score: inf
ROOT
ATOM      1  C   UNL     1      -7.990  90.165 -13.149  1.00  0.00     0.402 A 
ATOM      2  O   UNL     1      -7.573  91.201 -13.871  1.00  0.00    -0.202 OA
ATOM      3  C   UNL     1      -6.323  91.337 -14.299  1.00  0.00     0.368 A 
ATOM      4  C   UNL     1      -5.980  92.462 -15.055  1.00  0.00     0.162 A 
ATOM      5  C   UNL     1      -4.675  92.629 -15.520  1.00  0.00     0.128 A 
ATOM      6  C   UNL     1      -3.703  91.665 -15.230  1.00  0.00     0.093 A 
ATOM      7  C   UNL     1      -4.021  90.529 -14.475  1.00  0.00     0.136 A 
ATOM      8  C   UNL     1      -5.346  90.357 -13.997  1.00  0.00     0.125 A 
ATOM      9  C   UNL     1      -5.751  89.258 -13.222  1.00  0.00     0.078 A 
ATOM     10  C   UNL     1      -7.075  89.159 -12.783  1.00  0.00     0.223 A 
ENDROOT
BRANCH   1  11
ATOM     11  C   UNL     1      -9.412  90.123 -12.740  1.00  0.00     0.087 A 
ATOM     12  C   UNL     1      -9.833  90.629 -11.497  1.00  0.00     0.022 A 
ATOM     13  C   UNL     1     -11.177  90.556 -11.123  1.00  0.00     0.051 A 
ATOM     14  C   UNL     1     -12.118  89.965 -11.976  1.00  0.00     0.157 A 
ATOM     15  C   UNL     1     -10.356  89.512 -13.582  1.00  0.00     0.068 A 
ATOM     16  C   UNL     1     -11.703  89.438 -13.211  1.00  0.00     0.158 A 
BRANCH  14  17
ATOM     17  O   UNL     1     -13.458  89.896 -11.600  1.00  0.00    -0.504 OA
ATOM     18  H   UNL     1     -14.170  89.549 -12.231  1.00  0.00     0.293 HD
ENDBRANCH  14  17
BRANCH  16  19
ATOM     19  O   UNL     1     -12.614  88.838 -14.079  1.00  0.00    -0.504 OA
ATOM     20  H   UNL     1     -12.756  87.835 -14.103  1.00  0.00     0.293 HD
ENDBRANCH  16  19
ENDBRANCH   1  11
BRANCH  10  21
ATOM     21  O   UNL     1      -7.465  88.094 -11.973  1.00  0.00    -0.500 OA
ATOM     22  H   UNL     1      -8.420  87.754 -11.963  1.00  0.00     0.294 HD
ENDBRANCH  10  21
BRANCH   5  23
ATOM     23  O   UNL     1      -4.355  93.756 -16.273  1.00  0.00    -0.507 OA
ATOM     24  H   UNL     1      -5.071  94.315 -16.721  1.00  0.00     0.293 HD
ENDBRANCH   5  23
BRANCH   7  25
ATOM     25  O   UNL     1      -2.995  89.612 -14.230  1.00  0.00    -0.507 OA
ATOM     26  H   UNL     1      -2.082  89.859 -13.877  1.00  0.00     0.293 HD
ENDBRANCH   7  25
TORSDOF 6
ENDMDL
MODEL 4
REMARK VINA RESULT:    -5.097     10.671     12.058
REMARK INTER + INTRA:          -6.414
REMARK INTER:                  -6.133
REMARK INTRA:                  -0.282
REMARK UNBOUND:                -0.274
REMARK SMILES Oc1cc(O)c2cc(O)c(-c3ccc(O)c(O)c3)[o+]c2c1
REMARK SMILES IDX 10 1 19 2 20 3 21 4 2 5 3 6 4 7 6 8 7 9 8 10 11 11 12 12
REMARK SMILES IDX 13 13 14 14 18 15 16 16 15 17 17 19 9 21 1 23 5 25
REMARK H PARENT 15 18 17 20 9 22 1 24 5 26
REMARK Flexibility Score: inf
ROOT
ATOM      1  C   UNL     1      -9.097  83.499  -8.368  1.00  0.00     0.402 A 
ATOM      2  O   UNL     1      -8.106  83.246  -9.218  1.00  0.00    -0.202 OA
ATOM      3  C   UNL     1      -6.832  83.165  -8.852  1.00  0.00     0.368 A 
ATOM      4  C   UNL     1      -5.861  82.892  -9.820  1.00  0.00     0.162 A 
ATOM      5  C   UNL     1      -4.516  82.799  -9.462  1.00  0.00     0.128 A 
ATOM      6  C   UNL     1      -4.134  82.981  -8.128  1.00  0.00     0.093 A 
ATOM      7  C   UNL     1      -5.088  83.256  -7.140  1.00  0.00     0.136 A 
ATOM      8  C   UNL     1      -6.457  83.354  -7.499  1.00  0.00     0.125 A 
ATOM      9  C   UNL     1      -7.479  83.639  -6.579  1.00  0.00     0.078 A 
ATOM     10  C   UNL     1      -8.806  83.725  -7.009  1.00  0.00     0.223 A 
ENDROOT
BRANCH   1  11
ATOM     11  C   UNL     1     -10.479  83.553  -8.897  1.00  0.00     0.087 A 
ATOM     12  C   UNL     1     -11.153  84.775  -9.064  1.00  0.00     0.022 A 
ATOM     13  C   UNL     1     -12.465  84.799  -9.543  1.00  0.00     0.051 A 
ATOM     14  C   UNL     1     -13.129  83.604  -9.849  1.00  0.00     0.157 A 
ATOM     15  C   UNL     1     -11.156  82.356  -9.185  1.00  0.00     0.068 A 
ATOM     16  C   UNL     1     -12.470  82.376  -9.665  1.00  0.00     0.158 A 
BRANCH  14  17
ATOM     17  O   UNL     1     -14.437  83.632 -10.328  1.00  0.00    -0.504 OA
ATOM     18  H   UNL     1     -15.083  84.366 -10.065  1.00  0.00     0.293 HD
ENDBRANCH  14  17
BRANCH  16  19
ATOM     19  O   UNL     1     -13.105  81.169  -9.954  1.00  0.00    -0.504 OA
ATOM     20  H   UNL     1     -12.589  80.308 -10.093  1.00  0.00     0.293 HD
ENDBRANCH  16  19
ENDBRANCH   1  11
BRANCH  10  21
ATOM     21  O   UNL     1      -9.814  84.057  -6.105  1.00  0.00    -0.500 OA
ATOM     22  H   UNL     1     -10.041  85.021  -5.891  1.00  0.00     0.294 HD
ENDBRANCH  10  21
BRANCH   5  23
ATOM     23  O   UNL     1      -3.564  82.524 -10.442  1.00  0.00    -0.507 OA
ATOM     24  H   UNL     1      -3.489  83.088 -11.280  1.00  0.00     0.293 HD
ENDBRANCH   5  23
BRANCH   7  25
ATOM     25  O   UNL     1      -4.627  83.422  -5.830  1.00  0.00    -0.507 OA
ATOM     26  H   UNL     1      -4.251  84.283  -5.463  1.00  0.00     0.293 HD
ENDBRANCH   7  25
TORSDOF 6
ENDMDL
MODEL 5
REMARK VINA RESULT:    -4.996      8.851     11.887
REMARK INTER + INTRA:          -6.292
REMARK INTER:                  -6.003
REMARK INTRA:                  -0.289
REMARK UNBOUND:                -0.274
REMARK SMILES Oc1cc(O)c2cc(O)c(-c3ccc(O)c(O)c3)[o+]c2c1
REMARK SMILES IDX 10 1 19 2 20 3 21 4 2 5 3 6 4 7 6 8 7 9 8 10 11 11 12 12
REMARK SMILES IDX 13 13 14 14 18 15 16 16 15 17 17 19 9 21 1 23 5 25
REMARK H PARENT 15 18 17 20 9 22 1 24 5 26
REMARK Flexibility Score: inf
ROOT
ATOM      1  C   UNL     1     -10.031  84.382  -8.938  1.00  0.00     0.402 A 
ATOM      2  O   UNL     1      -8.991  83.610  -9.240  1.00  0.00    -0.202 OA
ATOM      3  C   UNL     1      -7.766  84.083  -9.444  1.00  0.00     0.368 A 
ATOM      4  C   UNL     1      -6.735  83.191  -9.754  1.00  0.00     0.162 A 
ATOM      5  C   UNL     1      -5.439  83.659  -9.971  1.00  0.00     0.128 A 
ATOM      6  C   UNL     1      -5.168  85.029  -9.877  1.00  0.00     0.093 A 
ATOM      7  C   UNL     1      -6.183  85.943  -9.568  1.00  0.00     0.136 A 
ATOM      8  C   UNL     1      -7.503  85.471  -9.350  1.00  0.00     0.125 A 
ATOM      9  C   UNL     1      -8.585  86.315  -9.048  1.00  0.00     0.078 A 
ATOM     10  C   UNL     1      -9.860  85.777  -8.851  1.00  0.00     0.223 A 
ENDROOT
BRANCH   1  11
ATOM     11  C   UNL     1     -11.345  83.735  -8.723  1.00  0.00     0.087 A 
ATOM     12  C   UNL     1     -11.624  83.014  -7.549  1.00  0.00     0.022 A 
ATOM     13  C   UNL     1     -12.864  82.391  -7.380  1.00  0.00     0.051 A 
ATOM     14  C   UNL     1     -13.837  82.468  -8.385  1.00  0.00     0.157 A 
ATOM     15  C   UNL     1     -12.317  83.790  -9.736  1.00  0.00     0.068 A 
ATOM     16  C   UNL     1     -13.559  83.168  -9.570  1.00  0.00     0.158 A 
BRANCH  14  17
ATOM     17  O   UNL     1     -15.073  81.847  -8.211  1.00  0.00    -0.504 OA
ATOM     18  H   UNL     1     -15.177  80.842  -8.283  1.00  0.00     0.293 HD
ENDBRANCH  14  17
BRANCH  16  19
ATOM     19  O   UNL     1     -14.504  83.257 -10.592  1.00  0.00    -0.504 OA
ATOM     20  H   UNL     1     -14.779  82.454 -11.143  1.00  0.00     0.293 HD
ENDBRANCH  16  19
ENDBRANCH   1  11
BRANCH  10  21
ATOM     21  O   UNL     1     -10.943  86.618  -8.601  1.00  0.00    -0.500 OA
ATOM     22  H   UNL     1     -11.712  86.706  -9.255  1.00  0.00     0.294 HD
ENDBRANCH  10  21
BRANCH   5  23
ATOM     23  O   UNL     1      -4.426  82.754 -10.278  1.00  0.00    -0.507 OA
ATOM     24  H   UNL     1      -4.025  82.702 -11.207  1.00  0.00     0.293 HD
ENDBRANCH   5  23
BRANCH   7  25
ATOM     25  O   UNL     1      -5.831  87.294  -9.490  1.00  0.00    -0.507 OA
ATOM     26  H   UNL     1      -6.493  88.053  -9.438  1.00  0.00     0.293 HD
ENDBRANCH   7  25
TORSDOF 6
ENDMDL
MODEL 6
REMARK VINA RESULT:    -4.982      9.612     12.440
REMARK INTER + INTRA:          -6.275
REMARK INTER:                  -5.925
REMARK INTRA:                  -0.350
REMARK UNBOUND:                -0.274
REMARK SMILES Oc1cc(O)c2cc(O)c(-c3ccc(O)c(O)c3)[o+]c2c1
REMARK SMILES IDX 10 1 19 2 20 3 21 4 2 5 3 6 4 7 6 8 7 9 8 10 11 11 12 12
REMARK SMILES IDX 13 13 14 14 18 15 16 16 15 17 17 19 9 21 1 23 5 25
REMARK H PARENT 15 18 17 20 9 22 1 24 5 26
REMARK Flexibility Score: inf
ROOT
ATOM      1  C   UNL     1      -9.033  83.260  -8.136  1.00  0.00     0.402 A 
ATOM      2  O   UNL     1     -10.013  83.552  -8.985  1.00  0.00    -0.202 OA
ATOM      3  C   UNL     1     -11.267  83.146  -8.822  1.00  0.00     0.368 A 
ATOM      4  C   UNL     1     -12.229  83.507  -9.769  1.00  0.00     0.162 A 
ATOM      5  C   UNL     1     -13.554  83.096  -9.621  1.00  0.00     0.128 A 
ATOM      6  C   UNL     1     -13.923  82.317  -8.517  1.00  0.00     0.093 A 
ATOM      7  C   UNL     1     -12.978  81.942  -7.555  1.00  0.00     0.136 A 
ATOM      8  C   UNL     1     -11.629  82.355  -7.704  1.00  0.00     0.125 A 
ATOM      9  C   UNL     1     -10.612  82.015  -6.796  1.00  0.00     0.078 A 
ATOM     10  C   UNL     1      -9.303  82.456  -7.012  1.00  0.00     0.223 A 
ENDROOT
BRANCH   1  11
ATOM     11  C   UNL     1      -7.677  83.781  -8.423  1.00  0.00     0.087 A 
ATOM     12  C   UNL     1      -7.206  84.966  -7.831  1.00  0.00     0.022 A 
ATOM     13  C   UNL     1      -5.932  85.451  -8.136  1.00  0.00     0.051 A 
ATOM     14  C   UNL     1      -5.114  84.769  -9.046  1.00  0.00     0.157 A 
ATOM     15  C   UNL     1      -6.861  83.112  -9.351  1.00  0.00     0.068 A 
ATOM     16  C   UNL     1      -5.584  83.595  -9.659  1.00  0.00     0.158 A 
BRANCH  14  17
ATOM     17  O   UNL     1      -3.843  85.255  -9.347  1.00  0.00    -0.504 OA
ATOM     18  H   UNL     1      -3.569  85.474 -10.297  1.00  0.00     0.293 HD
ENDBRANCH  14  17
BRANCH  16  19
ATOM     19  O   UNL     1      -4.798  82.896 -10.573  1.00  0.00    -0.504 OA
ATOM     20  H   UNL     1      -5.159  82.581 -11.466  1.00  0.00     0.293 HD
ENDBRANCH  16  19
ENDBRANCH   1  11
BRANCH  10  21
ATOM     21  O   UNL     1      -8.284  82.077  -6.139  1.00  0.00    -0.500 OA
ATOM     22  H   UNL     1      -8.344  81.230  -5.585  1.00  0.00     0.294 HD
ENDBRANCH  10  21
BRANCH   5  23
ATOM     23  O   UNL     1     -14.498  83.468 -10.575  1.00  0.00    -0.507 OA
ATOM     24  H   UNL     1     -15.192  84.181 -10.383  1.00  0.00     0.293 HD
ENDBRANCH   5  23
BRANCH   7  25
ATOM     25  O   UNL     1     -13.426  81.166  -6.482  1.00  0.00    -0.507 OA
ATOM     26  H   UNL     1     -14.124  80.441  -6.556  1.00  0.00     0.293 HD
ENDBRANCH   7  25
TORSDOF 6
ENDMDL
MODEL 7
REMARK VINA RESULT:    -4.944      2.991      7.769
REMARK INTER + INTRA:          -6.230
REMARK INTER:                  -6.016
REMARK INTRA:                  -0.214
REMARK UNBOUND:                -0.274
REMARK SMILES Oc1cc(O)c2cc(O)c(-c3ccc(O)c(O)c3)[o+]c2c1
REMARK SMILES IDX 10 1 19 2 20 3 21 4 2 5 3 6 4 7 6 8 7 9 8 10 11 11 12 12
REMARK SMILES IDX 13 13 14 14 18 15 16 16 15 17 17 19 9 21 1 23 5 25
REMARK H PARENT 15 18 17 20 9 22 1 24 5 26
REMARK Flexibility Score: inf
ROOT
ATOM      1  C   UNL     1      -5.271  92.925 -11.317  1.00  0.00     0.402 A 
ATOM      2  O   UNL     1      -6.219  92.016 -11.525  1.00  0.00    -0.202 OA
ATOM      3  C   UNL     1      -6.157  91.104 -12.490  1.00  0.00     0.368 A 
ATOM      4  C   UNL     1      -7.203  90.187 -12.628  1.00  0.00     0.162 A 
ATOM      5  C   UNL     1      -7.162  89.218 -13.631  1.00  0.00     0.128 A 
ATOM      6  C   UNL     1      -6.069  89.162 -14.503  1.00  0.00     0.093 A 
ATOM      7  C   UNL     1      -5.009  90.069 -14.385  1.00  0.00     0.136 A 
ATOM      8  C   UNL     1      -5.047  91.058 -13.369  1.00  0.00     0.125 A 
ATOM      9  C   UNL     1      -4.037  92.017 -13.185  1.00  0.00     0.078 A 
ATOM     10  C   UNL     1      -4.147  92.965 -12.164  1.00  0.00     0.223 A 
ENDROOT
BRANCH   1  11
ATOM     11  C   UNL     1      -5.451  93.882 -10.201  1.00  0.00     0.087 A 
ATOM     12  C   UNL     1      -5.643  95.254 -10.436  1.00  0.00     0.022 A 
ATOM     13  C   UNL     1      -5.787  96.142  -9.367  1.00  0.00     0.051 A 
ATOM     14  C   UNL     1      -5.727  95.675  -8.047  1.00  0.00     0.157 A 
ATOM     15  C   UNL     1      -5.369  93.422  -8.876  1.00  0.00     0.068 A 
ATOM     16  C   UNL     1      -5.513  94.307  -7.802  1.00  0.00     0.158 A 
BRANCH  14  17
ATOM     17  O   UNL     1      -5.872  96.562  -6.983  1.00  0.00    -0.504 OA
ATOM     18  H   UNL     1      -6.282  96.273  -6.103  1.00  0.00     0.293 HD
ENDBRANCH  14  17
BRANCH  16  19
ATOM     19  O   UNL     1      -5.442  93.812  -6.501  1.00  0.00    -0.504 OA
ATOM     20  H   UNL     1      -4.679  93.224  -6.189  1.00  0.00     0.293 HD
ENDBRANCH  16  19
ENDBRANCH   1  11
BRANCH  10  21
ATOM     21  O   UNL     1      -3.169  93.946 -12.012  1.00  0.00    -0.500 OA
ATOM     22  H   UNL     1      -3.223  94.832 -12.502  1.00  0.00     0.294 HD
ENDBRANCH  10  21
BRANCH   5  23
ATOM     23  O   UNL     1      -8.214  88.312 -13.751  1.00  0.00    -0.507 OA
ATOM     24  H   UNL     1      -8.477  87.701 -12.987  1.00  0.00     0.293 HD
ENDBRANCH   5  23
BRANCH   7  25
ATOM     25  O   UNL     1      -3.953  89.946 -15.293  1.00  0.00    -0.507 OA
ATOM     26  H   UNL     1      -3.015  90.276 -15.124  1.00  0.00     0.293 HD
ENDBRANCH   7  25
TORSDOF 6
ENDMDL
MODEL 8
REMARK VINA RESULT:    -4.944      2.749      4.104
REMARK INTER + INTRA:          -6.230
REMARK INTER:                  -5.912
REMARK INTRA:                  -0.318
REMARK UNBOUND:                -0.274
REMARK SMILES Oc1cc(O)c2cc(O)c(-c3ccc(O)c(O)c3)[o+]c2c1
REMARK SMILES IDX 10 1 19 2 20 3 21 4 2 5 3 6 4 7 6 8 7 9 8 10 11 11 12 12
REMARK SMILES IDX 13 13 14 14 18 15 16 16 15 17 17 19 9 21 1 23 5 25
REMARK H PARENT 15 18 17 20 9 22 1 24 5 26
REMARK Flexibility Score: inf
ROOT
ATOM      1  C   UNL     1      -6.179  89.847 -12.114  1.00  0.00     0.402 A 
ATOM      2  O   UNL     1      -5.327  90.284 -11.192  1.00  0.00    -0.202 OA
ATOM      3  C   UNL     1      -5.268  89.792  -9.959  1.00  0.00     0.368 A 
ATOM      4  C   UNL     1      -4.335  90.316  -9.060  1.00  0.00     0.162 A 
ATOM      5  C   UNL     1      -4.250  89.816  -7.760  1.00  0.00     0.128 A 
ATOM      6  C   UNL     1      -5.103  88.783  -7.353  1.00  0.00     0.093 A 
ATOM      7  C   UNL     1      -6.046  88.242  -8.235  1.00  0.00     0.136 A 
ATOM      8  C   UNL     1      -6.139  88.749  -9.556  1.00  0.00     0.125 A 
ATOM      9  C   UNL     1      -7.062  88.277 -10.503  1.00  0.00     0.078 A 
ATOM     10  C   UNL     1      -7.097  88.831 -11.787  1.00  0.00     0.223 A 
ENDROOT
BRANCH   1  11
ATOM     11  C   UNL     1      -6.140  90.470 -13.456  1.00  0.00     0.087 A 
ATOM     12  C   UNL     1      -6.765  91.704 -13.711  1.00  0.00     0.022 A 
ATOM     13  C   UNL     1      -6.735  92.261 -14.992  1.00  0.00     0.051 A 
ATOM     14  C   UNL     1      -6.093  91.589 -16.041  1.00  0.00     0.157 A 
ATOM     15  C   UNL     1      -5.517  89.790 -14.516  1.00  0.00     0.068 A 
ATOM     16  C   UNL     1      -5.485  90.345 -15.800  1.00  0.00     0.158 A 
BRANCH  14  17
ATOM     17  O   UNL     1      -6.064  92.148 -17.316  1.00  0.00    -0.504 OA
ATOM     18  H   UNL     1      -6.826  92.716 -17.665  1.00  0.00     0.293 HD
ENDBRANCH  14  17
BRANCH  16  19
ATOM     19  O   UNL     1      -4.844  89.648 -16.824  1.00  0.00    -0.504 OA
ATOM     20  H   UNL     1      -4.078  89.010 -16.645  1.00  0.00     0.293 HD
ENDBRANCH  16  19
ENDBRANCH   1  11
BRANCH  10  21
ATOM     21  O   UNL     1      -8.047  88.397 -12.710  1.00  0.00    -0.500 OA
ATOM     22  H   UNL     1      -8.380  88.998 -13.454  1.00  0.00     0.294 HD
ENDBRANCH  10  21
BRANCH   5  23
ATOM     23  O   UNL     1      -3.312  90.350  -6.880  1.00  0.00    -0.507 OA
ATOM     24  H   UNL     1      -2.323  90.149  -6.973  1.00  0.00     0.293 HD
ENDBRANCH   5  23
BRANCH   7  25
ATOM     25  O   UNL     1      -6.860  87.212  -7.753  1.00  0.00    -0.507 OA
ATOM     26  H   UNL     1      -6.737  86.760  -6.859  1.00  0.00     0.293 HD
ENDBRANCH   7  25
TORSDOF 6
ENDMDL
MODEL 9
REMARK VINA RESULT:    -4.933      9.694     12.081
REMARK INTER + INTRA:          -6.217
REMARK INTER:                  -6.126
REMARK INTRA:                  -0.091
REMARK UNBOUND:                -0.274
REMARK SMILES Oc1cc(O)c2cc(O)c(-c3ccc(O)c(O)c3)[o+]c2c1
REMARK SMILES IDX 10 1 19 2 20 3 21 4 2 5 3 6 4 7 6 8 7 9 8 10 11 11 12 12
REMARK SMILES IDX 13 13 14 14 18 15 16 16 15 17 17 19 9 21 1 23 5 25
REMARK H PARENT 15 18 17 20 9 22 1 24 5 26
REMARK Flexibility Score: inf
ROOT
ATOM      1  C   UNL     1      -8.553  83.982  -8.751  1.00  0.00     0.402 A 
ATOM      2  O   UNL     1      -9.112  82.814  -8.450  1.00  0.00    -0.202 OA
ATOM      3  C   UNL     1     -10.426  82.618  -8.423  1.00  0.00     0.368 A 
ATOM      4  C   UNL     1     -10.919  81.351  -8.097  1.00  0.00     0.162 A 
ATOM      5  C   UNL     1     -12.294  81.117  -8.063  1.00  0.00     0.128 A 
ATOM      6  C   UNL     1     -13.185  82.155  -8.358  1.00  0.00     0.093 A 
ATOM      7  C   UNL     1     -12.716  83.433  -8.687  1.00  0.00     0.136 A 
ATOM      8  C   UNL     1     -11.319  83.676  -8.719  1.00  0.00     0.125 A 
ATOM      9  C   UNL     1     -10.760  84.928  -9.025  1.00  0.00     0.078 A 
ATOM     10  C   UNL     1      -9.371  85.092  -9.032  1.00  0.00     0.223 A 
ENDROOT
BRANCH   1  11
ATOM     11  C   UNL     1      -7.075  84.071  -8.758  1.00  0.00     0.087 A 
ATOM     12  C   UNL     1      -6.394  85.019  -7.974  1.00  0.00     0.022 A 
ATOM     13  C   UNL     1      -5.000  85.099  -8.015  1.00  0.00     0.051 A 
ATOM     14  C   UNL     1      -4.266  84.245  -8.849  1.00  0.00     0.157 A 
ATOM     15  C   UNL     1      -6.335  83.232  -9.608  1.00  0.00     0.068 A 
ATOM     16  C   UNL     1      -4.939  83.310  -9.652  1.00  0.00     0.158 A 
BRANCH  14  17
ATOM     17  O   UNL     1      -2.875  84.328  -8.885  1.00  0.00    -0.504 OA
ATOM     18  H   UNL     1      -2.381  84.582  -9.732  1.00  0.00     0.293 HD
ENDBRANCH  14  17
BRANCH  16  19
ATOM     19  O   UNL     1      -4.239  82.450 -10.497  1.00  0.00    -0.504 OA
ATOM     20  H   UNL     1      -3.274  82.618 -10.757  1.00  0.00     0.293 HD
ENDBRANCH  16  19
ENDBRANCH   1  11
BRANCH  10  21
ATOM     21  O   UNL     1      -8.817  86.346  -9.287  1.00  0.00    -0.500 OA
ATOM     22  H   UNL     1      -7.821  86.515  -9.208  1.00  0.00     0.294 HD
ENDBRANCH  10  21
BRANCH   5  23
ATOM     23  O   UNL     1     -12.765  79.847  -7.738  1.00  0.00    -0.507 OA
ATOM     24  H   UNL     1     -13.362  79.326  -8.369  1.00  0.00     0.293 HD
ENDBRANCH   5  23
BRANCH   7  25
ATOM     25  O   UNL     1     -13.670  84.415  -8.970  1.00  0.00    -0.507 OA
ATOM     26  H   UNL     1     -13.974  84.664  -9.900  1.00  0.00     0.293 HD
ENDBRANCH   7  25
TORSDOF 6
ENDMDL
