MODEL 1
REMARK VINA RESULT:    36.226      0.000      0.000
REMARK INTER + INTRA:          63.287
REMARK INTER:                  62.698
REMARK INTRA:                   0.590
REMARK UNBOUND:                 0.590
REMARK SMILES OC[C@@H]1O[C@@H](O[C@H]2[C@@H](O)[C@H](O)[C@H](O[C@H]3[C@@H](O)[C@@H](O)[C@H](O)O[C@@H]3CO)O[C@@H]2CO)[C@H](O)[C@H](O)[C@@H]1O
REMARK SMILES IDX 7 1 26 2 25 3 12 4 10 5 8 6 6 7 5 8 3 9 33 10 4 11 31 12
REMARK SMILES IDX 29 13 2 14 1 15 34 17 32 19 30 21 27 23 28 24 9 26 11 28
REMARK SMILES IDX 13 30 14 31 22 32 15 33 21 34 17 35 19 36 23 37 24 38 16 40
REMARK SMILES IDX 18 42 20 44
REMARK H PARENT 1 16 34 18 32 20 30 22 28 25 9 27 11 29 24 39 16 41 18 43
REMARK H PARENT 20 45
REMARK Flexibility Score: inf
ROOT
ATOM      1  C   UNL     1      21.806  27.822   9.482  1.00  0.00     0.184 C 
ATOM      2  C   UNL     1      22.237  27.494  10.953  1.00  0.00     0.178 C 
ATOM      3  O   UNL     1      21.212  27.771  11.897  1.00  0.00    -0.341 OA
ATOM      4  C   UNL     1      19.985  27.150  11.536  1.00  0.00     0.282 C 
ATOM      5  C   UNL     1      19.381  27.814  10.266  1.00  0.00     0.202 C 
ATOM      6  C   UNL     1      20.471  28.597   9.488  1.00  0.00     0.180 C 
ENDROOT
BRANCH   1   7
ATOM      7  O   UNL     1      21.643  26.599   8.772  1.00  0.00    -0.341 OA
BRANCH   7   8
ATOM      8  C   UNL     1      22.611  26.428   7.740  1.00  0.00     0.282 C 
ATOM      9  C   UNL     1      20.944  26.094   6.115  1.00  0.00     0.178 C 
ATOM     10  C   UNL     1      21.329  24.620   5.876  1.00  0.00     0.177 C 
ATOM     11  O   UNL     1      22.079  26.857   6.493  1.00  0.00    -0.341 OA
ATOM     12  C   UNL     1      21.952  24.050   7.167  1.00  0.00     0.179 C 
ATOM     13  C   UNL     1      23.086  24.959   7.666  1.00  0.00     0.202 C 
BRANCH   9  14
ATOM     14  C   UNL     1      20.326  26.714   4.852  1.00  0.00     0.191 C 
BRANCH  14  15
ATOM     15  O   UNL     1      19.400  25.833   4.277  1.00  0.00    -0.394 OA
ATOM     16  H   UNL     1      19.924  25.083   3.891  1.00  0.00     0.210 HD
ENDBRANCH  14  15
ENDBRANCH   9  14
BRANCH  10  17
ATOM     17  O   UNL     1      22.239  24.530   4.809  1.00  0.00    -0.387 OA
ATOM     18  H   UNL     1      23.002  25.126   5.026  1.00  0.00     0.211 HD
ENDBRANCH  10  17
BRANCH  12  19
ATOM     19  O   UNL     1      22.443  22.752   6.954  1.00  0.00    -0.387 OA
ATOM     20  H   UNL     1      23.282  22.848   6.432  1.00  0.00     0.211 HD
ENDBRANCH  12  19
BRANCH  13  21
ATOM     21  O   UNL     1      24.193  24.860   6.804  1.00  0.00    -0.385 OA
ATOM     22  H   UNL     1      24.995  25.101   7.339  1.00  0.00     0.211 HD
ENDBRANCH  13  21
ENDBRANCH   7   8
ENDBRANCH   1   7
BRANCH   2  23
ATOM     23  C   UNL     1      23.466  28.316  11.376  1.00  0.00     0.191 C 
BRANCH  23  24
ATOM     24  O   UNL     1      24.067  28.940  10.273  1.00  0.00    -0.394 OA
ATOM     25  H   UNL     1      23.520  28.714   9.476  1.00  0.00     0.210 HD
ENDBRANCH  23  24
ENDBRANCH   2  23
BRANCH   6  26
ATOM     26  O   UNL     1      20.046  28.918   8.188  1.00  0.00    -0.387 OA
ATOM     27  H   UNL     1      20.234  29.879   8.030  1.00  0.00     0.211 HD
ENDBRANCH   6  26
BRANCH   5  28
ATOM     28  O   UNL     1      18.286  28.644  10.561  1.00  0.00    -0.385 OA
ATOM     29  H   UNL     1      17.618  28.105  11.053  1.00  0.00     0.211 HD
ENDBRANCH   5  28
BRANCH   4  30
ATOM     30  O   UNL     1      19.043  27.115  12.608  1.00  0.00    -0.341 OA
BRANCH  30  31
ATOM     31  C   UNL     1      17.945  26.234  12.398  1.00  0.00     0.184 C 
ATOM     32  C   UNL     1      17.001  26.782  11.268  1.00  0.00     0.178 C 
ATOM     33  C   UNL     1      17.157  26.090  13.721  1.00  0.00     0.180 C 
ATOM     34  O   UNL     1      15.783  27.322  11.760  1.00  0.00    -0.342 OA
ATOM     35  C   UNL     1      16.419  27.400  14.100  1.00  0.00     0.201 C 
ATOM     36  C   UNL     1      16.026  28.206  12.839  1.00  0.00     0.279 C 
BRANCH  32  37
ATOM     37  C   UNL     1      16.647  25.664  10.272  1.00  0.00     0.191 C 
BRANCH  37  38
ATOM     38  O   UNL     1      15.297  25.747   9.904  1.00  0.00    -0.394 OA
ATOM     39  H   UNL     1      15.108  26.706   9.732  1.00  0.00     0.210 HD
ENDBRANCH  37  38
ENDBRANCH  32  37
BRANCH  33  40
ATOM     40  O   UNL     1      18.001  25.688  14.770  1.00  0.00    -0.387 OA
ATOM     41  H   UNL     1      18.803  26.271  14.734  1.00  0.00     0.211 HD
ENDBRANCH  33  40
BRANCH  35  42
ATOM     42  O   UNL     1      17.166  28.201  14.984  1.00  0.00    -0.385 OA
ATOM     43  H   UNL     1      17.371  27.652  15.788  1.00  0.00     0.211 HD
ENDBRANCH  35  42
BRANCH  36  44
ATOM     44  O   UNL     1      14.876  28.969  13.091  1.00  0.00    -0.366 OA
ATOM     45  H   UNL     1      14.128  28.560  12.580  1.00  0.00     0.213 HD
ENDBRANCH  36  44
ENDBRANCH  30  31
ENDBRANCH   4  30
TORSDOF 18
ENDMDL
MODEL 2
REMARK VINA RESULT:    38.725      2.700      7.373
REMARK INTER + INTRA:          67.613
REMARK INTER:                  64.365
REMARK INTRA:                   3.249
REMARK UNBOUND:                 0.590
REMARK SMILES OC[C@@H]1O[C@@H](O[C@H]2[C@@H](O)[C@H](O)[C@H](O[C@H]3[C@@H](O)[C@@H](O)[C@H](O)O[C@@H]3CO)O[C@@H]2CO)[C@H](O)[C@H](O)[C@@H]1O
REMARK SMILES IDX 7 1 26 2 25 3 12 4 10 5 8 6 6 7 5 8 3 9 33 10 4 11 31 12
REMARK SMILES IDX 29 13 2 14 1 15 34 17 32 19 30 21 27 23 28 24 9 26 11 28
REMARK SMILES IDX 13 30 14 31 22 32 15 33 21 34 17 35 19 36 23 37 24 38 16 40
REMARK SMILES IDX 18 42 20 44
REMARK H PARENT 1 16 34 18 32 20 30 22 28 25 9 27 11 29 24 39 16 41 18 43
REMARK H PARENT 20 45
REMARK Flexibility Score: inf
ROOT
ATOM      1  C   UNL     1      19.360  27.043  11.531  1.00  0.00     0.184 C 
ATOM      2  C   UNL     1      20.168  27.980  12.495  1.00  0.00     0.178 C 
ATOM      3  O   UNL     1      21.550  28.033  12.172  1.00  0.00    -0.341 OA
ATOM      4  C   UNL     1      21.757  28.351  10.802  1.00  0.00     0.282 C 
ATOM      5  C   UNL     1      21.303  27.178   9.887  1.00  0.00     0.202 C 
ATOM      6  C   UNL     1      20.335  26.235  10.649  1.00  0.00     0.180 C 
ENDROOT
BRANCH   1   7
ATOM      7  O   UNL     1      18.527  27.849  10.705  1.00  0.00    -0.341 OA
BRANCH   7   8
ATOM      8  C   UNL     1      17.253  28.105  11.290  1.00  0.00     0.282 C 
ATOM      9  C   UNL     1      17.270  26.049  12.433  1.00  0.00     0.178 C 
ATOM     10  C   UNL     1      16.095  25.471  11.617  1.00  0.00     0.177 C 
ATOM     11  O   UNL     1      17.155  27.459  12.553  1.00  0.00    -0.341 OA
ATOM     12  C   UNL     1      16.083  26.128  10.222  1.00  0.00     0.179 C 
ATOM     13  C   UNL     1      16.112  27.660  10.347  1.00  0.00     0.202 C 
BRANCH   9  14
ATOM     14  C   UNL     1      17.322  25.433  13.839  1.00  0.00     0.191 C 
BRANCH  14  15
ATOM     15  O   UNL     1      16.316  25.977  14.650  1.00  0.00    -0.394 OA
ATOM     16  H   UNL     1      15.463  25.874  14.152  1.00  0.00     0.210 HD
ENDBRANCH  14  15
ENDBRANCH   9  14
BRANCH  10  17
ATOM     17  O   UNL     1      14.884  25.713  12.287  1.00  0.00    -0.387 OA
ATOM     18  H   UNL     1      14.568  26.609  12.002  1.00  0.00     0.211 HD
ENDBRANCH  10  17
BRANCH  12  19
ATOM     19  O   UNL     1      14.949  25.733   9.494  1.00  0.00    -0.387 OA
ATOM     20  H   UNL     1      14.464  26.565   9.251  1.00  0.00     0.211 HD
ENDBRANCH  12  19
BRANCH  13  21
ATOM     21  O   UNL     1      14.879  28.124  10.840  1.00  0.00    -0.385 OA
ATOM     22  H   UNL     1      14.494  27.389  11.386  1.00  0.00     0.211 HD
ENDBRANCH  13  21
ENDBRANCH   7   8
ENDBRANCH   1   7
BRANCH   2  23
ATOM     23  C   UNL     1      20.069  27.506  13.954  1.00  0.00     0.191 C 
BRANCH  23  24
ATOM     24  O   UNL     1      18.801  27.772  14.493  1.00  0.00    -0.394 OA
ATOM     25  H   UNL     1      18.902  28.544  15.108  1.00  0.00     0.210 HD
ENDBRANCH  23  24
ENDBRANCH   2  23
BRANCH   6  26
ATOM     26  O   UNL     1      19.655  25.375   9.770  1.00  0.00    -0.387 OA
ATOM     27  H   UNL     1      18.740  25.230  10.125  1.00  0.00     0.211 HD
ENDBRANCH   6  26
BRANCH   5  28
ATOM     28  O   UNL     1      22.387  26.458   9.357  1.00  0.00    -0.385 OA
ATOM     29  H   UNL     1      23.040  27.108   8.997  1.00  0.00     0.211 HD
ENDBRANCH   5  28
BRANCH   4  30
ATOM     30  O   UNL     1      23.098  28.747  10.519  1.00  0.00    -0.341 OA
BRANCH  30  31
ATOM     31  C   UNL     1      24.066  28.251  11.438  1.00  0.00     0.184 C 
ATOM     32  C   UNL     1      23.488  28.237  12.900  1.00  0.00     0.178 C 
ATOM     33  C   UNL     1      25.323  29.149  11.377  1.00  0.00     0.180 C 
ATOM     34  O   UNL     1      24.013  29.266  13.726  1.00  0.00    -0.342 OA
ATOM     35  C   UNL     1      25.056  30.560  11.960  1.00  0.00     0.201 C 
ATOM     36  C   UNL     1      23.971  30.515  13.061  1.00  0.00     0.279 C 
BRANCH  32  37
ATOM     37  C   UNL     1      23.783  26.892  13.584  1.00  0.00     0.191 C 
BRANCH  37  38
ATOM     38  O   UNL     1      23.493  26.966  14.954  1.00  0.00    -0.394 OA
ATOM     39  H   UNL     1      23.521  27.928  15.198  1.00  0.00     0.210 HD
ENDBRANCH  37  38
ENDBRANCH  32  37
BRANCH  33  40
ATOM     40  O   UNL     1      25.806  29.250  10.062  1.00  0.00    -0.387 OA
ATOM     41  H   UNL     1      25.079  29.648   9.517  1.00  0.00     0.211 HD
ENDBRANCH  33  40
BRANCH  35  42
ATOM     42  O   UNL     1      24.711  31.495  10.965  1.00  0.00    -0.385 OA
ATOM     43  H   UNL     1      25.338  32.263  11.042  1.00  0.00     0.211 HD
ENDBRANCH  35  42
BRANCH  36  44
ATOM     44  O   UNL     1      24.177  31.549  13.987  1.00  0.00    -0.366 OA
ATOM     45  H   UNL     1      24.044  32.410  13.507  1.00  0.00     0.213 HD
ENDBRANCH  36  44
ENDBRANCH  30  31
ENDBRANCH   4  30
TORSDOF 18
ENDMDL
MODEL 3
REMARK VINA RESULT:    39.113      2.849      7.817
REMARK INTER + INTRA:          68.285
REMARK INTER:                  64.817
REMARK INTRA:                   3.467
REMARK UNBOUND:                 0.590
REMARK SMILES OC[C@@H]1O[C@@H](O[C@H]2[C@@H](O)[C@H](O)[C@H](O[C@H]3[C@@H](O)[C@@H](O)[C@H](O)O[C@@H]3CO)O[C@@H]2CO)[C@H](O)[C@H](O)[C@@H]1O
REMARK SMILES IDX 7 1 26 2 25 3 12 4 10 5 8 6 6 7 5 8 3 9 33 10 4 11 31 12
REMARK SMILES IDX 29 13 2 14 1 15 34 17 32 19 30 21 27 23 28 24 9 26 11 28
REMARK SMILES IDX 13 30 14 31 22 32 15 33 21 34 17 35 19 36 23 37 24 38 16 40
REMARK SMILES IDX 18 42 20 44
REMARK H PARENT 1 16 34 18 32 20 30 22 28 25 9 27 11 29 24 39 16 41 18 43
REMARK H PARENT 20 45
REMARK Flexibility Score: inf
ROOT
ATOM      1  C   UNL     1      18.774  26.642  11.929  1.00  0.00     0.184 C 
ATOM      2  C   UNL     1      19.582  27.496  12.966  1.00  0.00     0.178 C 
ATOM      3  O   UNL     1      20.932  27.697  12.574  1.00  0.00    -0.341 OA
ATOM      4  C   UNL     1      21.024  28.213  11.253  1.00  0.00     0.282 C 
ATOM      5  C   UNL     1      20.586  27.146  10.210  1.00  0.00     0.202 C 
ATOM      6  C   UNL     1      19.738  26.038  10.885  1.00  0.00     0.180 C 
ENDROOT
BRANCH   1   7
ATOM      7  O   UNL     1      17.835  27.489  11.275  1.00  0.00    -0.341 OA
BRANCH   7   8
ATOM      8  C   UNL     1      16.487  27.063  11.459  1.00  0.00     0.282 C 
ATOM      9  C   UNL     1      16.354  28.108  13.561  1.00  0.00     0.178 C 
ATOM     10  C   UNL     1      16.233  26.776  14.329  1.00  0.00     0.177 C 
ATOM     11  O   UNL     1      15.783  27.998  12.267  1.00  0.00    -0.341 OA
ATOM     12  C   UNL     1      16.943  25.669  13.524  1.00  0.00     0.179 C 
ATOM     13  C   UNL     1      16.435  25.646  12.074  1.00  0.00     0.202 C 
BRANCH   9  14
ATOM     14  C   UNL     1      15.652  29.247  14.318  1.00  0.00     0.191 C 
BRANCH  14  15
ATOM     15  O   UNL     1      14.939  30.061  13.427  1.00  0.00    -0.394 OA
ATOM     16  H   UNL     1      13.987  29.786  13.492  1.00  0.00     0.210 HD
ENDBRANCH  14  15
ENDBRANCH   9  14
BRANCH  10  17
ATOM     17  O   UNL     1      14.878  26.455  14.520  1.00  0.00    -0.387 OA
ATOM     18  H   UNL     1      14.789  26.108  15.445  1.00  0.00     0.211 HD
ENDBRANCH  10  17
BRANCH  12  19
ATOM     19  O   UNL     1      16.740  24.412  14.118  1.00  0.00    -0.387 OA
ATOM     20  H   UNL     1      15.833  24.432  14.522  1.00  0.00     0.211 HD
ENDBRANCH  12  19
BRANCH  13  21
ATOM     21  O   UNL     1      15.116  25.160  12.036  1.00  0.00    -0.385 OA
ATOM     22  H   UNL     1      14.836  25.164  11.082  1.00  0.00     0.211 HD
ENDBRANCH  13  21
ENDBRANCH   7   8
ENDBRANCH   1   7
BRANCH   2  23
ATOM     23  C   UNL     1      19.615  26.820  14.347  1.00  0.00     0.191 C 
BRANCH  23  24
ATOM     24  O   UNL     1      18.509  27.194  15.125  1.00  0.00    -0.394 OA
ATOM     25  H   UNL     1      17.939  27.778  14.560  1.00  0.00     0.210 HD
ENDBRANCH  23  24
ENDBRANCH   2  23
BRANCH   6  26
ATOM     26  O   UNL     1      19.057  25.258   9.935  1.00  0.00    -0.387 OA
ATOM     27  H   UNL     1      18.243  25.751   9.655  1.00  0.00     0.211 HD
ENDBRANCH   6  26
BRANCH   5  28
ATOM     28  O   UNL     1      21.677  26.589   9.521  1.00  0.00    -0.385 OA
ATOM     29  H   UNL     1      21.332  25.877   8.926  1.00  0.00     0.211 HD
ENDBRANCH   5  28
BRANCH   4  30
ATOM     30  O   UNL     1      22.314  28.744  10.951  1.00  0.00    -0.341 OA
BRANCH  30  31
ATOM     31  C   UNL     1      23.383  28.135  11.666  1.00  0.00     0.184 C 
ATOM     32  C   UNL     1      23.584  28.828  13.063  1.00  0.00     0.178 C 
ATOM     33  C   UNL     1      24.678  28.253  10.828  1.00  0.00     0.180 C 
ATOM     34  O   UNL     1      24.730  29.665  13.120  1.00  0.00    -0.342 OA
ATOM     35  C   UNL     1      25.178  29.718  10.737  1.00  0.00     0.201 C 
ATOM     36  C   UNL     1      24.781  30.524  11.996  1.00  0.00     0.279 C 
BRANCH  32  37
ATOM     37  C   UNL     1      23.720  27.773  14.173  1.00  0.00     0.191 C 
BRANCH  37  38
ATOM     38  O   UNL     1      22.959  26.636  13.863  1.00  0.00    -0.394 OA
ATOM     39  H   UNL     1      22.197  26.623  14.499  1.00  0.00     0.210 HD
ENDBRANCH  37  38
ENDBRANCH  32  37
BRANCH  33  40
ATOM     40  O   UNL     1      24.495  27.721   9.541  1.00  0.00    -0.387 OA
ATOM     41  H   UNL     1      25.320  27.916   9.027  1.00  0.00     0.211 HD
ENDBRANCH  33  40
BRANCH  35  42
ATOM     42  O   UNL     1      24.725  30.367   9.572  1.00  0.00    -0.385 OA
ATOM     43  H   UNL     1      25.432  31.007   9.289  1.00  0.00     0.211 HD
ENDBRANCH  35  42
BRANCH  36  44
ATOM     44  O   UNL     1      25.711  31.549  12.228  1.00  0.00    -0.366 OA
ATOM     45  H   UNL     1      25.251  32.414  12.059  1.00  0.00     0.213 HD
ENDBRANCH  36  44
ENDBRANCH  30  31
ENDBRANCH   4  30
TORSDOF 18
ENDMDL
MODEL 4
REMARK VINA RESULT:    39.179      1.558      2.585
REMARK INTER + INTRA:          68.399
REMARK INTER:                  67.978
REMARK INTRA:                   0.420
REMARK UNBOUND:                 0.590
REMARK SMILES OC[C@@H]1O[C@@H](O[C@H]2[C@@H](O)[C@H](O)[C@H](O[C@H]3[C@@H](O)[C@@H](O)[C@H](O)O[C@@H]3CO)O[C@@H]2CO)[C@H](O)[C@H](O)[C@@H]1O
REMARK SMILES IDX 7 1 26 2 25 3 12 4 10 5 8 6 6 7 5 8 3 9 33 10 4 11 31 12
REMARK SMILES IDX 29 13 2 14 1 15 34 17 32 19 30 21 27 23 28 24 9 26 11 28
REMARK SMILES IDX 13 30 14 31 22 32 15 33 21 34 17 35 19 36 23 37 24 38 16 40
REMARK SMILES IDX 18 42 20 44
REMARK H PARENT 1 16 34 18 32 20 30 22 28 25 9 27 11 29 24 39 16 41 18 43
REMARK H PARENT 20 45
REMARK Flexibility Score: inf
ROOT
ATOM      1  C   UNL     1      21.148  27.869   9.436  1.00  0.00     0.184 C 
ATOM      2  C   UNL     1      21.292  27.089  10.789  1.00  0.00     0.178 C 
ATOM      3  O   UNL     1      20.076  27.041  11.522  1.00  0.00    -0.341 OA
ATOM      4  C   UNL     1      19.002  26.560  10.726  1.00  0.00     0.282 C 
ATOM      5  C   UNL     1      18.622  27.591   9.626  1.00  0.00     0.202 C 
ATOM      6  C   UNL     1      19.785  28.591   9.390  1.00  0.00     0.180 C 
ENDROOT
BRANCH   1   7
ATOM      7  O   UNL     1      21.230  26.937   8.363  1.00  0.00    -0.341 OA
BRANCH   7   8
ATOM      8  C   UNL     1      22.570  26.705   7.935  1.00  0.00     0.282 C 
ATOM      9  C   UNL     1      21.887  26.329   5.717  1.00  0.00     0.178 C 
ATOM     10  C   UNL     1      22.287  24.839   5.739  1.00  0.00     0.177 C 
ATOM     11  O   UNL     1      22.724  27.089   6.575  1.00  0.00    -0.341 OA
ATOM     12  C   UNL     1      22.186  24.316   7.186  1.00  0.00     0.179 C 
ATOM     13  C   UNL     1      22.969  25.227   8.146  1.00  0.00     0.202 C 
BRANCH   9  14
ATOM     14  C   UNL     1      21.980  26.904   4.295  1.00  0.00     0.191 C 
BRANCH  14  15
ATOM     15  O   UNL     1      23.279  27.363   4.036  1.00  0.00    -0.394 OA
ATOM     16  H   UNL     1      23.517  27.044   3.127  1.00  0.00     0.210 HD
ENDBRANCH  14  15
ENDBRANCH   9  14
BRANCH  10  17
ATOM     17  O   UNL     1      23.596  24.688   5.251  1.00  0.00    -0.387 OA
ATOM     18  H   UNL     1      23.865  23.750   5.426  1.00  0.00     0.211 HD
ENDBRANCH  10  17
BRANCH  12  19
ATOM     19  O   UNL     1      22.672  23.002   7.277  1.00  0.00    -0.387 OA
ATOM     20  H   UNL     1      23.440  23.026   7.907  1.00  0.00     0.211 HD
ENDBRANCH  12  19
BRANCH  13  21
ATOM     21  O   UNL     1      24.350  25.072   7.933  1.00  0.00    -0.385 OA
ATOM     22  H   UNL     1      24.797  25.837   8.382  1.00  0.00     0.211 HD
ENDBRANCH  13  21
ENDBRANCH   7   8
ENDBRANCH   1   7
BRANCH   2  23
ATOM     23  C   UNL     1      22.340  27.741  11.705  1.00  0.00     0.191 C 
BRANCH  23  24
ATOM     24  O   UNL     1      22.401  27.097  12.950  1.00  0.00    -0.394 OA
ATOM     25  H   UNL     1      22.996  26.309  12.842  1.00  0.00     0.210 HD
ENDBRANCH  23  24
ENDBRANCH   2  23
BRANCH   6  26
ATOM     26  O   UNL     1      19.613  29.309   8.195  1.00  0.00    -0.387 OA
ATOM     27  H   UNL     1      19.050  28.765   7.585  1.00  0.00     0.211 HD
ENDBRANCH   6  26
BRANCH   5  28
ATOM     28  O   UNL     1      17.429  28.274   9.917  1.00  0.00    -0.385 OA
ATOM     29  H   UNL     1      16.876  27.692  10.493  1.00  0.00     0.211 HD
ENDBRANCH   5  28
BRANCH   4  30
ATOM     30  O   UNL     1      17.865  26.176  11.499  1.00  0.00    -0.341 OA
BRANCH  30  31
ATOM     31  C   UNL     1      17.293  27.228  12.269  1.00  0.00     0.184 C 
ATOM     32  C   UNL     1      17.573  27.011  13.800  1.00  0.00     0.178 C 
ATOM     33  C   UNL     1      15.769  27.267  12.011  1.00  0.00     0.180 C 
ATOM     34  O   UNL     1      16.432  26.578  14.528  1.00  0.00    -0.342 OA
ATOM     35  C   UNL     1      15.048  26.033  12.613  1.00  0.00     0.201 C 
ATOM     36  C   UNL     1      15.789  25.506  13.864  1.00  0.00     0.279 C 
BRANCH  32  37
ATOM     37  C   UNL     1      18.073  28.314  14.447  1.00  0.00     0.191 C 
BRANCH  37  38
ATOM     38  O   UNL     1      17.050  29.274  14.466  1.00  0.00    -0.394 OA
ATOM     39  H   UNL     1      16.695  29.328  13.541  1.00  0.00     0.210 HD
ENDBRANCH  37  38
ENDBRANCH  32  37
BRANCH  33  40
ATOM     40  O   UNL     1      15.493  27.368  10.637  1.00  0.00    -0.387 OA
ATOM     41  H   UNL     1      14.958  26.571  10.390  1.00  0.00     0.211 HD
ENDBRANCH  33  40
BRANCH  35  42
ATOM     42  O   UNL     1      14.875  25.001  11.671  1.00  0.00    -0.385 OA
ATOM     43  H   UNL     1      15.651  25.026  11.049  1.00  0.00     0.211 HD
ENDBRANCH  35  42
BRANCH  36  44
ATOM     44  O   UNL     1      14.884  24.885  14.738  1.00  0.00    -0.366 OA
ATOM     45  H   UNL     1      15.346  24.766  15.610  1.00  0.00     0.213 HD
ENDBRANCH  36  44
ENDBRANCH  30  31
ENDBRANCH   4  30
TORSDOF 18
ENDMDL
