MODEL 1
REMARK VINA RESULT:    -7.552      0.000      0.000
REMARK INTER + INTRA:         -12.608
REMARK INTER:                 -11.084
REMARK INTRA:                  -1.524
REMARK UNBOUND:                -1.524
REMARK SMILES O=c1c(O[C@@H]2O[C@H](CO)[C@@H](O)[C@H](O)[C@@H]2O)c(-c2ccc(O)c(O)c2)oc2cc(O)cc(O)c12
REMARK SMILES IDX 4 1 3 2 16 3 25 4 2 5 26 6 1 7 33 8 27 9 31 10 28 11 30 12
REMARK SMILES IDX 17 13 18 14 19 15 20 16 24 17 22 18 21 19 23 21 32 23 29 25
REMARK SMILES IDX 5 27 14 28 6 29 12 30 7 31 10 32 15 33 13 35 8 37 9 38 11 40
REMARK H PARENT 21 20 23 22 32 24 29 26 15 34 13 36 9 39 11 41
REMARK Flexibility Score: inf
ROOT
ATOM      1  O   UNL     1      16.325 -43.246  30.083  1.00  0.00    -0.454 OA
ENDROOT
BRANCH   1   2
ATOM      2  C   UNL     1      15.361 -43.290  29.060  1.00  0.00     0.214 A 
ATOM      3  C   UNL     1      15.100 -42.212  28.190  1.00  0.00     0.180 A 
ATOM      4  O   UNL     1      13.856 -41.741  28.244  1.00  0.00    -0.452 OA
ATOM      5  C   UNL     1      14.470 -44.331  28.862  1.00  0.00     0.239 A 
ATOM      6  C   UNL     1      12.836 -42.604  28.362  1.00  0.00     0.146 A 
ATOM      7  O   UNL     1      14.863 -45.517  28.741  1.00  0.00    -0.285 OA
ATOM      8  C   UNL     1      13.116 -43.985  28.563  1.00  0.00     0.111 A 
ATOM      9  C   UNL     1      11.520 -42.178  28.177  1.00  0.00     0.094 A 
ATOM     10  C   UNL     1      12.064 -44.930  28.491  1.00  0.00     0.134 A 
ATOM     11  C   UNL     1      10.489 -43.117  28.131  1.00  0.00     0.123 A 
ATOM     12  C   UNL     1      10.760 -44.479  28.268  1.00  0.00     0.093 A 
BRANCH   3  13
ATOM     13  C   UNL     1      15.638 -42.420  26.789  1.00  0.00     0.025 A 
ATOM     14  C   UNL     1      15.172 -41.636  25.722  1.00  0.00     0.016 A 
ATOM     15  C   UNL     1      16.067 -41.109  24.773  1.00  0.00     0.051 A 
ATOM     16  C   UNL     1      17.428 -41.460  24.846  1.00  0.00     0.157 A 
ATOM     17  C   UNL     1      16.948 -42.959  26.687  1.00  0.00     0.062 A 
ATOM     18  C   UNL     1      17.850 -42.443  25.761  1.00  0.00     0.158 A 
BRANCH  16  19
ATOM     19  O   UNL     1      18.379 -40.802  24.061  1.00  0.00    -0.504 OA
ATOM     20  H   UNL     1      18.645 -41.122  23.136  1.00  0.00     0.293 HD
ENDBRANCH  16  19
BRANCH  18  21
ATOM     21  O   UNL     1      19.178 -42.842  25.786  1.00  0.00    -0.504 OA
ATOM     22  H   UNL     1      19.895 -42.285  26.249  1.00  0.00     0.293 HD
ENDBRANCH  18  21
ENDBRANCH   3  13
BRANCH  10  23
ATOM     23  O   UNL     1      12.279 -46.289  28.710  1.00  0.00    -0.507 OA
ATOM     24  H   UNL     1      11.510 -46.974  28.713  1.00  0.00     0.293 HD
ENDBRANCH  10  23
BRANCH  11  25
ATOM     25  O   UNL     1       9.173 -42.684  27.950  1.00  0.00    -0.508 OA
ATOM     26  H   UNL     1       8.743 -42.750  27.035  1.00  0.00     0.293 HD
ENDBRANCH  11  25
ENDBRANCH   1   2
BRANCH   1  27
ATOM     27  C   UNL     1      16.709 -44.308  30.990  1.00  0.00     0.339 C 
ATOM     28  C   UNL     1      18.007 -45.116  30.737  1.00  0.00     0.214 C 
ATOM     29  O   UNL     1      16.567 -43.980  32.361  1.00  0.00    -0.332 OA
ATOM     30  C   UNL     1      19.266 -44.627  31.518  1.00  0.00     0.180 C 
ATOM     31  C   UNL     1      17.558 -43.109  32.886  1.00  0.00     0.179 C 
ATOM     32  C   UNL     1      19.034 -43.381  32.425  1.00  0.00     0.177 C 
BRANCH  28  33
ATOM     33  O   UNL     1      18.265 -45.300  29.363  1.00  0.00    -0.384 OA
ATOM     34  H   UNL     1      17.503 -44.888  28.872  1.00  0.00     0.211 HD
ENDBRANCH  28  33
BRANCH  30  35
ATOM     35  O   UNL     1      20.373 -44.389  30.659  1.00  0.00    -0.387 OA
ATOM     36  H   UNL     1      20.869 -45.248  30.582  1.00  0.00     0.211 HD
ENDBRANCH  30  35
BRANCH  31  37
ATOM     37  C   UNL     1      17.093 -41.645  32.738  1.00  0.00     0.191 C 
BRANCH  37  38
ATOM     38  O   UNL     1      17.665 -41.026  31.615  1.00  0.00    -0.394 OA
ATOM     39  H   UNL     1      17.767 -41.740  30.930  1.00  0.00     0.210 HD
ENDBRANCH  37  38
ENDBRANCH  31  37
BRANCH  32  40
ATOM     40  O   UNL     1      19.855 -43.492  33.576  1.00  0.00    -0.387 OA
ATOM     41  H   UNL     1      19.323 -43.159  34.345  1.00  0.00     0.211 HD
ENDBRANCH  32  40
ENDBRANCH   1  27
TORSDOF 12
ENDMDL
MODEL 2
REMARK VINA RESULT:    -7.541      1.815      6.514
REMARK INTER + INTRA:         -12.592
REMARK INTER:                 -11.137
REMARK INTRA:                  -1.454
REMARK UNBOUND:                -1.524
REMARK SMILES O=c1c(O[C@@H]2O[C@H](CO)[C@@H](O)[C@H](O)[C@@H]2O)c(-c2ccc(O)c(O)c2)oc2cc(O)cc(O)c12
REMARK SMILES IDX 4 1 3 2 16 3 25 4 2 5 26 6 1 7 33 8 27 9 31 10 28 11 30 12
REMARK SMILES IDX 17 13 18 14 19 15 20 16 24 17 22 18 21 19 23 21 32 23 29 25
REMARK SMILES IDX 5 27 14 28 6 29 12 30 7 31 10 32 15 33 13 35 8 37 9 38 11 40
REMARK H PARENT 21 20 23 22 32 24 29 26 15 34 13 36 9 39 11 41
REMARK Flexibility Score: inf
ROOT
ATOM      1  O   UNL     1      13.811 -44.295  29.423  1.00  0.00    -0.454 OA
ENDROOT
BRANCH   1   2
ATOM      2  C   UNL     1      15.115 -43.782  29.313  1.00  0.00     0.214 A 
ATOM      3  C   UNL     1      15.591 -42.695  30.075  1.00  0.00     0.180 A 
ATOM      4  O   UNL     1      15.977 -41.641  29.360  1.00  0.00    -0.452 OA
ATOM      5  C   UNL     1      16.043 -44.185  28.368  1.00  0.00     0.239 A 
ATOM      6  C   UNL     1      16.648 -41.838  28.216  1.00  0.00     0.146 A 
ATOM      7  O   UNL     1      16.351 -45.394  28.225  1.00  0.00    -0.285 OA
ATOM      8  C   UNL     1      16.811 -43.165  27.728  1.00  0.00     0.111 A 
ATOM      9  C   UNL     1      17.278 -40.773  27.569  1.00  0.00     0.094 A 
ATOM     10  C   UNL     1      17.679 -43.407  26.636  1.00  0.00     0.134 A 
ATOM     11  C   UNL     1      18.114 -41.023  26.481  1.00  0.00     0.123 A 
ATOM     12  C   UNL     1      18.327 -42.327  26.031  1.00  0.00     0.093 A 
BRANCH   3  13
ATOM     13  C   UNL     1      16.551 -43.101  31.176  1.00  0.00     0.025 A 
ATOM     14  C   UNL     1      16.610 -44.433  31.613  1.00  0.00     0.016 A 
ATOM     15  C   UNL     1      17.850 -45.056  31.851  1.00  0.00     0.051 A 
ATOM     16  C   UNL     1      19.030 -44.298  31.740  1.00  0.00     0.157 A 
ATOM     17  C   UNL     1      17.717 -42.305  31.325  1.00  0.00     0.062 A 
ATOM     18  C   UNL     1      18.952 -42.905  31.548  1.00  0.00     0.158 A 
BRANCH  16  19
ATOM     19  O   UNL     1      20.283 -44.918  31.760  1.00  0.00    -0.504 OA
ATOM     20  H   UNL     1      21.129 -44.457  31.444  1.00  0.00     0.293 HD
ENDBRANCH  16  19
BRANCH  18  21
ATOM     21  O   UNL     1      20.112 -42.146  31.510  1.00  0.00    -0.504 OA
ATOM     22  H   UNL     1      20.966 -42.450  31.975  1.00  0.00     0.293 HD
ENDBRANCH  18  21
ENDBRANCH   3  13
BRANCH  10  23
ATOM     23  O   UNL     1      17.850 -44.681  26.100  1.00  0.00    -0.507 OA
ATOM     24  H   UNL     1      17.805 -44.862  25.087  1.00  0.00     0.293 HD
ENDBRANCH  10  23
BRANCH  11  25
ATOM     25  O   UNL     1      18.739 -39.953  25.835  1.00  0.00    -0.508 OA
ATOM     26  H   UNL     1      18.178 -39.232  25.398  1.00  0.00     0.293 HD
ENDBRANCH  11  25
ENDBRANCH   1   2
BRANCH   1  27
ATOM     27  C   UNL     1      12.635 -43.904  28.674  1.00  0.00     0.339 C 
ATOM     28  C   UNL     1      11.455 -44.895  28.505  1.00  0.00     0.214 C 
ATOM     29  O   UNL     1      12.170 -42.597  28.964  1.00  0.00    -0.332 OA
ATOM     30  C   UNL     1      10.287 -44.731  29.527  1.00  0.00     0.180 C 
ATOM     31  C   UNL     1      11.488 -42.451  30.201  1.00  0.00     0.179 C 
ATOM     32  C   UNL     1      10.491 -43.603  30.582  1.00  0.00     0.177 C 
BRANCH  28  33
ATOM     33  O   UNL     1      11.888 -46.232  28.395  1.00  0.00    -0.384 OA
ATOM     34  H   UNL     1      12.866 -46.231  28.585  1.00  0.00     0.211 HD
ENDBRANCH  28  33
BRANCH  30  35
ATOM     35  O   UNL     1       9.976 -45.949  30.188  1.00  0.00    -0.387 OA
ATOM     36  H   UNL     1      10.832 -46.308  30.549  1.00  0.00     0.211 HD
ENDBRANCH  30  35
BRANCH  31  37
ATOM     37  C   UNL     1      12.497 -42.076  31.307  1.00  0.00     0.191 C 
BRANCH  37  38
ATOM     38  O   UNL     1      12.743 -43.150  32.177  1.00  0.00    -0.394 OA
ATOM     39  H   UNL     1      12.545 -42.813  33.092  1.00  0.00     0.210 HD
ENDBRANCH  37  38
ENDBRANCH  31  37
BRANCH  32  40
ATOM     40  O   UNL     1       9.231 -43.027  30.888  1.00  0.00    -0.387 OA
ATOM     41  H   UNL     1       8.948 -42.508  30.091  1.00  0.00     0.211 HD
ENDBRANCH  32  40
ENDBRANCH   1  27
TORSDOF 12
ENDMDL
MODEL 3
REMARK VINA RESULT:    -7.484      1.645      5.227
REMARK INTER + INTRA:         -12.507
REMARK INTER:                 -11.034
REMARK INTRA:                  -1.473
REMARK UNBOUND:                -1.524
REMARK SMILES O=c1c(O[C@@H]2O[C@H](CO)[C@@H](O)[C@H](O)[C@@H]2O)c(-c2ccc(O)c(O)c2)oc2cc(O)cc(O)c12
REMARK SMILES IDX 4 1 3 2 16 3 25 4 2 5 26 6 1 7 33 8 27 9 31 10 28 11 30 12
REMARK SMILES IDX 17 13 18 14 19 15 20 16 24 17 22 18 21 19 23 21 32 23 29 25
REMARK SMILES IDX 5 27 14 28 6 29 12 30 7 31 10 32 15 33 13 35 8 37 9 38 11 40
REMARK H PARENT 21 20 23 22 32 24 29 26 15 34 13 36 9 39 11 41
REMARK Flexibility Score: inf
ROOT
ATOM      1  O   UNL     1      15.733 -44.291  31.418  1.00  0.00    -0.454 OA
ENDROOT
BRANCH   1   2
ATOM      2  C   UNL     1      15.626 -43.751  30.124  1.00  0.00     0.214 A 
ATOM      3  C   UNL     1      15.003 -44.420  29.051  1.00  0.00     0.180 A 
ATOM      4  O   UNL     1      15.798 -44.669  28.013  1.00  0.00    -0.452 OA
ATOM      5  C   UNL     1      16.221 -42.571  29.712  1.00  0.00     0.239 A 
ATOM      6  C   UNL     1      16.685 -43.738  27.632  1.00  0.00     0.146 A 
ATOM      7  O   UNL     1      16.043 -41.495  30.332  1.00  0.00    -0.285 OA
ATOM      8  C   UNL     1      16.847 -42.568  28.428  1.00  0.00     0.111 A 
ATOM      9  C   UNL     1      17.360 -43.854  26.416  1.00  0.00     0.094 A 
ATOM     10  C   UNL     1      17.628 -41.493  27.939  1.00  0.00     0.134 A 
ATOM     11  C   UNL     1      18.144 -42.796  25.957  1.00  0.00     0.123 A 
ATOM     12  C   UNL     1      18.262 -41.621  26.700  1.00  0.00     0.093 A 
BRANCH   3  13
ATOM     13  C   UNL     1      13.646 -43.850  28.687  1.00  0.00     0.025 A 
ATOM     14  C   UNL     1      13.038 -44.182  27.466  1.00  0.00     0.016 A 
ATOM     15  C   UNL     1      11.667 -44.494  27.408  1.00  0.00     0.051 A 
ATOM     16  C   UNL     1      10.887 -44.373  28.573  1.00  0.00     0.157 A 
ATOM     17  C   UNL     1      12.800 -43.490  29.769  1.00  0.00     0.062 A 
ATOM     18  C   UNL     1      11.444 -43.801  29.733  1.00  0.00     0.158 A 
BRANCH  16  19
ATOM     19  O   UNL     1       9.581 -44.869  28.613  1.00  0.00    -0.504 OA
ATOM     20  H   UNL     1       9.219 -45.521  27.927  1.00  0.00     0.293 HD
ENDBRANCH  16  19
BRANCH  18  21
ATOM     21  O   UNL     1      10.657 -43.616  30.860  1.00  0.00    -0.504 OA
ATOM     22  H   UNL     1      10.218 -44.400  31.341  1.00  0.00     0.293 HD
ENDBRANCH  18  21
ENDBRANCH   3  13
BRANCH  10  23
ATOM     23  O   UNL     1      17.844 -40.340  28.690  1.00  0.00    -0.507 OA
ATOM     24  H   UNL     1      18.178 -40.372  29.664  1.00  0.00     0.293 HD
ENDBRANCH  10  23
BRANCH  11  25
ATOM     25  O   UNL     1      18.820 -42.919  24.740  1.00  0.00    -0.508 OA
ATOM     26  H   UNL     1      18.310 -42.825  23.869  1.00  0.00     0.293 HD
ENDBRANCH  11  25
ENDBRANCH   1   2
BRANCH   1  27
ATOM     27  C   UNL     1      16.900 -44.874  32.045  1.00  0.00     0.339 C 
ATOM     28  C   UNL     1      18.170 -45.166  31.206  1.00  0.00     0.214 C 
ATOM     29  O   UNL     1      17.234 -44.303  33.298  1.00  0.00    -0.332 OA
ATOM     30  C   UNL     1      19.274 -44.064  31.249  1.00  0.00     0.180 C 
ATOM     31  C   UNL     1      17.845 -43.023  33.242  1.00  0.00     0.179 C 
ATOM     32  C   UNL     1      18.924 -42.819  32.119  1.00  0.00     0.177 C 
BRANCH  28  33
ATOM     33  O   UNL     1      17.863 -45.566  29.889  1.00  0.00    -0.384 OA
ATOM     34  H   UNL     1      18.488 -45.076  29.289  1.00  0.00     0.211 HD
ENDBRANCH  28  33
BRANCH  30  35
ATOM     35  O   UNL     1      19.664 -43.641  29.950  1.00  0.00    -0.387 OA
ATOM     36  H   UNL     1      19.294 -44.305  29.307  1.00  0.00     0.211 HD
ENDBRANCH  30  35
BRANCH  31  37
ATOM     37  C   UNL     1      16.761 -41.927  33.304  1.00  0.00     0.191 C 
BRANCH  37  38
ATOM     38  O   UNL     1      17.187 -40.735  32.694  1.00  0.00    -0.394 OA
ATOM     39  H   UNL     1      16.869 -40.780  31.752  1.00  0.00     0.210 HD
ENDBRANCH  37  38
ENDBRANCH  31  37
BRANCH  32  40
ATOM     40  O   UNL     1      20.114 -42.329  32.718  1.00  0.00    -0.387 OA
ATOM     41  H   UNL     1      20.855 -42.519  32.086  1.00  0.00     0.211 HD
ENDBRANCH  32  40
ENDBRANCH   1  27
TORSDOF 12
ENDMDL
MODEL 4
REMARK VINA RESULT:    -7.391      1.869      6.339
REMARK INTER + INTRA:         -12.371
REMARK INTER:                 -11.015
REMARK INTRA:                  -1.356
REMARK UNBOUND:                -1.524
REMARK SMILES O=c1c(O[C@@H]2O[C@H](CO)[C@@H](O)[C@H](O)[C@@H]2O)c(-c2ccc(O)c(O)c2)oc2cc(O)cc(O)c12
REMARK SMILES IDX 4 1 3 2 16 3 25 4 2 5 26 6 1 7 33 8 27 9 31 10 28 11 30 12
REMARK SMILES IDX 17 13 18 14 19 15 20 16 24 17 22 18 21 19 23 21 32 23 29 25
REMARK SMILES IDX 5 27 14 28 6 29 12 30 7 31 10 32 15 33 13 35 8 37 9 38 11 40
REMARK H PARENT 21 20 23 22 32 24 29 26 15 34 13 36 9 39 11 41
REMARK Flexibility Score: inf
ROOT
ATOM      1  O   UNL     1      14.642 -42.357  30.581  1.00  0.00    -0.454 OA
ENDROOT
BRANCH   1   2
ATOM      2  C   UNL     1      15.893 -42.631  30.001  1.00  0.00     0.214 A 
ATOM      3  C   UNL     1      16.983 -41.738  30.043  1.00  0.00     0.180 A 
ATOM      4  O   UNL     1      17.418 -41.332  28.852  1.00  0.00    -0.452 OA
ATOM      5  C   UNL     1      16.171 -43.736  29.215  1.00  0.00     0.239 A 
ATOM      6  C   UNL     1      17.475 -42.214  27.843  1.00  0.00     0.146 A 
ATOM      7  O   UNL     1      15.940 -44.902  29.618  1.00  0.00    -0.285 OA
ATOM      8  C   UNL     1      16.946 -43.521  28.034  1.00  0.00     0.111 A 
ATOM      9  C   UNL     1      18.147 -41.898  26.661  1.00  0.00     0.094 A 
ATOM     10  C   UNL     1      17.175 -44.518  27.056  1.00  0.00     0.134 A 
ATOM     11  C   UNL     1      18.347 -42.884  25.695  1.00  0.00     0.123 A 
ATOM     12  C   UNL     1      17.883 -44.184  25.897  1.00  0.00     0.093 A 
BRANCH   3  13
ATOM     13  C   UNL     1      18.075 -42.161  31.006  1.00  0.00     0.025 A 
ATOM     14  C   UNL     1      17.749 -42.724  32.250  1.00  0.00     0.016 A 
ATOM     15  C   UNL     1      18.448 -43.845  32.735  1.00  0.00     0.051 A 
ATOM     16  C   UNL     1      19.545 -44.338  32.005  1.00  0.00     0.157 A 
ATOM     17  C   UNL     1      19.326 -42.509  30.432  1.00  0.00     0.062 A 
ATOM     18  C   UNL     1      20.024 -43.621  30.892  1.00  0.00     0.158 A 
BRANCH  16  19
ATOM     19  O   UNL     1      20.131 -45.563  32.335  1.00  0.00    -0.504 OA
ATOM     20  H   UNL     1      19.936 -46.420  31.829  1.00  0.00     0.293 HD
ENDBRANCH  16  19
BRANCH  18  21
ATOM     21  O   UNL     1      21.149 -44.067  30.214  1.00  0.00    -0.504 OA
ATOM     22  H   UNL     1      21.314 -45.058  30.044  1.00  0.00     0.293 HD
ENDBRANCH  18  21
ENDBRANCH   3  13
BRANCH  10  23
ATOM     23  O   UNL     1      16.653 -45.804  27.178  1.00  0.00    -0.507 OA
ATOM     24  H   UNL     1      16.079 -46.237  26.440  1.00  0.00     0.293 HD
ENDBRANCH  10  23
BRANCH  11  25
ATOM     25  O   UNL     1      19.016 -42.560  24.512  1.00  0.00    -0.508 OA
ATOM     26  H   UNL     1      20.000 -42.780  24.414  1.00  0.00     0.293 HD
ENDBRANCH  11  25
ENDBRANCH   1   2
BRANCH   1  27
ATOM     27  C   UNL     1      13.475 -41.778  29.949  1.00  0.00     0.339 C 
ATOM     28  C   UNL     1      13.597 -41.108  28.556  1.00  0.00     0.214 C 
ATOM     29  O   UNL     1      12.310 -42.580  30.032  1.00  0.00    -0.332 OA
ATOM     30  C   UNL     1      13.230 -42.013  27.340  1.00  0.00     0.180 C 
ATOM     31  C   UNL     1      12.280 -43.704  29.166  1.00  0.00     0.179 C 
ATOM     32  C   UNL     1      12.812 -43.469  27.707  1.00  0.00     0.177 C 
BRANCH  28  33
ATOM     33  O   UNL     1      14.832 -40.451  28.383  1.00  0.00    -0.384 OA
ATOM     34  H   UNL     1      15.298 -40.912  27.633  1.00  0.00     0.211 HD
ENDBRANCH  28  33
BRANCH  30  35
ATOM     35  O   UNL     1      14.261 -42.048  26.364  1.00  0.00    -0.387 OA
ATOM     36  H   UNL     1      14.559 -41.108  26.225  1.00  0.00     0.211 HD
ENDBRANCH  30  35
BRANCH  31  37
ATOM     37  C   UNL     1      12.882 -44.929  29.885  1.00  0.00     0.191 C 
BRANCH  37  38
ATOM     38  O   UNL     1      13.338 -45.898  28.976  1.00  0.00    -0.394 OA
ATOM     39  H   UNL     1      13.722 -45.394  28.208  1.00  0.00     0.210 HD
ENDBRANCH  37  38
ENDBRANCH  31  37
BRANCH  32  40
ATOM     40  O   UNL     1      11.825 -43.909  26.788  1.00  0.00    -0.387 OA
ATOM     41  H   UNL     1      11.904 -44.896  26.730  1.00  0.00     0.211 HD
ENDBRANCH  32  40
ENDBRANCH   1  27
TORSDOF 12
ENDMDL
MODEL 5
REMARK VINA RESULT:    -7.387      2.310      6.973
REMARK INTER + INTRA:         -12.365
REMARK INTER:                 -10.819
REMARK INTRA:                  -1.547
REMARK UNBOUND:                -1.524
REMARK SMILES O=c1c(O[C@@H]2O[C@H](CO)[C@@H](O)[C@H](O)[C@@H]2O)c(-c2ccc(O)c(O)c2)oc2cc(O)cc(O)c12
REMARK SMILES IDX 4 1 3 2 16 3 25 4 2 5 26 6 1 7 33 8 27 9 31 10 28 11 30 12
REMARK SMILES IDX 17 13 18 14 19 15 20 16 24 17 22 18 21 19 23 21 32 23 29 25
REMARK SMILES IDX 5 27 14 28 6 29 12 30 7 31 10 32 15 33 13 35 8 37 9 38 11 40
REMARK H PARENT 21 20 23 22 32 24 29 26 15 34 13 36 9 39 11 41
REMARK Flexibility Score: inf
ROOT
ATOM      1  O   UNL     1      13.802 -42.540  29.225  1.00  0.00    -0.454 OA
ENDROOT
BRANCH   1   2
ATOM      2  C   UNL     1      15.171 -42.228  29.306  1.00  0.00     0.214 A 
ATOM      3  C   UNL     1      15.817 -41.860  30.504  1.00  0.00     0.180 A 
ATOM      4  O   UNL     1      16.362 -40.646  30.493  1.00  0.00    -0.452 OA
ATOM      5  C   UNL     1      16.019 -42.118  28.217  1.00  0.00     0.239 A 
ATOM      6  C   UNL     1      16.987 -40.221  29.386  1.00  0.00     0.146 A 
ATOM      7  O   UNL     1      16.131 -43.043  27.376  1.00  0.00    -0.285 OA
ATOM      8  C   UNL     1      16.936 -41.022  28.210  1.00  0.00     0.111 A 
ATOM      9  C   UNL     1      17.775 -39.069  29.412  1.00  0.00     0.094 A 
ATOM     10  C   UNL     1      17.750 -40.689  27.101  1.00  0.00     0.134 A 
ATOM     11  C   UNL     1      18.556 -38.741  28.303  1.00  0.00     0.123 A 
ATOM     12  C   UNL     1      18.558 -39.551  27.167  1.00  0.00     0.093 A 
BRANCH   3  13
ATOM     13  C   UNL     1      16.705 -42.948  31.073  1.00  0.00     0.025 A 
ATOM     14  C   UNL     1      16.832 -44.181  30.414  1.00  0.00     0.016 A 
ATOM     15  C   UNL     1      18.091 -44.793  30.271  1.00  0.00     0.051 A 
ATOM     16  C   UNL     1      19.212 -44.204  30.884  1.00  0.00     0.157 A 
ATOM     17  C   UNL     1      17.787 -42.522  31.888  1.00  0.00     0.062 A 
ATOM     18  C   UNL     1      19.042 -43.108  31.751  1.00  0.00     0.158 A 
BRANCH  16  19
ATOM     19  O   UNL     1      20.504 -44.655  30.596  1.00  0.00    -0.504 OA
ATOM     20  H   UNL     1      20.755 -45.074  29.708  1.00  0.00     0.293 HD
ENDBRANCH  16  19
BRANCH  18  21
ATOM     21  O   UNL     1      20.136 -42.571  32.412  1.00  0.00    -0.504 OA
ATOM     22  H   UNL     1      20.249 -41.565  32.530  1.00  0.00     0.293 HD
ENDBRANCH  18  21
ENDBRANCH   3  13
BRANCH  10  23
ATOM     23  O   UNL     1      17.714 -41.421  25.915  1.00  0.00    -0.507 OA
ATOM     24  H   UNL     1      16.895 -41.418  25.291  1.00  0.00     0.293 HD
ENDBRANCH  10  23
BRANCH  11  25
ATOM     25  O   UNL     1      19.339 -37.584  28.334  1.00  0.00    -0.508 OA
ATOM     26  H   UNL     1      19.004 -36.737  27.892  1.00  0.00     0.293 HD
ENDBRANCH  11  25
ENDBRANCH   1   2
BRANCH   1  27
ATOM     27  C   UNL     1      13.159 -43.805  29.509  1.00  0.00     0.339 C 
ATOM     28  C   UNL     1      12.082 -43.899  30.619  1.00  0.00     0.214 C 
ATOM     29  O   UNL     1      12.772 -44.532  28.356  1.00  0.00    -0.332 OA
ATOM     30  C   UNL     1      10.603 -43.788  30.133  1.00  0.00     0.180 C 
ATOM     31  C   UNL     1      11.620 -44.044  27.685  1.00  0.00     0.179 C 
ATOM     32  C   UNL     1      10.431 -43.580  28.599  1.00  0.00     0.177 C 
BRANCH  28  33
ATOM     33  O   UNL     1      12.355 -43.042  31.706  1.00  0.00    -0.384 OA
ATOM     34  H   UNL     1      11.852 -42.200  31.538  1.00  0.00     0.211 HD
ENDBRANCH  28  33
BRANCH  30  35
ATOM     35  O   UNL     1       9.880 -42.785  30.833  1.00  0.00    -0.387 OA
ATOM     36  H   UNL     1       9.456 -42.203  30.145  1.00  0.00     0.211 HD
ENDBRANCH  30  35
BRANCH  31  37
ATOM     37  C   UNL     1      12.042 -43.026  26.605  1.00  0.00     0.191 C 
BRANCH  37  38
ATOM     38  O   UNL     1      13.366 -43.229  26.183  1.00  0.00    -0.394 OA
ATOM     39  H   UNL     1      13.424 -44.184  25.911  1.00  0.00     0.210 HD
ENDBRANCH  37  38
ENDBRANCH  31  37
BRANCH  32  40
ATOM     40  O   UNL     1       9.250 -44.242  28.176  1.00  0.00    -0.387 OA
ATOM     41  H   UNL     1       9.521 -44.912  27.496  1.00  0.00     0.211 HD
ENDBRANCH  32  40
ENDBRANCH   1  27
TORSDOF 12
ENDMDL
MODEL 6
REMARK VINA RESULT:    -7.381      2.265      5.351
REMARK INTER + INTRA:         -12.356
REMARK INTER:                 -10.783
REMARK INTRA:                  -1.573
REMARK UNBOUND:                -1.524
REMARK SMILES O=c1c(O[C@@H]2O[C@H](CO)[C@@H](O)[C@H](O)[C@@H]2O)c(-c2ccc(O)c(O)c2)oc2cc(O)cc(O)c12
REMARK SMILES IDX 4 1 3 2 16 3 25 4 2 5 26 6 1 7 33 8 27 9 31 10 28 11 30 12
REMARK SMILES IDX 17 13 18 14 19 15 20 16 24 17 22 18 21 19 23 21 32 23 29 25
REMARK SMILES IDX 5 27 14 28 6 29 12 30 7 31 10 32 15 33 13 35 8 37 9 38 11 40
REMARK H PARENT 21 20 23 22 32 24 29 26 15 34 13 36 9 39 11 41
REMARK Flexibility Score: inf
ROOT
ATOM      1  O   UNL     1      16.362 -41.541  27.692  1.00  0.00    -0.454 OA
ENDROOT
BRANCH   1   2
ATOM      2  C   UNL     1      15.711 -42.375  28.618  1.00  0.00     0.214 A 
ATOM      3  C   UNL     1      16.206 -43.633  29.018  1.00  0.00     0.180 A 
ATOM      4  O   UNL     1      15.406 -44.660  28.743  1.00  0.00    -0.452 OA
ATOM      5  C   UNL     1      14.456 -42.131  29.150  1.00  0.00     0.239 A 
ATOM      6  C   UNL     1      14.083 -44.519  28.910  1.00  0.00     0.146 A 
ATOM      7  O   UNL     1      14.183 -41.044  29.716  1.00  0.00    -0.285 OA
ATOM      8  C   UNL     1      13.558 -43.239  29.245  1.00  0.00     0.111 A 
ATOM      9  C   UNL     1      13.239 -45.630  28.870  1.00  0.00     0.094 A 
ATOM     10  C   UNL     1      12.198 -43.115  29.617  1.00  0.00     0.134 A 
ATOM     11  C   UNL     1      11.895 -45.490  29.217  1.00  0.00     0.123 A 
ATOM     12  C   UNL     1      11.384 -44.251  29.604  1.00  0.00     0.093 A 
BRANCH   3  13
ATOM     13  C   UNL     1      16.787 -43.639  30.418  1.00  0.00     0.025 A 
ATOM     14  C   UNL     1      16.032 -44.118  31.500  1.00  0.00     0.016 A 
ATOM     15  C   UNL     1      16.618 -44.952  32.470  1.00  0.00     0.051 A 
ATOM     16  C   UNL     1      17.997 -45.221  32.400  1.00  0.00     0.157 A 
ATOM     17  C   UNL     1      18.201 -43.710  30.517  1.00  0.00     0.062 A 
ATOM     18  C   UNL     1      18.797 -44.539  31.463  1.00  0.00     0.158 A 
BRANCH  16  19
ATOM     19  O   UNL     1      18.577 -46.202  33.209  1.00  0.00    -0.504 OA
ATOM     20  H   UNL     1      18.178 -47.127  33.323  1.00  0.00     0.293 HD
ENDBRANCH  16  19
BRANCH  18  21
ATOM     21  O   UNL     1      20.168 -44.750  31.440  1.00  0.00    -0.504 OA
ATOM     22  H   UNL     1      20.679 -45.038  32.272  1.00  0.00     0.293 HD
ENDBRANCH  18  21
ENDBRANCH   3  13
BRANCH  10  23
ATOM     23  O   UNL     1      11.628 -41.881  29.923  1.00  0.00    -0.507 OA
ATOM     24  H   UNL     1      11.068 -41.349  29.241  1.00  0.00     0.293 HD
ENDBRANCH  10  23
BRANCH  11  25
ATOM     25  O   UNL     1      11.055 -46.606  29.172  1.00  0.00    -0.508 OA
ATOM     26  H   UNL     1      10.858 -47.123  30.020  1.00  0.00     0.293 HD
ENDBRANCH  11  25
ENDBRANCH   1   2
BRANCH   1  27
ATOM     27  C   UNL     1      17.777 -41.482  27.390  1.00  0.00     0.339 C 
ATOM     28  C   UNL     1      18.271 -40.745  26.119  1.00  0.00     0.214 C 
ATOM     29  O   UNL     1      18.598 -41.186  28.506  1.00  0.00    -0.332 OA
ATOM     30  C   UNL     1      18.730 -39.270  26.332  1.00  0.00     0.180 C 
ATOM     31  C   UNL     1      18.584 -39.832  28.932  1.00  0.00     0.179 C 
ATOM     32  C   UNL     1      18.605 -38.748  27.795  1.00  0.00     0.177 C 
BRANCH  28  33
ATOM     33  O   UNL     1      17.373 -40.877  25.039  1.00  0.00    -0.384 OA
ATOM     34  H   UNL     1      16.779 -40.079  25.063  1.00  0.00     0.211 HD
ENDBRANCH  28  33
BRANCH  30  35
ATOM     35  O   UNL     1      18.075 -38.369  25.450  1.00  0.00    -0.387 OA
ATOM     36  H   UNL     1      17.276 -38.844  25.094  1.00  0.00     0.211 HD
ENDBRANCH  30  35
BRANCH  31  37
ATOM     37  C   UNL     1      17.484 -39.633  29.995  1.00  0.00     0.191 C 
BRANCH  37  38
ATOM     38  O   UNL     1      16.346 -39.007  29.460  1.00  0.00    -0.394 OA
ATOM     39  H   UNL     1      16.250 -38.147  29.951  1.00  0.00     0.210 HD
ENDBRANCH  37  38
ENDBRANCH  31  37
BRANCH  32  40
ATOM     40  O   UNL     1      19.666 -37.843  28.052  1.00  0.00    -0.387 OA
ATOM     41  H   UNL     1      19.845 -37.358  27.205  1.00  0.00     0.211 HD
ENDBRANCH  32  40
ENDBRANCH   1  27
TORSDOF 12
ENDMDL
MODEL 7
REMARK VINA RESULT:    -7.373      2.079      6.035
REMARK INTER + INTRA:         -12.345
REMARK INTER:                 -10.948
REMARK INTRA:                  -1.397
REMARK UNBOUND:                -1.524
REMARK SMILES O=c1c(O[C@@H]2O[C@H](CO)[C@@H](O)[C@H](O)[C@@H]2O)c(-c2ccc(O)c(O)c2)oc2cc(O)cc(O)c12
REMARK SMILES IDX 4 1 3 2 16 3 25 4 2 5 26 6 1 7 33 8 27 9 31 10 28 11 30 12
REMARK SMILES IDX 17 13 18 14 19 15 20 16 24 17 22 18 21 19 23 21 32 23 29 25
REMARK SMILES IDX 5 27 14 28 6 29 12 30 7 31 10 32 15 33 13 35 8 37 9 38 11 40
REMARK H PARENT 21 20 23 22 32 24 29 26 15 34 13 36 9 39 11 41
REMARK Flexibility Score: inf
ROOT
ATOM      1  O   UNL     1      18.581 -41.755  29.193  1.00  0.00    -0.454 OA
ENDROOT
BRANCH   1   2
ATOM      2  C   UNL     1      17.642 -42.571  29.848  1.00  0.00     0.214 A 
ATOM      3  C   UNL     1      17.886 -43.916  30.194  1.00  0.00     0.180 A 
ATOM      4  O   UNL     1      17.060 -44.795  29.631  1.00  0.00    -0.452 OA
ATOM      5  C   UNL     1      16.334 -42.206  30.117  1.00  0.00     0.239 A 
ATOM      6  C   UNL     1      15.759 -44.489  29.520  1.00  0.00     0.146 A 
ATOM      7  O   UNL     1      16.061 -41.148  30.735  1.00  0.00    -0.285 OA
ATOM      8  C   UNL     1      15.319 -43.185  29.882  1.00  0.00     0.111 A 
ATOM      9  C   UNL     1      14.827 -45.466  29.165  1.00  0.00     0.094 A 
ATOM     10  C   UNL     1      13.933 -42.910  29.959  1.00  0.00     0.134 A 
ATOM     11  C   UNL     1      13.464 -45.176  29.224  1.00  0.00     0.123 A 
ATOM     12  C   UNL     1      13.021 -43.918  29.634  1.00  0.00     0.093 A 
BRANCH   3  13
ATOM     13  C   UNL     1      18.121 -44.127  31.677  1.00  0.00     0.025 A 
ATOM     14  C   UNL     1      18.342 -45.416  32.187  1.00  0.00     0.016 A 
ATOM     15  C   UNL     1      19.348 -45.647  33.144  1.00  0.00     0.051 A 
ATOM     16  C   UNL     1      20.066 -44.553  33.660  1.00  0.00     0.157 A 
ATOM     17  C   UNL     1      18.669 -43.031  32.394  1.00  0.00     0.062 A 
ATOM     18  C   UNL     1      19.673 -43.240  33.335  1.00  0.00     0.158 A 
BRANCH  16  19
ATOM     19  O   UNL     1      21.204 -44.752  34.446  1.00  0.00    -0.504 OA
ATOM     20  H   UNL     1      21.378 -45.611  34.955  1.00  0.00     0.293 HD
ENDBRANCH  16  19
BRANCH  18  21
ATOM     21  O   UNL     1      20.334 -42.160  33.899  1.00  0.00    -0.504 OA
ATOM     22  H   UNL     1      20.987 -41.592  33.361  1.00  0.00     0.293 HD
ENDBRANCH  18  21
ENDBRANCH   3  13
BRANCH  10  23
ATOM     23  O   UNL     1      13.450 -41.642  30.277  1.00  0.00    -0.507 OA
ATOM     24  H   UNL     1      13.998 -40.786  30.109  1.00  0.00     0.293 HD
ENDBRANCH  10  23
BRANCH  11  25
ATOM     25  O   UNL     1      12.536 -46.157  28.864  1.00  0.00    -0.508 OA
ATOM     26  H   UNL     1      12.180 -46.188  27.916  1.00  0.00     0.293 HD
ENDBRANCH  11  25
ENDBRANCH   1   2
BRANCH   1  27
ATOM     27  C   UNL     1      18.697 -41.497  27.773  1.00  0.00     0.339 C 
ATOM     28  C   UNL     1      17.939 -42.387  26.755  1.00  0.00     0.214 C 
ATOM     29  O   UNL     1      18.608 -40.126  27.423  1.00  0.00    -0.332 OA
ATOM     30  C   UNL     1      16.564 -41.832  26.269  1.00  0.00     0.180 C 
ATOM     31  C   UNL     1      17.303 -39.569  27.465  1.00  0.00     0.179 C 
ATOM     32  C   UNL     1      16.147 -40.469  26.898  1.00  0.00     0.177 C 
BRANCH  28  33
ATOM     33  O   UNL     1      17.858 -43.731  27.173  1.00  0.00    -0.384 OA
ATOM     34  H   UNL     1      18.372 -44.267  26.510  1.00  0.00     0.211 HD
ENDBRANCH  28  33
BRANCH  30  35
ATOM     35  O   UNL     1      15.514 -42.774  26.438  1.00  0.00    -0.387 OA
ATOM     36  H   UNL     1      15.692 -43.254  27.292  1.00  0.00     0.211 HD
ENDBRANCH  30  35
BRANCH  31  37
ATOM     37  C   UNL     1      17.036 -38.979  28.865  1.00  0.00     0.191 C 
BRANCH  37  38
ATOM     38  O   UNL     1      15.667 -38.760  29.089  1.00  0.00    -0.394 OA
ATOM     39  H   UNL     1      15.303 -39.624  29.422  1.00  0.00     0.210 HD
ENDBRANCH  37  38
ENDBRANCH  31  37
BRANCH  32  40
ATOM     40  O   UNL     1      15.423 -39.721  25.934  1.00  0.00    -0.387 OA
ATOM     41  H   UNL     1      14.808 -40.353  25.480  1.00  0.00     0.211 HD
ENDBRANCH  32  40
ENDBRANCH   1  27
TORSDOF 12
ENDMDL
MODEL 8
REMARK VINA RESULT:    -7.365      2.217      5.340
REMARK INTER + INTRA:         -12.332
REMARK INTER:                 -10.920
REMARK INTRA:                  -1.412
REMARK UNBOUND:                -1.524
REMARK SMILES O=c1c(O[C@@H]2O[C@H](CO)[C@@H](O)[C@H](O)[C@@H]2O)c(-c2ccc(O)c(O)c2)oc2cc(O)cc(O)c12
REMARK SMILES IDX 4 1 3 2 16 3 25 4 2 5 26 6 1 7 33 8 27 9 31 10 28 11 30 12
REMARK SMILES IDX 17 13 18 14 19 15 20 16 24 17 22 18 21 19 23 21 32 23 29 25
REMARK SMILES IDX 5 27 14 28 6 29 12 30 7 31 10 32 15 33 13 35 8 37 9 38 11 40
REMARK H PARENT 21 20 23 22 32 24 29 26 15 34 13 36 9 39 11 41
REMARK Flexibility Score: inf
ROOT
ATOM      1  O   UNL     1      14.570 -43.912  30.554  1.00  0.00    -0.454 OA
ENDROOT
BRANCH   1   2
ATOM      2  C   UNL     1      13.930 -43.364  29.429  1.00  0.00     0.214 A 
ATOM      3  C   UNL     1      13.647 -44.099  28.260  1.00  0.00     0.180 A 
ATOM      4  O   UNL     1      14.229 -43.637  27.156  1.00  0.00    -0.452 OA
ATOM      5  C   UNL     1      13.619 -42.024  29.275  1.00  0.00     0.239 A 
ATOM      6  C   UNL     1      14.301 -42.312  26.962  1.00  0.00     0.146 A 
ATOM      7  O   UNL     1      12.952 -41.402  30.138  1.00  0.00    -0.285 OA
ATOM      8  C   UNL     1      13.875 -41.435  27.999  1.00  0.00     0.111 A 
ATOM      9  C   UNL     1      14.677 -41.795  25.721  1.00  0.00     0.094 A 
ATOM     10  C   UNL     1      13.758 -40.048  27.739  1.00  0.00     0.134 A 
ATOM     11  C   UNL     1      14.578 -40.423  25.485  1.00  0.00     0.123 A 
ATOM     12  C   UNL     1      14.106 -39.562  26.476  1.00  0.00     0.093 A 
BRANCH   3  13
ATOM     13  C   UNL     1      12.180 -44.447  28.104  1.00  0.00     0.025 A 
ATOM     14  C   UNL     1      11.510 -44.187  26.898  1.00  0.00     0.016 A 
ATOM     15  C   UNL     1      10.633 -45.138  26.344  1.00  0.00     0.051 A 
ATOM     16  C   UNL     1      10.356 -46.315  27.064  1.00  0.00     0.157 A 
ATOM     17  C   UNL     1      11.689 -45.503  28.916  1.00  0.00     0.062 A 
ATOM     18  C   UNL     1      10.830 -46.459  28.381  1.00  0.00     0.158 A 
BRANCH  16  19
ATOM     19  O   UNL     1       9.665 -47.373  26.466  1.00  0.00    -0.504 OA
ATOM     20  H   UNL     1      10.110 -48.248  26.212  1.00  0.00     0.293 HD
ENDBRANCH  16  19
BRANCH  18  21
ATOM     21  O   UNL     1      10.499 -47.587  29.117  1.00  0.00    -0.504 OA
ATOM     22  H   UNL     1       9.970 -48.356  28.709  1.00  0.00     0.293 HD
ENDBRANCH  18  21
ENDBRANCH   3  13
BRANCH  10  23
ATOM     23  O   UNL     1      13.376 -39.143  28.727  1.00  0.00    -0.507 OA
ATOM     24  H   UNL     1      12.975 -39.447  29.626  1.00  0.00     0.293 HD
ENDBRANCH  10  23
BRANCH  11  25
ATOM     25  O   UNL     1      14.960 -39.911  24.242  1.00  0.00    -0.508 OA
ATOM     26  H   UNL     1      15.876 -39.496  24.129  1.00  0.00     0.293 HD
ENDBRANCH  11  25
ENDBRANCH   1   2
BRANCH   1  27
ATOM     27  C   UNL     1      15.568 -43.293  31.401  1.00  0.00     0.339 C 
ATOM     28  C   UNL     1      15.836 -43.848  32.823  1.00  0.00     0.214 C 
ATOM     29  O   UNL     1      16.779 -42.978  30.736  1.00  0.00    -0.332 OA
ATOM     30  C   UNL     1      17.029 -44.846  32.942  1.00  0.00     0.180 C 
ATOM     31  C   UNL     1      17.630 -44.081  30.462  1.00  0.00     0.179 C 
ATOM     32  C   UNL     1      17.765 -45.152  31.603  1.00  0.00     0.177 C 
BRANCH  28  33
ATOM     33  O   UNL     1      14.665 -44.337  33.438  1.00  0.00    -0.384 OA
ATOM     34  H   UNL     1      14.950 -44.781  34.282  1.00  0.00     0.211 HD
ENDBRANCH  28  33
BRANCH  30  35
ATOM     35  O   UNL     1      16.651 -46.066  33.564  1.00  0.00    -0.387 OA
ATOM     36  H   UNL     1      17.488 -46.495  33.891  1.00  0.00     0.211 HD
ENDBRANCH  30  35
BRANCH  31  37
ATOM     37  C   UNL     1      17.298 -44.657  29.070  1.00  0.00     0.191 C 
BRANCH  37  38
ATOM     38  O   UNL     1      17.804 -45.957  28.907  1.00  0.00    -0.394 OA
ATOM     39  H   UNL     1      18.635 -45.998  29.453  1.00  0.00     0.210 HD
ENDBRANCH  37  38
ENDBRANCH  31  37
BRANCH  32  40
ATOM     40  O   UNL     1      19.144 -45.354  31.872  1.00  0.00    -0.387 OA
ATOM     41  H   UNL     1      19.526 -45.824  31.087  1.00  0.00     0.211 HD
ENDBRANCH  32  40
ENDBRANCH   1  27
TORSDOF 12
ENDMDL
MODEL 9
REMARK VINA RESULT:    -7.323      1.779      4.666
REMARK INTER + INTRA:         -12.272
REMARK INTER:                 -10.831
REMARK INTRA:                  -1.441
REMARK UNBOUND:                -1.524
REMARK SMILES O=c1c(O[C@@H]2O[C@H](CO)[C@@H](O)[C@H](O)[C@@H]2O)c(-c2ccc(O)c(O)c2)oc2cc(O)cc(O)c12
REMARK SMILES IDX 4 1 3 2 16 3 25 4 2 5 26 6 1 7 33 8 27 9 31 10 28 11 30 12
REMARK SMILES IDX 17 13 18 14 19 15 20 16 24 17 22 18 21 19 23 21 32 23 29 25
REMARK SMILES IDX 5 27 14 28 6 29 12 30 7 31 10 32 15 33 13 35 8 37 9 38 11 40
REMARK H PARENT 21 20 23 22 32 24 29 26 15 34 13 36 9 39 11 41
REMARK Flexibility Score: inf
ROOT
ATOM      1  O   UNL     1      15.724 -44.213  30.903  1.00  0.00    -0.454 OA
ENDROOT
BRANCH   1   2
ATOM      2  C   UNL     1      15.687 -43.642  29.619  1.00  0.00     0.214 A 
ATOM      3  C   UNL     1      15.165 -44.302  28.488  1.00  0.00     0.180 A 
ATOM      4  O   UNL     1      16.039 -44.496  27.502  1.00  0.00    -0.452 OA
ATOM      5  C   UNL     1      16.267 -42.432  29.278  1.00  0.00     0.239 A 
ATOM      6  C   UNL     1      16.917 -43.525  27.209  1.00  0.00     0.146 A 
ATOM      7  O   UNL     1      16.008 -41.379  29.911  1.00  0.00    -0.285 OA
ATOM      8  C   UNL     1      16.981 -42.373  28.042  1.00  0.00     0.111 A 
ATOM      9  C   UNL     1      17.678 -43.585  26.040  1.00  0.00     0.094 A 
ATOM     10  C   UNL     1      17.755 -41.259  27.636  1.00  0.00     0.134 A 
ATOM     11  C   UNL     1      18.453 -42.489  25.663  1.00  0.00     0.123 A 
ATOM     12  C   UNL     1      18.478 -41.332  26.442  1.00  0.00     0.093 A 
BRANCH   3  13
ATOM     13  C   UNL     1      13.817 -43.770  28.044  1.00  0.00     0.025 A 
ATOM     14  C   UNL     1      12.961 -43.142  28.963  1.00  0.00     0.016 A 
ATOM     15  C   UNL     1      12.278 -41.962  28.617  1.00  0.00     0.051 A 
ATOM     16  C   UNL     1      12.383 -41.469  27.303  1.00  0.00     0.157 A 
ATOM     17  C   UNL     1      13.699 -43.404  26.677  1.00  0.00     0.062 A 
ATOM     18  C   UNL     1      13.037 -42.234  26.318  1.00  0.00     0.158 A 
BRANCH  16  19
ATOM     19  O   UNL     1      11.898 -40.200  26.975  1.00  0.00    -0.504 OA
ATOM     20  H   UNL     1      12.261 -39.348  27.390  1.00  0.00     0.293 HD
ENDBRANCH  16  19
BRANCH  18  21
ATOM     21  O   UNL     1      13.080 -41.783  25.008  1.00  0.00    -0.504 OA
ATOM     22  H   UNL     1      12.460 -42.158  24.292  1.00  0.00     0.293 HD
ENDBRANCH  18  21
ENDBRANCH   3  13
BRANCH  10  23
ATOM     23  O   UNL     1      17.876 -40.119  28.429  1.00  0.00    -0.507 OA
ATOM     24  H   UNL     1      17.948 -39.174  28.026  1.00  0.00     0.293 HD
ENDBRANCH  10  23
BRANCH  11  25
ATOM     25  O   UNL     1      19.216 -42.557  24.494  1.00  0.00    -0.508 OA
ATOM     26  H   UNL     1      19.719 -43.406  24.271  1.00  0.00     0.293 HD
ENDBRANCH  11  25
ENDBRANCH   1   2
BRANCH   1  27
ATOM     27  C   UNL     1      16.854 -44.814  31.578  1.00  0.00     0.339 C 
ATOM     28  C   UNL     1      18.187 -45.036  30.817  1.00  0.00     0.214 C 
ATOM     29  O   UNL     1      17.086 -44.314  32.883  1.00  0.00    -0.332 OA
ATOM     30  C   UNL     1      19.262 -43.922  31.006  1.00  0.00     0.180 C 
ATOM     31  C   UNL     1      17.675 -43.023  32.947  1.00  0.00     0.179 C 
ATOM     32  C   UNL     1      18.827 -42.737  31.919  1.00  0.00     0.177 C 
BRANCH  28  33
ATOM     33  O   UNL     1      17.982 -45.361  29.461  1.00  0.00    -0.384 OA
ATOM     34  H   UNL     1      18.374 -46.266  29.322  1.00  0.00     0.211 HD
ENDBRANCH  28  33
BRANCH  30  35
ATOM     35  O   UNL     1      19.736 -43.416  29.765  1.00  0.00    -0.387 OA
ATOM     36  H   UNL     1      20.723 -43.319  29.851  1.00  0.00     0.211 HD
ENDBRANCH  30  35
BRANCH  31  37
ATOM     37  C   UNL     1      16.567 -41.950  32.994  1.00  0.00     0.191 C 
BRANCH  37  38
ATOM     38  O   UNL     1      17.020 -40.711  32.512  1.00  0.00    -0.394 OA
ATOM     39  H   UNL     1      17.184 -40.147  33.316  1.00  0.00     0.210 HD
ENDBRANCH  37  38
ENDBRANCH  31  37
BRANCH  32  40
ATOM     40  O   UNL     1      19.961 -42.265  32.630  1.00  0.00    -0.387 OA
ATOM     41  H   UNL     1      20.307 -43.028  33.162  1.00  0.00     0.211 HD
ENDBRANCH  32  40
ENDBRANCH   1  27
TORSDOF 12
ENDMDL
