MODEL 1
REMARK VINA RESULT:    -5.174      0.000      0.000
REMARK INTER + INTRA:          -5.975
REMARK INTER:                  -5.931
REMARK INTRA:                  -0.045
REMARK UNBOUND:                -0.045
REMARK SMILES O=C([O-])c1cc(O)c(O)c(O)c1
REMARK SMILES IDX 4 1 5 2 12 3 6 4 10 5 8 6 2 7 1 8 3 9 7 10 11 12 9 14
REMARK H PARENT 7 11 11 13 9 15
REMARK Flexibility Score: inf
ROOT
ATOM      1  C   UNL     1      13.324 -21.604  19.054  1.00  0.00     0.005 A 
ATOM      2  C   UNL     1      14.505 -20.846  18.966  1.00  0.00     0.060 A 
ATOM      3  C   UNL     1      12.104 -21.007  18.694  1.00  0.00     0.060 A 
ATOM      4  C   UNL     1      14.470 -19.518  18.527  1.00  0.00     0.162 A 
ATOM      5  C   UNL     1      12.061 -19.678  18.253  1.00  0.00     0.162 A 
ATOM      6  C   UNL     1      13.246 -18.928  18.168  1.00  0.00     0.200 A 
ENDROOT
BRANCH   1   7
ATOM      7  C   UNL     1      13.362 -23.008  19.518  1.00  0.00     0.072 C 
ATOM      8  O   UNL     1      13.452 -23.274  20.747  1.00  0.00    -0.545 OA
ATOM      9  O   UNL     1      13.299 -24.054  18.606  1.00  0.00    -0.545 OA
ENDBRANCH   1   7
BRANCH   4  10
ATOM     10  O   UNL     1      15.664 -18.800  18.453  1.00  0.00    -0.504 OA
ATOM     11  H   UNL     1      16.106 -18.578  17.570  1.00  0.00     0.293 HD
ENDBRANCH   4  10
BRANCH   5  12
ATOM     12  O   UNL     1      10.843 -19.099  17.899  1.00  0.00    -0.504 OA
ATOM     13  H   UNL     1      10.767 -18.456  17.119  1.00  0.00     0.293 HD
ENDBRANCH   5  12
BRANCH   6  14
ATOM     14  O   UNL     1      13.221 -17.603  17.732  1.00  0.00    -0.502 OA
ATOM     15  H   UNL     1      14.063 -17.103  17.473  1.00  0.00     0.293 HD
ENDBRANCH   6  14
TORSDOF 4
ENDMDL
MODEL 2
REMARK VINA RESULT:    -5.169      0.056      2.430
REMARK INTER + INTRA:          -5.969
REMARK INTER:                  -5.924
REMARK INTRA:                  -0.045
REMARK UNBOUND:                -0.045
REMARK SMILES O=C([O-])c1cc(O)c(O)c(O)c1
REMARK SMILES IDX 4 1 5 2 12 3 6 4 10 5 8 6 2 7 1 8 3 9 7 10 11 12 9 14
REMARK H PARENT 7 11 11 13 9 15
REMARK Flexibility Score: inf
ROOT
ATOM      1  C   UNL     1      13.354 -21.605  19.072  1.00  0.00     0.005 A 
ATOM      2  C   UNL     1      12.134 -20.999  18.726  1.00  0.00     0.060 A 
ATOM      3  C   UNL     1      14.536 -20.851  18.989  1.00  0.00     0.060 A 
ATOM      4  C   UNL     1      12.093 -19.666  18.305  1.00  0.00     0.162 A 
ATOM      5  C   UNL     1      14.504 -19.515  18.568  1.00  0.00     0.162 A 
ATOM      6  C   UNL     1      13.279 -18.917  18.224  1.00  0.00     0.200 A 
ENDROOT
BRANCH   1   7
ATOM      7  C   UNL     1      13.397 -23.016  19.517  1.00  0.00     0.072 C 
ATOM      8  O   UNL     1      13.534 -23.298  20.738  1.00  0.00    -0.545 OA
ATOM      9  O   UNL     1      13.287 -24.050  18.595  1.00  0.00    -0.545 OA
ENDBRANCH   1   7
BRANCH   4  10
ATOM     10  O   UNL     1      10.861 -19.102  17.970  1.00  0.00    -0.504 OA
ATOM     11  H   UNL     1      10.009 -19.333  18.467  1.00  0.00     0.293 HD
ENDBRANCH   4  10
BRANCH   5  12
ATOM     12  O   UNL     1      15.685 -18.778  18.491  1.00  0.00    -0.504 OA
ATOM     13  H   UNL     1      15.723 -17.805  18.771  1.00  0.00     0.293 HD
ENDBRANCH   5  12
BRANCH   6  14
ATOM     14  O   UNL     1      13.229 -17.588  17.802  1.00  0.00    -0.502 OA
ATOM     15  H   UNL     1      12.408 -17.010  17.935  1.00  0.00     0.293 HD
ENDBRANCH   6  14
TORSDOF 4
ENDMDL
MODEL 3
REMARK VINA RESULT:    -5.047      1.558      3.118
REMARK INTER + INTRA:          -5.829
REMARK INTER:                  -5.776
REMARK INTRA:                  -0.053
REMARK UNBOUND:                -0.045
REMARK SMILES O=C([O-])c1cc(O)c(O)c(O)c1
REMARK SMILES IDX 4 1 5 2 12 3 6 4 10 5 8 6 2 7 1 8 3 9 7 10 11 12 9 14
REMARK H PARENT 7 11 11 13 9 15
REMARK Flexibility Score: inf
ROOT
ATOM      1  C   UNL     1      14.393 -20.476  19.047  1.00  0.00     0.005 A 
ATOM      2  C   UNL     1      13.227 -21.173  19.408  1.00  0.00     0.060 A 
ATOM      3  C   UNL     1      14.277 -19.308  18.276  1.00  0.00     0.060 A 
ATOM      4  C   UNL     1      11.968 -20.713  19.007  1.00  0.00     0.162 A 
ATOM      5  C   UNL     1      13.020 -18.841  17.870  1.00  0.00     0.162 A 
ATOM      6  C   UNL     1      11.859 -19.544  18.236  1.00  0.00     0.200 A 
ENDROOT
BRANCH   1   7
ATOM      7  C   UNL     1      15.724 -20.963  19.471  1.00  0.00     0.072 C 
ATOM      8  O   UNL     1      15.844 -22.073  20.056  1.00  0.00    -0.545 OA
ATOM      9  O   UNL     1      16.863 -20.203  19.230  1.00  0.00    -0.545 OA
ENDBRANCH   1   7
BRANCH   4  10
ATOM     10  O   UNL     1      10.834 -21.433  19.387  1.00  0.00    -0.504 OA
ATOM     11  H   UNL     1       9.913 -21.221  19.022  1.00  0.00     0.293 HD
ENDBRANCH   4  10
BRANCH   5  12
ATOM     12  O   UNL     1      12.919 -17.679  17.106  1.00  0.00    -0.504 OA
ATOM     13  H   UNL     1      13.303 -17.624  16.169  1.00  0.00     0.293 HD
ENDBRANCH   5  12
BRANCH   6  14
ATOM     14  O   UNL     1      10.599 -19.092  17.841  1.00  0.00    -0.502 OA
ATOM     15  H   UNL     1      10.341 -18.997  16.866  1.00  0.00     0.293 HD
ENDBRANCH   6  14
TORSDOF 4
ENDMDL
MODEL 4
REMARK VINA RESULT:    -5.018      1.576      2.674
REMARK INTER + INTRA:          -5.796
REMARK INTER:                  -5.743
REMARK INTRA:                  -0.053
REMARK UNBOUND:                -0.045
REMARK SMILES O=C([O-])c1cc(O)c(O)c(O)c1
REMARK SMILES IDX 4 1 5 2 12 3 6 4 10 5 8 6 2 7 1 8 3 9 7 10 11 12 9 14
REMARK H PARENT 7 11 11 13 9 15
REMARK Flexibility Score: inf
ROOT
ATOM      1  C   UNL     1      14.416 -20.463  19.097  1.00  0.00     0.005 A 
ATOM      2  C   UNL     1      14.306 -19.299  18.318  1.00  0.00     0.060 A 
ATOM      3  C   UNL     1      13.247 -21.160  19.449  1.00  0.00     0.060 A 
ATOM      4  C   UNL     1      13.055 -18.836  17.898  1.00  0.00     0.162 A 
ATOM      5  C   UNL     1      11.990 -20.703  19.031  1.00  0.00     0.162 A 
ATOM      6  C   UNL     1      11.890 -19.537  18.253  1.00  0.00     0.200 A 
ENDROOT
BRANCH   1   7
ATOM      7  C   UNL     1      15.739 -20.952  19.542  1.00  0.00     0.072 C 
ATOM      8  O   UNL     1      15.839 -22.022  20.201  1.00  0.00    -0.545 OA
ATOM      9  O   UNL     1      16.893 -20.237  19.241  1.00  0.00    -0.545 OA
ENDBRANCH   1   7
BRANCH   4  10
ATOM     10  O   UNL     1      12.990 -17.676  17.125  1.00  0.00    -0.504 OA
ATOM     11  H   UNL     1      13.126 -17.687  16.122  1.00  0.00     0.293 HD
ENDBRANCH   4  10
BRANCH   5  12
ATOM     12  O   UNL     1      10.839 -21.404  19.387  1.00  0.00    -0.504 OA
ATOM     13  H   UNL     1      10.026 -20.933  19.768  1.00  0.00     0.293 HD
ENDBRANCH   5  12
BRANCH   6  14
ATOM     14  O   UNL     1      10.646 -19.068  17.829  1.00  0.00    -0.502 OA
ATOM     15  H   UNL     1       9.817 -19.137  18.406  1.00  0.00     0.293 HD
ENDBRANCH   6  14
TORSDOF 4
ENDMDL
MODEL 5
REMARK VINA RESULT:    -4.973     13.245     14.299
REMARK INTER + INTRA:          -5.745
REMARK INTER:                  -5.696
REMARK INTRA:                  -0.049
REMARK UNBOUND:                -0.045
REMARK SMILES O=C([O-])c1cc(O)c(O)c(O)c1
REMARK SMILES IDX 4 1 5 2 12 3 6 4 10 5 8 6 2 7 1 8 3 9 7 10 11 12 9 14
REMARK H PARENT 7 11 11 13 9 15
REMARK Flexibility Score: inf
ROOT
ATOM      1  C   UNL     1      21.149 -15.677  30.309  1.00  0.00     0.005 A 
ATOM      2  C   UNL     1      21.168 -14.347  29.857  1.00  0.00     0.060 A 
ATOM      3  C   UNL     1      20.145 -16.541  29.840  1.00  0.00     0.060 A 
ATOM      4  C   UNL     1      20.203 -13.885  28.955  1.00  0.00     0.162 A 
ATOM      5  C   UNL     1      19.175 -16.087  28.937  1.00  0.00     0.162 A 
ATOM      6  C   UNL     1      19.201 -14.754  28.491  1.00  0.00     0.200 A 
ENDROOT
BRANCH   1   7
ATOM      7  C   UNL     1      22.169 -16.165  31.263  1.00  0.00     0.072 C 
ATOM      8  O   UNL     1      22.686 -17.305  31.120  1.00  0.00    -0.545 OA
ATOM      9  O   UNL     1      22.571 -15.372  32.331  1.00  0.00    -0.545 OA
ENDBRANCH   1   7
BRANCH   4  10
ATOM     10  O   UNL     1      20.257 -12.557  28.530  1.00  0.00    -0.504 OA
ATOM     11  H   UNL     1      21.114 -12.018  28.552  1.00  0.00     0.293 HD
ENDBRANCH   4  10
BRANCH   5  12
ATOM     12  O   UNL     1      18.184 -16.955  28.480  1.00  0.00    -0.504 OA
ATOM     13  H   UNL     1      17.416 -16.629  27.905  1.00  0.00     0.293 HD
ENDBRANCH   5  12
BRANCH   6  14
ATOM     14  O   UNL     1      18.243 -14.285  27.591  1.00  0.00    -0.502 OA
ATOM     15  H   UNL     1      17.478 -14.864  27.267  1.00  0.00     0.293 HD
ENDBRANCH   6  14
TORSDOF 4
ENDMDL
MODEL 6
REMARK VINA RESULT:    -4.940     13.232     14.390
REMARK INTER + INTRA:          -5.707
REMARK INTER:                  -5.658
REMARK INTRA:                  -0.049
REMARK UNBOUND:                -0.045
REMARK SMILES O=C([O-])c1cc(O)c(O)c(O)c1
REMARK SMILES IDX 4 1 5 2 12 3 6 4 10 5 8 6 2 7 1 8 3 9 7 10 11 12 9 14
REMARK H PARENT 7 11 11 13 9 15
REMARK Flexibility Score: inf
ROOT
ATOM      1  C   UNL     1      21.159 -15.681  30.292  1.00  0.00     0.005 A 
ATOM      2  C   UNL     1      20.121 -16.517  29.847  1.00  0.00     0.060 A 
ATOM      3  C   UNL     1      21.234 -14.367  29.801  1.00  0.00     0.060 A 
ATOM      4  C   UNL     1      19.175 -16.051  28.928  1.00  0.00     0.162 A 
ATOM      5  C   UNL     1      20.290 -13.893  28.880  1.00  0.00     0.162 A 
ATOM      6  C   UNL     1      19.255 -14.736  28.440  1.00  0.00     0.200 A 
ENDROOT
BRANCH   1   7
ATOM      7  C   UNL     1      22.160 -16.174  31.264  1.00  0.00     0.072 C 
ATOM      8  O   UNL     1      22.625 -17.341  31.168  1.00  0.00    -0.545 OA
ATOM      9  O   UNL     1      22.601 -15.356  32.298  1.00  0.00    -0.545 OA
ENDBRANCH   1   7
BRANCH   4  10
ATOM     10  O   UNL     1      18.159 -16.912  28.510  1.00  0.00    -0.504 OA
ATOM     11  H   UNL     1      17.920 -17.753  29.022  1.00  0.00     0.293 HD
ENDBRANCH   4  10
BRANCH   5  12
ATOM     12  O   UNL     1      20.376 -12.587  28.402  1.00  0.00    -0.504 OA
ATOM     13  H   UNL     1      20.470 -11.796  29.028  1.00  0.00     0.293 HD
ENDBRANCH   5  12
BRANCH   6  14
ATOM     14  O   UNL     1      18.307 -14.280  27.524  1.00  0.00    -0.502 OA
ATOM     15  H   UNL     1      18.426 -13.417  27.007  1.00  0.00     0.293 HD
ENDBRANCH   6  14
TORSDOF 4
ENDMDL
MODEL 7
REMARK VINA RESULT:    -4.845      1.609      4.052
REMARK INTER + INTRA:          -5.598
REMARK INTER:                  -5.546
REMARK INTRA:                  -0.052
REMARK UNBOUND:                -0.045
REMARK SMILES O=C([O-])c1cc(O)c(O)c(O)c1
REMARK SMILES IDX 4 1 5 2 12 3 6 4 10 5 8 6 2 7 1 8 3 9 7 10 11 12 9 14
REMARK H PARENT 7 11 11 13 9 15
REMARK Flexibility Score: inf
ROOT
ATOM      1  C   UNL     1      13.524 -20.669  18.695  1.00  0.00     0.005 A 
ATOM      2  C   UNL     1      13.739 -21.981  18.241  1.00  0.00     0.060 A 
ATOM      3  C   UNL     1      12.255 -20.317  19.185  1.00  0.00     0.060 A 
ATOM      4  C   UNL     1      12.708 -22.926  18.275  1.00  0.00     0.162 A 
ATOM      5  C   UNL     1      11.217 -21.257  19.222  1.00  0.00     0.162 A 
ATOM      6  C   UNL     1      11.441 -22.568  18.767  1.00  0.00     0.200 A 
ENDROOT
BRANCH   1   7
ATOM      7  C   UNL     1      14.615 -19.670  18.658  1.00  0.00     0.072 C 
ATOM      8  O   UNL     1      15.808 -20.031  18.474  1.00  0.00    -0.545 OA
ATOM      9  O   UNL     1      14.339 -18.318  18.828  1.00  0.00    -0.545 OA
ENDBRANCH   1   7
BRANCH   4  10
ATOM     10  O   UNL     1      12.962 -24.219  17.816  1.00  0.00    -0.504 OA
ATOM     11  H   UNL     1      13.078 -24.429  16.832  1.00  0.00     0.293 HD
ENDBRANCH   4  10
BRANCH   5  12
ATOM     12  O   UNL     1       9.963 -20.894  19.712  1.00  0.00    -0.504 OA
ATOM     13  H   UNL     1       9.566 -19.980  19.530  1.00  0.00     0.293 HD
ENDBRANCH   5  12
BRANCH   6  14
ATOM     14  O   UNL     1      10.418 -23.516  18.797  1.00  0.00    -0.502 OA
ATOM     15  H   UNL     1       9.633 -23.485  18.158  1.00  0.00     0.293 HD
ENDBRANCH   6  14
TORSDOF 4
ENDMDL
MODEL 8
REMARK VINA RESULT:    -4.817      1.391      2.875
REMARK INTER + INTRA:          -5.566
REMARK INTER:                  -5.515
REMARK INTRA:                  -0.051
REMARK UNBOUND:                -0.045
REMARK SMILES O=C([O-])c1cc(O)c(O)c(O)c1
REMARK SMILES IDX 4 1 5 2 12 3 6 4 10 5 8 6 2 7 1 8 3 9 7 10 11 12 9 14
REMARK H PARENT 7 11 11 13 9 15
REMARK Flexibility Score: inf
ROOT
ATOM      1  C   UNL     1      13.195 -21.310  18.638  1.00  0.00     0.005 A 
ATOM      2  C   UNL     1      12.824 -19.979  18.383  1.00  0.00     0.060 A 
ATOM      3  C   UNL     1      14.545 -21.604  18.889  1.00  0.00     0.060 A 
ATOM      4  C   UNL     1      13.781 -18.959  18.377  1.00  0.00     0.162 A 
ATOM      5  C   UNL     1      15.510 -20.589  18.886  1.00  0.00     0.162 A 
ATOM      6  C   UNL     1      15.130 -19.261  18.629  1.00  0.00     0.200 A 
ENDROOT
BRANCH   1   7
ATOM      7  C   UNL     1      12.181 -22.388  18.643  1.00  0.00     0.072 C 
ATOM      8  O   UNL     1      10.985 -22.141  18.953  1.00  0.00    -0.545 OA
ATOM      9  O   UNL     1      12.535 -23.690  18.307  1.00  0.00    -0.545 OA
ENDBRANCH   1   7
BRANCH   4  10
ATOM     10  O   UNL     1      13.372 -17.650  18.120  1.00  0.00    -0.504 OA
ATOM     11  H   UNL     1      12.751 -17.420  17.353  1.00  0.00     0.293 HD
ENDBRANCH   4  10
BRANCH   5  12
ATOM     12  O   UNL     1      16.847 -20.895  19.137  1.00  0.00    -0.504 OA
ATOM     13  H   UNL     1      17.124 -21.787  19.531  1.00  0.00     0.293 HD
ENDBRANCH   5  12
BRANCH   6  14
ATOM     14  O   UNL     1      16.079 -18.237  18.622  1.00  0.00    -0.502 OA
ATOM     15  H   UNL     1      16.561 -17.954  17.778  1.00  0.00     0.293 HD
ENDBRANCH   6  14
TORSDOF 4
ENDMDL
MODEL 9
REMARK VINA RESULT:    -4.799      1.536      4.306
REMARK INTER + INTRA:          -5.545
REMARK INTER:                  -5.492
REMARK INTRA:                  -0.053
REMARK UNBOUND:                -0.045
REMARK SMILES O=C([O-])c1cc(O)c(O)c(O)c1
REMARK SMILES IDX 4 1 5 2 12 3 6 4 10 5 8 6 2 7 1 8 3 9 7 10 11 12 9 14
REMARK H PARENT 7 11 11 13 9 15
REMARK Flexibility Score: inf
ROOT
ATOM      1  C   UNL     1      13.682 -20.545  18.695  1.00  0.00     0.005 A 
ATOM      2  C   UNL     1      12.404 -20.130  19.106  1.00  0.00     0.060 A 
ATOM      3  C   UNL     1      13.878 -21.887  18.330  1.00  0.00     0.060 A 
ATOM      4  C   UNL     1      11.340 -21.036  19.153  1.00  0.00     0.162 A 
ATOM      5  C   UNL     1      12.817 -22.801  18.374  1.00  0.00     0.162 A 
ATOM      6  C   UNL     1      11.542 -22.378  18.786  1.00  0.00     0.200 A 
ENDROOT
BRANCH   1   7
ATOM      7  C   UNL     1      14.807 -19.585  18.646  1.00  0.00     0.072 C 
ATOM      8  O   UNL     1      14.625 -18.370  18.925  1.00  0.00    -0.545 OA
ATOM      9  O   UNL     1      16.082 -20.011  18.290  1.00  0.00    -0.545 OA
ENDBRANCH   1   7
BRANCH   4  10
ATOM     10  O   UNL     1      10.086 -20.585  19.566  1.00  0.00    -0.504 OA
ATOM     11  H   UNL     1       9.894 -19.605  19.735  1.00  0.00     0.293 HD
ENDBRANCH   4  10
BRANCH   5  12
ATOM     12  O   UNL     1      13.025 -24.131  18.008  1.00  0.00    -0.504 OA
ATOM     13  H   UNL     1      13.947 -24.480  17.773  1.00  0.00     0.293 HD
ENDBRANCH   5  12
BRANCH   6  14
ATOM     14  O   UNL     1      10.475 -23.276  18.836  1.00  0.00    -0.502 OA
ATOM     15  H   UNL     1       9.878 -23.360  19.650  1.00  0.00     0.293 HD
ENDBRANCH   6  14
TORSDOF 4
ENDMDL
