MODEL 1
REMARK VINA RESULT:    15.882      0.000      0.000
REMARK INTER + INTRA:          39.933
REMARK INTER:                  41.878
REMARK INTRA:                  -1.946
REMARK UNBOUND:                -1.946
REMARK SMILES CCCCCCCCCCCCCCCCCCCCCCCCCCCCCC(=O)[O-]
REMARK SMILES IDX 16 1 17 2 18 3 19 4 20 5 21 6 22 7 23 8 24 9 25 10 26 11
REMARK SMILES IDX 27 12 28 13 29 14 30 15 31 16 32 17 15 18 14 19 13 20 12 21
REMARK SMILES IDX 11 22 10 23 9 24 8 25 7 26 6 27 5 28 4 29 3 30 2 31 1 32
REMARK H PARENT
REMARK Flexibility Score: inf
ROOT
ATOM      1  C   UNL     1      32.387  10.631  41.118  1.00  0.00     0.000 C 
ENDROOT
BRANCH   1   2
ATOM      2  C   UNL     1      33.708  11.355  41.425  1.00  0.00     0.000 C 
BRANCH   2   3
ATOM      3  C   UNL     1      34.073  12.403  40.362  1.00  0.00     0.000 C 
BRANCH   3   4
ATOM      4  C   UNL     1      35.054  13.462  40.894  1.00  0.00     0.000 C 
BRANCH   4   5
ATOM      5  C   UNL     1      35.300  13.341  42.408  1.00  0.00     0.000 C 
BRANCH   5   6
ATOM      6  C   UNL     1      36.748  13.682  42.805  1.00  0.00     0.000 C 
BRANCH   6   7
ATOM      7  C   UNL     1      36.828  14.877  43.770  1.00  0.00     0.000 C 
BRANCH   7   8
ATOM      8  C   UNL     1      35.439  15.449  44.098  1.00  0.00     0.000 C 
BRANCH   8   9
ATOM      9  C   UNL     1      35.144  16.760  43.351  1.00  0.00     0.000 C 
BRANCH   9  10
ATOM     10  C   UNL     1      33.907  16.679  42.429  1.00  0.00     0.000 C 
BRANCH  10  11
ATOM     11  C   UNL     1      33.949  17.734  41.308  1.00  0.00     0.000 C 
BRANCH  11  12
ATOM     12  C   UNL     1      33.983  17.113  39.900  1.00  0.00     0.000 C 
BRANCH  12  13
ATOM     13  C   UNL     1      33.569  18.108  38.804  1.00  0.00     0.006 C 
BRANCH  13  14
ATOM     14  C   UNL     1      32.153  18.642  39.042  1.00  0.00     0.053 C 
BRANCH  14  15
ATOM     15  C   UNL     1      31.383  18.667  37.760  1.00  0.00     0.041 C 
ATOM     16  O   UNL     1      30.909  19.751  37.327  1.00  0.00    -0.550 OA
ATOM     17  O   UNL     1      31.224  17.500  37.022  1.00  0.00    -0.550 OA
ENDBRANCH  14  15
ENDBRANCH  13  14
ENDBRANCH  12  13
ENDBRANCH  11  12
ENDBRANCH  10  11
ENDBRANCH   9  10
ENDBRANCH   8   9
ENDBRANCH   7   8
ENDBRANCH   6   7
ENDBRANCH   5   6
ENDBRANCH   4   5
ENDBRANCH   3   4
ENDBRANCH   2   3
ENDBRANCH   1   2
BRANCH   1  18
ATOM     18  C   UNL     1      32.546   9.570  40.006  1.00  0.00     0.000 C 
BRANCH  18  19
ATOM     19  C   UNL     1      34.011   9.185  39.725  1.00  0.00     0.000 C 
BRANCH  19  20
ATOM     20  C   UNL     1      34.513   7.941  40.481  1.00  0.00     0.000 C 
BRANCH  20  21
ATOM     21  C   UNL     1      33.869   6.608  40.049  1.00  0.00     0.000 C 
BRANCH  21  22
ATOM     22  C   UNL     1      33.824   5.516  41.135  1.00  0.00     0.000 C 
BRANCH  22  23
ATOM     23  C   UNL     1      32.446   4.860  41.346  1.00  0.00     0.000 C 
BRANCH  23  24
ATOM     24  C   UNL     1      31.244   5.810  41.196  1.00  0.00    -0.000 C 
BRANCH  24  25
ATOM     25  C   UNL     1      30.023   5.366  42.014  1.00  0.00    -0.000 C 
BRANCH  25  26
ATOM     26  C   UNL     1      28.821   6.292  41.764  1.00  0.00    -0.000 C 
BRANCH  26  27
ATOM     27  C   UNL     1      29.227   7.609  41.071  1.00  0.00    -0.000 C 
BRANCH  27  28
ATOM     28  C   UNL     1      29.219   7.554  39.530  1.00  0.00    -0.000 C 
BRANCH  28  29
ATOM     29  C   UNL     1      28.759   8.837  38.810  1.00  0.00    -0.000 C 
BRANCH  29  30
ATOM     30  C   UNL     1      28.067   8.607  37.448  1.00  0.00    -0.000 C 
BRANCH  30  31
ATOM     31  C   UNL     1      28.515   7.324  36.727  1.00  0.00    -0.003 C 
ATOM     32  C   UNL     1      27.351   6.499  36.181  1.00  0.00     0.004 C 
ENDBRANCH  30  31
ENDBRANCH  29  30
ENDBRANCH  28  29
ENDBRANCH  27  28
ENDBRANCH  26  27
ENDBRANCH  25  26
ENDBRANCH  24  25
ENDBRANCH  23  24
ENDBRANCH  22  23
ENDBRANCH  21  22
ENDBRANCH  20  21
ENDBRANCH  19  20
ENDBRANCH  18  19
ENDBRANCH   1  18
TORSDOF 28
ENDMDL
MODEL 2
REMARK VINA RESULT:    16.174      0.952      1.916
REMARK INTER + INTRA:          40.703
REMARK INTER:                  42.822
REMARK INTRA:                  -2.119
REMARK UNBOUND:                -1.946
REMARK SMILES CCCCCCCCCCCCCCCCCCCCCCCCCCCCCC(=O)[O-]
REMARK SMILES IDX 16 1 17 2 18 3 19 4 20 5 21 6 22 7 23 8 24 9 25 10 26 11
REMARK SMILES IDX 27 12 28 13 29 14 30 15 31 16 32 17 15 18 14 19 13 20 12 21
REMARK SMILES IDX 11 22 10 23 9 24 8 25 7 26 6 27 5 28 4 29 3 30 2 31 1 32
REMARK H PARENT
REMARK Flexibility Score: inf
ROOT
ATOM      1  C   UNL     1      32.904   9.959  39.250  1.00  0.00     0.000 C 
ENDROOT
BRANCH   1   2
ATOM      2  C   UNL     1      32.355  10.153  40.673  1.00  0.00     0.000 C 
BRANCH   2   3
ATOM      3  C   UNL     1      33.037  11.310  41.421  1.00  0.00     0.000 C 
BRANCH   3   4
ATOM      4  C   UNL     1      33.757  12.282  40.469  1.00  0.00     0.000 C 
BRANCH   4   5
ATOM      5  C   UNL     1      35.100  12.781  41.031  1.00  0.00     0.000 C 
BRANCH   5   6
ATOM      6  C   UNL     1      35.039  13.078  42.541  1.00  0.00     0.000 C 
BRANCH   6   7
ATOM      7  C   UNL     1      36.353  13.674  43.076  1.00  0.00     0.000 C 
BRANCH   7   8
ATOM      8  C   UNL     1      36.130  15.011  43.798  1.00  0.00     0.000 C 
BRANCH   8   9
ATOM      9  C   UNL     1      34.790  15.671  43.430  1.00  0.00     0.000 C 
BRANCH   9  10
ATOM     10  C   UNL     1      34.950  17.028  42.709  1.00  0.00     0.000 C 
BRANCH  10  11
ATOM     11  C   UNL     1      33.700  17.400  41.890  1.00  0.00     0.000 C 
BRANCH  11  12
ATOM     12  C   UNL     1      33.997  17.587  40.392  1.00  0.00     0.000 C 
BRANCH  12  13
ATOM     13  C   UNL     1      32.895  18.371  39.662  1.00  0.00     0.006 C 
BRANCH  13  14
ATOM     14  C   UNL     1      32.799  17.958  38.191  1.00  0.00     0.053 C 
BRANCH  14  15
ATOM     15  C   UNL     1      31.468  18.346  37.626  1.00  0.00     0.041 C 
ATOM     16  O   UNL     1      30.750  17.487  37.048  1.00  0.00    -0.550 OA
ATOM     17  O   UNL     1      31.003  19.647  37.776  1.00  0.00    -0.550 OA
ENDBRANCH  14  15
ENDBRANCH  13  14
ENDBRANCH  12  13
ENDBRANCH  11  12
ENDBRANCH  10  11
ENDBRANCH   9  10
ENDBRANCH   8   9
ENDBRANCH   7   8
ENDBRANCH   6   7
ENDBRANCH   5   6
ENDBRANCH   4   5
ENDBRANCH   3   4
ENDBRANCH   2   3
ENDBRANCH   1   2
BRANCH   1  18
ATOM     18  C   UNL     1      34.139   9.031  39.221  1.00  0.00     0.000 C 
BRANCH  18  19
ATOM     19  C   UNL     1      34.184   8.027  40.388  1.00  0.00     0.000 C 
BRANCH  19  20
ATOM     20  C   UNL     1      33.944   6.558  39.993  1.00  0.00     0.000 C 
BRANCH  20  21
ATOM     21  C   UNL     1      33.626   5.608  41.166  1.00  0.00     0.000 C 
BRANCH  21  22
ATOM     22  C   UNL     1      32.214   4.991  41.149  1.00  0.00     0.000 C 
BRANCH  22  23
ATOM     23  C   UNL     1      31.136   5.807  41.886  1.00  0.00     0.000 C 
BRANCH  23  24
ATOM     24  C   UNL     1      29.858   5.027  42.242  1.00  0.00    -0.000 C 
BRANCH  24  25
ATOM     25  C   UNL     1      28.582   5.686  41.700  1.00  0.00    -0.000 C 
BRANCH  25  26
ATOM     26  C   UNL     1      28.819   6.294  40.308  1.00  0.00    -0.000 C 
BRANCH  26  27
ATOM     27  C   UNL     1      28.912   5.219  39.205  1.00  0.00    -0.000 C 
BRANCH  27  28
ATOM     28  C   UNL     1      27.586   4.932  38.473  1.00  0.00    -0.000 C 
BRANCH  28  29
ATOM     29  C   UNL     1      27.655   4.907  36.933  1.00  0.00    -0.000 C 
BRANCH  29  30
ATOM     30  C   UNL     1      27.303   6.245  36.244  1.00  0.00    -0.000 C 
BRANCH  30  31
ATOM     31  C   UNL     1      28.427   7.294  36.302  1.00  0.00    -0.003 C 
ATOM     32  C   UNL     1      28.077   8.507  37.161  1.00  0.00     0.004 C 
ENDBRANCH  30  31
ENDBRANCH  29  30
ENDBRANCH  28  29
ENDBRANCH  27  28
ENDBRANCH  26  27
ENDBRANCH  25  26
ENDBRANCH  24  25
ENDBRANCH  23  24
ENDBRANCH  22  23
ENDBRANCH  21  22
ENDBRANCH  20  21
ENDBRANCH  19  20
ENDBRANCH  18  19
ENDBRANCH   1  18
TORSDOF 28
ENDMDL
MODEL 3
REMARK VINA RESULT:    16.472      2.904      9.868
REMARK INTER + INTRA:          41.488
REMARK INTER:                  43.897
REMARK INTRA:                  -2.409
REMARK UNBOUND:                -1.946
REMARK SMILES CCCCCCCCCCCCCCCCCCCCCCCCCCCCCC(=O)[O-]
REMARK SMILES IDX 16 1 17 2 18 3 19 4 20 5 21 6 22 7 23 8 24 9 25 10 26 11
REMARK SMILES IDX 27 12 28 13 29 14 30 15 31 16 32 17 15 18 14 19 13 20 12 21
REMARK SMILES IDX 11 22 10 23 9 24 8 25 7 26 6 27 5 28 4 29 3 30 2 31 1 32
REMARK H PARENT
REMARK Flexibility Score: inf
ROOT
ATOM      1  C   UNL     1      32.764  10.835  40.929  1.00  0.00     0.000 C 
ENDROOT
BRANCH   1   2
ATOM      2  C   UNL     1      32.754   9.498  40.170  1.00  0.00     0.000 C 
BRANCH   2   3
ATOM      3  C   UNL     1      34.130   9.133  39.590  1.00  0.00     0.000 C 
BRANCH   3   4
ATOM      4  C   UNL     1      34.317   7.614  39.431  1.00  0.00     0.000 C 
BRANCH   4   5
ATOM      5  C   UNL     1      34.065   6.842  40.738  1.00  0.00     0.000 C 
BRANCH   5   6
ATOM      6  C   UNL     1      33.202   5.584  40.528  1.00  0.00     0.000 C 
BRANCH   6   7
ATOM      7  C   UNL     1      32.344   5.248  41.760  1.00  0.00     0.000 C 
BRANCH   7   8
ATOM      8  C   UNL     1      30.901   4.884  41.377  1.00  0.00     0.000 C 
BRANCH   8   9
ATOM      9  C   UNL     1      29.862   5.459  42.354  1.00  0.00     0.000 C 
BRANCH   9  10
ATOM     10  C   UNL     1      28.750   6.275  41.661  1.00  0.00     0.000 C 
BRANCH  10  11
ATOM     11  C   UNL     1      29.244   7.660  41.205  1.00  0.00     0.000 C 
BRANCH  11  12
ATOM     12  C   UNL     1      29.514   7.734  39.692  1.00  0.00     0.000 C 
BRANCH  12  13
ATOM     13  C   UNL     1      28.570   8.708  38.969  1.00  0.00     0.006 C 
BRANCH  13  14
ATOM     14  C   UNL     1      28.867   8.760  37.467  1.00  0.00     0.053 C 
BRANCH  14  15
ATOM     15  C   UNL     1      27.913   7.885  36.716  1.00  0.00     0.041 C 
ATOM     16  O   UNL     1      26.781   8.324  36.380  1.00  0.00    -0.550 OA
ATOM     17  O   UNL     1      28.292   6.599  36.349  1.00  0.00    -0.550 OA
ENDBRANCH  14  15
ENDBRANCH  13  14
ENDBRANCH  12  13
ENDBRANCH  11  12
ENDBRANCH  10  11
ENDBRANCH   9  10
ENDBRANCH   8   9
ENDBRANCH   7   8
ENDBRANCH   6   7
ENDBRANCH   5   6
ENDBRANCH   4   5
ENDBRANCH   3   4
ENDBRANCH   2   3
ENDBRANCH   1   2
BRANCH   1  18
ATOM     18  C   UNL     1      33.001  12.039  39.991  1.00  0.00     0.000 C 
BRANCH  18  19
ATOM     19  C   UNL     1      34.300  12.810  40.292  1.00  0.00     0.000 C 
BRANCH  19  20
ATOM     20  C   UNL     1      34.759  12.764  41.761  1.00  0.00     0.000 C 
BRANCH  20  21
ATOM     21  C   UNL     1      36.156  13.360  42.029  1.00  0.00     0.000 C 
BRANCH  21  22
ATOM     22  C   UNL     1      36.447  13.718  43.500  1.00  0.00     0.000 C 
BRANCH  22  23
ATOM     23  C   UNL     1      36.456  15.226  43.815  1.00  0.00     0.000 C 
BRANCH  23  24
ATOM     24  C   UNL     1      35.068  15.852  44.037  1.00  0.00    -0.000 C 
BRANCH  24  25
ATOM     25  C   UNL     1      34.802  17.061  43.128  1.00  0.00    -0.000 C 
BRANCH  25  26
ATOM     26  C   UNL     1      33.983  16.656  41.892  1.00  0.00    -0.000 C 
BRANCH  26  27
ATOM     27  C   UNL     1      33.829  17.813  40.882  1.00  0.00    -0.000 C 
BRANCH  27  28
ATOM     28  C   UNL     1      33.734  17.371  39.408  1.00  0.00    -0.000 C 
BRANCH  28  29
ATOM     29  C   UNL     1      33.054  18.367  38.447  1.00  0.00    -0.000 C 
BRANCH  29  30
ATOM     30  C   UNL     1      31.808  17.819  37.716  1.00  0.00    -0.000 C 
BRANCH  30  31
ATOM     31  C   UNL     1      30.697  18.861  37.505  1.00  0.00    -0.003 C 
ATOM     32  C   UNL     1      31.010  20.215  38.137  1.00  0.00     0.004 C 
ENDBRANCH  30  31
ENDBRANCH  29  30
ENDBRANCH  28  29
ENDBRANCH  27  28
ENDBRANCH  26  27
ENDBRANCH  25  26
ENDBRANCH  24  25
ENDBRANCH  23  24
ENDBRANCH  22  23
ENDBRANCH  21  22
ENDBRANCH  20  21
ENDBRANCH  19  20
ENDBRANCH  18  19
ENDBRANCH   1  18
TORSDOF 28
ENDMDL
MODEL 4
REMARK VINA RESULT:    16.489      3.748     10.704
REMARK INTER + INTRA:          41.535
REMARK INTER:                  44.002
REMARK INTRA:                  -2.467
REMARK UNBOUND:                -1.946
REMARK SMILES CCCCCCCCCCCCCCCCCCCCCCCCCCCCCC(=O)[O-]
REMARK SMILES IDX 16 1 17 2 18 3 19 4 20 5 21 6 22 7 23 8 24 9 25 10 26 11
REMARK SMILES IDX 27 12 28 13 29 14 30 15 31 16 32 17 15 18 14 19 13 20 12 21
REMARK SMILES IDX 11 22 10 23 9 24 8 25 7 26 6 27 5 28 4 29 3 30 2 31 1 32
REMARK H PARENT
REMARK Flexibility Score: inf
ROOT
ATOM      1  C   UNL     1      35.220  12.744  41.915  1.00  0.00     0.000 C 
ENDROOT
BRANCH   1   2
ATOM      2  C   UNL     1      34.741  12.936  40.467  1.00  0.00     0.000 C 
BRANCH   2   3
ATOM      3  C   UNL     1      33.372  12.290  40.201  1.00  0.00     0.000 C 
BRANCH   3   4
ATOM      4  C   UNL     1      33.163  11.001  41.016  1.00  0.00     0.000 C 
BRANCH   4   5
ATOM      5  C   UNL     1      32.717   9.812  40.147  1.00  0.00     0.000 C 
BRANCH   5   6
ATOM      6  C   UNL     1      33.894   9.123  39.433  1.00  0.00     0.000 C 
BRANCH   6   7
ATOM      7  C   UNL     1      35.205   9.223  40.232  1.00  0.00     0.000 C 
BRANCH   7   8
ATOM      8  C   UNL     1      35.179   8.353  41.498  1.00  0.00     0.000 C 
BRANCH   8   9
ATOM      9  C   UNL     1      35.800   6.963  41.279  1.00  0.00     0.000 C 
BRANCH   9  10
ATOM     10  C   UNL     1      34.859   5.800  41.660  1.00  0.00     0.000 C 
BRANCH  10  11
ATOM     11  C   UNL     1      33.564   5.804  40.827  1.00  0.00     0.000 C 
BRANCH  11  12
ATOM     12  C   UNL     1      32.626   4.633  41.168  1.00  0.00     0.000 C 
BRANCH  12  13
ATOM     13  C   UNL     1      31.144   4.977  40.951  1.00  0.00     0.006 C 
BRANCH  13  14
ATOM     14  C   UNL     1      30.442   5.279  42.279  1.00  0.00     0.053 C 
BRANCH  14  15
ATOM     15  C   UNL     1      29.157   6.006  42.036  1.00  0.00     0.041 C 
ATOM     16  O   UNL     1      28.064   5.498  42.400  1.00  0.00    -0.550 OA
ATOM     17  O   UNL     1      29.172   7.265  41.448  1.00  0.00    -0.550 OA
ENDBRANCH  14  15
ENDBRANCH  13  14
ENDBRANCH  12  13
ENDBRANCH  11  12
ENDBRANCH  10  11
ENDBRANCH   9  10
ENDBRANCH   8   9
ENDBRANCH   7   8
ENDBRANCH   6   7
ENDBRANCH   5   6
ENDBRANCH   4   5
ENDBRANCH   3   4
ENDBRANCH   2   3
ENDBRANCH   1   2
BRANCH   1  18
ATOM     18  C   UNL     1      36.628  13.334  42.148  1.00  0.00     0.000 C 
BRANCH  18  19
ATOM     19  C   UNL     1      36.712  14.268  43.371  1.00  0.00     0.000 C 
BRANCH  19  20
ATOM     20  C   UNL     1      35.356  14.768  43.902  1.00  0.00     0.000 C 
BRANCH  20  21
ATOM     21  C   UNL     1      34.939  16.171  43.417  1.00  0.00     0.000 C 
BRANCH  21  22
ATOM     22  C   UNL     1      36.049  17.240  43.464  1.00  0.00     0.000 C 
BRANCH  22  23
ATOM     23  C   UNL     1      35.578  18.653  43.851  1.00  0.00     0.000 C 
BRANCH  23  24
ATOM     24  C   UNL     1      35.038  19.502  42.686  1.00  0.00    -0.000 C 
BRANCH  24  25
ATOM     25  C   UNL     1      35.746  19.213  41.354  1.00  0.00    -0.000 C 
BRANCH  25  26
ATOM     26  C   UNL     1      34.729  18.960  40.229  1.00  0.00    -0.000 C 
BRANCH  26  27
ATOM     27  C   UNL     1      34.156  17.528  40.264  1.00  0.00    -0.000 C 
BRANCH  27  28
ATOM     28  C   UNL     1      33.014  17.268  39.261  1.00  0.00    -0.000 C 
BRANCH  28  29
ATOM     29  C   UNL     1      33.008  18.154  37.999  1.00  0.00    -0.000 C 
BRANCH  29  30
ATOM     30  C   UNL     1      31.692  18.125  37.190  1.00  0.00    -0.000 C 
BRANCH  30  31
ATOM     31  C   UNL     1      30.604  19.069  37.728  1.00  0.00    -0.003 C 
ATOM     32  C   UNL     1      31.140  20.440  38.133  1.00  0.00     0.004 C 
ENDBRANCH  30  31
ENDBRANCH  29  30
ENDBRANCH  28  29
ENDBRANCH  27  28
ENDBRANCH  26  27
ENDBRANCH  25  26
ENDBRANCH  24  25
ENDBRANCH  23  24
ENDBRANCH  22  23
ENDBRANCH  21  22
ENDBRANCH  20  21
ENDBRANCH  19  20
ENDBRANCH  18  19
ENDBRANCH   1  18
TORSDOF 28
ENDMDL
MODEL 5
REMARK VINA RESULT:    16.575      1.716      3.175
REMARK INTER + INTRA:          41.762
REMARK INTER:                  44.565
REMARK INTRA:                  -2.803
REMARK UNBOUND:                -1.946
REMARK SMILES CCCCCCCCCCCCCCCCCCCCCCCCCCCCCC(=O)[O-]
REMARK SMILES IDX 16 1 17 2 18 3 19 4 20 5 21 6 22 7 23 8 24 9 25 10 26 11
REMARK SMILES IDX 27 12 28 13 29 14 30 15 31 16 32 17 15 18 14 19 13 20 12 21
REMARK SMILES IDX 11 22 10 23 9 24 8 25 7 26 6 27 5 28 4 29 3 30 2 31 1 32
REMARK H PARENT
REMARK Flexibility Score: inf
ROOT
ATOM      1  C   UNL     1      32.700  12.019  41.446  1.00  0.00     0.000 C 
ENDROOT
BRANCH   1   2
ATOM      2  C   UNL     1      33.296  12.561  40.137  1.00  0.00     0.000 C 
BRANCH   2   3
ATOM      3  C   UNL     1      34.585  13.370  40.359  1.00  0.00     0.000 C 
BRANCH   3   4
ATOM      4  C   UNL     1      35.516  12.719  41.396  1.00  0.00     0.000 C 
BRANCH   4   5
ATOM      5  C   UNL     1      35.406  13.369  42.787  1.00  0.00     0.000 C 
BRANCH   5   6
ATOM      6  C   UNL     1      36.766  13.847  43.329  1.00  0.00     0.000 C 
BRANCH   6   7
ATOM      7  C   UNL     1      36.727  15.307  43.810  1.00  0.00     0.000 C 
BRANCH   7   8
ATOM      8  C   UNL     1      35.298  15.772  44.133  1.00  0.00     0.000 C 
BRANCH   8   9
ATOM      9  C   UNL     1      34.859  16.978  43.287  1.00  0.00     0.000 C 
BRANCH   9  10
ATOM     10  C   UNL     1      33.774  16.637  42.242  1.00  0.00     0.000 C 
BRANCH  10  11
ATOM     11  C   UNL     1      33.761  17.635  41.071  1.00  0.00     0.000 C 
BRANCH  11  12
ATOM     12  C   UNL     1      34.110  16.984  39.721  1.00  0.00     0.000 C 
BRANCH  12  13
ATOM     13  C   UNL     1      33.693  17.847  38.520  1.00  0.00     0.006 C 
BRANCH  13  14
ATOM     14  C   UNL     1      32.519  18.766  38.875  1.00  0.00     0.053 C 
BRANCH  14  15
ATOM     15  C   UNL     1      31.445  18.664  37.839  1.00  0.00     0.041 C 
ATOM     16  O   UNL     1      30.652  19.625  37.652  1.00  0.00    -0.550 OA
ATOM     17  O   UNL     1      31.347  17.524  37.050  1.00  0.00    -0.550 OA
ENDBRANCH  14  15
ENDBRANCH  13  14
ENDBRANCH  12  13
ENDBRANCH  11  12
ENDBRANCH  10  11
ENDBRANCH   9  10
ENDBRANCH   8   9
ENDBRANCH   7   8
ENDBRANCH   6   7
ENDBRANCH   5   6
ENDBRANCH   4   5
ENDBRANCH   3   4
ENDBRANCH   2   3
ENDBRANCH   1   2
BRANCH   1  18
ATOM     18  C   UNL     1      32.560  10.481  41.432  1.00  0.00     0.000 C 
BRANCH  18  19
ATOM     19  C   UNL     1      32.327   9.895  40.026  1.00  0.00     0.000 C 
BRANCH  19  20
ATOM     20  C   UNL     1      33.500   9.070  39.463  1.00  0.00     0.000 C 
BRANCH  20  21
ATOM     21  C   UNL     1      34.870   9.777  39.489  1.00  0.00     0.000 C 
BRANCH  21  22
ATOM     22  C   UNL     1      35.897   9.187  40.475  1.00  0.00     0.000 C 
BRANCH  22  23
ATOM     23  C   UNL     1      35.340   8.122  41.437  1.00  0.00     0.000 C 
BRANCH  23  24
ATOM     24  C   UNL     1      36.303   6.963  41.754  1.00  0.00    -0.000 C 
BRANCH  24  25
ATOM     25  C   UNL     1      35.718   5.586  41.408  1.00  0.00    -0.000 C 
BRANCH  25  26
ATOM     26  C   UNL     1      34.236   5.497  41.805  1.00  0.00    -0.000 C 
BRANCH  26  27
ATOM     27  C   UNL     1      33.302   5.412  40.579  1.00  0.00    -0.000 C 
BRANCH  27  28
ATOM     28  C   UNL     1      31.935   4.756  40.857  1.00  0.00    -0.000 C 
BRANCH  28  29
ATOM     29  C   UNL     1      31.129   5.343  42.033  1.00  0.00    -0.000 C 
BRANCH  29  30
ATOM     30  C   UNL     1      29.628   4.978  42.040  1.00  0.00    -0.000 C 
BRANCH  30  31
ATOM     31  C   UNL     1      28.688   6.192  42.128  1.00  0.00    -0.003 C 
ATOM     32  C   UNL     1      29.196   7.407  41.355  1.00  0.00     0.004 C 
ENDBRANCH  30  31
ENDBRANCH  29  30
ENDBRANCH  28  29
ENDBRANCH  27  28
ENDBRANCH  26  27
ENDBRANCH  25  26
ENDBRANCH  24  25
ENDBRANCH  23  24
ENDBRANCH  22  23
ENDBRANCH  21  22
ENDBRANCH  20  21
ENDBRANCH  19  20
ENDBRANCH  18  19
ENDBRANCH   1  18
TORSDOF 28
ENDMDL
MODEL 6
REMARK VINA RESULT:    16.661      3.150      9.894
REMARK INTER + INTRA:          41.988
REMARK INTER:                  44.060
REMARK INTRA:                  -2.073
REMARK UNBOUND:                -1.946
REMARK SMILES CCCCCCCCCCCCCCCCCCCCCCCCCCCCCC(=O)[O-]
REMARK SMILES IDX 16 1 17 2 18 3 19 4 20 5 21 6 22 7 23 8 24 9 25 10 26 11
REMARK SMILES IDX 27 12 28 13 29 14 30 15 31 16 32 17 15 18 14 19 13 20 12 21
REMARK SMILES IDX 11 22 10 23 9 24 8 25 7 26 6 27 5 28 4 29 3 30 2 31 1 32
REMARK H PARENT
REMARK Flexibility Score: inf
ROOT
ATOM      1  C   UNL     1      33.018   9.834  39.375  1.00  0.00     0.000 C 
ENDROOT
BRANCH   1   2
ATOM      2  C   UNL     1      34.335   9.041  39.351  1.00  0.00     0.000 C 
BRANCH   2   3
ATOM      3  C   UNL     1      34.446   8.035  40.508  1.00  0.00     0.000 C 
BRANCH   3   4
ATOM      4  C   UNL     1      33.919   6.641  40.127  1.00  0.00     0.000 C 
BRANCH   4   5
ATOM      5  C   UNL     1      33.841   5.683  41.329  1.00  0.00     0.000 C 
BRANCH   5   6
ATOM      6  C   UNL     1      32.610   4.760  41.273  1.00  0.00     0.000 C 
BRANCH   6   7
ATOM      7  C   UNL     1      31.311   5.529  40.980  1.00  0.00     0.000 C 
BRANCH   7   8
ATOM      8  C   UNL     1      30.250   5.313  42.071  1.00  0.00     0.000 C 
BRANCH   8   9
ATOM      9  C   UNL     1      29.056   6.273  41.940  1.00  0.00     0.000 C 
BRANCH   9  10
ATOM     10  C   UNL     1      29.376   7.547  41.128  1.00  0.00     0.000 C 
BRANCH  10  11
ATOM     11  C   UNL     1      28.911   7.434  39.664  1.00  0.00     0.000 C 
BRANCH  11  12
ATOM     12  C   UNL     1      29.107   8.737  38.869  1.00  0.00     0.000 C 
BRANCH  12  13
ATOM     13  C   UNL     1      28.291   8.765  37.567  1.00  0.00     0.006 C 
BRANCH  13  14
ATOM     14  C   UNL     1      28.727   7.650  36.612  1.00  0.00     0.053 C 
BRANCH  14  15
ATOM     15  C   UNL     1      27.565   6.769  36.273  1.00  0.00     0.041 C 
ATOM     16  O   UNL     1      26.596   7.227  35.612  1.00  0.00    -0.550 OA
ATOM     17  O   UNL     1      27.575   5.432  36.649  1.00  0.00    -0.550 OA
ENDBRANCH  14  15
ENDBRANCH  13  14
ENDBRANCH  12  13
ENDBRANCH  11  12
ENDBRANCH  10  11
ENDBRANCH   9  10
ENDBRANCH   8   9
ENDBRANCH   7   8
ENDBRANCH   6   7
ENDBRANCH   5   6
ENDBRANCH   4   5
ENDBRANCH   3   4
ENDBRANCH   2   3
ENDBRANCH   1   2
BRANCH   1  18
ATOM     18  C   UNL     1      32.547  10.140  40.814  1.00  0.00     0.000 C 
BRANCH  18  19
ATOM     19  C   UNL     1      33.026  11.505  41.344  1.00  0.00     0.000 C 
BRANCH  19  20
ATOM     20  C   UNL     1      33.967  12.276  40.400  1.00  0.00     0.000 C 
BRANCH  20  21
ATOM     21  C   UNL     1      35.193  12.919  41.079  1.00  0.00     0.000 C 
BRANCH  21  22
ATOM     22  C   UNL     1      35.113  13.029  42.614  1.00  0.00     0.000 C 
BRANCH  22  23
ATOM     23  C   UNL     1      36.332  13.687  43.286  1.00  0.00     0.000 C 
BRANCH  23  24
ATOM     24  C   UNL     1      36.233  15.213  43.466  1.00  0.00    -0.000 C 
BRANCH  24  25
ATOM     25  C   UNL     1      34.842  15.768  43.124  1.00  0.00    -0.000 C 
BRANCH  25  26
ATOM     26  C   UNL     1      34.801  17.296  43.284  1.00  0.00    -0.000 C 
BRANCH  26  27
ATOM     27  C   UNL     1      34.432  18.016  41.970  1.00  0.00    -0.000 C 
BRANCH  27  28
ATOM     28  C   UNL     1      33.845  17.100  40.878  1.00  0.00    -0.000 C 
BRANCH  28  29
ATOM     29  C   UNL     1      33.672  17.736  39.484  1.00  0.00    -0.000 C 
BRANCH  29  30
ATOM     30  C   UNL     1      32.396  18.589  39.312  1.00  0.00    -0.000 C 
BRANCH  30  31
ATOM     31  C   UNL     1      31.931  18.735  37.853  1.00  0.00    -0.003 C 
ATOM     32  C   UNL     1      31.155  17.523  37.342  1.00  0.00     0.004 C 
ENDBRANCH  30  31
ENDBRANCH  29  30
ENDBRANCH  28  29
ENDBRANCH  27  28
ENDBRANCH  26  27
ENDBRANCH  25  26
ENDBRANCH  24  25
ENDBRANCH  23  24
ENDBRANCH  22  23
ENDBRANCH  21  22
ENDBRANCH  20  21
ENDBRANCH  19  20
ENDBRANCH  18  19
ENDBRANCH   1  18
TORSDOF 28
ENDMDL
MODEL 7
REMARK VINA RESULT:    16.846      3.776     10.482
REMARK INTER + INTRA:          42.475
REMARK INTER:                  44.469
REMARK INTRA:                  -1.994
REMARK UNBOUND:                -1.946
REMARK SMILES CCCCCCCCCCCCCCCCCCCCCCCCCCCCCC(=O)[O-]
REMARK SMILES IDX 16 1 17 2 18 3 19 4 20 5 21 6 22 7 23 8 24 9 25 10 26 11
REMARK SMILES IDX 27 12 28 13 29 14 30 15 31 16 32 17 15 18 14 19 13 20 12 21
REMARK SMILES IDX 11 22 10 23 9 24 8 25 7 26 6 27 5 28 4 29 3 30 2 31 1 32
REMARK H PARENT
REMARK Flexibility Score: inf
ROOT
ATOM      1  C   UNL     1      33.153  12.411  39.930  1.00  0.00     0.000 C 
ENDROOT
BRANCH   1   2
ATOM      2  C   UNL     1      32.944  11.279  40.950  1.00  0.00     0.000 C 
BRANCH   2   3
ATOM      3  C   UNL     1      32.227  10.060  40.347  1.00  0.00     0.000 C 
BRANCH   3   4
ATOM      4  C   UNL     1      33.206   8.946  39.938  1.00  0.00     0.000 C 
BRANCH   4   5
ATOM      5  C   UNL     1      34.557   9.492  39.442  1.00  0.00     0.000 C 
BRANCH   5   6
ATOM      6  C   UNL     1      35.736   9.061  40.335  1.00  0.00     0.000 C 
BRANCH   6   7
ATOM      7  C   UNL     1      35.277   8.265  41.568  1.00  0.00     0.000 C 
BRANCH   7   8
ATOM      8  C   UNL     1      36.148   7.021  41.810  1.00  0.00     0.000 C 
BRANCH   8   9
ATOM      9  C   UNL     1      35.351   5.710  41.720  1.00  0.00     0.000 C 
BRANCH   9  10
ATOM     10  C   UNL     1      33.926   5.892  41.153  1.00  0.00     0.000 C 
BRANCH  10  11
ATOM     11  C   UNL     1      33.258   4.546  40.818  1.00  0.00     0.000 C 
BRANCH  11  12
ATOM     12  C   UNL     1      31.721   4.620  40.823  1.00  0.00     0.000 C 
BRANCH  12  13
ATOM     13  C   UNL     1      31.178   5.617  41.859  1.00  0.00     0.006 C 
BRANCH  13  14
ATOM     14  C   UNL     1      29.868   5.120  42.477  1.00  0.00     0.053 C 
BRANCH  14  15
ATOM     15  C   UNL     1      28.714   5.930  41.974  1.00  0.00     0.041 C 
ATOM     16  O   UNL     1      28.907   7.079  41.496  1.00  0.00    -0.550 OA
ATOM     17  O   UNL     1      27.431   5.397  41.993  1.00  0.00    -0.550 OA
ENDBRANCH  14  15
ENDBRANCH  13  14
ENDBRANCH  12  13
ENDBRANCH  11  12
ENDBRANCH  10  11
ENDBRANCH   9  10
ENDBRANCH   8   9
ENDBRANCH   7   8
ENDBRANCH   6   7
ENDBRANCH   5   6
ENDBRANCH   4   5
ENDBRANCH   3   4
ENDBRANCH   2   3
ENDBRANCH   1   2
BRANCH   1  18
ATOM     18  C   UNL     1      34.512  13.122  40.117  1.00  0.00     0.000 C 
BRANCH  18  19
ATOM     19  C   UNL     1      35.267  12.686  41.387  1.00  0.00     0.000 C 
BRANCH  19  20
ATOM     20  C   UNL     1      35.012  13.561  42.629  1.00  0.00     0.000 C 
BRANCH  20  21
ATOM     21  C   UNL     1      36.265  13.889  43.467  1.00  0.00     0.000 C 
BRANCH  21  22
ATOM     22  C   UNL     1      36.607  15.388  43.579  1.00  0.00     0.000 C 
BRANCH  22  23
ATOM     23  C   UNL     1      35.422  16.303  43.935  1.00  0.00     0.000 C 
BRANCH  23  24
ATOM     24  C   UNL     1      35.810  17.695  44.465  1.00  0.00    -0.000 C 
BRANCH  24  25
ATOM     25  C   UNL     1      35.102  18.839  43.724  1.00  0.00    -0.000 C 
BRANCH  25  26
ATOM     26  C   UNL     1      35.501  18.869  42.240  1.00  0.00    -0.000 C 
BRANCH  26  27
ATOM     27  C   UNL     1      34.465  18.167  41.337  1.00  0.00    -0.000 C 
BRANCH  27  28
ATOM     28  C   UNL     1      34.712  18.333  39.824  1.00  0.00    -0.000 C 
BRANCH  28  29
ATOM     29  C   UNL     1      33.665  17.689  38.894  1.00  0.00    -0.000 C 
BRANCH  29  30
ATOM     30  C   UNL     1      32.306  18.423  38.838  1.00  0.00    -0.000 C 
BRANCH  30  31
ATOM     31  C   UNL     1      31.570  18.278  37.495  1.00  0.00    -0.003 C 
ATOM     32  C   UNL     1      30.402  19.249  37.338  1.00  0.00     0.004 C 
ENDBRANCH  30  31
ENDBRANCH  29  30
ENDBRANCH  28  29
ENDBRANCH  27  28
ENDBRANCH  26  27
ENDBRANCH  25  26
ENDBRANCH  24  25
ENDBRANCH  23  24
ENDBRANCH  22  23
ENDBRANCH  21  22
ENDBRANCH  20  21
ENDBRANCH  19  20
ENDBRANCH  18  19
ENDBRANCH   1  18
TORSDOF 28
ENDMDL
MODEL 8
REMARK VINA RESULT:    16.985      3.331     10.857
REMARK INTER + INTRA:          42.842
REMARK INTER:                  45.263
REMARK INTRA:                  -2.421
REMARK UNBOUND:                -1.946
REMARK SMILES CCCCCCCCCCCCCCCCCCCCCCCCCCCCCC(=O)[O-]
REMARK SMILES IDX 16 1 17 2 18 3 19 4 20 5 21 6 22 7 23 8 24 9 25 10 26 11
REMARK SMILES IDX 27 12 28 13 29 14 30 15 31 16 32 17 15 18 14 19 13 20 12 21
REMARK SMILES IDX 11 22 10 23 9 24 8 25 7 26 6 27 5 28 4 29 3 30 2 31 1 32
REMARK H PARENT
REMARK Flexibility Score: inf
ROOT
ATOM      1  C   UNL     1      33.195  11.370  40.902  1.00  0.00     0.000 C 
ENDROOT
BRANCH   1   2
ATOM      2  C   UNL     1      33.911  10.089  40.445  1.00  0.00     0.000 C 
BRANCH   2   3
ATOM      3  C   UNL     1      33.032   9.206  39.544  1.00  0.00     0.000 C 
BRANCH   3   4
ATOM      4  C   UNL     1      31.539   9.561  39.648  1.00  0.00     0.000 C 
BRANCH   4   5
ATOM      5  C   UNL     1      30.838   9.603  38.279  1.00  0.00     0.000 C 
BRANCH   5   6
ATOM      6  C   UNL     1      29.683   8.591  38.171  1.00  0.00     0.000 C 
BRANCH   6   7
ATOM      7  C   UNL     1      28.346   9.261  37.813  1.00  0.00     0.000 C 
BRANCH   7   8
ATOM      8  C   UNL     1      27.592   8.497  36.713  1.00  0.00     0.000 C 
BRANCH   8   9
ATOM      9  C   UNL     1      28.334   7.232  36.250  1.00  0.00     0.000 C 
BRANCH   9  10
ATOM     10  C   UNL     1      27.408   6.015  36.043  1.00  0.00     0.000 C 
BRANCH  10  11
ATOM     11  C   UNL     1      27.251   5.179  37.327  1.00  0.00     0.000 C 
BRANCH  11  12
ATOM     12  C   UNL     1      28.541   5.114  38.163  1.00  0.00     0.000 C 
BRANCH  12  13
ATOM     13  C   UNL     1      28.266   5.060  39.674  1.00  0.00     0.006 C 
BRANCH  13  14
ATOM     14  C   UNL     1      29.510   5.444  40.480  1.00  0.00     0.053 C 
BRANCH  14  15
ATOM     15  C   UNL     1      29.122   6.202  41.710  1.00  0.00     0.041 C 
ATOM     16  O   UNL     1      28.858   5.586  42.777  1.00  0.00    -0.550 OA
ATOM     17  O   UNL     1      29.093   7.591  41.689  1.00  0.00    -0.550 OA
ENDBRANCH  14  15
ENDBRANCH  13  14
ENDBRANCH  12  13
ENDBRANCH  11  12
ENDBRANCH  10  11
ENDBRANCH   9  10
ENDBRANCH   8   9
ENDBRANCH   7   8
ENDBRANCH   6   7
ENDBRANCH   5   6
ENDBRANCH   4   5
ENDBRANCH   3   4
ENDBRANCH   2   3
ENDBRANCH   1   2
BRANCH   1  18
ATOM     18  C   UNL     1      33.638  12.608  40.091  1.00  0.00     0.000 C 
BRANCH  18  19
ATOM     19  C   UNL     1      34.916  13.277  40.634  1.00  0.00     0.000 C 
BRANCH  19  20
ATOM     20  C   UNL     1      35.234  12.973  42.110  1.00  0.00     0.000 C 
BRANCH  20  21
ATOM     21  C   UNL     1      36.613  13.460  42.597  1.00  0.00     0.000 C 
BRANCH  21  22
ATOM     22  C   UNL     1      36.580  14.534  43.701  1.00  0.00     0.000 C 
BRANCH  22  23
ATOM     23  C   UNL     1      35.188  15.121  44.000  1.00  0.00     0.000 C 
BRANCH  23  24
ATOM     24  C   UNL     1      35.185  16.589  44.462  1.00  0.00    -0.000 C 
BRANCH  24  25
ATOM     25  C   UNL     1      35.103  17.585  43.296  1.00  0.00    -0.000 C 
BRANCH  25  26
ATOM     26  C   UNL     1      34.429  16.949  42.069  1.00  0.00    -0.000 C 
BRANCH  26  27
ATOM     27  C   UNL     1      34.163  17.974  40.947  1.00  0.00    -0.000 C 
BRANCH  27  28
ATOM     28  C   UNL     1      33.581  17.373  39.652  1.00  0.00    -0.000 C 
BRANCH  28  29
ATOM     29  C   UNL     1      32.823  18.352  38.733  1.00  0.00    -0.000 C 
BRANCH  29  30
ATOM     30  C   UNL     1      31.883  17.684  37.705  1.00  0.00    -0.000 C 
BRANCH  30  31
ATOM     31  C   UNL     1      30.715  18.577  37.252  1.00  0.00    -0.003 C 
ATOM     32  C   UNL     1      30.861  20.032  37.691  1.00  0.00     0.004 C 
ENDBRANCH  30  31
ENDBRANCH  29  30
ENDBRANCH  28  29
ENDBRANCH  27  28
ENDBRANCH  26  27
ENDBRANCH  25  26
ENDBRANCH  24  25
ENDBRANCH  23  24
ENDBRANCH  22  23
ENDBRANCH  21  22
ENDBRANCH  20  21
ENDBRANCH  19  20
ENDBRANCH  18  19
ENDBRANCH   1  18
TORSDOF 28
ENDMDL
MODEL 9
REMARK VINA RESULT:    17.165      0.773      1.338
REMARK INTER + INTRA:          43.318
REMARK INTER:                  45.474
REMARK INTRA:                  -2.156
REMARK UNBOUND:                -1.946
REMARK SMILES CCCCCCCCCCCCCCCCCCCCCCCCCCCCCC(=O)[O-]
REMARK SMILES IDX 16 1 17 2 18 3 19 4 20 5 21 6 22 7 23 8 24 9 25 10 26 11
REMARK SMILES IDX 27 12 28 13 29 14 30 15 31 16 32 17 15 18 14 19 13 20 12 21
REMARK SMILES IDX 11 22 10 23 9 24 8 25 7 26 6 27 5 28 4 29 3 30 2 31 1 32
REMARK H PARENT
REMARK Flexibility Score: inf
ROOT
ATOM      1  C   UNL     1      32.978  12.134  41.042  1.00  0.00     0.000 C 
ENDROOT
BRANCH   1   2
ATOM      2  C   UNL     1      34.082  12.466  40.025  1.00  0.00     0.000 C 
BRANCH   2   3
ATOM      3  C   UNL     1      35.322  13.100  40.677  1.00  0.00     0.000 C 
BRANCH   3   4
ATOM      4  C   UNL     1      35.301  12.986  42.212  1.00  0.00     0.000 C 
BRANCH   4   5
ATOM      5  C   UNL     1      36.561  13.574  42.870  1.00  0.00     0.000 C 
BRANCH   5   6
ATOM      6  C   UNL     1      36.270  14.860  43.667  1.00  0.00     0.000 C 
BRANCH   6   7
ATOM      7  C   UNL     1      34.838  15.375  43.448  1.00  0.00     0.000 C 
BRANCH   7   8
ATOM      8  C   UNL     1      34.677  16.840  43.883  1.00  0.00     0.000 C 
BRANCH   8   9
ATOM      9  C   UNL     1      35.768  17.756  43.305  1.00  0.00     0.000 C 
BRANCH   9  10
ATOM     10  C   UNL     1      35.231  18.790  42.291  1.00  0.00     0.000 C 
BRANCH  10  11
ATOM     11  C   UNL     1      34.218  18.170  41.311  1.00  0.00     0.000 C 
BRANCH  11  12
ATOM     12  C   UNL     1      34.659  18.279  39.841  1.00  0.00     0.000 C 
BRANCH  12  13
ATOM     13  C   UNL     1      33.571  17.815  38.860  1.00  0.00     0.006 C 
BRANCH  13  14
ATOM     14  C   UNL     1      32.254  18.561  39.096  1.00  0.00     0.053 C 
BRANCH  14  15
ATOM     15  C   UNL     1      31.444  18.601  37.838  1.00  0.00     0.041 C 
ATOM     16  O   UNL     1      31.096  17.529  37.274  1.00  0.00    -0.550 OA
ATOM     17  O   UNL     1      31.038  19.821  37.312  1.00  0.00    -0.550 OA
ENDBRANCH  14  15
ENDBRANCH  13  14
ENDBRANCH  12  13
ENDBRANCH  11  12
ENDBRANCH  10  11
ENDBRANCH   9  10
ENDBRANCH   8   9
ENDBRANCH   7   8
ENDBRANCH   6   7
ENDBRANCH   5   6
ENDBRANCH   4   5
ENDBRANCH   3   4
ENDBRANCH   2   3
ENDBRANCH   1   2
BRANCH   1  18
ATOM     18  C   UNL     1      32.741  10.613  41.170  1.00  0.00     0.000 C 
BRANCH  18  19
ATOM     19  C   UNL     1      33.103   9.822  39.899  1.00  0.00     0.000 C 
BRANCH  19  20
ATOM     20  C   UNL     1      34.126   8.689  40.107  1.00  0.00     0.000 C 
BRANCH  20  21
ATOM     21  C   UNL     1      33.668   7.297  39.625  1.00  0.00     0.000 C 
BRANCH  21  22
ATOM     22  C   UNL     1      34.071   6.121  40.535  1.00  0.00     0.000 C 
BRANCH  22  23
ATOM     23  C   UNL     1      33.032   5.739  41.607  1.00  0.00     0.000 C 
BRANCH  23  24
ATOM     24  C   UNL     1      31.726   5.135  41.062  1.00  0.00    -0.000 C 
BRANCH  24  25
ATOM     25  C   UNL     1      30.614   5.058  42.117  1.00  0.00    -0.000 C 
BRANCH  25  26
ATOM     26  C   UNL     1      29.255   5.461  41.522  1.00  0.00    -0.000 C 
BRANCH  26  27
ATOM     27  C   UNL     1      29.015   6.984  41.579  1.00  0.00    -0.000 C 
BRANCH  27  28
ATOM     28  C   UNL     1      29.600   7.772  40.390  1.00  0.00    -0.000 C 
BRANCH  28  29
ATOM     29  C   UNL     1      28.576   8.383  39.413  1.00  0.00    -0.000 C 
BRANCH  29  30
ATOM     30  C   UNL     1      29.157   8.822  38.051  1.00  0.00    -0.000 C 
BRANCH  30  31
ATOM     31  C   UNL     1      28.214   8.580  36.860  1.00  0.00    -0.003 C 
ATOM     32  C   UNL     1      27.988   7.100  36.560  1.00  0.00     0.004 C 
ENDBRANCH  30  31
ENDBRANCH  29  30
ENDBRANCH  28  29
ENDBRANCH  27  28
ENDBRANCH  26  27
ENDBRANCH  25  26
ENDBRANCH  24  25
ENDBRANCH  23  24
ENDBRANCH  22  23
ENDBRANCH  21  22
ENDBRANCH  20  21
ENDBRANCH  19  20
ENDBRANCH  18  19
ENDBRANCH   1  18
TORSDOF 28
ENDMDL
