MODEL 1
REMARK VINA RESULT:    -4.247      0.000      0.000
REMARK INTER + INTRA:          -9.229
REMARK INTER:                  -7.724
REMARK INTRA:                  -1.505
REMARK UNBOUND:                -1.505
REMARK SMILES CCCCCCCCCCCCCCCC(=O)[O-]
REMARK SMILES IDX 9 1 10 2 11 3 12 4 13 5 14 6 15 7 16 8 17 9 18 10 8 11 7 12
REMARK SMILES IDX 6 13 5 14 4 15 3 16 2 17 1 18
REMARK H PARENT
REMARK Flexibility Score: inf
ROOT
ATOM      1  C   UNL     1     -21.059 -14.957  24.533  1.00  0.00     0.000 C 
ENDROOT
BRANCH   1   2
ATOM      2  C   UNL     1     -19.723 -14.736  25.262  1.00  0.00     0.000 C 
BRANCH   2   3
ATOM      3  C   UNL     1     -19.035 -16.053  25.652  1.00  0.00     0.000 C 
BRANCH   3   4
ATOM      4  C   UNL     1     -19.862 -17.261  25.195  1.00  0.00     0.000 C 
BRANCH   4   5
ATOM      5  C   UNL     1     -18.953 -18.398  24.706  1.00  0.00     0.000 C 
BRANCH   5   6
ATOM      6  C   UNL     1     -17.721 -17.888  23.935  1.00  0.00     0.006 C 
BRANCH   6   7
ATOM      7  C   UNL     1     -16.892 -18.995  23.266  1.00  0.00     0.053 C 
BRANCH   7   8
ATOM      8  C   UNL     1     -16.680 -18.735  21.807  1.00  0.00     0.041 C 
ATOM      9  O   UNL     1     -16.232 -19.644  21.059  1.00  0.00    -0.550 OA
ATOM     10  O   UNL     1     -17.009 -17.498  21.265  1.00  0.00    -0.550 OA
ENDBRANCH   7   8
ENDBRANCH   6   7
ENDBRANCH   5   6
ENDBRANCH   4   5
ENDBRANCH   3   4
ENDBRANCH   2   3
ENDBRANCH   1   2
BRANCH   1  11
ATOM     11  C   UNL     1     -21.021 -14.471  23.073  1.00  0.00     0.000 C 
BRANCH  11  12
ATOM     12  C   UNL     1     -21.183 -15.620  22.065  1.00  0.00    -0.000 C 
BRANCH  12  13
ATOM     13  C   UNL     1     -20.038 -15.680  21.042  1.00  0.00    -0.000 C 
BRANCH  13  14
ATOM     14  C   UNL     1     -19.622 -14.270  20.601  1.00  0.00    -0.000 C 
BRANCH  14  15
ATOM     15  C   UNL     1     -18.119 -14.001  20.789  1.00  0.00    -0.000 C 
BRANCH  15  16
ATOM     16  C   UNL     1     -17.724 -12.510  20.848  1.00  0.00    -0.000 C 
BRANCH  16  17
ATOM     17  C   UNL     1     -18.769 -11.588  21.500  1.00  0.00    -0.003 C 
ATOM     18  C   UNL     1     -18.561 -10.114  21.153  1.00  0.00     0.004 C 
ENDBRANCH  16  17
ENDBRANCH  15  16
ENDBRANCH  14  15
ENDBRANCH  13  14
ENDBRANCH  12  13
ENDBRANCH  11  12
ENDBRANCH   1  11
TORSDOF 14
ENDMDL
MODEL 2
REMARK VINA RESULT:    -4.245      2.347      3.584
REMARK INTER + INTRA:          -9.225
REMARK INTER:                  -8.305
REMARK INTRA:                  -0.920
REMARK UNBOUND:                -1.505
REMARK SMILES CCCCCCCCCCCCCCCC(=O)[O-]
REMARK SMILES IDX 9 1 10 2 11 3 12 4 13 5 14 6 15 7 16 8 17 9 18 10 8 11 7 12
REMARK SMILES IDX 6 13 5 14 4 15 3 16 2 17 1 18
REMARK H PARENT
REMARK Flexibility Score: inf
ROOT
ATOM      1  C   UNL     1     -17.257 -18.084  22.394  1.00  0.00     0.000 C 
ENDROOT
BRANCH   1   2
ATOM      2  C   UNL     1     -17.605 -18.339  23.870  1.00  0.00     0.000 C 
BRANCH   2   3
ATOM      3  C   UNL     1     -16.987 -19.637  24.410  1.00  0.00     0.000 C 
BRANCH   3   4
ATOM      4  C   UNL     1     -15.456 -19.558  24.409  1.00  0.00     0.000 C 
BRANCH   4   5
ATOM      5  C   UNL     1     -14.842 -20.761  23.678  1.00  0.00     0.000 C 
BRANCH   5   6
ATOM      6  C   UNL     1     -14.361 -20.416  22.257  1.00  0.00     0.006 C 
BRANCH   6   7
ATOM      7  C   UNL     1     -14.652 -21.502  21.209  1.00  0.00     0.053 C 
BRANCH   7   8
ATOM      8  C   UNL     1     -16.119 -21.653  20.949  1.00  0.00     0.041 C 
ATOM      9  O   UNL     1     -16.753 -22.627  21.434  1.00  0.00    -0.550 OA
ATOM     10  O   UNL     1     -16.795 -20.697  20.199  1.00  0.00    -0.550 OA
ENDBRANCH   7   8
ENDBRANCH   6   7
ENDBRANCH   5   6
ENDBRANCH   4   5
ENDBRANCH   3   4
ENDBRANCH   2   3
ENDBRANCH   1   2
BRANCH   1  11
ATOM     11  C   UNL     1     -17.921 -16.809  21.843  1.00  0.00     0.000 C 
BRANCH  11  12
ATOM     12  C   UNL     1     -17.154 -16.214  20.651  1.00  0.00    -0.000 C 
BRANCH  12  13
ATOM     13  C   UNL     1     -17.495 -14.737  20.402  1.00  0.00    -0.000 C 
BRANCH  13  14
ATOM     14  C   UNL     1     -18.961 -14.446  20.753  1.00  0.00    -0.000 C 
BRANCH  14  15
ATOM     15  C   UNL     1     -19.251 -12.944  20.925  1.00  0.00    -0.000 C 
BRANCH  15  16
ATOM     16  C   UNL     1     -18.023 -12.021  20.777  1.00  0.00    -0.000 C 
BRANCH  16  17
ATOM     17  C   UNL     1     -18.341 -10.515  20.758  1.00  0.00    -0.003 C 
ATOM     18  C   UNL     1     -18.274  -9.876  22.144  1.00  0.00     0.004 C 
ENDBRANCH  16  17
ENDBRANCH  15  16
ENDBRANCH  14  15
ENDBRANCH  13  14
ENDBRANCH  12  13
ENDBRANCH  11  12
ENDBRANCH   1  11
TORSDOF 14
ENDMDL
MODEL 3
REMARK VINA RESULT:    -4.207      3.868      7.743
REMARK INTER + INTRA:          -9.156
REMARK INTER:                  -7.945
REMARK INTRA:                  -1.211
REMARK UNBOUND:                -1.505
REMARK SMILES CCCCCCCCCCCCCCCC(=O)[O-]
REMARK SMILES IDX 9 1 10 2 11 3 12 4 13 5 14 6 15 7 16 8 17 9 18 10 8 11 7 12
REMARK SMILES IDX 6 13 5 14 4 15 3 16 2 17 1 18
REMARK H PARENT
REMARK Flexibility Score: inf
ROOT
ATOM      1  C   UNL     1     -15.740 -18.083  20.487  1.00  0.00     0.000 C 
ENDROOT
BRANCH   1   2
ATOM      2  C   UNL     1     -17.222 -18.057  20.896  1.00  0.00     0.000 C 
BRANCH   2   3
ATOM      3  C   UNL     1     -17.621 -16.750  21.598  1.00  0.00     0.000 C 
BRANCH   3   4
ATOM      4  C   UNL     1     -18.174 -15.734  20.591  1.00  0.00     0.000 C 
BRANCH   4   5
ATOM      5  C   UNL     1     -17.046 -14.880  19.994  1.00  0.00     0.000 C 
BRANCH   5   6
ATOM      6  C   UNL     1     -17.125 -13.403  20.421  1.00  0.00     0.006 C 
BRANCH   6   7
ATOM      7  C   UNL     1     -18.510 -12.961  20.920  1.00  0.00     0.053 C 
BRANCH   7   8
ATOM      8  C   UNL     1     -18.584 -11.482  21.140  1.00  0.00     0.041 C 
ATOM      9  O   UNL     1     -19.182 -10.746  20.311  1.00  0.00    -0.550 OA
ATOM     10  O   UNL     1     -18.021 -10.919  22.279  1.00  0.00    -0.550 OA
ENDBRANCH   7   8
ENDBRANCH   6   7
ENDBRANCH   5   6
ENDBRANCH   4   5
ENDBRANCH   3   4
ENDBRANCH   2   3
ENDBRANCH   1   2
BRANCH   1  11
ATOM     11  C   UNL     1     -14.948 -19.189  21.208  1.00  0.00     0.000 C 
BRANCH  11  12
ATOM     12  C   UNL     1     -15.394 -19.378  22.667  1.00  0.00    -0.000 C 
BRANCH  12  13
ATOM     13  C   UNL     1     -15.865 -20.810  22.965  1.00  0.00    -0.000 C 
BRANCH  13  14
ATOM     14  C   UNL     1     -15.472 -21.764  21.828  1.00  0.00    -0.000 C 
BRANCH  14  15
ATOM     15  C   UNL     1     -16.688 -22.354  21.092  1.00  0.00    -0.000 C 
BRANCH  15  16
ATOM     16  C   UNL     1     -16.554 -22.420  19.557  1.00  0.00    -0.000 C 
BRANCH  16  17
ATOM     17  C   UNL     1     -17.766 -21.884  18.775  1.00  0.00    -0.003 C 
ATOM     18  C   UNL     1     -17.553 -20.467  18.244  1.00  0.00     0.004 C 
ENDBRANCH  16  17
ENDBRANCH  15  16
ENDBRANCH  14  15
ENDBRANCH  13  14
ENDBRANCH  12  13
ENDBRANCH  11  12
ENDBRANCH   1  11
TORSDOF 14
ENDMDL
MODEL 4
REMARK VINA RESULT:    -4.149      3.334      4.638
REMARK INTER + INTRA:          -9.050
REMARK INTER:                  -8.235
REMARK INTRA:                  -0.815
REMARK UNBOUND:                -1.505
REMARK SMILES CCCCCCCCCCCCCCCC(=O)[O-]
REMARK SMILES IDX 9 1 10 2 11 3 12 4 13 5 14 6 15 7 16 8 17 9 18 10 8 11 7 12
REMARK SMILES IDX 6 13 5 14 4 15 3 16 2 17 1 18
REMARK H PARENT
REMARK Flexibility Score: inf
ROOT
ATOM      1  C   UNL     1     -16.178 -17.418  20.727  1.00  0.00     0.000 C 
ENDROOT
BRANCH   1   2
ATOM      2  C   UNL     1     -15.533 -18.810  20.827  1.00  0.00     0.000 C 
BRANCH   2   3
ATOM      3  C   UNL     1     -15.503 -19.349  22.265  1.00  0.00     0.000 C 
BRANCH   3   4
ATOM      4  C   UNL     1     -14.966 -20.784  22.303  1.00  0.00     0.000 C 
BRANCH   4   5
ATOM      5  C   UNL     1     -16.022 -21.753  22.854  1.00  0.00     0.000 C 
BRANCH   5   6
ATOM      6  C   UNL     1     -16.691 -22.597  21.753  1.00  0.00     0.006 C 
BRANCH   6   7
ATOM      7  C   UNL     1     -15.987 -22.530  20.389  1.00  0.00     0.053 C 
BRANCH   7   8
ATOM      8  C   UNL     1     -16.950 -22.273  19.271  1.00  0.00     0.041 C 
ATOM      9  O   UNL     1     -17.685 -21.251  19.290  1.00  0.00    -0.550 OA
ATOM     10  O   UNL     1     -17.011 -23.146  18.191  1.00  0.00    -0.550 OA
ENDBRANCH   7   8
ENDBRANCH   6   7
ENDBRANCH   5   6
ENDBRANCH   4   5
ENDBRANCH   3   4
ENDBRANCH   2   3
ENDBRANCH   1   2
BRANCH   1  11
ATOM     11  C   UNL     1     -17.428 -17.410  19.829  1.00  0.00     0.000 C 
BRANCH  11  12
ATOM     12  C   UNL     1     -17.887 -15.987  19.470  1.00  0.00    -0.000 C 
BRANCH  12  13
ATOM     13  C   UNL     1     -17.383 -14.931  20.465  1.00  0.00    -0.000 C 
BRANCH  13  14
ATOM     14  C   UNL     1     -18.463 -13.872  20.734  1.00  0.00    -0.000 C 
BRANCH  14  15
ATOM     15  C   UNL     1     -17.877 -12.493  21.083  1.00  0.00    -0.000 C 
BRANCH  15  16
ATOM     16  C   UNL     1     -18.610 -11.292  20.451  1.00  0.00    -0.000 C 
BRANCH  16  17
ATOM     17  C   UNL     1     -19.059 -10.207  21.446  1.00  0.00    -0.003 C 
ATOM     18  C   UNL     1     -18.081 -10.023  22.605  1.00  0.00     0.004 C 
ENDBRANCH  16  17
ENDBRANCH  15  16
ENDBRANCH  14  15
ENDBRANCH  13  14
ENDBRANCH  12  13
ENDBRANCH  11  12
ENDBRANCH   1  11
TORSDOF 14
ENDMDL
MODEL 5
REMARK VINA RESULT:    -4.147      2.564      5.750
REMARK INTER + INTRA:          -9.046
REMARK INTER:                  -7.868
REMARK INTRA:                  -1.177
REMARK UNBOUND:                -1.505
REMARK SMILES CCCCCCCCCCCCCCCC(=O)[O-]
REMARK SMILES IDX 9 1 10 2 11 3 12 4 13 5 14 6 15 7 16 8 17 9 18 10 8 11 7 12
REMARK SMILES IDX 6 13 5 14 4 15 3 16 2 17 1 18
REMARK H PARENT
REMARK Flexibility Score: inf
ROOT
ATOM      1  C   UNL     1     -16.560 -18.686  24.962  1.00  0.00     0.000 C 
ENDROOT
BRANCH   1   2
ATOM      2  C   UNL     1     -16.883 -19.511  23.706  1.00  0.00     0.000 C 
BRANCH   2   3
ATOM      3  C   UNL     1     -16.348 -18.866  22.418  1.00  0.00     0.000 C 
BRANCH   3   4
ATOM      4  C   UNL     1     -17.281 -17.748  21.936  1.00  0.00     0.000 C 
BRANCH   4   5
ATOM      5  C   UNL     1     -17.122 -17.511  20.428  1.00  0.00     0.000 C 
BRANCH   5   6
ATOM      6  C   UNL     1     -17.795 -16.209  19.953  1.00  0.00     0.006 C 
BRANCH   6   7
ATOM      7  C   UNL     1     -19.194 -15.970  20.542  1.00  0.00     0.053 C 
BRANCH   7   8
ATOM      8  C   UNL     1     -19.427 -14.527  20.869  1.00  0.00     0.041 C 
ATOM      9  O   UNL     1     -18.480 -13.700  20.797  1.00  0.00    -0.550 OA
ATOM     10  O   UNL     1     -20.699 -14.089  21.219  1.00  0.00    -0.550 OA
ENDBRANCH   7   8
ENDBRANCH   6   7
ENDBRANCH   5   6
ENDBRANCH   4   5
ENDBRANCH   3   4
ENDBRANCH   2   3
ENDBRANCH   1   2
BRANCH   1  11
ATOM     11  C   UNL     1     -17.790 -17.947  25.516  1.00  0.00     0.000 C 
BRANCH  11  12
ATOM     12  C   UNL     1     -19.046 -18.833  25.547  1.00  0.00    -0.000 C 
BRANCH  12  13
ATOM     13  C   UNL     1     -20.335 -18.049  25.260  1.00  0.00    -0.000 C 
BRANCH  13  14
ATOM     14  C   UNL     1     -20.023 -16.716  24.564  1.00  0.00    -0.000 C 
BRANCH  14  15
ATOM     15  C   UNL     1     -21.211 -15.737  24.583  1.00  0.00    -0.000 C 
BRANCH  15  16
ATOM     16  C   UNL     1     -22.475 -16.229  23.850  1.00  0.00    -0.000 C 
BRANCH  16  17
ATOM     17  C   UNL     1     -23.520 -16.916  24.748  1.00  0.00    -0.003 C 
ATOM     18  C   UNL     1     -24.938 -16.826  24.186  1.00  0.00     0.004 C 
ENDBRANCH  16  17
ENDBRANCH  15  16
ENDBRANCH  14  15
ENDBRANCH  13  14
ENDBRANCH  12  13
ENDBRANCH  11  12
ENDBRANCH   1  11
TORSDOF 14
ENDMDL
MODEL 6
REMARK VINA RESULT:    -4.092      3.008      4.997
REMARK INTER + INTRA:          -8.945
REMARK INTER:                  -7.615
REMARK INTRA:                  -1.330
REMARK UNBOUND:                -1.505
REMARK SMILES CCCCCCCCCCCCCCCC(=O)[O-]
REMARK SMILES IDX 9 1 10 2 11 3 12 4 13 5 14 6 15 7 16 8 17 9 18 10 8 11 7 12
REMARK SMILES IDX 6 13 5 14 4 15 3 16 2 17 1 18
REMARK H PARENT
REMARK Flexibility Score: inf
ROOT
ATOM      1  C   UNL     1     -22.081 -16.601  16.606  1.00  0.00     0.000 C 
ENDROOT
BRANCH   1   2
ATOM      2  C   UNL     1     -21.194 -17.699  17.215  1.00  0.00     0.000 C 
BRANCH   2   3
ATOM      3  C   UNL     1     -19.842 -17.835  16.498  1.00  0.00     0.000 C 
BRANCH   3   4
ATOM      4  C   UNL     1     -18.680 -17.717  17.491  1.00  0.00     0.000 C 
BRANCH   4   5
ATOM      5  C   UNL     1     -17.732 -18.919  17.376  1.00  0.00     0.000 C 
BRANCH   5   6
ATOM      6  C   UNL     1     -16.785 -19.052  18.583  1.00  0.00     0.006 C 
BRANCH   6   7
ATOM      7  C   UNL     1     -17.096 -18.089  19.740  1.00  0.00     0.053 C 
BRANCH   7   8
ATOM      8  C   UNL     1     -16.228 -18.345  20.932  1.00  0.00     0.041 C 
ATOM      9  O   UNL     1     -15.003 -18.596  20.783  1.00  0.00    -0.550 OA
ATOM     10  O   UNL     1     -16.764 -18.271  22.213  1.00  0.00    -0.550 OA
ENDBRANCH   7   8
ENDBRANCH   6   7
ENDBRANCH   5   6
ENDBRANCH   4   5
ENDBRANCH   3   4
ENDBRANCH   2   3
ENDBRANCH   1   2
BRANCH   1  11
ATOM     11  C   UNL     1     -22.423 -15.491  17.617  1.00  0.00     0.000 C 
BRANCH  11  12
ATOM     12  C   UNL     1     -22.078 -15.884  19.062  1.00  0.00    -0.000 C 
BRANCH  12  13
ATOM     13  C   UNL     1     -21.105 -14.901  19.731  1.00  0.00    -0.000 C 
BRANCH  13  14
ATOM     14  C   UNL     1     -19.903 -15.642  20.333  1.00  0.00    -0.000 C 
BRANCH  14  15
ATOM     15  C   UNL     1     -18.727 -14.707  20.668  1.00  0.00    -0.000 C 
BRANCH  15  16
ATOM     16  C   UNL     1     -19.127 -13.268  21.055  1.00  0.00    -0.000 C 
BRANCH  16  17
ATOM     17  C   UNL     1     -18.041 -12.205  20.812  1.00  0.00    -0.003 C 
ATOM     18  C   UNL     1     -18.606 -10.788  20.725  1.00  0.00     0.004 C 
ENDBRANCH  16  17
ENDBRANCH  15  16
ENDBRANCH  14  15
ENDBRANCH  13  14
ENDBRANCH  12  13
ENDBRANCH  11  12
ENDBRANCH   1  11
TORSDOF 14
ENDMDL
MODEL 7
REMARK VINA RESULT:    -4.032      2.353      4.454
REMARK INTER + INTRA:          -8.838
REMARK INTER:                  -7.369
REMARK INTRA:                  -1.469
REMARK UNBOUND:                -1.505
REMARK SMILES CCCCCCCCCCCCCCCC(=O)[O-]
REMARK SMILES IDX 9 1 10 2 11 3 12 4 13 5 14 6 15 7 16 8 17 9 18 10 8 11 7 12
REMARK SMILES IDX 6 13 5 14 4 15 3 16 2 17 1 18
REMARK H PARENT
REMARK Flexibility Score: inf
ROOT
ATOM      1  C   UNL     1     -17.677 -10.988  23.490  1.00  0.00     0.000 C 
ENDROOT
BRANCH   1   2
ATOM      2  C   UNL     1     -18.439 -11.345  24.777  1.00  0.00     0.000 C 
BRANCH   2   3
ATOM      3  C   UNL     1     -19.131 -12.714  24.697  1.00  0.00     0.000 C 
BRANCH   3   4
ATOM      4  C   UNL     1     -19.183 -13.384  26.075  1.00  0.00     0.000 C 
BRANCH   4   5
ATOM      5  C   UNL     1     -19.226 -14.914  25.942  1.00  0.00     0.000 C 
BRANCH   5   6
ATOM      6  C   UNL     1     -19.630 -15.380  24.531  1.00  0.00     0.006 C 
BRANCH   6   7
ATOM      7  C   UNL     1     -19.120 -16.781  24.158  1.00  0.00     0.053 C 
BRANCH   7   8
ATOM      8  C   UNL     1     -19.155 -17.721  25.323  1.00  0.00     0.041 C 
ATOM      9  O   UNL     1     -20.215 -18.338  25.608  1.00  0.00    -0.550 OA
ATOM     10  O   UNL     1     -18.007 -17.942  26.074  1.00  0.00    -0.550 OA
ENDBRANCH   7   8
ENDBRANCH   6   7
ENDBRANCH   5   6
ENDBRANCH   4   5
ENDBRANCH   3   4
ENDBRANCH   2   3
ENDBRANCH   1   2
BRANCH   1  11
ATOM     11  C   UNL     1     -18.370  -9.875  22.684  1.00  0.00     0.000 C 
BRANCH  11  12
ATOM     12  C   UNL     1     -19.079 -10.410  21.429  1.00  0.00    -0.000 C 
BRANCH  12  13
ATOM     13  C   UNL     1     -18.362 -11.619  20.810  1.00  0.00    -0.000 C 
BRANCH  13  14
ATOM     14  C   UNL     1     -19.293 -12.839  20.753  1.00  0.00    -0.000 C 
BRANCH  14  15
ATOM     15  C   UNL     1     -18.587 -14.152  21.137  1.00  0.00    -0.000 C 
BRANCH  15  16
ATOM     16  C   UNL     1     -19.074 -15.402  20.375  1.00  0.00    -0.000 C 
BRANCH  16  17
ATOM     17  C   UNL     1     -17.954 -16.313  19.842  1.00  0.00    -0.003 C 
ATOM     18  C   UNL     1     -17.355 -17.214  20.921  1.00  0.00     0.004 C 
ENDBRANCH  16  17
ENDBRANCH  15  16
ENDBRANCH  14  15
ENDBRANCH  13  14
ENDBRANCH  12  13
ENDBRANCH  11  12
ENDBRANCH   1  11
TORSDOF 14
ENDMDL
MODEL 8
REMARK VINA RESULT:    -4.023      2.415      6.566
REMARK INTER + INTRA:          -8.821
REMARK INTER:                  -7.293
REMARK INTRA:                  -1.529
REMARK UNBOUND:                -1.505
REMARK SMILES CCCCCCCCCCCCCCCC(=O)[O-]
REMARK SMILES IDX 9 1 10 2 11 3 12 4 13 5 14 6 15 7 16 8 17 9 18 10 8 11 7 12
REMARK SMILES IDX 6 13 5 14 4 15 3 16 2 17 1 18
REMARK H PARENT
REMARK Flexibility Score: inf
ROOT
ATOM      1  C   UNL     1     -15.498 -18.846  20.519  1.00  0.00     0.000 C 
ENDROOT
BRANCH   1   2
ATOM      2  C   UNL     1     -16.703 -18.116  19.903  1.00  0.00     0.000 C 
BRANCH   2   3
ATOM      3  C   UNL     1     -16.995 -16.772  20.588  1.00  0.00     0.000 C 
BRANCH   3   4
ATOM      4  C   UNL     1     -18.168 -16.054  19.910  1.00  0.00     0.000 C 
BRANCH   4   5
ATOM      5  C   UNL     1     -19.332 -15.853  20.891  1.00  0.00     0.000 C 
BRANCH   5   6
ATOM      6  C   UNL     1     -20.054 -14.507  20.694  1.00  0.00     0.006 C 
BRANCH   6   7
ATOM      7  C   UNL     1     -19.562 -13.384  21.620  1.00  0.00     0.053 C 
BRANCH   7   8
ATOM      8  C   UNL     1     -18.663 -12.421  20.907  1.00  0.00     0.041 C 
ATOM      9  O   UNL     1     -17.469 -12.735  20.656  1.00  0.00    -0.550 OA
ATOM     10  O   UNL     1     -19.154 -11.190  20.487  1.00  0.00    -0.550 OA
ENDBRANCH   7   8
ENDBRANCH   6   7
ENDBRANCH   5   6
ENDBRANCH   4   5
ENDBRANCH   3   4
ENDBRANCH   2   3
ENDBRANCH   1   2
BRANCH   1  11
ATOM     11  C   UNL     1     -15.880 -19.669  21.762  1.00  0.00     0.000 C 
BRANCH  11  12
ATOM     12  C   UNL     1     -14.926 -19.429  22.944  1.00  0.00    -0.000 C 
BRANCH  12  13
ATOM     13  C   UNL     1     -15.403 -20.103  24.240  1.00  0.00    -0.000 C 
BRANCH  13  14
ATOM     14  C   UNL     1     -16.897 -19.842  24.476  1.00  0.00    -0.000 C 
BRANCH  14  15
ATOM     15  C   UNL     1     -17.189 -18.407  24.950  1.00  0.00    -0.000 C 
BRANCH  15  16
ATOM     16  C   UNL     1     -18.075 -17.573  24.002  1.00  0.00    -0.000 C 
BRANCH  16  17
ATOM     17  C   UNL     1     -19.445 -17.173  24.578  1.00  0.00    -0.003 C 
ATOM     18  C   UNL     1     -19.629 -15.660  24.680  1.00  0.00     0.004 C 
ENDBRANCH  16  17
ENDBRANCH  15  16
ENDBRANCH  14  15
ENDBRANCH  13  14
ENDBRANCH  12  13
ENDBRANCH  11  12
ENDBRANCH   1  11
TORSDOF 14
ENDMDL
