MODEL 1
REMARK VINA RESULT:    -3.942      0.000      0.000
REMARK INTER + INTRA:          -5.403
REMARK INTER:                  -5.209
REMARK INTRA:                  -0.194
REMARK UNBOUND:                -0.194
REMARK SMILES CCCCCCCO
REMARK SMILES IDX 5 1 4 2 3 3 2 4 1 5 6 6 7 7 8 8
REMARK H PARENT 8 9
REMARK Flexibility Score: inf
ROOT
ATOM      1  C   UNL     1       1.373   3.850  10.536  1.00  0.00     0.002 C 
ENDROOT
BRANCH   1   2
ATOM      2  C   UNL     1       2.642   4.623  10.148  1.00  0.00     0.000 C 
BRANCH   2   3
ATOM      3  C   UNL     1       3.278   5.287  11.375  1.00  0.00    -0.000 C 
BRANCH   3   4
ATOM      4  C   UNL     1       2.412   6.444  11.885  1.00  0.00    -0.003 C 
ATOM      5  C   UNL     1       2.228   7.512  10.810  1.00  0.00     0.004 C 
ENDBRANCH   3   4
ENDBRANCH   2   3
ENDBRANCH   1   2
BRANCH   1   6
ATOM      6  C   UNL     1       0.360   3.758   9.384  1.00  0.00     0.028 C 
BRANCH   6   7
ATOM      7  C   UNL     1      -0.223   2.349   9.217  1.00  0.00     0.156 C 
BRANCH   7   8
ATOM      8  O   UNL     1       0.132   1.825   7.966  1.00  0.00    -0.396 OA
ATOM      9  H   UNL     1      -0.601   1.210   7.700  1.00  0.00     0.210 HD
ENDBRANCH   7   8
ENDBRANCH   6   7
ENDBRANCH   1   6
TORSDOF 6
ENDMDL
MODEL 2
REMARK VINA RESULT:    -3.914      6.766      7.650
REMARK INTER + INTRA:          -5.367
REMARK INTER:                  -5.212
REMARK INTRA:                  -0.155
REMARK UNBOUND:                -0.194
REMARK SMILES CCCCCCCO
REMARK SMILES IDX 5 1 4 2 3 3 2 4 1 5 6 6 7 7 8 8
REMARK H PARENT 8 9
REMARK Flexibility Score: inf
ROOT
ATOM      1  C   UNL     1       2.726  -0.910  15.012  1.00  0.00     0.002 C 
ENDROOT
BRANCH   1   2
ATOM      2  C   UNL     1       1.310  -0.321  15.096  1.00  0.00     0.000 C 
BRANCH   2   3
ATOM      3  C   UNL     1       0.507  -0.636  13.828  1.00  0.00    -0.000 C 
BRANCH   3   4
ATOM      4  C   UNL     1      -0.660   0.342  13.658  1.00  0.00    -0.003 C 
ATOM      5  C   UNL     1      -0.236   1.574  12.863  1.00  0.00     0.004 C 
ENDBRANCH   3   4
ENDBRANCH   2   3
ENDBRANCH   1   2
BRANCH   1   6
ATOM      6  C   UNL     1       2.771  -2.234  14.233  1.00  0.00     0.028 C 
BRANCH   6   7
ATOM      7  C   UNL     1       2.578  -3.460  15.134  1.00  0.00     0.156 C 
BRANCH   7   8
ATOM      8  O   UNL     1       2.345  -4.601  14.354  1.00  0.00    -0.396 OA
ATOM      9  H   UNL     1       2.887  -5.332  14.753  1.00  0.00     0.210 HD
ENDBRANCH   7   8
ENDBRANCH   6   7
ENDBRANCH   1   6
TORSDOF 6
ENDMDL
MODEL 3
REMARK VINA RESULT:    -3.902      1.582      1.745
REMARK INTER + INTRA:          -5.351
REMARK INTER:                  -5.000
REMARK INTRA:                  -0.351
REMARK UNBOUND:                -0.194
REMARK SMILES CCCCCCCO
REMARK SMILES IDX 5 1 4 2 3 3 2 4 1 5 6 6 7 7 8 8
REMARK H PARENT 8 9
REMARK Flexibility Score: inf
ROOT
ATOM      1  C   UNL     1       1.656   3.918  10.713  1.00  0.00     0.002 C 
ENDROOT
BRANCH   1   2
ATOM      2  C   UNL     1       2.823   4.741  10.148  1.00  0.00     0.000 C 
BRANCH   2   3
ATOM      3  C   UNL     1       3.443   5.631  11.231  1.00  0.00    -0.000 C 
BRANCH   3   4
ATOM      4  C   UNL     1       2.400   6.587  11.821  1.00  0.00    -0.003 C 
ATOM      5  C   UNL     1       2.031   7.684  10.825  1.00  0.00     0.004 C 
ENDBRANCH   3   4
ENDBRANCH   2   3
ENDBRANCH   1   2
BRANCH   1   6
ATOM      6  C   UNL     1       0.479   3.807   9.730  1.00  0.00     0.028 C 
BRANCH   6   7
ATOM      7  C   UNL     1       0.542   4.850   8.609  1.00  0.00     0.156 C 
BRANCH   7   8
ATOM      8  O   UNL     1      -0.506   5.770   8.745  1.00  0.00    -0.396 OA
ATOM      9  H   UNL     1      -1.328   5.313   8.426  1.00  0.00     0.210 HD
ENDBRANCH   7   8
ENDBRANCH   6   7
ENDBRANCH   1   6
TORSDOF 6
ENDMDL
MODEL 4
REMARK VINA RESULT:    -3.874      7.630      8.584
REMARK INTER + INTRA:          -5.313
REMARK INTER:                  -5.012
REMARK INTRA:                  -0.301
REMARK UNBOUND:                -0.194
REMARK SMILES CCCCCCCO
REMARK SMILES IDX 5 1 4 2 3 3 2 4 1 5 6 6 7 7 8 8
REMARK H PARENT 8 9
REMARK Flexibility Score: inf
ROOT
ATOM      1  C   UNL     1       2.701  -1.743  14.192  1.00  0.00     0.002 C 
ENDROOT
BRANCH   1   2
ATOM      2  C   UNL     1       1.868  -0.570  14.731  1.00  0.00     0.000 C 
BRANCH   2   3
ATOM      3  C   UNL     1       0.483  -0.532  14.073  1.00  0.00    -0.000 C 
BRANCH   3   4
ATOM      4  C   UNL     1      -0.580  -1.141  14.992  1.00  0.00    -0.003 C 
ATOM      5  C   UNL     1      -0.152  -1.068  16.456  1.00  0.00     0.004 C 
ENDBRANCH   3   4
ENDBRANCH   2   3
ENDBRANCH   1   2
BRANCH   1   6
ATOM      6  C   UNL     1       3.224  -2.661  15.309  1.00  0.00     0.028 C 
BRANCH   6   7
ATOM      7  C   UNL     1       2.334  -3.890  15.532  1.00  0.00     0.156 C 
BRANCH   7   8
ATOM      8  O   UNL     1       2.323  -4.693  14.383  1.00  0.00    -0.396 OA
ATOM      9  H   UNL     1       1.419  -5.100  14.331  1.00  0.00     0.210 HD
ENDBRANCH   7   8
ENDBRANCH   6   7
ENDBRANCH   1   6
TORSDOF 6
ENDMDL
MODEL 5
REMARK VINA RESULT:    -3.850      3.158      4.708
REMARK INTER + INTRA:          -5.283
REMARK INTER:                  -5.084
REMARK INTRA:                  -0.198
REMARK UNBOUND:                -0.194
REMARK SMILES CCCCCCCO
REMARK SMILES IDX 5 1 4 2 3 3 2 4 1 5 6 6 7 7 8 8
REMARK H PARENT 8 9
REMARK Flexibility Score: inf
ROOT
ATOM      1  C   UNL     1       2.503   4.791  10.719  1.00  0.00     0.002 C 
ENDROOT
BRANCH   1   2
ATOM      2  C   UNL     1       1.280   3.875  10.881  1.00  0.00     0.000 C 
BRANCH   2   3
ATOM      3  C   UNL     1       0.117   4.623  11.544  1.00  0.00    -0.000 C 
BRANCH   3   4
ATOM      4  C   UNL     1      -0.603   3.731  12.560  1.00  0.00    -0.003 C 
ATOM      5  C   UNL     1      -0.254   2.260  12.348  1.00  0.00     0.004 C 
ENDBRANCH   3   4
ENDBRANCH   2   3
ENDBRANCH   1   2
BRANCH   1   6
ATOM      6  C   UNL     1       2.449   6.019  11.643  1.00  0.00     0.028 C 
BRANCH   6   7
ATOM      7  C   UNL     1       2.445   7.343  10.871  1.00  0.00     0.156 C 
BRANCH   7   8
ATOM      8  O   UNL     1       1.875   8.357  11.654  1.00  0.00    -0.396 OA
ATOM      9  H   UNL     1       2.578   9.047  11.778  1.00  0.00     0.210 HD
ENDBRANCH   7   8
ENDBRANCH   6   7
ENDBRANCH   1   6
TORSDOF 6
ENDMDL
MODEL 6
REMARK VINA RESULT:    -3.784      6.345      7.445
REMARK INTER + INTRA:          -5.195
REMARK INTER:                  -5.056
REMARK INTRA:                  -0.139
REMARK UNBOUND:                -0.194
REMARK SMILES CCCCCCCO
REMARK SMILES IDX 5 1 4 2 3 3 2 4 1 5 6 6 7 7 8 8
REMARK H PARENT 8 9
REMARK Flexibility Score: inf
ROOT
ATOM      1  C   UNL     1       0.750  -0.629  13.963  1.00  0.00     0.002 C 
ENDROOT
BRANCH   1   2
ATOM      2  C   UNL     1       1.770  -0.483  15.103  1.00  0.00     0.000 C 
BRANCH   2   3
ATOM      3  C   UNL     1       3.059  -1.251  14.788  1.00  0.00    -0.000 C 
BRANCH   3   4
ATOM      4  C   UNL     1       2.751  -2.581  14.093  1.00  0.00    -0.003 C 
ATOM      5  C   UNL     1       2.466  -3.682  15.110  1.00  0.00     0.004 C 
ENDBRANCH   3   4
ENDBRANCH   2   3
ENDBRANCH   1   2
BRANCH   1   6
ATOM      6  C   UNL     1      -0.051   0.660  13.716  1.00  0.00     0.028 C 
BRANCH   6   7
ATOM      7  C   UNL     1      -0.963   0.566  12.487  1.00  0.00     0.156 C 
BRANCH   7   8
ATOM      8  O   UNL     1      -2.061  -0.261  12.763  1.00  0.00    -0.396 OA
ATOM      9  H   UNL     1      -1.750  -1.196  12.639  1.00  0.00     0.210 HD
ENDBRANCH   7   8
ENDBRANCH   6   7
ENDBRANCH   1   6
TORSDOF 6
ENDMDL
MODEL 7
REMARK VINA RESULT:    -3.738      7.611      8.590
REMARK INTER + INTRA:          -5.133
REMARK INTER:                  -4.886
REMARK INTRA:                  -0.247
REMARK UNBOUND:                -0.194
REMARK SMILES CCCCCCCO
REMARK SMILES IDX 5 1 4 2 3 3 2 4 1 5 6 6 7 7 8 8
REMARK H PARENT 8 9
REMARK Flexibility Score: inf
ROOT
ATOM      1  C   UNL     1       0.853  -0.342  14.475  1.00  0.00     0.002 C 
ENDROOT
BRANCH   1   2
ATOM      2  C   UNL     1       2.088  -0.640  15.340  1.00  0.00     0.000 C 
BRANCH   2   3
ATOM      3  C   UNL     1       3.175  -1.345  14.520  1.00  0.00    -0.000 C 
BRANCH   3   4
ATOM      4  C   UNL     1       2.748  -2.769  14.149  1.00  0.00    -0.003 C 
ATOM      5  C   UNL     1       2.532  -3.623  15.396  1.00  0.00     0.004 C 
ENDBRANCH   3   4
ENDBRANCH   2   3
ENDBRANCH   1   2
BRANCH   1   6
ATOM      6  C   UNL     1      -0.429  -0.977  15.036  1.00  0.00     0.028 C 
BRANCH   6   7
ATOM      7  C   UNL     1      -0.828  -0.404  16.401  1.00  0.00     0.156 C 
BRANCH   7   8
ATOM      8  O   UNL     1      -1.343  -1.418  17.219  1.00  0.00    -0.396 OA
ATOM      9  H   UNL     1      -0.792  -1.424  18.045  1.00  0.00     0.210 HD
ENDBRANCH   7   8
ENDBRANCH   6   7
ENDBRANCH   1   6
TORSDOF 6
ENDMDL
MODEL 8
REMARK VINA RESULT:    -3.729      2.527      2.652
REMARK INTER + INTRA:          -5.123
REMARK INTER:                  -4.982
REMARK INTRA:                  -0.141
REMARK UNBOUND:                -0.194
REMARK SMILES CCCCCCCO
REMARK SMILES IDX 5 1 4 2 3 3 2 4 1 5 6 6 7 7 8 8
REMARK H PARENT 8 9
REMARK Flexibility Score: inf
ROOT
ATOM      1  C   UNL     1       0.641   4.603  11.518  1.00  0.00     0.002 C 
ENDROOT
BRANCH   1   2
ATOM      2  C   UNL     1       1.874   4.292  10.656  1.00  0.00     0.000 C 
BRANCH   2   3
ATOM      3  C   UNL     1       3.086   5.113  11.115  1.00  0.00    -0.000 C 
BRANCH   3   4
ATOM      4  C   UNL     1       2.666   6.524  11.536  1.00  0.00    -0.003 C 
ATOM      5  C   UNL     1       2.653   7.476  10.343  1.00  0.00     0.004 C 
ENDBRANCH   3   4
ENDBRANCH   2   3
ENDBRANCH   1   2
BRANCH   1   6
ATOM      6  C   UNL     1      -0.287   3.389  11.684  1.00  0.00     0.028 C 
BRANCH   6   7
ATOM      7  C   UNL     1      -1.321   3.581  12.801  1.00  0.00     0.156 C 
BRANCH   7   8
ATOM      8  O   UNL     1      -2.476   4.189  12.290  1.00  0.00    -0.396 OA
ATOM      9  H   UNL     1      -3.111   3.456  12.078  1.00  0.00     0.210 HD
ENDBRANCH   7   8
ENDBRANCH   6   7
ENDBRANCH   1   6
TORSDOF 6
ENDMDL
MODEL 9
REMARK VINA RESULT:    -3.585      7.108      8.333
REMARK INTER + INTRA:          -4.932
REMARK INTER:                  -4.772
REMARK INTRA:                  -0.161
REMARK UNBOUND:                -0.194
REMARK SMILES CCCCCCCO
REMARK SMILES IDX 5 1 4 2 3 3 2 4 1 5 6 6 7 7 8 8
REMARK H PARENT 8 9
REMARK Flexibility Score: inf
ROOT
ATOM      1  C   UNL     1      -1.772  10.585   6.494  1.00  0.00     0.002 C 
ENDROOT
BRANCH   1   2
ATOM      2  C   UNL     1      -0.717  10.659   7.608  1.00  0.00     0.000 C 
BRANCH   2   3
ATOM      3  C   UNL     1      -0.149  12.078   7.734  1.00  0.00    -0.000 C 
BRANCH   3   4
ATOM      4  C   UNL     1       0.993  12.125   8.754  1.00  0.00    -0.003 C 
ATOM      5  C   UNL     1       1.560  10.732   9.013  1.00  0.00     0.004 C 
ENDBRANCH   3   4
ENDBRANCH   2   3
ENDBRANCH   1   2
BRANCH   1   6
ATOM      6  C   UNL     1      -1.316  11.279   5.201  1.00  0.00     0.028 C 
BRANCH   6   7
ATOM      7  C   UNL     1      -2.401  11.287   4.117  1.00  0.00     0.156 C 
BRANCH   7   8
ATOM      8  O   UNL     1      -1.846  10.945   2.876  1.00  0.00    -0.396 OA
ATOM      9  H   UNL     1      -2.023   9.977   2.743  1.00  0.00     0.210 HD
ENDBRANCH   7   8
ENDBRANCH   6   7
ENDBRANCH   1   6
TORSDOF 6
ENDMDL
