MODEL 1
REMARK VINA RESULT:    -4.368      0.000      0.000
REMARK INTER + INTRA:          -6.698
REMARK INTER:                  -6.667
REMARK INTRA:                  -0.031
REMARK UNBOUND:                -0.031
REMARK SMILES CC1=CCC[C@H](C)C(=O)C[C@H](C(C)C)C(=O)C1
REMARK SMILES IDX 8 1 9 2 6 3 7 4 5 5 4 6 3 7 2 8 1 9 10 11 11 12 15 13 16 14
REMARK SMILES IDX 17 15 12 17 13 18 14 19
REMARK H PARENT
REMARK Flexibility Score: 70.00
ROOT
ATOM      1  C   UNL     1      99.384 117.485 124.196  1.00  0.00     0.136 C 
ATOM      2  O   UNL     1      98.710 118.458 123.885  1.00  0.00    -0.299 OA
ENDROOT
BRANCH   1   3
ATOM      3  C   UNL     1     100.183 117.500 125.489  1.00  0.00     0.053 C 
ATOM      4  C   UNL     1      99.868 118.730 126.352  1.00  0.00     0.016 C 
BRANCH   3   5
ATOM      5  C   UNL     1     100.071 116.182 126.297  1.00  0.00     0.015 C 
BRANCH   5   6
ATOM      6  C   UNL     1     101.367 115.398 126.604  1.00  0.00     0.028 C 
BRANCH   6   7
ATOM      7  C   UNL     1     101.451 113.967 126.123  1.00  0.00    -0.028 C 
ATOM      8  C   UNL     1     102.025 113.529 124.977  1.00  0.00    -0.070 CG0
ATOM      9  C   UNL     1     102.167 112.038 124.792  1.00  0.00     0.039 C 
ATOM     10  G   UNL     1     102.455 114.436 123.841  1.00  0.00     0.000 G0
ENDBRANCH   6   7
ENDBRANCH   5   6
ENDBRANCH   3   5
ENDBRANCH   1   3
BRANCH   1  11
ATOM     11  C   UNL     1      99.409 116.296 123.256  1.00  0.00     0.087 C 
BRANCH  11  12
ATOM     12  C   UNL     1     100.795 116.064 122.602  1.00  0.00     0.066 C 
BRANCH  12  13
ATOM     13  C   UNL     1     101.312 114.663 122.883  1.00  0.00     0.140 C 
ATOM     14  O   UNL     1     100.751 113.699 122.383  1.00  0.00    -0.299 OA
BRANCH  13  15
ATOM     15  C   UNL     1     102.461 114.427 123.839  1.00  0.00     0.106 CG0
ATOM     16  G   UNL     1     102.008 113.540 124.983  1.00  0.00     0.000 G0
ENDBRANCH  13  15
ENDBRANCH  12  13
BRANCH  12  17
ATOM     17  C   UNL     1     100.828 116.460 121.091  1.00  0.00    -0.006 C 
ATOM     18  C   UNL     1      99.414 116.452 120.488  1.00  0.00     0.008 C 
ATOM     19  C   UNL     1     101.519 117.802 120.782  1.00  0.00     0.008 C 
ENDBRANCH  12  17
ENDBRANCH  11  12
ENDBRANCH   1  11
TORSDOF 1
ENDMDL
MODEL 2
REMARK VINA RESULT:    -4.065      2.185      4.366
REMARK INTER + INTRA:          -6.234
REMARK INTER:                  -5.657
REMARK INTRA:                  -0.577
REMARK UNBOUND:                -0.031
REMARK SMILES CC1=CCC[C@H](C)C(=O)C[C@H](C(C)C)C(=O)C1
REMARK SMILES IDX 8 1 9 2 6 3 7 4 5 5 4 6 3 7 2 8 1 9 10 11 11 12 15 13 16 14
REMARK SMILES IDX 17 15 12 17 13 18 14 19
REMARK H PARENT
REMARK Flexibility Score: 70.00
ROOT
ATOM      1  C   UNL     1     102.089 114.276 125.277  1.00  0.00     0.136 C 
ATOM      2  O   UNL     1     102.829 114.379 126.246  1.00  0.00    -0.299 OA
ENDROOT
BRANCH   1   3
ATOM      3  C   UNL     1     100.586 114.174 125.480  1.00  0.00     0.053 C 
ATOM      4  C   UNL     1     100.206 113.041 126.445  1.00  0.00     0.016 C 
BRANCH   3   5
ATOM      5  C   UNL     1      99.925 115.518 125.876  1.00  0.00     0.015 C 
BRANCH   5   6
ATOM      6  C   UNL     1     100.119 116.735 124.943  1.00  0.00     0.028 C 
BRANCH   6   7
ATOM      7  C   UNL     1      99.338 116.755 123.648  1.00  0.00    -0.028 C 
ATOM      8  C   UNL     1      99.793 116.408 122.420  1.00  0.00    -0.070 CG0
ATOM      9  C   UNL     1      98.786 116.315 121.301  1.00  0.00     0.039 C 
ATOM     10  G   UNL     1     101.257 116.189 122.087  1.00  0.00     0.000 G0
ENDBRANCH   6   7
ENDBRANCH   5   6
ENDBRANCH   3   5
ENDBRANCH   1   3
BRANCH   1  11
ATOM     11  C   UNL     1     102.712 114.236 123.896  1.00  0.00     0.087 C 
BRANCH  11  12
ATOM     12  C   UNL     1     101.749 113.699 122.807  1.00  0.00     0.066 C 
BRANCH  12  13
ATOM     13  C   UNL     1     101.509 114.735 121.721  1.00  0.00     0.140 C 
ATOM     14  O   UNL     1     101.575 114.405 120.546  1.00  0.00    -0.299 OA
BRANCH  13  15
ATOM     15  C   UNL     1     101.271 116.189 122.062  1.00  0.00     0.106 CG0
ATOM     16  G   UNL     1      99.815 116.404 122.426  1.00  0.00     0.000 G0
ENDBRANCH  13  15
ENDBRANCH  12  13
BRANCH  12  17
ATOM     17  C   UNL     1     102.167 112.296 122.263  1.00  0.00    -0.006 C 
ATOM     18  C   UNL     1     103.676 112.063 122.441  1.00  0.00     0.008 C 
ATOM     19  C   UNL     1     101.384 111.106 122.850  1.00  0.00     0.008 C 
ENDBRANCH  12  17
ENDBRANCH  11  12
ENDBRANCH   1  11
TORSDOF 1
ENDMDL
MODEL 3
REMARK VINA RESULT:    -4.023      1.886      4.457
REMARK INTER + INTRA:          -6.171
REMARK INTER:                  -6.340
REMARK INTRA:                   0.169
REMARK UNBOUND:                -0.031
REMARK SMILES CC1=CCC[C@H](C)C(=O)C[C@H](C(C)C)C(=O)C1
REMARK SMILES IDX 8 1 9 2 6 3 7 4 5 5 4 6 3 7 2 8 1 9 10 11 11 12 15 13 16 14
REMARK SMILES IDX 17 15 12 17 13 18 14 19
REMARK H PARENT
REMARK Flexibility Score: 70.00
ROOT
ATOM      1  C   UNL     1     101.171 113.263 126.227  1.00  0.00     0.136 C 
ATOM      2  O   UNL     1     100.199 112.551 126.447  1.00  0.00    -0.299 OA
ENDROOT
BRANCH   1   3
ATOM      3  C   UNL     1     101.347 114.561 126.997  1.00  0.00     0.053 C 
ATOM      4  C   UNL     1     102.795 115.072 126.950  1.00  0.00     0.016 C 
BRANCH   3   5
ATOM      5  C   UNL     1     100.332 115.660 126.594  1.00  0.00     0.015 C 
BRANCH   5   6
ATOM      6  C   UNL     1      99.489 115.448 125.316  1.00  0.00     0.028 C 
BRANCH   6   7
ATOM      7  C   UNL     1      99.810 116.309 124.116  1.00  0.00    -0.028 C 
ATOM      8  C   UNL     1     100.751 116.067 123.172  1.00  0.00    -0.070 CG0
ATOM      9  C   UNL     1     100.766 116.958 121.955  1.00  0.00     0.039 C 
ATOM     10  G   UNL     1     101.835 115.015 123.303  1.00  0.00     0.000 G0
ENDBRANCH   6   7
ENDBRANCH   5   6
ENDBRANCH   3   5
ENDBRANCH   1   3
BRANCH   1  11
ATOM     11  C   UNL     1     102.162 112.822 125.169  1.00  0.00     0.087 C 
BRANCH  11  12
ATOM     12  C   UNL     1     101.490 112.420 123.831  1.00  0.00     0.066 C 
BRANCH  12  13
ATOM     13  C   UNL     1     101.276 113.629 122.935  1.00  0.00     0.140 C 
ATOM     14  O   UNL     1     100.704 113.493 121.863  1.00  0.00    -0.299 OA
BRANCH  13  15
ATOM     15  C   UNL     1     101.832 114.987 123.302  1.00  0.00     0.106 CG0
ATOM     16  G   UNL     1     100.753 116.043 123.158  1.00  0.00     0.000 G0
ENDBRANCH  13  15
ENDBRANCH  12  13
BRANCH  12  17
ATOM     17  C   UNL     1     102.206 111.226 123.125  1.00  0.00    -0.006 C 
ATOM     18  C   UNL     1     103.290 110.620 124.030  1.00  0.00     0.008 C 
ATOM     19  C   UNL     1     101.272 110.112 122.614  1.00  0.00     0.008 C 
ENDBRANCH  12  17
ENDBRANCH  11  12
ENDBRANCH   1  11
TORSDOF 1
ENDMDL
MODEL 4
REMARK VINA RESULT:    -3.941      1.937      3.177
REMARK INTER + INTRA:          -6.045
REMARK INTER:                  -5.850
REMARK INTRA:                  -0.195
REMARK UNBOUND:                -0.031
REMARK SMILES CC1=CCC[C@H](C)C(=O)C[C@H](C(C)C)C(=O)C1
REMARK SMILES IDX 8 1 9 2 6 3 7 4 5 5 4 6 3 7 2 8 1 9 10 11 11 12 15 13 16 14
REMARK SMILES IDX 17 15 12 17 13 18 14 19
REMARK H PARENT
REMARK Flexibility Score: 70.00
ROOT
ATOM      1  C   UNL     1     100.392 116.248 125.491  1.00  0.00     0.136 C 
ATOM      2  O   UNL     1     100.267 117.006 126.443  1.00  0.00    -0.299 OA
ENDROOT
BRANCH   1   3
ATOM      3  C   UNL     1     101.276 115.017 125.614  1.00  0.00     0.053 C 
ATOM      4  C   UNL     1     102.024 114.971 126.954  1.00  0.00     0.016 C 
BRANCH   3   5
ATOM      5  C   UNL     1     100.530 113.691 125.322  1.00  0.00     0.015 C 
BRANCH   5   6
ATOM      6  C   UNL     1     100.771 112.997 123.962  1.00  0.00     0.028 C 
BRANCH   6   7
ATOM      7  C   UNL     1     101.913 113.505 123.110  1.00  0.00    -0.028 C 
ATOM      8  C   UNL     1     101.882 114.554 122.254  1.00  0.00    -0.070 CG0
ATOM      9  C   UNL     1     103.191 115.006 121.654  1.00  0.00     0.039 C 
ATOM     10  G   UNL     1     100.610 115.242 121.799  1.00  0.00     0.000 G0
ENDBRANCH   6   7
ENDBRANCH   5   6
ENDBRANCH   3   5
ENDBRANCH   1   3
BRANCH   1  11
ATOM     11  C   UNL     1      99.664 116.581 124.204  1.00  0.00     0.087 C 
BRANCH  11  12
ATOM     12  C   UNL     1     100.496 117.470 123.245  1.00  0.00     0.066 C 
BRANCH  12  13
ATOM     13  C   UNL     1     100.755 116.766 121.922  1.00  0.00     0.140 C 
ATOM     14  O   UNL     1     101.025 117.425 120.930  1.00  0.00    -0.299 OA
BRANCH  13  15
ATOM     15  C   UNL     1     100.602 115.267 121.788  1.00  0.00     0.106 CG0
ATOM     16  G   UNL     1     101.868 114.575 122.255  1.00  0.00     0.000 G0
ENDBRANCH  13  15
ENDBRANCH  12  13
BRANCH  12  17
ATOM     17  C   UNL     1      99.914 118.911 123.092  1.00  0.00    -0.006 C 
ATOM     18  C   UNL     1      98.387 118.873 122.915  1.00  0.00     0.008 C 
ATOM     19  C   UNL     1     100.283 119.889 124.224  1.00  0.00     0.008 C 
ENDBRANCH  12  17
ENDBRANCH  11  12
ENDBRANCH   1  11
TORSDOF 1
ENDMDL
MODEL 5
REMARK VINA RESULT:    -3.859      2.316      4.212
REMARK INTER + INTRA:          -5.920
REMARK INTER:                  -5.883
REMARK INTRA:                  -0.037
REMARK UNBOUND:                -0.031
REMARK SMILES CC1=CCC[C@H](C)C(=O)C[C@H](C(C)C)C(=O)C1
REMARK SMILES IDX 8 1 9 2 6 3 7 4 5 5 4 6 3 7 2 8 1 9 10 11 11 12 15 13 16 14
REMARK SMILES IDX 17 15 12 17 13 18 14 19
REMARK H PARENT
REMARK Flexibility Score: 70.00
ROOT
ATOM      1  C   UNL     1     100.398 116.428 125.211  1.00  0.00     0.136 C 
ATOM      2  O   UNL     1     100.408 117.067 126.255  1.00  0.00    -0.299 OA
ENDROOT
BRANCH   1   3
ATOM      3  C   UNL     1     101.345 115.252 125.035  1.00  0.00     0.053 C 
ATOM      4  C   UNL     1     101.266 114.262 126.206  1.00  0.00     0.016 C 
BRANCH   3   5
ATOM      5  C   UNL     1     101.198 114.543 123.665  1.00  0.00     0.015 C 
BRANCH   5   6
ATOM      6  C   UNL     1     102.117 114.989 122.505  1.00  0.00     0.028 C 
BRANCH   6   7
ATOM      7  C   UNL     1     101.560 114.908 121.101  1.00  0.00    -0.028 C 
ATOM      8  C   UNL     1     101.206 115.947 120.308  1.00  0.00    -0.070 CG0
ATOM      9  C   UNL     1     100.860 115.645 118.871  1.00  0.00     0.039 C 
ATOM     10  G   UNL     1     101.058 117.376 120.795  1.00  0.00     0.000 G0
ENDBRANCH   6   7
ENDBRANCH   5   6
ENDBRANCH   3   5
ENDBRANCH   1   3
BRANCH   1  11
ATOM     11  C   UNL     1      99.441 116.853 124.115  1.00  0.00     0.087 C 
BRANCH  11  12
ATOM     12  C   UNL     1     100.034 117.927 123.169  1.00  0.00     0.066 C 
BRANCH  12  13
ATOM     13  C   UNL     1      99.858 117.537 121.710  1.00  0.00     0.140 C 
ATOM     14  O   UNL     1      98.745 117.264 121.288  1.00  0.00    -0.299 OA
BRANCH  13  15
ATOM     15  C   UNL     1     101.048 117.399 120.786  1.00  0.00     0.106 CG0
ATOM     16  G   UNL     1     101.187 115.957 120.336  1.00  0.00     0.000 G0
ENDBRANCH  13  15
ENDBRANCH  12  13
BRANCH  12  17
ATOM     17  C   UNL     1      99.541 119.371 123.503  1.00  0.00    -0.006 C 
ATOM     18  C   UNL     1      98.383 119.338 124.513  1.00  0.00     0.008 C 
ATOM     19  C   UNL     1     100.635 120.338 123.995  1.00  0.00     0.008 C 
ENDBRANCH  12  17
ENDBRANCH  11  12
ENDBRANCH   1  11
TORSDOF 1
ENDMDL
MODEL 6
REMARK VINA RESULT:    -3.829      1.921      4.161
REMARK INTER + INTRA:          -5.875
REMARK INTER:                  -5.956
REMARK INTRA:                   0.082
REMARK UNBOUND:                -0.031
REMARK SMILES CC1=CCC[C@H](C)C(=O)C[C@H](C(C)C)C(=O)C1
REMARK SMILES IDX 8 1 9 2 6 3 7 4 5 5 4 6 3 7 2 8 1 9 10 11 11 12 15 13 16 14
REMARK SMILES IDX 17 15 12 17 13 18 14 19
REMARK H PARENT
REMARK Flexibility Score: 70.00
ROOT
ATOM      1  C   UNL     1     100.332 116.235 125.798  1.00  0.00     0.136 C 
ATOM      2  O   UNL     1      99.942 115.639 126.793  1.00  0.00    -0.299 OA
ENDROOT
BRANCH   1   3
ATOM      3  C   UNL     1      99.697 117.562 125.414  1.00  0.00     0.053 C 
ATOM      4  C   UNL     1      99.739 118.580 126.563  1.00  0.00     0.016 C 
BRANCH   3   5
ATOM      5  C   UNL     1     100.256 118.154 124.096  1.00  0.00     0.015 C 
BRANCH   5   6
ATOM      6  C   UNL     1      99.582 117.747 122.765  1.00  0.00     0.028 C 
BRANCH   6   7
ATOM      7  C   UNL     1     100.458 117.654 121.537  1.00  0.00    -0.028 C 
ATOM      8  C   UNL     1     100.798 116.528 120.866  1.00  0.00    -0.070 CG0
ATOM      9  C   UNL     1     101.521 116.688 119.551  1.00  0.00     0.039 C 
ATOM     10  G   UNL     1     100.571 115.124 121.392  1.00  0.00     0.000 G0
ENDBRANCH   6   7
ENDBRANCH   5   6
ENDBRANCH   3   5
ENDBRANCH   1   3
BRANCH   1  11
ATOM     11  C   UNL     1     101.435 115.609 124.969  1.00  0.00     0.087 C 
BRANCH  11  12
ATOM     12  C   UNL     1     100.912 114.577 123.938  1.00  0.00     0.066 C 
BRANCH  12  13
ATOM     13  C   UNL     1     101.491 114.834 122.556  1.00  0.00     0.140 C 
ATOM     14  O   UNL     1     102.702 114.892 122.409  1.00  0.00    -0.299 OA
BRANCH  13  15
ATOM     15  C   UNL     1     100.594 115.103 121.367  1.00  0.00     0.106 CG0
ATOM     16  G   UNL     1     100.795 116.525 120.880  1.00  0.00     0.000 G0
ENDBRANCH  13  15
ENDBRANCH  12  13
BRANCH  12  17
ATOM     17  C   UNL     1     101.065 113.101 124.424  1.00  0.00    -0.006 C 
ATOM     18  C   UNL     1     100.983 112.120 123.242  1.00  0.00     0.008 C 
ATOM     19  C   UNL     1     102.331 112.812 125.253  1.00  0.00     0.008 C 
ENDBRANCH  12  17
ENDBRANCH  11  12
ENDBRANCH   1  11
TORSDOF 1
ENDMDL
MODEL 7
REMARK VINA RESULT:    -3.613      1.993      4.143
REMARK INTER + INTRA:          -5.546
REMARK INTER:                  -5.633
REMARK INTRA:                   0.087
REMARK UNBOUND:                -0.031
REMARK SMILES CC1=CCC[C@H](C)C(=O)C[C@H](C(C)C)C(=O)C1
REMARK SMILES IDX 8 1 9 2 6 3 7 4 5 5 4 6 3 7 2 8 1 9 10 11 11 12 15 13 16 14
REMARK SMILES IDX 17 15 12 17 13 18 14 19
REMARK H PARENT
REMARK Flexibility Score: 70.00
ROOT
ATOM      1  C   UNL     1     100.359 117.448 121.837  1.00  0.00     0.136 C 
ATOM      2  O   UNL     1      99.169 117.492 121.554  1.00  0.00    -0.299 OA
ENDROOT
BRANCH   1   3
ATOM      3  C   UNL     1     101.296 116.567 121.028  1.00  0.00     0.053 C 
ATOM      4  C   UNL     1     102.176 117.381 120.069  1.00  0.00     0.016 C 
BRANCH   3   5
ATOM      5  C   UNL     1     102.133 115.595 121.898  1.00  0.00     0.015 C 
BRANCH   5   6
ATOM      6  C   UNL     1     101.391 114.689 122.907  1.00  0.00     0.028 C 
BRANCH   6   7
ATOM      7  C   UNL     1     101.752 114.828 124.368  1.00  0.00    -0.028 C 
ATOM      8  C   UNL     1     100.972 115.336 125.352  1.00  0.00    -0.070 CG0
ATOM      9  C   UNL     1     101.458 115.197 126.773  1.00  0.00     0.039 C 
ATOM     10  G   UNL     1      99.687 116.104 125.107  1.00  0.00     0.000 G0
ENDBRANCH   6   7
ENDBRANCH   5   6
ENDBRANCH   3   5
ENDBRANCH   1   3
BRANCH   1  11
ATOM     11  C   UNL     1     100.852 118.272 123.009  1.00  0.00     0.087 C 
BRANCH  11  12
ATOM     12  C   UNL     1      99.758 118.534 124.075  1.00  0.00     0.066 C 
BRANCH  12  13
ATOM     13  C   UNL     1      99.909 117.598 125.263  1.00  0.00     0.140 C 
ATOM     14  O   UNL     1     100.288 118.041 126.337  1.00  0.00    -0.299 OA
BRANCH  13  15
ATOM     15  C   UNL     1      99.678 116.109 125.124  1.00  0.00     0.106 CG0
ATOM     16  G   UNL     1     100.976 115.361 125.362  1.00  0.00     0.000 G0
ENDBRANCH  13  15
ENDBRANCH  12  13
BRANCH  12  17
ATOM     17  C   UNL     1      99.638 120.040 124.467  1.00  0.00    -0.006 C 
ATOM     18  C   UNL     1     100.807 120.855 123.890  1.00  0.00     0.008 C 
ATOM     19  C   UNL     1      98.302 120.710 124.091  1.00  0.00     0.008 C 
ENDBRANCH  12  17
ENDBRANCH  11  12
ENDBRANCH   1  11
TORSDOF 1
ENDMDL
MODEL 8
REMARK VINA RESULT:    -3.412      2.088      4.380
REMARK INTER + INTRA:          -5.239
REMARK INTER:                  -5.198
REMARK INTRA:                  -0.041
REMARK UNBOUND:                -0.031
REMARK SMILES CC1=CCC[C@H](C)C(=O)C[C@H](C(C)C)C(=O)C1
REMARK SMILES IDX 8 1 9 2 6 3 7 4 5 5 4 6 3 7 2 8 1 9 10 11 11 12 15 13 16 14
REMARK SMILES IDX 17 15 12 17 13 18 14 19
REMARK H PARENT
REMARK Flexibility Score: 70.00
ROOT
ATOM      1  C   UNL     1     100.034 116.261 123.825  1.00  0.00     0.136 C 
ATOM      2  O   UNL     1      99.308 116.487 124.783  1.00  0.00    -0.299 OA
ENDROOT
BRANCH   1   3
ATOM      3  C   UNL     1      99.640 116.757 122.443  1.00  0.00     0.053 C 
ATOM      4  C   UNL     1      99.082 118.187 122.477  1.00  0.00     0.016 C 
BRANCH   3   5
ATOM      5  C   UNL     1     100.762 116.598 121.387  1.00  0.00     0.015 C 
BRANCH   5   6
ATOM      6  C   UNL     1     100.656 115.437 120.373  1.00  0.00     0.028 C 
BRANCH   6   7
ATOM      7  C   UNL     1     101.891 114.596 120.140  1.00  0.00    -0.028 C 
ATOM      8  C   UNL     1     102.155 113.378 120.670  1.00  0.00    -0.070 CG0
ATOM      9  C   UNL     1     103.358 112.633 120.147  1.00  0.00     0.039 C 
ATOM     10  G   UNL     1     101.368 112.758 121.808  1.00  0.00     0.000 G0
ENDBRANCH   6   7
ENDBRANCH   5   6
ENDBRANCH   3   5
ENDBRANCH   1   3
BRANCH   1  11
ATOM     11  C   UNL     1     101.307 115.470 124.055  1.00  0.00     0.087 C 
BRANCH  11  12
ATOM     12  C   UNL     1     101.068 113.941 124.142  1.00  0.00     0.066 C 
BRANCH  12  13
ATOM     13  C   UNL     1     101.929 113.189 123.140  1.00  0.00     0.140 C 
ATOM     14  O   UNL     1     103.111 112.995 123.385  1.00  0.00    -0.299 OA
BRANCH  13  15
ATOM     15  C   UNL     1     101.374 112.745 121.805  1.00  0.00     0.106 CG0
ATOM     16  G   UNL     1     102.165 113.383 120.679  1.00  0.00     0.000 G0
ENDBRANCH  13  15
ENDBRANCH  12  13
BRANCH  12  17
ATOM     17  C   UNL     1     101.166 113.392 125.600  1.00  0.00    -0.006 C 
ATOM     18  C   UNL     1     101.785 114.438 126.542  1.00  0.00     0.008 C 
ATOM     19  C   UNL     1      99.842 112.874 126.195  1.00  0.00     0.008 C 
ENDBRANCH  12  17
ENDBRANCH  11  12
ENDBRANCH   1  11
TORSDOF 1
ENDMDL
MODEL 9
REMARK VINA RESULT:    -3.371      1.670      4.074
REMARK INTER + INTRA:          -5.175
REMARK INTER:                  -5.256
REMARK INTRA:                   0.081
REMARK UNBOUND:                -0.031
REMARK SMILES CC1=CCC[C@H](C)C(=O)C[C@H](C(C)C)C(=O)C1
REMARK SMILES IDX 8 1 9 2 6 3 7 4 5 5 4 6 3 7 2 8 1 9 10 11 11 12 15 13 16 14
REMARK SMILES IDX 17 15 12 17 13 18 14 19
REMARK H PARENT
REMARK Flexibility Score: 70.00
ROOT
ATOM      1  C   UNL     1     101.818 114.301 122.303  1.00  0.00     0.136 C 
ATOM      2  O   UNL     1     100.892 113.602 121.913  1.00  0.00    -0.299 OA
ENDROOT
BRANCH   1   3
ATOM      3  C   UNL     1     102.834 113.734 123.280  1.00  0.00     0.053 C 
ATOM      4  C   UNL     1     104.256 113.728 122.700  1.00  0.00     0.016 C 
BRANCH   3   5
ATOM      5  C   UNL     1     102.782 114.398 124.679  1.00  0.00     0.015 C 
BRANCH   5   6
ATOM      6  C   UNL     1     101.398 114.667 125.312  1.00  0.00     0.028 C 
BRANCH   6   7
ATOM      7  C   UNL     1     101.069 116.092 125.698  1.00  0.00    -0.028 C 
ATOM      8  C   UNL     1     100.108 116.878 125.157  1.00  0.00    -0.070 CG0
ATOM      9  C   UNL     1      99.824 118.198 125.829  1.00  0.00     0.039 C 
ATOM     10  G   UNL     1      99.362 116.549 123.878  1.00  0.00     0.000 G0
ENDBRANCH   6   7
ENDBRANCH   5   6
ENDBRANCH   3   5
ENDBRANCH   1   3
BRANCH   1  11
ATOM     11  C   UNL     1     101.904 115.729 121.801  1.00  0.00     0.087 C 
BRANCH  11  12
ATOM     12  C   UNL     1     100.518 116.360 121.514  1.00  0.00     0.066 C 
BRANCH  12  13
ATOM     13  C   UNL     1     100.035 117.194 122.690  1.00  0.00     0.140 C 
ATOM     14  O   UNL     1     100.256 118.395 122.709  1.00  0.00    -0.299 OA
BRANCH  13  15
ATOM     15  C   UNL     1      99.358 116.553 123.881  1.00  0.00     0.106 CG0
ATOM     16  G   UNL     1     100.114 116.894 125.151  1.00  0.00     0.000 G0
ENDBRANCH  13  15
ENDBRANCH  12  13
BRANCH  12  17
ATOM     17  C   UNL     1     100.461 117.105 120.143  1.00  0.00    -0.006 C 
ATOM     18  C   UNL     1     101.680 116.756 119.274  1.00  0.00     0.008 C 
ATOM     19  C   UNL     1      99.167 116.891 119.334  1.00  0.00     0.008 C 
ENDBRANCH  12  17
ENDBRANCH  11  12
ENDBRANCH   1  11
TORSDOF 1
ENDMDL
