MODEL 1
REMARK VINA RESULT:    -5.004      0.000      0.000
REMARK INTER + INTRA:          -5.320
REMARK INTER:                  -5.297
REMARK INTRA:                  -0.024
REMARK UNBOUND:                -0.024
REMARK SMILES O=C([O-])c1cccnc1
REMARK SMILES IDX 4 1 5 2 9 3 6 4 8 5 7 6 2 7 1 8 3 9
REMARK H PARENT
REMARK Flexibility Score: inf
ROOT
ATOM      1  C   UNL     1     -12.262  10.916 -10.206  1.00  0.00     0.016 A 
ATOM      2  C   UNL     1     -13.226  11.085  -9.198  1.00  0.00     0.013 A 
ATOM      3  C   UNL     1     -11.217  10.002  -9.985  1.00  0.00     0.120 A 
ATOM      4  C   UNL     1     -13.134  10.356  -8.012  1.00  0.00     0.021 A 
ATOM      5  N   UNL     1     -11.151   9.304  -8.820  1.00  0.00    -0.264 NA
ATOM      6  C   UNL     1     -12.078   9.460  -7.839  1.00  0.00     0.111 A 
ENDROOT
BRANCH   1   7
ATOM      7  C   UNL     1     -12.340  11.679 -11.471  1.00  0.00     0.073 C 
ATOM      8  O   UNL     1     -13.405  12.268 -11.797  1.00  0.00    -0.545 OA
ATOM      9  O   UNL     1     -11.240  11.756 -12.317  1.00  0.00    -0.545 OA
ENDBRANCH   1   7
TORSDOF 1
ENDMDL
MODEL 2
REMARK VINA RESULT:    -4.962      2.279      2.830
REMARK INTER + INTRA:          -5.276
REMARK INTER:                  -5.258
REMARK INTRA:                  -0.017
REMARK UNBOUND:                -0.024
REMARK SMILES O=C([O-])c1cccnc1
REMARK SMILES IDX 4 1 5 2 9 3 6 4 8 5 7 6 2 7 1 8 3 9
REMARK H PARENT
REMARK Flexibility Score: inf
ROOT
ATOM      1  C   UNL     1     -13.100  11.361 -11.793  1.00  0.00     0.016 A 
ATOM      2  C   UNL     1     -12.744  11.168 -10.448  1.00  0.00     0.013 A 
ATOM      3  C   UNL     1     -12.247  10.857 -12.789  1.00  0.00     0.120 A 
ATOM      4  C   UNL     1     -11.568  10.490 -10.125  1.00  0.00     0.021 A 
ATOM      5  N   UNL     1     -11.107  10.199 -12.448  1.00  0.00    -0.264 NA
ATOM      6  C   UNL     1     -10.753  10.007 -11.150  1.00  0.00     0.111 A 
ENDROOT
BRANCH   1   7
ATOM      7  C   UNL     1     -14.342  12.078 -12.157  1.00  0.00     0.073 C 
ATOM      8  O   UNL     1     -15.271  11.481 -12.762  1.00  0.00    -0.545 OA
ATOM      9  O   UNL     1     -14.501  13.421 -11.835  1.00  0.00    -0.545 OA
ENDBRANCH   1   7
TORSDOF 1
ENDMDL
MODEL 3
REMARK VINA RESULT:    -4.944      0.936      1.603
REMARK INTER + INTRA:          -5.257
REMARK INTER:                  -5.234
REMARK INTRA:                  -0.023
REMARK UNBOUND:                -0.024
REMARK SMILES O=C([O-])c1cccnc1
REMARK SMILES IDX 4 1 5 2 9 3 6 4 8 5 7 6 2 7 1 8 3 9
REMARK H PARENT
REMARK Flexibility Score: inf
ROOT
ATOM      1  C   UNL     1     -12.323  10.915 -10.148  1.00  0.00     0.016 A 
ATOM      2  C   UNL     1     -11.297   9.982  -9.919  1.00  0.00     0.013 A 
ATOM      3  C   UNL     1     -13.294  11.098  -9.149  1.00  0.00     0.120 A 
ATOM      4  C   UNL     1     -11.259   9.263  -8.724  1.00  0.00     0.021 A 
ATOM      5  N   UNL     1     -13.233  10.385  -7.993  1.00  0.00    -0.264 NA
ATOM      6  C   UNL     1     -12.246   9.480  -7.762  1.00  0.00     0.111 A 
ENDROOT
BRANCH   1   7
ATOM      7  C   UNL     1     -12.382  11.688 -11.408  1.00  0.00     0.073 C 
ATOM      8  O   UNL     1     -13.455  12.241 -11.769  1.00  0.00    -0.545 OA
ATOM      9  O   UNL     1     -11.254  11.815 -12.210  1.00  0.00    -0.545 OA
ENDBRANCH   1   7
TORSDOF 1
ENDMDL
MODEL 4
REMARK VINA RESULT:    -4.906      2.056      3.345
REMARK INTER + INTRA:          -5.216
REMARK INTER:                  -5.193
REMARK INTRA:                  -0.023
REMARK UNBOUND:                -0.024
REMARK SMILES O=C([O-])c1cccnc1
REMARK SMILES IDX 4 1 5 2 9 3 6 4 8 5 7 6 2 7 1 8 3 9
REMARK H PARENT
REMARK Flexibility Score: inf
ROOT
ATOM      1  C   UNL     1     -12.193  10.904 -10.309  1.00  0.00     0.016 A 
ATOM      2  C   UNL     1     -12.281  11.537 -11.561  1.00  0.00     0.013 A 
ATOM      3  C   UNL     1     -11.167   9.966 -10.106  1.00  0.00     0.120 A 
ATOM      4  C   UNL     1     -11.364  11.229 -12.567  1.00  0.00     0.021 A 
ATOM      5  N   UNL     1     -10.287   9.685 -11.103  1.00  0.00    -0.264 NA
ATOM      6  C   UNL     1     -10.363  10.290 -12.317  1.00  0.00     0.111 A 
ENDROOT
BRANCH   1   7
ATOM      7  C   UNL     1     -13.155  11.216  -9.229  1.00  0.00     0.073 C 
ATOM      8  O   UNL     1     -12.970  10.779  -8.063  1.00  0.00    -0.545 OA
ATOM      9  O   UNL     1     -14.276  11.996  -9.488  1.00  0.00    -0.545 OA
ENDBRANCH   1   7
TORSDOF 1
ENDMDL
MODEL 5
REMARK VINA RESULT:    -4.800      2.413      3.616
REMARK INTER + INTRA:          -5.105
REMARK INTER:                  -5.080
REMARK INTRA:                  -0.024
REMARK UNBOUND:                -0.024
REMARK SMILES O=C([O-])c1cccnc1
REMARK SMILES IDX 4 1 5 2 9 3 6 4 8 5 7 6 2 7 1 8 3 9
REMARK H PARENT
REMARK Flexibility Score: inf
ROOT
ATOM      1  C   UNL     1     -12.297  10.900 -10.323  1.00  0.00     0.016 A 
ATOM      2  C   UNL     1     -11.233   9.985 -10.250  1.00  0.00     0.013 A 
ATOM      3  C   UNL     1     -12.495  11.600 -11.526  1.00  0.00     0.120 A 
ATOM      4  C   UNL     1     -10.401   9.789 -11.353  1.00  0.00     0.021 A 
ATOM      5  N   UNL     1     -11.670  11.389 -12.586  1.00  0.00    -0.264 NA
ATOM      6  C   UNL     1     -10.638  10.507 -12.526  1.00  0.00     0.111 A 
ENDROOT
BRANCH   1   7
ATOM      7  C   UNL     1     -13.190  11.123  -9.165  1.00  0.00     0.073 C 
ATOM      8  O   UNL     1     -12.980  10.534  -8.072  1.00  0.00    -0.545 OA
ATOM      9  O   UNL     1     -14.274  11.987  -9.268  1.00  0.00    -0.545 OA
ENDBRANCH   1   7
TORSDOF 1
ENDMDL
MODEL 6
REMARK VINA RESULT:    -4.729      2.024      2.664
REMARK INTER + INTRA:          -5.029
REMARK INTER:                  -5.005
REMARK INTRA:                  -0.024
REMARK UNBOUND:                -0.024
REMARK SMILES O=C([O-])c1cccnc1
REMARK SMILES IDX 4 1 5 2 9 3 6 4 8 5 7 6 2 7 1 8 3 9
REMARK H PARENT
REMARK Flexibility Score: inf
ROOT
ATOM      1  C   UNL     1     -12.123  10.980 -11.152  1.00  0.00     0.016 A 
ATOM      2  C   UNL     1     -11.907  10.656  -9.802  1.00  0.00     0.013 A 
ATOM      3  C   UNL     1     -13.350  11.562 -11.511  1.00  0.00     0.120 A 
ATOM      4  C   UNL     1     -12.898  10.911  -8.853  1.00  0.00     0.021 A 
ATOM      5  N   UNL     1     -14.299  11.800 -10.567  1.00  0.00    -0.264 NA
ATOM      6  C   UNL     1     -14.101  11.490  -9.259  1.00  0.00     0.111 A 
ENDROOT
BRANCH   1   7
ATOM      7  C   UNL     1     -11.085  10.718 -12.173  1.00  0.00     0.073 C 
ATOM      8  O   UNL     1      -9.999  10.166 -11.854  1.00  0.00    -0.545 OA
ATOM      9  O   UNL     1     -11.295  11.078 -13.499  1.00  0.00    -0.545 OA
ENDBRANCH   1   7
TORSDOF 1
ENDMDL
MODEL 7
REMARK VINA RESULT:    -4.698      1.105      1.634
REMARK INTER + INTRA:          -4.996
REMARK INTER:                  -4.973
REMARK INTRA:                  -0.022
REMARK UNBOUND:                -0.024
REMARK SMILES O=C([O-])c1cccnc1
REMARK SMILES IDX 4 1 5 2 9 3 6 4 8 5 7 6 2 7 1 8 3 9
REMARK H PARENT
REMARK Flexibility Score: inf
ROOT
ATOM      1  C   UNL     1     -11.693  10.582 -10.367  1.00  0.00     0.016 A 
ATOM      2  C   UNL     1     -12.912  11.225 -10.093  1.00  0.00     0.013 A 
ATOM      3  C   UNL     1     -11.144   9.743  -9.382  1.00  0.00     0.120 A 
ATOM      4  C   UNL     1     -13.549  11.026  -8.868  1.00  0.00     0.021 A 
ATOM      5  N   UNL     1     -11.786   9.566  -8.197  1.00  0.00    -0.264 NA
ATOM      6  C   UNL     1     -12.965  10.183  -7.922  1.00  0.00     0.111 A 
ENDROOT
BRANCH   1   7
ATOM      7  C   UNL     1     -11.000  10.781 -11.659  1.00  0.00     0.073 C 
ATOM      8  O   UNL     1     -10.174   9.928 -12.079  1.00  0.00    -0.545 OA
ATOM      9  O   UNL     1     -11.252  11.911 -12.427  1.00  0.00    -0.545 OA
ENDBRANCH   1   7
TORSDOF 1
ENDMDL
MODEL 8
REMARK VINA RESULT:    -4.422      2.746      3.901
REMARK INTER + INTRA:          -4.704
REMARK INTER:                  -4.680
REMARK INTRA:                  -0.024
REMARK UNBOUND:                -0.024
REMARK SMILES O=C([O-])c1cccnc1
REMARK SMILES IDX 4 1 5 2 9 3 6 4 8 5 7 6 2 7 1 8 3 9
REMARK H PARENT
REMARK Flexibility Score: inf
ROOT
ATOM      1  C   UNL     1     -12.567  10.707  -9.945  1.00  0.00     0.016 A 
ATOM      2  C   UNL     1     -12.269  10.723 -11.318  1.00  0.00     0.013 A 
ATOM      3  C   UNL     1     -13.738  11.348  -9.508  1.00  0.00     0.120 A 
ATOM      4  C   UNL     1     -13.125  11.366 -12.212  1.00  0.00     0.021 A 
ATOM      5  N   UNL     1     -14.556  11.967 -10.401  1.00  0.00    -0.264 NA
ATOM      6  C   UNL     1     -14.277  11.989 -11.730  1.00  0.00     0.111 A 
ENDROOT
BRANCH   1   7
ATOM      7  C   UNL     1     -11.672  10.031  -8.979  1.00  0.00     0.073 C 
ATOM      8  O   UNL     1     -10.556   9.579  -9.350  1.00  0.00    -0.545 OA
ATOM      9  O   UNL     1     -12.051   9.886  -7.650  1.00  0.00    -0.545 OA
ENDBRANCH   1   7
TORSDOF 1
ENDMDL
MODEL 9
REMARK VINA RESULT:    -4.383      3.170      4.093
REMARK INTER + INTRA:          -4.663
REMARK INTER:                  -4.641
REMARK INTRA:                  -0.022
REMARK UNBOUND:                -0.024
REMARK SMILES O=C([O-])c1cccnc1
REMARK SMILES IDX 4 1 5 2 9 3 6 4 8 5 7 6 2 7 1 8 3 9
REMARK H PARENT
REMARK Flexibility Score: inf
ROOT
ATOM      1  C   UNL     1     -13.965  10.342  -8.554  1.00  0.00     0.016 A 
ATOM      2  C   UNL     1     -12.720   9.715  -8.379  1.00  0.00     0.013 A 
ATOM      3  C   UNL     1     -14.091  11.308  -9.567  1.00  0.00     0.120 A 
ATOM      4  C   UNL     1     -11.644  10.056  -9.199  1.00  0.00     0.021 A 
ATOM      5  N   UNL     1     -13.026  11.621 -10.352  1.00  0.00    -0.264 NA
ATOM      6  C   UNL     1     -11.817  11.021 -10.192  1.00  0.00     0.111 A 
ENDROOT
BRANCH   1   7
ATOM      7  C   UNL     1     -15.119   9.996  -7.695  1.00  0.00     0.073 C 
ATOM      8  O   UNL     1     -14.940   9.583  -6.519  1.00  0.00    -0.545 OA
ATOM      9  O   UNL     1     -16.417  10.123  -8.175  1.00  0.00    -0.545 OA
ENDBRANCH   1   7
TORSDOF 1
ENDMDL
