MODEL 1
REMARK VINA RESULT:    -3.614      0.000      0.000
REMARK INTER + INTRA:          -4.600
REMARK INTER:                  -4.460
REMARK INTRA:                  -0.140
REMARK UNBOUND:                -0.140
REMARK SMILES CCCCCC(=O)[O-]
REMARK SMILES IDX 4 1 5 2 6 3 7 4 8 5 3 6 2 7 1 8
REMARK H PARENT
REMARK Flexibility Score: inf
ROOT
ATOM      1  C   UNL     1     -28.308 -20.156 -28.514  1.00  0.00     0.006 C 
ENDROOT
BRANCH   1   2
ATOM      2  C   UNL     1     -28.335 -20.592 -27.046  1.00  0.00     0.053 C 
BRANCH   2   3
ATOM      3  C   UNL     1     -28.571 -19.415 -26.153  1.00  0.00     0.041 C 
ATOM      4  O   UNL     1     -29.487 -18.593 -26.418  1.00  0.00    -0.550 OA
ATOM      5  O   UNL     1     -27.811 -19.251 -25.002  1.00  0.00    -0.550 OA
ENDBRANCH   2   3
ENDBRANCH   1   2
BRANCH   1   6
ATOM      6  C   UNL     1     -27.048 -20.679 -29.219  1.00  0.00     0.000 C 
BRANCH   6   7
ATOM      7  C   UNL     1     -26.015 -21.251 -28.237  1.00  0.00    -0.003 C 
ATOM      8  C   UNL     1     -25.530 -22.645 -28.634  1.00  0.00     0.004 C 
ENDBRANCH   6   7
ENDBRANCH   1   6
TORSDOF 4
ENDMDL
MODEL 2
REMARK VINA RESULT:    -3.497      2.935      4.303
REMARK INTER + INTRA:          -4.455
REMARK INTER:                  -4.317
REMARK INTRA:                  -0.138
REMARK UNBOUND:                -0.140
REMARK SMILES CCCCCC(=O)[O-]
REMARK SMILES IDX 4 1 5 2 6 3 7 4 8 5 3 6 2 7 1 8
REMARK H PARENT
REMARK Flexibility Score: inf
ROOT
ATOM      1  C   UNL     1     -27.818 -20.800 -29.256  1.00  0.00     0.006 C 
ENDROOT
BRANCH   1   2
ATOM      2  C   UNL     1     -27.237 -21.928 -28.399  1.00  0.00     0.053 C 
BRANCH   2   3
ATOM      3  C   UNL     1     -25.784 -22.120 -28.702  1.00  0.00     0.041 C 
ATOM      4  O   UNL     1     -24.914 -21.840 -27.835  1.00  0.00    -0.550 OA
ATOM      5  O   UNL     1     -25.392 -22.656 -29.922  1.00  0.00    -0.550 OA
ENDBRANCH   2   3
ENDBRANCH   1   2
BRANCH   1   6
ATOM      6  C   UNL     1     -28.592 -19.795 -28.389  1.00  0.00     0.000 C 
BRANCH   6   7
ATOM      7  C   UNL     1     -28.285 -19.946 -26.891  1.00  0.00    -0.003 C 
ATOM      8  C   UNL     1     -29.261 -19.172 -26.007  1.00  0.00     0.004 C 
ENDBRANCH   6   7
ENDBRANCH   1   6
TORSDOF 4
ENDMDL
MODEL 3
REMARK VINA RESULT:    -3.333     13.620     14.639
REMARK INTER + INTRA:          -4.252
REMARK INTER:                  -4.108
REMARK INTRA:                  -0.144
REMARK UNBOUND:                -0.140
REMARK SMILES CCCCCC(=O)[O-]
REMARK SMILES IDX 4 1 5 2 6 3 7 4 8 5 3 6 2 7 1 8
REMARK H PARENT
REMARK Flexibility Score: inf
ROOT
ATOM      1  C   UNL     1     -23.163 -13.052 -14.764  1.00  0.00     0.006 C 
ENDROOT
BRANCH   1   2
ATOM      2  C   UNL     1     -23.221 -12.162 -16.009  1.00  0.00     0.053 C 
BRANCH   2   3
ATOM      3  C   UNL     1     -22.601 -12.858 -17.180  1.00  0.00     0.041 C 
ATOM      4  O   UNL     1     -22.996 -12.604 -18.349  1.00  0.00    -0.550 OA
ATOM      5  O   UNL     1     -21.554 -13.750 -16.985  1.00  0.00    -0.550 OA
ENDBRANCH   2   3
ENDBRANCH   1   2
BRANCH   1   6
ATOM      6  C   UNL     1     -24.506 -13.043 -14.018  1.00  0.00     0.000 C 
BRANCH   6   7
ATOM      7  C   UNL     1     -25.221 -14.402 -14.070  1.00  0.00    -0.003 C 
ATOM      8  C   UNL     1     -24.323 -15.522 -14.594  1.00  0.00     0.004 C 
ENDBRANCH   6   7
ENDBRANCH   1   6
TORSDOF 4
ENDMDL
MODEL 4
REMARK VINA RESULT:    -3.293     13.347     14.508
REMARK INTER + INTRA:          -4.203
REMARK INTER:                  -4.126
REMARK INTRA:                  -0.077
REMARK UNBOUND:                -0.140
REMARK SMILES CCCCCC(=O)[O-]
REMARK SMILES IDX 4 1 5 2 6 3 7 4 8 5 3 6 2 7 1 8
REMARK H PARENT
REMARK Flexibility Score: inf
ROOT
ATOM      1  C   UNL     1     -22.632 -13.449 -15.172  1.00  0.00     0.006 C 
ENDROOT
BRANCH   1   2
ATOM      2  C   UNL     1     -23.544 -14.510 -14.551  1.00  0.00     0.053 C 
BRANCH   2   3
ATOM      3  C   UNL     1     -24.799 -13.883 -14.030  1.00  0.00     0.041 C 
ATOM      4  O   UNL     1     -25.842 -14.575 -13.891  1.00  0.00    -0.550 OA
ATOM      5  O   UNL     1     -24.804 -12.547 -13.651  1.00  0.00    -0.550 OA
ENDBRANCH   2   3
ENDBRANCH   1   2
BRANCH   1   6
ATOM      6  C   UNL     1     -22.655 -13.533 -16.706  1.00  0.00     0.000 C 
BRANCH   6   7
ATOM      7  C   UNL     1     -22.556 -12.154 -17.376  1.00  0.00    -0.003 C 
ATOM      8  C   UNL     1     -22.528 -12.238 -18.901  1.00  0.00     0.004 C 
ENDBRANCH   6   7
ENDBRANCH   1   6
TORSDOF 4
ENDMDL
MODEL 5
REMARK VINA RESULT:    -3.278     13.944     14.523
REMARK INTER + INTRA:          -4.184
REMARK INTER:                  -4.043
REMARK INTRA:                  -0.141
REMARK UNBOUND:                -0.140
REMARK SMILES CCCCCC(=O)[O-]
REMARK SMILES IDX 4 1 5 2 6 3 7 4 8 5 3 6 2 7 1 8
REMARK H PARENT
REMARK Flexibility Score: inf
ROOT
ATOM      1  C   UNL     1     -23.329 -12.269 -15.758  1.00  0.00     0.006 C 
ENDROOT
BRANCH   1   2
ATOM      2  C   UNL     1     -22.955 -13.321 -14.710  1.00  0.00     0.053 C 
BRANCH   2   3
ATOM      3  C   UNL     1     -24.181 -14.009 -14.197  1.00  0.00     0.041 C 
ATOM      4  O   UNL     1     -25.193 -13.336 -13.866  1.00  0.00    -0.550 OA
ATOM      5  O   UNL     1     -24.225 -15.396 -14.132  1.00  0.00    -0.550 OA
ENDBRANCH   2   3
ENDBRANCH   1   2
BRANCH   1   6
ATOM      6  C   UNL     1     -22.604 -12.535 -17.086  1.00  0.00     0.000 C 
BRANCH   6   7
ATOM      7  C   UNL     1     -21.710 -13.783 -17.033  1.00  0.00    -0.003 C 
ATOM      8  C   UNL     1     -20.344 -13.559 -17.680  1.00  0.00     0.004 C 
ENDBRANCH   6   7
ENDBRANCH   1   6
TORSDOF 4
ENDMDL
MODEL 6
REMARK VINA RESULT:    -3.273     13.079     14.517
REMARK INTER + INTRA:          -4.179
REMARK INTER:                  -4.087
REMARK INTRA:                  -0.092
REMARK UNBOUND:                -0.140
REMARK SMILES CCCCCC(=O)[O-]
REMARK SMILES IDX 4 1 5 2 6 3 7 4 8 5 3 6 2 7 1 8
REMARK H PARENT
REMARK Flexibility Score: inf
ROOT
ATOM      1  C   UNL     1     -22.660 -13.629 -16.400  1.00  0.00     0.006 C 
ENDROOT
BRANCH   1   2
ATOM      2  C   UNL     1     -22.680 -12.313 -17.182  1.00  0.00     0.053 C 
BRANCH   2   3
ATOM      3  C   UNL     1     -21.986 -12.474 -18.498  1.00  0.00     0.041 C 
ATOM      4  O   UNL     1     -20.729 -12.516 -18.550  1.00  0.00    -0.550 OA
ATOM      5  O   UNL     1     -22.729 -12.629 -19.662  1.00  0.00    -0.550 OA
ENDBRANCH   2   3
ENDBRANCH   1   2
BRANCH   1   6
ATOM      6  C   UNL     1     -22.717 -13.371 -14.887  1.00  0.00     0.000 C 
BRANCH   6   7
ATOM      7  C   UNL     1     -23.989 -12.620 -14.463  1.00  0.00    -0.003 C 
ATOM      8  C   UNL     1     -25.100 -13.559 -13.995  1.00  0.00     0.004 C 
ENDBRANCH   6   7
ENDBRANCH   1   6
TORSDOF 4
ENDMDL
MODEL 7
REMARK VINA RESULT:    -3.257     13.838     14.671
REMARK INTER + INTRA:          -4.159
REMARK INTER:                  -4.025
REMARK INTRA:                  -0.134
REMARK UNBOUND:                -0.140
REMARK SMILES CCCCCC(=O)[O-]
REMARK SMILES IDX 4 1 5 2 6 3 7 4 8 5 3 6 2 7 1 8
REMARK H PARENT
REMARK Flexibility Score: inf
ROOT
ATOM      1  C   UNL     1     -22.506 -12.776 -17.295  1.00  0.00     0.006 C 
ENDROOT
BRANCH   1   2
ATOM      2  C   UNL     1     -21.335 -13.752 -17.148  1.00  0.00     0.053 C 
BRANCH   2   3
ATOM      3  C   UNL     1     -20.150 -13.269 -17.924  1.00  0.00     0.041 C 
ATOM      4  O   UNL     1     -20.313 -12.572 -18.960  1.00  0.00    -0.550 OA
ATOM      5  O   UNL     1     -18.864 -13.549 -17.478  1.00  0.00    -0.550 OA
ENDBRANCH   2   3
ENDBRANCH   1   2
BRANCH   1   6
ATOM      6  C   UNL     1     -23.098 -12.418 -15.924  1.00  0.00     0.000 C 
BRANCH   6   7
ATOM      7  C   UNL     1     -22.682 -13.406 -14.823  1.00  0.00    -0.003 C 
ATOM      8  C   UNL     1     -23.855 -14.230 -14.294  1.00  0.00     0.004 C 
ENDBRANCH   6   7
ENDBRANCH   1   6
TORSDOF 4
ENDMDL
MODEL 8
REMARK VINA RESULT:    -3.231     13.672     14.401
REMARK INTER + INTRA:          -4.126
REMARK INTER:                  -3.952
REMARK INTRA:                  -0.175
REMARK UNBOUND:                -0.140
REMARK SMILES CCCCCC(=O)[O-]
REMARK SMILES IDX 4 1 5 2 6 3 7 4 8 5 3 6 2 7 1 8
REMARK H PARENT
REMARK Flexibility Score: inf
ROOT
ATOM      1  C   UNL     1     -23.085 -12.572 -16.092  1.00  0.00     0.006 C 
ENDROOT
BRANCH   1   2
ATOM      2  C   UNL     1     -22.794 -13.356 -14.809  1.00  0.00     0.053 C 
BRANCH   2   3
ATOM      3  C   UNL     1     -24.030 -14.046 -14.324  1.00  0.00     0.041 C 
ATOM      4  O   UNL     1     -24.097 -15.303 -14.329  1.00  0.00    -0.550 OA
ATOM      5  O   UNL     1     -25.090 -13.301 -13.821  1.00  0.00    -0.550 OA
ENDBRANCH   2   3
ENDBRANCH   1   2
BRANCH   1   6
ATOM      6  C   UNL     1     -22.588 -13.335 -17.329  1.00  0.00     0.000 C 
BRANCH   6   7
ATOM      7  C   UNL     1     -21.408 -14.268 -17.013  1.00  0.00    -0.003 C 
ATOM      8  C   UNL     1     -20.074 -13.727 -17.523  1.00  0.00     0.004 C 
ENDBRANCH   6   7
ENDBRANCH   1   6
TORSDOF 4
ENDMDL
MODEL 9
REMARK VINA RESULT:    -3.224      1.627      2.373
REMARK INTER + INTRA:          -4.118
REMARK INTER:                  -4.048
REMARK INTRA:                  -0.070
REMARK UNBOUND:                -0.140
REMARK SMILES CCCCCC(=O)[O-]
REMARK SMILES IDX 4 1 5 2 6 3 7 4 8 5 3 6 2 7 1 8
REMARK H PARENT
REMARK Flexibility Score: inf
ROOT
ATOM      1  C   UNL     1     -25.887 -21.378 -28.486  1.00  0.00     0.006 C 
ENDROOT
BRANCH   1   2
ATOM      2  C   UNL     1     -27.414 -21.482 -28.464  1.00  0.00     0.053 C 
BRANCH   2   3
ATOM      3  C   UNL     1     -28.004 -20.364 -27.663  1.00  0.00     0.041 C 
ATOM      4  O   UNL     1     -28.978 -19.707 -28.115  1.00  0.00    -0.550 OA
ATOM      5  O   UNL     1     -27.510 -20.080 -26.396  1.00  0.00    -0.550 OA
ENDBRANCH   2   3
ENDBRANCH   1   2
BRANCH   1   6
ATOM      6  C   UNL     1     -25.239 -22.763 -28.336  1.00  0.00     0.000 C 
BRANCH   6   7
ATOM      7  C   UNL     1     -23.990 -22.737 -27.442  1.00  0.00    -0.003 C 
ATOM      8  C   UNL     1     -22.802 -22.043 -28.106  1.00  0.00     0.004 C 
ENDBRANCH   6   7
ENDBRANCH   1   6
TORSDOF 4
ENDMDL
