MODEL 1
REMARK VINA RESULT:     5.030      0.000      0.000
REMARK INTER + INTRA:          11.773
REMARK INTER:                  12.674
REMARK INTRA:                  -0.901
REMARK UNBOUND:                -0.901
REMARK SMILES CCCCCCCCCCCCCCCCCCCCCCCCCCCC(=O)[O-]
REMARK SMILES IDX 15 1 16 2 17 3 18 4 19 5 20 6 21 7 22 8 23 9 24 10 25 11
REMARK SMILES IDX 26 12 27 13 28 14 29 15 30 16 14 17 13 18 12 19 11 20 10 21
REMARK SMILES IDX 9 22 8 23 7 24 6 25 5 26 4 27 3 28 2 29 1 30
REMARK H PARENT
REMARK Flexibility Score: inf
ROOT
ATOM      1  C   UNL     1      21.568 -18.028  10.687  1.00  0.00     0.000 C 
ENDROOT
BRANCH   1   2
ATOM      2  C   UNL     1      21.746 -17.664  12.169  1.00  0.00     0.000 C 
BRANCH   2   3
ATOM      3  C   UNL     1      23.125 -17.043  12.458  1.00  0.00     0.000 C 
BRANCH   3   4
ATOM      4  C   UNL     1      23.036 -15.798  13.363  1.00  0.00     0.000 C 
BRANCH   4   5
ATOM      5  C   UNL     1      21.590 -15.331  13.644  1.00  0.00     0.000 C 
BRANCH   5   6
ATOM      6  C   UNL     1      21.438 -14.563  14.970  1.00  0.00     0.000 C 
BRANCH   6   7
ATOM      7  C   UNL     1      22.754 -14.491  15.773  1.00  0.00     0.000 C 
BRANCH   7   8
ATOM      8  C   UNL     1      22.662 -15.235  17.119  1.00  0.00     0.000 C 
BRANCH   8   9
ATOM      9  C   UNL     1      22.824 -16.765  17.000  1.00  0.00     0.000 C 
BRANCH   9  10
ATOM     10  C   UNL     1      22.063 -17.409  15.824  1.00  0.00     0.000 C 
BRANCH  10  11
ATOM     11  C   UNL     1      20.757 -18.118  16.243  1.00  0.00     0.000 C 
BRANCH  11  12
ATOM     12  C   UNL     1      19.802 -17.175  16.992  1.00  0.00     0.006 C 
BRANCH  12  13
ATOM     13  C   UNL     1      18.361 -17.699  16.939  1.00  0.00     0.053 C 
BRANCH  13  14
ATOM     14  C   UNL     1      17.520 -16.866  16.023  1.00  0.00     0.041 C 
ATOM     15  O   UNL     1      17.113 -15.732  16.392  1.00  0.00    -0.550 OA
ATOM     16  O   UNL     1      17.191 -17.337  14.757  1.00  0.00    -0.550 OA
ENDBRANCH  13  14
ENDBRANCH  12  13
ENDBRANCH  11  12
ENDBRANCH  10  11
ENDBRANCH   9  10
ENDBRANCH   8   9
ENDBRANCH   7   8
ENDBRANCH   6   7
ENDBRANCH   5   6
ENDBRANCH   4   5
ENDBRANCH   3   4
ENDBRANCH   2   3
ENDBRANCH   1   2
BRANCH   1  17
ATOM     17  C   UNL     1      20.224 -17.545  10.110  1.00  0.00     0.000 C 
BRANCH  17  18
ATOM     18  C   UNL     1      19.194 -17.260  11.215  1.00  0.00     0.000 C 
BRANCH  18  19
ATOM     19  C   UNL     1      17.761 -17.189  10.661  1.00  0.00     0.000 C 
BRANCH  19  20
ATOM     20  C   UNL     1      17.655 -16.385   9.353  1.00  0.00     0.000 C 
BRANCH  20  21
ATOM     21  C   UNL     1      18.496 -15.088   9.307  1.00  0.00     0.000 C 
BRANCH  21  22
ATOM     22  C   UNL     1      17.691 -13.776   9.313  1.00  0.00    -0.000 C 
BRANCH  22  23
ATOM     23  C   UNL     1      18.380 -12.650  10.101  1.00  0.00    -0.000 C 
BRANCH  23  24
ATOM     24  C   UNL     1      17.841 -11.254   9.740  1.00  0.00    -0.000 C 
BRANCH  24  25
ATOM     25  C   UNL     1      16.700 -10.771  10.661  1.00  0.00    -0.000 C 
BRANCH  25  26
ATOM     26  C   UNL     1      16.860  -9.291  11.055  1.00  0.00    -0.000 C 
BRANCH  26  27
ATOM     27  C   UNL     1      16.380  -8.328   9.956  1.00  0.00    -0.000 C 
BRANCH  27  28
ATOM     28  C   UNL     1      15.085  -8.801   9.279  1.00  0.00    -0.000 C 
BRANCH  28  29
ATOM     29  C   UNL     1      14.870  -8.080   7.944  1.00  0.00    -0.003 C 
ATOM     30  C   UNL     1      14.524  -6.610   8.161  1.00  0.00     0.004 C 
ENDBRANCH  28  29
ENDBRANCH  27  28
ENDBRANCH  26  27
ENDBRANCH  25  26
ENDBRANCH  24  25
ENDBRANCH  23  24
ENDBRANCH  22  23
ENDBRANCH  21  22
ENDBRANCH  20  21
ENDBRANCH  19  20
ENDBRANCH  18  19
ENDBRANCH  17  18
ENDBRANCH   1  17
TORSDOF 26
ENDMDL
MODEL 2
REMARK VINA RESULT:     5.429      3.444      9.391
REMARK INTER + INTRA:          12.779
REMARK INTER:                  14.646
REMARK INTRA:                  -1.868
REMARK UNBOUND:                -0.901
REMARK SMILES CCCCCCCCCCCCCCCCCCCCCCCCCCCC(=O)[O-]
REMARK SMILES IDX 15 1 16 2 17 3 18 4 19 5 20 6 21 7 22 8 23 9 24 10 25 11
REMARK SMILES IDX 26 12 27 13 28 14 29 15 30 16 14 17 13 18 12 19 11 20 10 21
REMARK SMILES IDX 9 22 8 23 7 24 6 25 5 26 4 27 3 28 2 29 1 30
REMARK H PARENT
REMARK Flexibility Score: inf
ROOT
ATOM      1  C   UNL     1      19.069 -18.049  11.172  1.00  0.00     0.000 C 
ENDROOT
BRANCH   1   2
ATOM      2  C   UNL     1      17.587 -17.659  11.063  1.00  0.00     0.000 C 
BRANCH   2   3
ATOM      3  C   UNL     1      16.956 -18.115   9.734  1.00  0.00     0.000 C 
BRANCH   3   4
ATOM      4  C   UNL     1      17.367 -17.222   8.546  1.00  0.00     0.000 C 
BRANCH   4   5
ATOM      5  C   UNL     1      18.355 -16.095   8.924  1.00  0.00     0.000 C 
BRANCH   5   6
ATOM      6  C   UNL     1      17.734 -14.687   8.862  1.00  0.00     0.000 C 
BRANCH   6   7
ATOM      7  C   UNL     1      18.735 -13.576   9.247  1.00  0.00     0.000 C 
BRANCH   7   8
ATOM      8  C   UNL     1      18.260 -12.753  10.460  1.00  0.00     0.000 C 
BRANCH   8   9
ATOM      9  C   UNL     1      18.315 -11.227  10.240  1.00  0.00     0.000 C 
BRANCH   9  10
ATOM     10  C   UNL     1      17.294 -10.415  11.061  1.00  0.00     0.000 C 
BRANCH  10  11
ATOM     11  C   UNL     1      16.815  -9.127  10.356  1.00  0.00     0.000 C 
BRANCH  11  12
ATOM     12  C   UNL     1      15.522  -9.352   9.557  1.00  0.00     0.006 C 
BRANCH  12  13
ATOM     13  C   UNL     1      14.643  -8.094   9.571  1.00  0.00     0.053 C 
BRANCH  13  14
ATOM     14  C   UNL     1      14.717  -7.372   8.262  1.00  0.00     0.041 C 
ATOM     15  O   UNL     1      14.255  -7.904   7.217  1.00  0.00    -0.550 OA
ATOM     16  O   UNL     1      15.289  -6.106   8.195  1.00  0.00    -0.550 OA
ENDBRANCH  13  14
ENDBRANCH  12  13
ENDBRANCH  11  12
ENDBRANCH  10  11
ENDBRANCH   9  10
ENDBRANCH   8   9
ENDBRANCH   7   8
ENDBRANCH   6   7
ENDBRANCH   5   6
ENDBRANCH   4   5
ENDBRANCH   3   4
ENDBRANCH   2   3
ENDBRANCH   1   2
BRANCH   1  17
ATOM     17  C   UNL     1      19.757 -17.442  12.408  1.00  0.00     0.000 C 
BRANCH  17  18
ATOM     18  C   UNL     1      19.968 -15.927  12.262  1.00  0.00     0.000 C 
BRANCH  18  19
ATOM     19  C   UNL     1      19.380 -15.147  13.452  1.00  0.00     0.000 C 
BRANCH  19  20
ATOM     20  C   UNL     1      17.969 -15.617  13.848  1.00  0.00     0.000 C 
BRANCH  20  21
ATOM     21  C   UNL     1      17.711 -15.717  15.368  1.00  0.00     0.000 C 
BRANCH  21  22
ATOM     22  C   UNL     1      17.391 -17.127  15.895  1.00  0.00    -0.000 C 
BRANCH  22  23
ATOM     23  C   UNL     1      18.600 -18.076  15.853  1.00  0.00    -0.000 C 
BRANCH  23  24
ATOM     24  C   UNL     1      19.508 -17.938  17.088  1.00  0.00    -0.000 C 
BRANCH  24  25
ATOM     25  C   UNL     1      20.497 -16.756  17.005  1.00  0.00    -0.000 C 
BRANCH  25  26
ATOM     26  C   UNL     1      21.962 -17.216  17.124  1.00  0.00    -0.000 C 
BRANCH  26  27
ATOM     27  C   UNL     1      22.404 -18.099  15.946  1.00  0.00    -0.000 C 
BRANCH  27  28
ATOM     28  C   UNL     1      23.125 -17.304  14.847  1.00  0.00    -0.000 C 
BRANCH  28  29
ATOM     29  C   UNL     1      22.345 -16.035  14.487  1.00  0.00    -0.003 C 
ATOM     30  C   UNL     1      23.077 -14.785  14.967  1.00  0.00     0.004 C 
ENDBRANCH  28  29
ENDBRANCH  27  28
ENDBRANCH  26  27
ENDBRANCH  25  26
ENDBRANCH  24  25
ENDBRANCH  23  24
ENDBRANCH  22  23
ENDBRANCH  21  22
ENDBRANCH  20  21
ENDBRANCH  19  20
ENDBRANCH  18  19
ENDBRANCH  17  18
ENDBRANCH   1  17
TORSDOF 26
ENDMDL
MODEL 3
REMARK VINA RESULT:     5.910      4.448     10.691
REMARK INTER + INTRA:          13.992
REMARK INTER:                  16.003
REMARK INTRA:                  -2.011
REMARK UNBOUND:                -0.901
REMARK SMILES CCCCCCCCCCCCCCCCCCCCCCCCCCCC(=O)[O-]
REMARK SMILES IDX 15 1 16 2 17 3 18 4 19 5 20 6 21 7 22 8 23 9 24 10 25 11
REMARK SMILES IDX 26 12 27 13 28 14 29 15 30 16 14 17 13 18 12 19 11 20 10 21
REMARK SMILES IDX 9 22 8 23 7 24 6 25 5 26 4 27 3 28 2 29 1 30
REMARK H PARENT
REMARK Flexibility Score: inf
ROOT
ATOM      1  C   UNL     1      18.034 -17.060  10.010  1.00  0.00     0.000 C 
ENDROOT
BRANCH   1   2
ATOM      2  C   UNL     1      18.959 -16.012   9.372  1.00  0.00     0.000 C 
BRANCH   2   3
ATOM      3  C   UNL     1      18.205 -14.733   8.965  1.00  0.00     0.000 C 
BRANCH   3   4
ATOM      4  C   UNL     1      18.618 -13.509   9.807  1.00  0.00     0.000 C 
BRANCH   4   5
ATOM      5  C   UNL     1      17.557 -12.386   9.839  1.00  0.00     0.000 C 
BRANCH   5   6
ATOM      6  C   UNL     1      18.127 -11.012  10.237  1.00  0.00     0.000 C 
BRANCH   6   7
ATOM      7  C   UNL     1      17.036 -10.026  10.706  1.00  0.00     0.000 C 
BRANCH   7   8
ATOM      8  C   UNL     1      16.794  -8.893   9.690  1.00  0.00     0.000 C 
BRANCH   8   9
ATOM      9  C   UNL     1      15.309  -8.685   9.327  1.00  0.00     0.000 C 
BRANCH   9  10
ATOM     10  C   UNL     1      14.864  -7.212   9.224  1.00  0.00     0.000 C 
BRANCH  10  11
ATOM     11  C   UNL     1      14.741  -6.701   7.773  1.00  0.00     0.000 C 
BRANCH  11  12
ATOM     12  C   UNL     1      14.214  -5.259   7.710  1.00  0.00     0.006 C 
BRANCH  12  13
ATOM     13  C   UNL     1      15.319  -4.289   7.269  1.00  0.00     0.053 C 
BRANCH  13  14
ATOM     14  C   UNL     1      15.206  -3.974   5.810  1.00  0.00     0.041 C 
ATOM     15  O   UNL     1      14.080  -3.983   5.245  1.00  0.00    -0.550 OA
ATOM     16  O   UNL     1      16.344  -3.662   5.074  1.00  0.00    -0.550 OA
ENDBRANCH  13  14
ENDBRANCH  12  13
ENDBRANCH  11  12
ENDBRANCH  10  11
ENDBRANCH   9  10
ENDBRANCH   8   9
ENDBRANCH   7   8
ENDBRANCH   6   7
ENDBRANCH   5   6
ENDBRANCH   4   5
ENDBRANCH   3   4
ENDBRANCH   2   3
ENDBRANCH   1   2
BRANCH   1  17
ATOM     17  C   UNL     1      18.185 -17.137  11.541  1.00  0.00     0.000 C 
BRANCH  17  18
ATOM     18  C   UNL     1      19.285 -18.125  11.960  1.00  0.00     0.000 C 
BRANCH  18  19
ATOM     19  C   UNL     1      20.020 -17.662  13.230  1.00  0.00     0.000 C 
BRANCH  19  20
ATOM     20  C   UNL     1      20.882 -16.405  13.008  1.00  0.00     0.000 C 
BRANCH  20  21
ATOM     21  C   UNL     1      22.390 -16.581  13.298  1.00  0.00     0.000 C 
BRANCH  21  22
ATOM     22  C   UNL     1      23.013 -15.526  14.229  1.00  0.00    -0.000 C 
BRANCH  22  23
ATOM     23  C   UNL     1      21.996 -14.901  15.198  1.00  0.00    -0.000 C 
BRANCH  23  24
ATOM     24  C   UNL     1      22.168 -15.399  16.644  1.00  0.00    -0.000 C 
BRANCH  24  25
ATOM     25  C   UNL     1      21.848 -16.898  16.828  1.00  0.00    -0.000 C 
BRANCH  25  26
ATOM     26  C   UNL     1      20.332 -17.169  16.849  1.00  0.00    -0.000 C 
BRANCH  26  27
ATOM     27  C   UNL     1      19.499 -15.900  16.609  1.00  0.00    -0.000 C 
BRANCH  27  28
ATOM     28  C   UNL     1      18.002 -16.198  16.436  1.00  0.00    -0.000 C 
BRANCH  28  29
ATOM     29  C   UNL     1      17.780 -17.638  15.960  1.00  0.00    -0.003 C 
ATOM     30  C   UNL     1      16.566 -17.734  15.041  1.00  0.00     0.004 C 
ENDBRANCH  28  29
ENDBRANCH  27  28
ENDBRANCH  26  27
ENDBRANCH  25  26
ENDBRANCH  24  25
ENDBRANCH  23  24
ENDBRANCH  22  23
ENDBRANCH  21  22
ENDBRANCH  20  21
ENDBRANCH  19  20
ENDBRANCH  18  19
ENDBRANCH  17  18
ENDBRANCH   1  17
TORSDOF 26
ENDMDL
MODEL 4
REMARK VINA RESULT:     5.992      1.191      2.941
REMARK INTER + INTRA:          14.199
REMARK INTER:                  15.822
REMARK INTRA:                  -1.623
REMARK UNBOUND:                -0.901
REMARK SMILES CCCCCCCCCCCCCCCCCCCCCCCCCCCC(=O)[O-]
REMARK SMILES IDX 15 1 16 2 17 3 18 4 19 5 20 6 21 7 22 8 23 9 24 10 25 11
REMARK SMILES IDX 26 12 27 13 28 14 29 15 30 16 14 17 13 18 12 19 11 20 10 21
REMARK SMILES IDX 9 22 8 23 7 24 6 25 5 26 4 27 3 28 2 29 1 30
REMARK H PARENT
REMARK Flexibility Score: inf
ROOT
ATOM      1  C   UNL     1      17.142 -17.783  10.372  1.00  0.00     0.000 C 
ENDROOT
BRANCH   1   2
ATOM      2  C   UNL     1      17.519 -17.771  11.861  1.00  0.00     0.000 C 
BRANCH   2   3
ATOM      3  C   UNL     1      18.073 -16.408  12.315  1.00  0.00     0.000 C 
BRANCH   3   4
ATOM      4  C   UNL     1      19.590 -16.276  12.078  1.00  0.00     0.000 C 
BRANCH   4   5
ATOM      5  C   UNL     1      20.294 -17.617  11.770  1.00  0.00     0.000 C 
BRANCH   5   6
ATOM      6  C   UNL     1      21.210 -18.107  12.907  1.00  0.00     0.000 C 
BRANCH   6   7
ATOM      7  C   UNL     1      22.534 -17.319  12.988  1.00  0.00     0.000 C 
BRANCH   7   8
ATOM      8  C   UNL     1      22.665 -16.525  14.303  1.00  0.00     0.000 C 
BRANCH   8   9
ATOM      9  C   UNL     1      22.049 -15.112  14.244  1.00  0.00     0.000 C 
BRANCH   9  10
ATOM     10  C   UNL     1      21.056 -14.789  15.379  1.00  0.00     0.000 C 
BRANCH  10  11
ATOM     11  C   UNL     1      21.100 -15.797  16.548  1.00  0.00     0.000 C 
BRANCH  11  12
ATOM     12  C   UNL     1      20.028 -16.890  16.408  1.00  0.00     0.006 C 
BRANCH  12  13
ATOM     13  C   UNL     1      18.624 -16.275  16.331  1.00  0.00     0.053 C 
BRANCH  13  14
ATOM     14  C   UNL     1      17.586 -17.331  16.110  1.00  0.00     0.041 C 
ATOM     15  O   UNL     1      17.599 -18.021  15.056  1.00  0.00    -0.550 OA
ATOM     16  O   UNL     1      16.608 -17.560  17.072  1.00  0.00    -0.550 OA
ENDBRANCH  13  14
ENDBRANCH  12  13
ENDBRANCH  11  12
ENDBRANCH  10  11
ENDBRANCH   9  10
ENDBRANCH   8   9
ENDBRANCH   7   8
ENDBRANCH   6   7
ENDBRANCH   5   6
ENDBRANCH   4   5
ENDBRANCH   3   4
ENDBRANCH   2   3
ENDBRANCH   1   2
BRANCH   1  17
ATOM     17  C   UNL     1      18.183 -17.074   9.486  1.00  0.00     0.000 C 
BRANCH  17  18
ATOM     18  C   UNL     1      17.536 -16.403   8.264  1.00  0.00     0.000 C 
BRANCH  18  19
ATOM     19  C   UNL     1      17.261 -14.908   8.507  1.00  0.00     0.000 C 
BRANCH  19  20
ATOM     20  C   UNL     1      18.523 -14.113   8.888  1.00  0.00     0.000 C 
BRANCH  20  21
ATOM     21  C   UNL     1      18.364 -13.165  10.098  1.00  0.00     0.000 C 
BRANCH  21  22
ATOM     22  C   UNL     1      17.843 -11.754   9.770  1.00  0.00    -0.000 C 
BRANCH  22  23
ATOM     23  C   UNL     1      17.793 -10.830  10.998  1.00  0.00    -0.000 C 
BRANCH  23  24
ATOM     24  C   UNL     1      16.523  -9.961  11.038  1.00  0.00    -0.000 C 
BRANCH  24  25
ATOM     25  C   UNL     1      16.458  -8.901   9.918  1.00  0.00    -0.000 C 
BRANCH  25  26
ATOM     26  C   UNL     1      15.091  -8.890   9.208  1.00  0.00    -0.000 C 
BRANCH  26  27
ATOM     27  C   UNL     1      14.460  -7.489   9.157  1.00  0.00    -0.000 C 
BRANCH  27  28
ATOM     28  C   UNL     1      14.875  -6.697   7.908  1.00  0.00    -0.000 C 
BRANCH  28  29
ATOM     29  C   UNL     1      15.037  -5.208   8.231  1.00  0.00    -0.003 C 
ATOM     30  C   UNL     1      14.973  -4.359   6.965  1.00  0.00     0.004 C 
ENDBRANCH  28  29
ENDBRANCH  27  28
ENDBRANCH  26  27
ENDBRANCH  25  26
ENDBRANCH  24  25
ENDBRANCH  23  24
ENDBRANCH  22  23
ENDBRANCH  21  22
ENDBRANCH  20  21
ENDBRANCH  19  20
ENDBRANCH  18  19
ENDBRANCH  17  18
ENDBRANCH   1  17
TORSDOF 26
ENDMDL
MODEL 5
REMARK VINA RESULT:     6.313      1.311      2.878
REMARK INTER + INTRA:          15.007
REMARK INTER:                  16.341
REMARK INTRA:                  -1.333
REMARK UNBOUND:                -0.901
REMARK SMILES CCCCCCCCCCCCCCCCCCCCCCCCCCCC(=O)[O-]
REMARK SMILES IDX 15 1 16 2 17 3 18 4 19 5 20 6 21 7 22 8 23 9 24 10 25 11
REMARK SMILES IDX 26 12 27 13 28 14 29 15 30 16 14 17 13 18 12 19 11 20 10 21
REMARK SMILES IDX 9 22 8 23 7 24 6 25 5 26 4 27 3 28 2 29 1 30
REMARK H PARENT
REMARK Flexibility Score: inf
ROOT
ATOM      1  C   UNL     1      19.558 -16.664   9.708  1.00  0.00     0.000 C 
ENDROOT
BRANCH   1   2
ATOM      2  C   UNL     1      19.512 -17.434  11.037  1.00  0.00     0.000 C 
BRANCH   2   3
ATOM      3  C   UNL     1      20.908 -17.892  11.498  1.00  0.00     0.000 C 
BRANCH   3   4
ATOM      4  C   UNL     1      21.217 -17.479  12.951  1.00  0.00     0.000 C 
BRANCH   4   5
ATOM      5  C   UNL     1      22.723 -17.294  13.241  1.00  0.00     0.000 C 
BRANCH   5   6
ATOM      6  C   UNL     1      23.040 -16.034  14.069  1.00  0.00     0.000 C 
BRANCH   6   7
ATOM      7  C   UNL     1      21.905 -14.989  14.023  1.00  0.00     0.000 C 
BRANCH   7   8
ATOM      8  C   UNL     1      20.905 -15.156  15.184  1.00  0.00     0.000 C 
BRANCH   8   9
ATOM      9  C   UNL     1      21.495 -15.869  16.418  1.00  0.00     0.000 C 
BRANCH   9  10
ATOM     10  C   UNL     1      20.992 -17.311  16.637  1.00  0.00     0.000 C 
BRANCH  10  11
ATOM     11  C   UNL     1      19.560 -17.555  16.115  1.00  0.00     0.000 C 
BRANCH  11  12
ATOM     12  C   UNL     1      18.496 -16.939  17.038  1.00  0.00     0.006 C 
BRANCH  12  13
ATOM     13  C   UNL     1      17.148 -16.817  16.314  1.00  0.00     0.053 C 
BRANCH  13  14
ATOM     14  C   UNL     1      17.328 -16.875  14.829  1.00  0.00     0.041 C 
ATOM     15  O   UNL     1      17.876 -15.918  14.219  1.00  0.00    -0.550 OA
ATOM     16  O   UNL     1      16.898 -17.990  14.118  1.00  0.00    -0.550 OA
ENDBRANCH  13  14
ENDBRANCH  12  13
ENDBRANCH  11  12
ENDBRANCH  10  11
ENDBRANCH   9  10
ENDBRANCH   8   9
ENDBRANCH   7   8
ENDBRANCH   6   7
ENDBRANCH   5   6
ENDBRANCH   4   5
ENDBRANCH   3   4
ENDBRANCH   2   3
ENDBRANCH   1   2
BRANCH   1  17
ATOM     17  C   UNL     1      18.166 -16.482   9.075  1.00  0.00     0.000 C 
BRANCH  17  18
ATOM     18  C   UNL     1      17.845 -15.002   8.810  1.00  0.00     0.000 C 
BRANCH  18  19
ATOM     19  C   UNL     1      18.240 -14.106   9.997  1.00  0.00     0.000 C 
BRANCH  19  20
ATOM     20  C   UNL     1      18.360 -12.619   9.621  1.00  0.00     0.000 C 
BRANCH  20  21
ATOM     21  C   UNL     1      17.864 -11.625  10.696  1.00  0.00     0.000 C 
BRANCH  21  22
ATOM     22  C   UNL     1      17.874 -10.142  10.283  1.00  0.00    -0.000 C 
BRANCH  22  23
ATOM     23  C   UNL     1      16.531  -9.668   9.704  1.00  0.00    -0.000 C 
BRANCH  23  24
ATOM     24  C   UNL     1      15.805  -8.669  10.624  1.00  0.00    -0.000 C 
BRANCH  24  25
ATOM     25  C   UNL     1      14.849  -7.716   9.876  1.00  0.00    -0.000 C 
BRANCH  25  26
ATOM     26  C   UNL     1      15.510  -7.083   8.638  1.00  0.00    -0.000 C 
BRANCH  26  27
ATOM     27  C   UNL     1      14.485  -6.535   7.633  1.00  0.00    -0.000 C 
BRANCH  27  28
ATOM     28  C   UNL     1      14.321  -5.010   7.725  1.00  0.00    -0.000 C 
BRANCH  28  29
ATOM     29  C   UNL     1      15.373  -4.293   6.870  1.00  0.00    -0.003 C 
ATOM     30  C   UNL     1      14.836  -3.993   5.474  1.00  0.00     0.004 C 
ENDBRANCH  28  29
ENDBRANCH  27  28
ENDBRANCH  26  27
ENDBRANCH  25  26
ENDBRANCH  24  25
ENDBRANCH  23  24
ENDBRANCH  22  23
ENDBRANCH  21  22
ENDBRANCH  20  21
ENDBRANCH  19  20
ENDBRANCH  18  19
ENDBRANCH  17  18
ENDBRANCH   1  17
TORSDOF 26
ENDMDL
MODEL 6
REMARK VINA RESULT:     6.818      1.487      3.822
REMARK INTER + INTRA:          16.281
REMARK INTER:                  17.770
REMARK INTRA:                  -1.489
REMARK UNBOUND:                -0.901
REMARK SMILES CCCCCCCCCCCCCCCCCCCCCCCCCCCC(=O)[O-]
REMARK SMILES IDX 15 1 16 2 17 3 18 4 19 5 20 6 21 7 22 8 23 9 24 10 25 11
REMARK SMILES IDX 26 12 27 13 28 14 29 15 30 16 14 17 13 18 12 19 11 20 10 21
REMARK SMILES IDX 9 22 8 23 7 24 6 25 5 26 4 27 3 28 2 29 1 30
REMARK H PARENT
REMARK Flexibility Score: inf
ROOT
ATOM      1  C   UNL     1      17.501 -17.224   9.419  1.00  0.00     0.000 C 
ENDROOT
BRANCH   1   2
ATOM      2  C   UNL     1      17.657 -18.118  10.659  1.00  0.00     0.000 C 
BRANCH   2   3
ATOM      3  C   UNL     1      16.587 -17.830  11.728  1.00  0.00     0.000 C 
BRANCH   3   4
ATOM      4  C   UNL     1      17.131 -16.989  12.900  1.00  0.00     0.000 C 
BRANCH   4   5
ATOM      5  C   UNL     1      18.247 -17.690  13.706  1.00  0.00     0.000 C 
BRANCH   5   6
ATOM      6  C   UNL     1      19.448 -18.124  12.846  1.00  0.00     0.000 C 
BRANCH   6   7
ATOM      7  C   UNL     1      20.404 -16.956  12.522  1.00  0.00     0.000 C 
BRANCH   7   8
ATOM      8  C   UNL     1      21.858 -17.425  12.323  1.00  0.00     0.000 C 
BRANCH   8   9
ATOM      9  C   UNL     1      22.827 -16.939  13.420  1.00  0.00     0.000 C 
BRANCH   9  10
ATOM     10  C   UNL     1      22.777 -15.424  13.707  1.00  0.00     0.000 C 
BRANCH  10  11
ATOM     11  C   UNL     1      22.881 -15.074  15.207  1.00  0.00     0.000 C 
BRANCH  11  12
ATOM     12  C   UNL     1      22.702 -16.310  16.104  1.00  0.00     0.006 C 
BRANCH  12  13
ATOM     13  C   UNL     1      21.574 -16.091  17.121  1.00  0.00     0.053 C 
BRANCH  13  14
ATOM     14  C   UNL     1      20.311 -16.759  16.673  1.00  0.00     0.041 C 
ATOM     15  O   UNL     1      19.206 -16.164  16.783  1.00  0.00    -0.550 OA
ATOM     16  O   UNL     1      20.354 -18.037  16.127  1.00  0.00    -0.550 OA
ENDBRANCH  13  14
ENDBRANCH  12  13
ENDBRANCH  11  12
ENDBRANCH  10  11
ENDBRANCH   9  10
ENDBRANCH   8   9
ENDBRANCH   7   8
ENDBRANCH   6   7
ENDBRANCH   5   6
ENDBRANCH   4   5
ENDBRANCH   3   4
ENDBRANCH   2   3
ENDBRANCH   1   2
BRANCH   1  17
ATOM     17  C   UNL     1      18.647 -16.206   9.269  1.00  0.00     0.000 C 
BRANCH  17  18
ATOM     18  C   UNL     1      18.138 -14.834   8.799  1.00  0.00     0.000 C 
BRANCH  18  19
ATOM     19  C   UNL     1      17.923 -13.867   9.977  1.00  0.00     0.000 C 
BRANCH  19  20
ATOM     20  C   UNL     1      18.246 -12.403   9.627  1.00  0.00     0.000 C 
BRANCH  20  21
ATOM     21  C   UNL     1      17.364 -11.347  10.333  1.00  0.00     0.000 C 
BRANCH  21  22
ATOM     22  C   UNL     1      18.032  -9.982  10.575  1.00  0.00    -0.000 C 
BRANCH  22  23
ATOM     23  C   UNL     1      18.515  -9.308   9.280  1.00  0.00    -0.000 C 
BRANCH  23  24
ATOM     24  C   UNL     1      17.519  -8.265   8.744  1.00  0.00    -0.000 C 
BRANCH  24  25
ATOM     25  C   UNL     1      16.089  -8.425   9.303  1.00  0.00    -0.000 C 
BRANCH  25  26
ATOM     26  C   UNL     1      15.131  -9.053   8.274  1.00  0.00    -0.000 C 
BRANCH  26  27
ATOM     27  C   UNL     1      14.227  -8.013   7.592  1.00  0.00    -0.000 C 
BRANCH  27  28
ATOM     28  C   UNL     1      14.056  -6.737   8.429  1.00  0.00    -0.000 C 
BRANCH  28  29
ATOM     29  C   UNL     1      14.814  -5.562   7.801  1.00  0.00    -0.003 C 
ATOM     30  C   UNL     1      15.222  -4.541   8.859  1.00  0.00     0.004 C 
ENDBRANCH  28  29
ENDBRANCH  27  28
ENDBRANCH  26  27
ENDBRANCH  25  26
ENDBRANCH  24  25
ENDBRANCH  23  24
ENDBRANCH  22  23
ENDBRANCH  21  22
ENDBRANCH  20  21
ENDBRANCH  19  20
ENDBRANCH  18  19
ENDBRANCH  17  18
ENDBRANCH   1  17
TORSDOF 26
ENDMDL
