MODEL 1
REMARK VINA RESULT:    -5.498      0.000      0.000
REMARK INTER + INTRA:         -14.745
REMARK INTER:                 -11.926
REMARK INTRA:                  -2.818
REMARK UNBOUND:                -2.818
REMARK SMILES CCCCCCCCCCCCCCCCCCCCCC(=O)[O-]
REMARK SMILES IDX 12 1 11 2 10 3 9 4 8 5 7 6 6 7 5 8 4 9 3 10 2 11 1 12 13 13
REMARK SMILES IDX 14 14 15 15 16 16 17 17 18 18 19 19 20 20 21 21 22 22 23 23
REMARK SMILES IDX 24 24
REMARK H PARENT
REMARK Flexibility Score: inf
ROOT
ATOM      1  C   UNL     1      65.047 150.125   4.173  1.00  0.00     0.000 C 
ENDROOT
BRANCH   1   2
ATOM      2  C   UNL     1      65.247 149.266   5.434  1.00  0.00     0.000 C 
BRANCH   2   3
ATOM      3  C   UNL     1      63.949 148.896   6.179  1.00  0.00     0.000 C 
BRANCH   3   4
ATOM      4  C   UNL     1      62.914 148.166   5.297  1.00  0.00    -0.000 C 
BRANCH   4   5
ATOM      5  C   UNL     1      61.506 148.773   5.429  1.00  0.00    -0.000 C 
BRANCH   5   6
ATOM      6  C   UNL     1      61.490 150.066   6.261  1.00  0.00    -0.000 C 
BRANCH   6   7
ATOM      7  C   UNL     1      60.089 150.405   6.800  1.00  0.00    -0.000 C 
BRANCH   7   8
ATOM      8  C   UNL     1      59.256 149.155   7.139  1.00  0.00    -0.000 C 
BRANCH   8   9
ATOM      9  C   UNL     1      59.171 148.807   8.636  1.00  0.00    -0.000 C 
BRANCH   9  10
ATOM     10  C   UNL     1      59.787 147.438   8.971  1.00  0.00    -0.000 C 
BRANCH  10  11
ATOM     11  C   UNL     1      59.790 146.485   7.765  1.00  0.00    -0.003 C 
ATOM     12  C   UNL     1      59.336 145.071   8.127  1.00  0.00     0.004 C 
ENDBRANCH  10  11
ENDBRANCH   9  10
ENDBRANCH   8   9
ENDBRANCH   7   8
ENDBRANCH   6   7
ENDBRANCH   5   6
ENDBRANCH   4   5
ENDBRANCH   3   4
ENDBRANCH   2   3
ENDBRANCH   1   2
BRANCH   1  13
ATOM     13  C   UNL     1      64.970 151.643   4.429  1.00  0.00     0.000 C 
BRANCH  13  14
ATOM     14  C   UNL     1      63.631 152.279   3.996  1.00  0.00     0.000 C 
BRANCH  14  15
ATOM     15  C   UNL     1      62.890 151.418   2.957  1.00  0.00     0.000 C 
BRANCH  15  16
ATOM     16  C   UNL     1      61.437 151.872   2.739  1.00  0.00     0.000 C 
BRANCH  16  17
ATOM     17  C   UNL     1      61.297 152.857   1.566  1.00  0.00     0.000 C 
BRANCH  17  18
ATOM     18  C   UNL     1      59.885 153.461   1.452  1.00  0.00     0.000 C 
BRANCH  18  19
ATOM     19  C   UNL     1      58.929 153.116   2.609  1.00  0.00     0.000 C 
BRANCH  19  20
ATOM     20  C   UNL     1      58.861 154.219   3.680  1.00  0.00     0.006 C 
BRANCH  20  21
ATOM     21  C   UNL     1      59.125 153.673   5.090  1.00  0.00     0.053 C 
BRANCH  21  22
ATOM     22  C   UNL     1      59.874 154.658   5.935  1.00  0.00     0.041 C 
ATOM     23  O   UNL     1      60.796 154.267   6.698  1.00  0.00    -0.550 OA
ATOM     24  O   UNL     1      59.570 156.011   5.858  1.00  0.00    -0.550 OA
ENDBRANCH  21  22
ENDBRANCH  20  21
ENDBRANCH  19  20
ENDBRANCH  18  19
ENDBRANCH  17  18
ENDBRANCH  16  17
ENDBRANCH  15  16
ENDBRANCH  14  15
ENDBRANCH  13  14
ENDBRANCH   1  13
TORSDOF 20
ENDMDL
MODEL 2
REMARK VINA RESULT:    -5.290      2.067      3.697
REMARK INTER + INTRA:         -14.294
REMARK INTER:                 -11.838
REMARK INTRA:                  -2.455
REMARK UNBOUND:                -2.818
REMARK SMILES CCCCCCCCCCCCCCCCCCCCCC(=O)[O-]
REMARK SMILES IDX 12 1 11 2 10 3 9 4 8 5 7 6 6 7 5 8 4 9 3 10 2 11 1 12 13 13
REMARK SMILES IDX 14 14 15 15 16 16 17 17 18 18 19 19 20 20 21 21 22 22 23 23
REMARK SMILES IDX 24 24
REMARK H PARENT
REMARK Flexibility Score: inf
ROOT
ATOM      1  C   UNL     1      64.255 152.894   5.732  1.00  0.00     0.000 C 
ENDROOT
BRANCH   1   2
ATOM      2  C   UNL     1      64.969 152.327   4.493  1.00  0.00     0.000 C 
BRANCH   2   3
ATOM      3  C   UNL     1      64.262 151.130   3.828  1.00  0.00     0.000 C 
BRANCH   3   4
ATOM      4  C   UNL     1      65.052 149.807   3.933  1.00  0.00    -0.000 C 
BRANCH   4   5
ATOM      5  C   UNL     1      65.048 149.240   5.364  1.00  0.00    -0.000 C 
BRANCH   5   6
ATOM      6  C   UNL     1      63.641 149.191   5.982  1.00  0.00    -0.000 C 
BRANCH   6   7
ATOM      7  C   UNL     1      62.797 148.023   5.442  1.00  0.00    -0.000 C 
BRANCH   7   8
ATOM      8  C   UNL     1      61.287 148.215   5.672  1.00  0.00    -0.000 C 
BRANCH   8   9
ATOM      9  C   UNL     1      60.872 148.486   7.130  1.00  0.00    -0.000 C 
BRANCH   9  10
ATOM     10  C   UNL     1      60.107 147.312   7.765  1.00  0.00    -0.000 C 
BRANCH  10  11
ATOM     11  C   UNL     1      58.800 147.760   8.440  1.00  0.00    -0.003 C 
ATOM     12  C   UNL     1      58.398 149.186   8.063  1.00  0.00     0.004 C 
ENDBRANCH  10  11
ENDBRANCH   9  10
ENDBRANCH   8   9
ENDBRANCH   7   8
ENDBRANCH   6   7
ENDBRANCH   5   6
ENDBRANCH   4   5
ENDBRANCH   3   4
ENDBRANCH   2   3
ENDBRANCH   1   2
BRANCH   1  13
ATOM     13  C   UNL     1      62.763 152.519   5.848  1.00  0.00     0.000 C 
BRANCH  13  14
ATOM     14  C   UNL     1      61.968 153.427   6.811  1.00  0.00     0.000 C 
BRANCH  14  15
ATOM     15  C   UNL     1      60.623 152.801   7.221  1.00  0.00     0.000 C 
BRANCH  15  16
ATOM     16  C   UNL     1      60.032 151.896   6.127  1.00  0.00     0.000 C 
BRANCH  16  17
ATOM     17  C   UNL     1      58.630 152.350   5.682  1.00  0.00     0.000 C 
BRANCH  17  18
ATOM     18  C   UNL     1      58.556 153.856   5.367  1.00  0.00     0.000 C 
BRANCH  18  19
ATOM     19  C   UNL     1      59.000 154.251   3.946  1.00  0.00     0.000 C 
BRANCH  19  20
ATOM     20  C   UNL     1      59.018 153.061   2.970  1.00  0.00     0.006 C 
BRANCH  20  21
ATOM     21  C   UNL     1      59.207 153.509   1.514  1.00  0.00     0.053 C 
BRANCH  21  22
ATOM     22  C   UNL     1      60.638 153.399   1.082  1.00  0.00     0.041 C 
ATOM     23  O   UNL     1      61.071 154.110   0.137  1.00  0.00    -0.550 OA
ATOM     24  O   UNL     1      61.498 152.531   1.741  1.00  0.00    -0.550 OA
ENDBRANCH  21  22
ENDBRANCH  20  21
ENDBRANCH  19  20
ENDBRANCH  18  19
ENDBRANCH  17  18
ENDBRANCH  16  17
ENDBRANCH  15  16
ENDBRANCH  14  15
ENDBRANCH  13  14
ENDBRANCH   1  13
TORSDOF 20
ENDMDL
MODEL 3
REMARK VINA RESULT:    -5.284      1.337      4.039
REMARK INTER + INTRA:         -14.280
REMARK INTER:                 -11.969
REMARK INTRA:                  -2.311
REMARK UNBOUND:                -2.818
REMARK SMILES CCCCCCCCCCCCCCCCCCCCCC(=O)[O-]
REMARK SMILES IDX 12 1 11 2 10 3 9 4 8 5 7 6 6 7 5 8 4 9 3 10 2 11 1 12 13 13
REMARK SMILES IDX 14 14 15 15 16 16 17 17 18 18 19 19 20 20 21 21 22 22 23 23
REMARK SMILES IDX 24 24
REMARK H PARENT
REMARK Flexibility Score: inf
ROOT
ATOM      1  C   UNL     1      60.866 151.879   2.365  1.00  0.00     0.000 C 
ENDROOT
BRANCH   1   2
ATOM      2  C   UNL     1      61.794 151.767   3.587  1.00  0.00     0.000 C 
BRANCH   2   3
ATOM      3  C   UNL     1      63.282 151.542   3.254  1.00  0.00     0.000 C 
BRANCH   3   4
ATOM      4  C   UNL     1      64.249 152.287   4.200  1.00  0.00    -0.000 C 
BRANCH   4   5
ATOM      5  C   UNL     1      65.244 151.333   4.883  1.00  0.00    -0.000 C 
BRANCH   5   6
ATOM      6  C   UNL     1      65.053 149.867   4.459  1.00  0.00    -0.000 C 
BRANCH   6   7
ATOM      7  C   UNL     1      64.639 148.961   5.631  1.00  0.00    -0.000 C 
BRANCH   7   8
ATOM      8  C   UNL     1      63.123 148.693   5.678  1.00  0.00    -0.000 C 
BRANCH   8   9
ATOM      9  C   UNL     1      62.360 149.423   6.799  1.00  0.00    -0.000 C 
BRANCH   9  10
ATOM     10  C   UNL     1      60.915 149.779   6.408  1.00  0.00    -0.000 C 
BRANCH  10  11
ATOM     11  C   UNL     1      59.876 148.978   7.209  1.00  0.00    -0.003 C 
ATOM     12  C   UNL     1      60.229 147.495   7.319  1.00  0.00     0.004 C 
ENDBRANCH  10  11
ENDBRANCH   9  10
ENDBRANCH   8   9
ENDBRANCH   7   8
ENDBRANCH   6   7
ENDBRANCH   5   6
ENDBRANCH   4   5
ENDBRANCH   3   4
ENDBRANCH   2   3
ENDBRANCH   1   2
BRANCH   1  13
ATOM     13  C   UNL     1      61.239 152.997   1.369  1.00  0.00     0.000 C 
BRANCH  13  14
ATOM     14  C   UNL     1      60.023 153.787   0.839  1.00  0.00     0.000 C 
BRANCH  14  15
ATOM     15  C   UNL     1      58.768 153.570   1.702  1.00  0.00     0.000 C 
BRANCH  15  16
ATOM     16  C   UNL     1      58.432 154.788   2.578  1.00  0.00     0.000 C 
BRANCH  16  17
ATOM     17  C   UNL     1      58.637 154.510   4.077  1.00  0.00     0.000 C 
BRANCH  17  18
ATOM     18  C   UNL     1      58.021 155.596   4.980  1.00  0.00     0.000 C 
BRANCH  18  19
ATOM     19  C   UNL     1      59.035 156.510   5.693  1.00  0.00     0.000 C 
BRANCH  19  20
ATOM     20  C   UNL     1      59.540 155.923   7.023  1.00  0.00     0.006 C 
BRANCH  20  21
ATOM     21  C   UNL     1      60.972 155.383   6.911  1.00  0.00     0.053 C 
BRANCH  21  22
ATOM     22  C   UNL     1      61.030 153.907   7.164  1.00  0.00     0.041 C 
ATOM     23  O   UNL     1      61.998 153.228   6.732  1.00  0.00    -0.550 OA
ATOM     24  O   UNL     1      60.028 153.289   7.900  1.00  0.00    -0.550 OA
ENDBRANCH  21  22
ENDBRANCH  20  21
ENDBRANCH  19  20
ENDBRANCH  18  19
ENDBRANCH  17  18
ENDBRANCH  16  17
ENDBRANCH  15  16
ENDBRANCH  14  15
ENDBRANCH  13  14
ENDBRANCH   1  13
TORSDOF 20
ENDMDL
MODEL 4
REMARK VINA RESULT:    -5.224      1.285      2.656
REMARK INTER + INTRA:         -14.150
REMARK INTER:                 -11.164
REMARK INTRA:                  -2.986
REMARK UNBOUND:                -2.818
REMARK SMILES CCCCCCCCCCCCCCCCCCCCCC(=O)[O-]
REMARK SMILES IDX 12 1 11 2 10 3 9 4 8 5 7 6 6 7 5 8 4 9 3 10 2 11 1 12 13 13
REMARK SMILES IDX 14 14 15 15 16 16 17 17 18 18 19 19 20 20 21 21 22 22 23 23
REMARK SMILES IDX 24 24
REMARK H PARENT
REMARK Flexibility Score: inf
ROOT
ATOM      1  C   UNL     1      64.995 149.988   4.170  1.00  0.00     0.000 C 
ENDROOT
BRANCH   1   2
ATOM      2  C   UNL     1      64.983 149.254   5.522  1.00  0.00     0.000 C 
BRANCH   2   3
ATOM      3  C   UNL     1      63.617 149.228   6.235  1.00  0.00     0.000 C 
BRANCH   3   4
ATOM      4  C   UNL     1      62.435 148.902   5.296  1.00  0.00    -0.000 C 
BRANCH   4   5
ATOM      5  C   UNL     1      61.588 147.725   5.813  1.00  0.00    -0.000 C 
BRANCH   5   6
ATOM      6  C   UNL     1      60.850 148.052   7.121  1.00  0.00    -0.000 C 
BRANCH   6   7
ATOM      7  C   UNL     1      59.488 148.727   6.879  1.00  0.00    -0.000 C 
BRANCH   7   8
ATOM      8  C   UNL     1      59.214 149.892   7.848  1.00  0.00    -0.000 C 
BRANCH   8   9
ATOM      9  C   UNL     1      59.231 151.294   7.213  1.00  0.00    -0.000 C 
BRANCH   9  10
ATOM     10  C   UNL     1      60.381 151.486   6.209  1.00  0.00    -0.000 C 
BRANCH  10  11
ATOM     11  C   UNL     1      61.536 152.314   6.792  1.00  0.00    -0.003 C 
ATOM     12  C   UNL     1      61.059 153.396   7.761  1.00  0.00     0.004 C 
ENDBRANCH  10  11
ENDBRANCH   9  10
ENDBRANCH   8   9
ENDBRANCH   7   8
ENDBRANCH   6   7
ENDBRANCH   5   6
ENDBRANCH   4   5
ENDBRANCH   3   4
ENDBRANCH   2   3
ENDBRANCH   1   2
BRANCH   1  13
ATOM     13  C   UNL     1      65.078 151.525   4.268  1.00  0.00     0.000 C 
BRANCH  13  14
ATOM     14  C   UNL     1      63.753 152.241   3.933  1.00  0.00     0.000 C 
BRANCH  14  15
ATOM     15  C   UNL     1      62.927 151.474   2.885  1.00  0.00     0.000 C 
BRANCH  15  16
ATOM     16  C   UNL     1      61.473 151.966   2.799  1.00  0.00     0.000 C 
BRANCH  16  17
ATOM     17  C   UNL     1      61.231 152.877   1.583  1.00  0.00     0.000 C 
BRANCH  17  18
ATOM     18  C   UNL     1      59.776 153.372   1.482  1.00  0.00     0.000 C 
BRANCH  18  19
ATOM     19  C   UNL     1      58.941 153.221   2.768  1.00  0.00     0.000 C 
BRANCH  19  20
ATOM     20  C   UNL     1      58.576 154.571   3.410  1.00  0.00     0.006 C 
BRANCH  20  21
ATOM     21  C   UNL     1      59.060 154.671   4.862  1.00  0.00     0.053 C 
BRANCH  21  22
ATOM     22  C   UNL     1      59.024 156.083   5.364  1.00  0.00     0.041 C 
ATOM     23  O   UNL     1      59.744 156.429   6.337  1.00  0.00    -0.550 OA
ATOM     24  O   UNL     1      58.215 157.021   4.737  1.00  0.00    -0.550 OA
ENDBRANCH  21  22
ENDBRANCH  20  21
ENDBRANCH  19  20
ENDBRANCH  18  19
ENDBRANCH  17  18
ENDBRANCH  16  17
ENDBRANCH  15  16
ENDBRANCH  14  15
ENDBRANCH  13  14
ENDBRANCH   1  13
TORSDOF 20
ENDMDL
MODEL 5
REMARK VINA RESULT:    -5.170      2.280      5.071
REMARK INTER + INTRA:         -14.032
REMARK INTER:                 -10.911
REMARK INTRA:                  -3.121
REMARK UNBOUND:                -2.818
REMARK SMILES CCCCCCCCCCCCCCCCCCCCCC(=O)[O-]
REMARK SMILES IDX 12 1 11 2 10 3 9 4 8 5 7 6 6 7 5 8 4 9 3 10 2 11 1 12 13 13
REMARK SMILES IDX 14 14 15 15 16 16 17 17 18 18 19 19 20 20 21 21 22 22 23 23
REMARK SMILES IDX 24 24
REMARK H PARENT
REMARK Flexibility Score: inf
ROOT
ATOM      1  C   UNL     1      61.922 148.488   5.557  1.00  0.00     0.000 C 
ENDROOT
BRANCH   1   2
ATOM      2  C   UNL     1      61.863 149.669   6.543  1.00  0.00     0.000 C 
BRANCH   2   3
ATOM      3  C   UNL     1      60.728 149.589   7.582  1.00  0.00     0.000 C 
BRANCH   3   4
ATOM      4  C   UNL     1      59.428 148.962   7.034  1.00  0.00    -0.000 C 
BRANCH   4   5
ATOM      5  C   UNL     1      58.175 149.736   7.482  1.00  0.00    -0.000 C 
BRANCH   5   6
ATOM      6  C   UNL     1      58.378 151.260   7.467  1.00  0.00    -0.000 C 
BRANCH   6   7
ATOM      7  C   UNL     1      57.881 151.910   6.164  1.00  0.00    -0.000 C 
BRANCH   7   8
ATOM      8  C   UNL     1      59.017 152.528   5.329  1.00  0.00    -0.000 C 
BRANCH   8   9
ATOM      9  C   UNL     1      60.140 153.201   6.140  1.00  0.00    -0.000 C 
BRANCH   9  10
ATOM     10  C   UNL     1      59.928 154.714   6.318  1.00  0.00    -0.000 C 
BRANCH  10  11
ATOM     11  C   UNL     1      61.036 155.367   7.160  1.00  0.00    -0.003 C 
ATOM     12  C   UNL     1      62.345 154.578   7.129  1.00  0.00     0.004 C 
ENDBRANCH  10  11
ENDBRANCH   9  10
ENDBRANCH   8   9
ENDBRANCH   7   8
ENDBRANCH   6   7
ENDBRANCH   5   6
ENDBRANCH   4   5
ENDBRANCH   3   4
ENDBRANCH   2   3
ENDBRANCH   1   2
BRANCH   1  13
ATOM     13  C   UNL     1      63.345 148.030   5.180  1.00  0.00     0.000 C 
BRANCH  13  14
ATOM     14  C   UNL     1      64.461 148.914   5.776  1.00  0.00     0.000 C 
BRANCH  14  15
ATOM     15  C   UNL     1      65.088 149.846   4.724  1.00  0.00     0.000 C 
BRANCH  15  16
ATOM     16  C   UNL     1      65.213 151.297   5.216  1.00  0.00     0.000 C 
BRANCH  16  17
ATOM     17  C   UNL     1      63.995 152.156   4.834  1.00  0.00     0.000 C 
BRANCH  17  18
ATOM     18  C   UNL     1      63.486 151.877   3.407  1.00  0.00     0.000 C 
BRANCH  18  19
ATOM     19  C   UNL     1      61.988 151.531   3.302  1.00  0.00     0.000 C 
BRANCH  19  20
ATOM     20  C   UNL     1      61.378 151.916   1.943  1.00  0.00     0.006 C 
BRANCH  20  21
ATOM     21  C   UNL     1      60.327 153.027   2.074  1.00  0.00     0.053 C 
BRANCH  21  22
ATOM     22  C   UNL     1      60.176 153.801   0.800  1.00  0.00     0.041 C 
ATOM     23  O   UNL     1      61.157 153.942   0.023  1.00  0.00    -0.550 OA
ATOM     24  O   UNL     1      58.943 154.343   0.459  1.00  0.00    -0.550 OA
ENDBRANCH  21  22
ENDBRANCH  20  21
ENDBRANCH  19  20
ENDBRANCH  18  19
ENDBRANCH  17  18
ENDBRANCH  16  17
ENDBRANCH  15  16
ENDBRANCH  14  15
ENDBRANCH  13  14
ENDBRANCH   1  13
TORSDOF 20
ENDMDL
MODEL 6
REMARK VINA RESULT:    -5.169      1.728      5.693
REMARK INTER + INTRA:         -14.030
REMARK INTER:                 -10.946
REMARK INTRA:                  -3.083
REMARK UNBOUND:                -2.818
REMARK SMILES CCCCCCCCCCCCCCCCCCCCCC(=O)[O-]
REMARK SMILES IDX 12 1 11 2 10 3 9 4 8 5 7 6 6 7 5 8 4 9 3 10 2 11 1 12 13 13
REMARK SMILES IDX 14 14 15 15 16 16 17 17 18 18 19 19 20 20 21 21 22 22 23 23
REMARK SMILES IDX 24 24
REMARK H PARENT
REMARK Flexibility Score: inf
ROOT
ATOM      1  C   UNL     1      63.503 152.329   3.808  1.00  0.00     0.000 C 
ENDROOT
BRANCH   1   2
ATOM      2  C   UNL     1      62.527 151.390   3.079  1.00  0.00     0.000 C 
BRANCH   2   3
ATOM      3  C   UNL     1      61.177 152.027   2.696  1.00  0.00     0.000 C 
BRANCH   3   4
ATOM      4  C   UNL     1      61.239 152.889   1.417  1.00  0.00    -0.000 C 
BRANCH   4   5
ATOM      5  C   UNL     1      59.891 153.564   1.105  1.00  0.00    -0.000 C 
BRANCH   5   6
ATOM      6  C   UNL     1      58.888 153.456   2.265  1.00  0.00    -0.000 C 
BRANCH   6   7
ATOM      7  C   UNL     1      58.636 154.807   2.957  1.00  0.00    -0.000 C 
BRANCH   7   8
ATOM      8  C   UNL     1      58.296 154.663   4.452  1.00  0.00    -0.000 C 
BRANCH   8   9
ATOM      9  C   UNL     1      59.496 154.754   5.412  1.00  0.00    -0.000 C 
BRANCH   9  10
ATOM     10  C   UNL     1      59.908 153.389   5.990  1.00  0.00    -0.000 C 
BRANCH  10  11
ATOM     11  C   UNL     1      61.349 153.389   6.525  1.00  0.00    -0.003 C 
ATOM     12  C   UNL     1      61.794 152.015   7.026  1.00  0.00     0.004 C 
ENDBRANCH  10  11
ENDBRANCH   9  10
ENDBRANCH   8   9
ENDBRANCH   7   8
ENDBRANCH   6   7
ENDBRANCH   5   6
ENDBRANCH   4   5
ENDBRANCH   3   4
ENDBRANCH   2   3
ENDBRANCH   1   2
BRANCH   1  13
ATOM     13  C   UNL     1      64.821 151.669   4.262  1.00  0.00     0.000 C 
BRANCH  13  14
ATOM     14  C   UNL     1      64.885 150.152   3.981  1.00  0.00     0.000 C 
BRANCH  14  15
ATOM     15  C   UNL     1      65.090 149.332   5.266  1.00  0.00     0.000 C 
BRANCH  15  16
ATOM     16  C   UNL     1      63.799 149.180   6.087  1.00  0.00     0.000 C 
BRANCH  16  17
ATOM     17  C   UNL     1      62.753 148.300   5.382  1.00  0.00     0.000 C 
BRANCH  17  18
ATOM     18  C   UNL     1      61.309 148.619   5.812  1.00  0.00     0.000 C 
BRANCH  18  19
ATOM     19  C   UNL     1      60.708 147.660   6.857  1.00  0.00     0.000 C 
BRANCH  19  20
ATOM     20  C   UNL     1      59.338 148.124   7.381  1.00  0.00     0.006 C 
BRANCH  20  21
ATOM     21  C   UNL     1      59.456 149.338   8.312  1.00  0.00     0.053 C 
BRANCH  21  22
ATOM     22  C   UNL     1      58.577 150.467   7.866  1.00  0.00     0.041 C 
ATOM     23  O   UNL     1      57.899 150.364   6.810  1.00  0.00    -0.550 OA
ATOM     24  O   UNL     1      58.489 151.622   8.632  1.00  0.00    -0.550 OA
ENDBRANCH  21  22
ENDBRANCH  20  21
ENDBRANCH  19  20
ENDBRANCH  18  19
ENDBRANCH  17  18
ENDBRANCH  16  17
ENDBRANCH  15  16
ENDBRANCH  14  15
ENDBRANCH  13  14
ENDBRANCH   1  13
TORSDOF 20
ENDMDL
MODEL 7
REMARK VINA RESULT:    -5.163      2.489      6.989
REMARK INTER + INTRA:         -14.018
REMARK INTER:                 -10.887
REMARK INTRA:                  -3.131
REMARK UNBOUND:                -2.818
REMARK SMILES CCCCCCCCCCCCCCCCCCCCCC(=O)[O-]
REMARK SMILES IDX 12 1 11 2 10 3 9 4 8 5 7 6 6 7 5 8 4 9 3 10 2 11 1 12 13 13
REMARK SMILES IDX 14 14 15 15 16 16 17 17 18 18 19 19 20 20 21 21 22 22 23 23
REMARK SMILES IDX 24 24
REMARK H PARENT
REMARK Flexibility Score: inf
ROOT
ATOM      1  C   UNL     1      59.063 153.619   4.818  1.00  0.00     0.000 C 
ENDROOT
BRANCH   1   2
ATOM      2  C   UNL     1      58.466 154.869   4.149  1.00  0.00     0.000 C 
BRANCH   2   3
ATOM      3  C   UNL     1      58.295 154.767   2.621  1.00  0.00     0.000 C 
BRANCH   3   4
ATOM      4  C   UNL     1      58.919 153.493   2.011  1.00  0.00    -0.000 C 
BRANCH   4   5
ATOM      5  C   UNL     1      59.977 153.818   0.941  1.00  0.00    -0.000 C 
BRANCH   5   6
ATOM      6  C   UNL     1      61.347 153.191   1.248  1.00  0.00    -0.000 C 
BRANCH   6   7
ATOM      7  C   UNL     1      61.240 151.947   2.148  1.00  0.00    -0.000 C 
BRANCH   7   8
ATOM      8  C   UNL     1      62.093 152.055   3.426  1.00  0.00    -0.000 C 
BRANCH   8   9
ATOM      9  C   UNL     1      63.528 151.509   3.307  1.00  0.00    -0.000 C 
BRANCH   9  10
ATOM     10  C   UNL     1      64.457 152.013   4.425  1.00  0.00    -0.000 C 
BRANCH  10  11
ATOM     11  C   UNL     1      65.168 150.865   5.159  1.00  0.00    -0.003 C 
ATOM     12  C   UNL     1      65.174 149.564   4.357  1.00  0.00     0.004 C 
ENDBRANCH  10  11
ENDBRANCH   9  10
ENDBRANCH   8   9
ENDBRANCH   7   8
ENDBRANCH   6   7
ENDBRANCH   5   6
ENDBRANCH   4   5
ENDBRANCH   3   4
ENDBRANCH   2   3
ENDBRANCH   1   2
BRANCH   1  13
ATOM     13  C   UNL     1      60.104 153.908   5.919  1.00  0.00     0.000 C 
BRANCH  13  14
ATOM     14  C   UNL     1      59.484 154.398   7.246  1.00  0.00     0.000 C 
BRANCH  14  15
ATOM     15  C   UNL     1      58.279 153.543   7.675  1.00  0.00     0.000 C 
BRANCH  15  16
ATOM     16  C   UNL     1      58.629 152.536   8.782  1.00  0.00     0.000 C 
BRANCH  16  17
ATOM     17  C   UNL     1      58.555 151.078   8.296  1.00  0.00     0.000 C 
BRANCH  17  18
ATOM     18  C   UNL     1      59.891 150.326   8.445  1.00  0.00     0.000 C 
BRANCH  18  19
ATOM     19  C   UNL     1      61.154 151.195   8.294  1.00  0.00     0.000 C 
BRANCH  19  20
ATOM     20  C   UNL     1      61.983 150.838   7.048  1.00  0.00     0.006 C 
BRANCH  20  21
ATOM     21  C   UNL     1      62.447 149.375   7.062  1.00  0.00     0.053 C 
BRANCH  21  22
ATOM     22  C   UNL     1      62.060 148.659   5.803  1.00  0.00     0.041 C 
ATOM     23  O   UNL     1      61.333 149.229   4.947  1.00  0.00    -0.550 OA
ATOM     24  O   UNL     1      62.525 147.373   5.565  1.00  0.00    -0.550 OA
ENDBRANCH  21  22
ENDBRANCH  20  21
ENDBRANCH  19  20
ENDBRANCH  18  19
ENDBRANCH  17  18
ENDBRANCH  16  17
ENDBRANCH  15  16
ENDBRANCH  14  15
ENDBRANCH  13  14
ENDBRANCH   1  13
TORSDOF 20
ENDMDL
MODEL 8
REMARK VINA RESULT:    -5.154      2.381      6.756
REMARK INTER + INTRA:         -13.998
REMARK INTER:                 -10.664
REMARK INTRA:                  -3.335
REMARK UNBOUND:                -2.818
REMARK SMILES CCCCCCCCCCCCCCCCCCCCCC(=O)[O-]
REMARK SMILES IDX 12 1 11 2 10 3 9 4 8 5 7 6 6 7 5 8 4 9 3 10 2 11 1 12 13 13
REMARK SMILES IDX 14 14 15 15 16 16 17 17 18 18 19 19 20 20 21 21 22 22 23 23
REMARK SMILES IDX 24 24
REMARK H PARENT
REMARK Flexibility Score: inf
ROOT
ATOM      1  C   UNL     1      61.347 151.561   4.583  1.00  0.00     0.000 C 
ENDROOT
BRANCH   1   2
ATOM      2  C   UNL     1      62.025 151.822   3.226  1.00  0.00     0.000 C 
BRANCH   2   3
ATOM      3  C   UNL     1      61.057 151.993   2.039  1.00  0.00     0.000 C 
BRANCH   3   4
ATOM      4  C   UNL     1      61.210 153.343   1.305  1.00  0.00    -0.000 C 
BRANCH   4   5
ATOM      5  C   UNL     1      59.880 153.832   0.705  1.00  0.00    -0.000 C 
BRANCH   5   6
ATOM      6  C   UNL     1      58.702 153.708   1.685  1.00  0.00    -0.000 C 
BRANCH   6   7
ATOM      7  C   UNL     1      58.123 155.074   2.091  1.00  0.00    -0.000 C 
BRANCH   7   8
ATOM      8  C   UNL     1      58.177 155.322   3.610  1.00  0.00    -0.000 C 
BRANCH   8   9
ATOM      9  C   UNL     1      59.079 154.359   4.403  1.00  0.00    -0.000 C 
BRANCH   9  10
ATOM     10  C   UNL     1      58.442 153.888   5.722  1.00  0.00    -0.000 C 
BRANCH  10  11
ATOM     11  C   UNL     1      59.013 154.623   6.945  1.00  0.00    -0.003 C 
ATOM     12  C   UNL     1      60.232 155.481   6.604  1.00  0.00     0.004 C 
ENDBRANCH  10  11
ENDBRANCH   9  10
ENDBRANCH   8   9
ENDBRANCH   7   8
ENDBRANCH   6   7
ENDBRANCH   5   6
ENDBRANCH   4   5
ENDBRANCH   3   4
ENDBRANCH   2   3
ENDBRANCH   1   2
BRANCH   1  13
ATOM     13  C   UNL     1      62.025 152.244   5.788  1.00  0.00     0.000 C 
BRANCH  13  14
ATOM     14  C   UNL     1      61.428 151.833   7.151  1.00  0.00     0.000 C 
BRANCH  14  15
ATOM     15  C   UNL     1      60.263 150.839   6.999  1.00  0.00     0.000 C 
BRANCH  15  16
ATOM     16  C   UNL     1      60.301 149.716   8.048  1.00  0.00     0.000 C 
BRANCH  16  17
ATOM     17  C   UNL     1      60.399 148.318   7.411  1.00  0.00     0.000 C 
BRANCH  17  18
ATOM     18  C   UNL     1      60.885 148.356   5.950  1.00  0.00     0.000 C 
BRANCH  18  19
ATOM     19  C   UNL     1      61.882 147.247   5.561  1.00  0.00     0.000 C 
BRANCH  19  20
ATOM     20  C   UNL     1      63.196 147.798   4.979  1.00  0.00     0.006 C 
BRANCH  20  21
ATOM     21  C   UNL     1      63.682 149.046   5.728  1.00  0.00     0.053 C 
BRANCH  21  22
ATOM     22  C   UNL     1      64.787 149.740   4.991  1.00  0.00     0.041 C 
ATOM     23  O   UNL     1      65.223 149.266   3.909  1.00  0.00    -0.550 OA
ATOM     24  O   UNL     1      65.316 150.924   5.487  1.00  0.00    -0.550 OA
ENDBRANCH  21  22
ENDBRANCH  20  21
ENDBRANCH  19  20
ENDBRANCH  18  19
ENDBRANCH  17  18
ENDBRANCH  16  17
ENDBRANCH  15  16
ENDBRANCH  14  15
ENDBRANCH  13  14
ENDBRANCH   1  13
TORSDOF 20
ENDMDL
MODEL 9
REMARK VINA RESULT:    -5.097      1.297      5.871
REMARK INTER + INTRA:         -13.875
REMARK INTER:                 -11.065
REMARK INTRA:                  -2.811
REMARK UNBOUND:                -2.818
REMARK SMILES CCCCCCCCCCCCCCCCCCCCCC(=O)[O-]
REMARK SMILES IDX 12 1 11 2 10 3 9 4 8 5 7 6 6 7 5 8 4 9 3 10 2 11 1 12 13 13
REMARK SMILES IDX 14 14 15 15 16 16 17 17 18 18 19 19 20 20 21 21 22 22 23 23
REMARK SMILES IDX 24 24
REMARK H PARENT
REMARK Flexibility Score: inf
ROOT
ATOM      1  C   UNL     1      62.452 148.416   5.481  1.00  0.00     0.000 C 
ENDROOT
BRANCH   1   2
ATOM      2  C   UNL     1      63.566 149.219   6.175  1.00  0.00     0.000 C 
BRANCH   2   3
ATOM      3  C   UNL     1      64.948 149.131   5.498  1.00  0.00     0.000 C 
BRANCH   3   4
ATOM      4  C   UNL     1      65.068 149.991   4.221  1.00  0.00    -0.000 C 
BRANCH   4   5
ATOM      5  C   UNL     1      65.273 151.482   4.542  1.00  0.00    -0.000 C 
BRANCH   5   6
ATOM      6  C   UNL     1      64.051 152.343   4.180  1.00  0.00    -0.000 C 
BRANCH   6   7
ATOM      7  C   UNL     1      63.197 151.717   3.063  1.00  0.00    -0.000 C 
BRANCH   7   8
ATOM      8  C   UNL     1      61.731 151.498   3.479  1.00  0.00    -0.000 C 
BRANCH   8   9
ATOM      9  C   UNL     1      60.690 151.725   2.368  1.00  0.00    -0.000 C 
BRANCH   9  10
ATOM     10  C   UNL     1      59.831 152.981   2.596  1.00  0.00    -0.000 C 
BRANCH  10  11
ATOM     11  C   UNL     1      59.634 153.799   1.310  1.00  0.00    -0.003 C 
ATOM     12  C   UNL     1      60.890 153.847   0.441  1.00  0.00     0.004 C 
ENDBRANCH  10  11
ENDBRANCH   9  10
ENDBRANCH   8   9
ENDBRANCH   7   8
ENDBRANCH   6   7
ENDBRANCH   5   6
ENDBRANCH   4   5
ENDBRANCH   3   4
ENDBRANCH   2   3
ENDBRANCH   1   2
BRANCH   1  13
ATOM     13  C   UNL     1      61.035 148.654   6.043  1.00  0.00     0.000 C 
BRANCH  13  14
ATOM     14  C   UNL     1      60.523 147.509   6.942  1.00  0.00     0.000 C 
BRANCH  14  15
ATOM     15  C   UNL     1      60.125 148.004   8.343  1.00  0.00     0.000 C 
BRANCH  15  16
ATOM     16  C   UNL     1      58.612 148.238   8.483  1.00  0.00     0.000 C 
BRANCH  16  17
ATOM     17  C   UNL     1      58.274 149.686   8.878  1.00  0.00     0.000 C 
BRANCH  17  18
ATOM     18  C   UNL     1      58.475 150.687   7.725  1.00  0.00     0.000 C 
BRANCH  18  19
ATOM     19  C   UNL     1      59.628 151.690   7.920  1.00  0.00     0.000 C 
BRANCH  19  20
ATOM     20  C   UNL     1      59.989 152.447   6.630  1.00  0.00     0.006 C 
BRANCH  20  21
ATOM     21  C   UNL     1      61.364 153.124   6.722  1.00  0.00     0.053 C 
BRANCH  21  22
ATOM     22  C   UNL     1      61.243 154.616   6.794  1.00  0.00     0.041 C 
ATOM     23  O   UNL     1      60.208 155.190   6.363  1.00  0.00    -0.550 OA
ATOM     24  O   UNL     1      62.263 155.368   7.361  1.00  0.00    -0.550 OA
ENDBRANCH  21  22
ENDBRANCH  20  21
ENDBRANCH  19  20
ENDBRANCH  18  19
ENDBRANCH  17  18
ENDBRANCH  16  17
ENDBRANCH  15  16
ENDBRANCH  14  15
ENDBRANCH  13  14
ENDBRANCH   1  13
TORSDOF 20
ENDMDL
