MODEL 1
REMARK VINA RESULT:    -3.156      0.000      0.000
REMARK INTER + INTRA:          -2.880
REMARK INTER:                  -4.447
REMARK INTRA:                   1.567
REMARK UNBOUND:                 1.567
REMARK SMILES CC1=CCC(=C(C)C)C(=O)CC(C)=CCC1
REMARK SMILES IDX 12 1 14 2 13 3 15 4 16 5 2 6 1 7 3 8 11 10 9 11 10 12 5 13
REMARK SMILES IDX 6 14 7 15 8 16 4 17
REMARK H PARENT
REMARK Flexibility Score: 60.00
ROOT
ATOM      1  C   UNL     1      10.115   6.313   0.481  1.00  0.00    -0.070 C 
ATOM      2  C   UNL     1       9.201   7.299   0.343  1.00  0.00    -0.027 C 
ATOM      3  C   UNL     1       9.649   4.889   0.308  1.00  0.00     0.039 C 
ENDROOT
BRANCH   2   4
ATOM      4  C   UNL     1       9.490   8.784   0.383  1.00  0.00     0.032 C 
BRANCH   4   5
ATOM      5  C   UNL     1      10.409   9.296  -0.745  1.00  0.00     0.034 C 
BRANCH   5   6
ATOM      6  C   UNL     1      11.225  10.512  -0.345  1.00  0.00    -0.077 C 
ATOM      7  C   UNL     1      10.712  11.868  -0.760  1.00  0.00     0.039 C 
ATOM      8  C   UNL     1      12.345  10.464   0.417  1.00  0.00    -0.023 CG0
ATOM      9  G   UNL     1      13.049   9.223   0.930  1.00  0.00     0.000 G0
ENDBRANCH   5   6
ENDBRANCH   4   5
ENDBRANCH   2   4
BRANCH   1  10
ATOM     10  C   UNL     1      11.591   6.573   0.708  1.00  0.00     0.111 C 
BRANCH  10  11
ATOM     11  C   UNL     1      11.841   7.234   2.037  1.00  0.00     0.163 C 
ATOM     12  O   UNL     1      11.631   6.563   3.083  1.00  0.00    -0.294 OA
BRANCH  11  13
ATOM     13  C   UNL     1      12.384   8.621   2.153  1.00  0.00    -0.002 C 
ATOM     14  C   UNL     1      12.350   9.287   3.347  1.00  0.00    -0.069 C 
ATOM     15  C   UNL     1      13.031  10.625   3.537  1.00  0.00     0.039 C 
ATOM     16  C   UNL     1      11.627   8.712   4.545  1.00  0.00     0.039 C 
BRANCH  13  17
ATOM     17  C   UNL     1      13.053   9.211   0.922  1.00  0.00     0.066 CG0
ATOM     18  G   UNL     1      12.345  10.455   0.423  1.00  0.00     0.000 G0
ENDBRANCH  13  17
ENDBRANCH  11  13
ENDBRANCH  10  11
ENDBRANCH   1  10
TORSDOF 0
ENDMDL
MODEL 2
REMARK VINA RESULT:    -3.039      1.644      4.345
REMARK INTER + INTRA:          -2.715
REMARK INTER:                  -4.269
REMARK INTRA:                   1.553
REMARK UNBOUND:                 1.567
REMARK SMILES CC1=CCC(=C(C)C)C(=O)CC(C)=CCC1
REMARK SMILES IDX 12 1 14 2 13 3 15 4 16 5 2 6 1 7 3 8 11 10 9 11 10 12 5 13
REMARK SMILES IDX 6 14 7 15 8 16 4 17
REMARK H PARENT
REMARK Flexibility Score: 60.00
ROOT
ATOM      1  C   UNL     1      11.350  10.003   0.414  1.00  0.00    -0.070 C 
ATOM      2  C   UNL     1      12.216  10.832   1.037  1.00  0.00    -0.027 C 
ATOM      3  C   UNL     1      11.632   9.636  -1.022  1.00  0.00     0.039 C 
ENDROOT
BRANCH   2   4
ATOM      4  C   UNL     1      12.158  11.237   2.494  1.00  0.00     0.032 C 
BRANCH   4   5
ATOM      5  C   UNL     1      13.031  10.385   3.438  1.00  0.00     0.034 C 
BRANCH   5   6
ATOM      6  C   UNL     1      12.294   9.190   4.017  1.00  0.00    -0.077 C 
ATOM      7  C   UNL     1      11.676   9.344   5.384  1.00  0.00     0.039 C 
ATOM      8  C   UNL     1      12.098   8.022   3.361  1.00  0.00    -0.023 CG0
ATOM      9  G   UNL     1      12.639   7.637   1.997  1.00  0.00     0.000 G0
ENDBRANCH   5   6
ENDBRANCH   4   5
ENDBRANCH   2   4
BRANCH   1  10
ATOM     10  C   UNL     1      10.170   9.356   1.110  1.00  0.00     0.111 C 
BRANCH  10  11
ATOM     11  C   UNL     1      10.243   7.854   1.051  1.00  0.00     0.163 C 
ATOM     12  O   UNL     1       9.165   7.210   0.945  1.00  0.00    -0.294 OA
BRANCH  11  13
ATOM     13  C   UNL     1      11.541   7.114   1.053  1.00  0.00    -0.002 C 
ATOM     14  C   UNL     1      11.754   6.075   0.190  1.00  0.00    -0.069 C 
ATOM     15  C   UNL     1      13.108   5.411   0.056  1.00  0.00     0.039 C 
ATOM     16  C   UNL     1      10.640   5.538  -0.681  1.00  0.00     0.039 C 
BRANCH  13  17
ATOM     17  C   UNL     1      12.633   7.626   1.979  1.00  0.00     0.066 CG0
ATOM     18  G   UNL     1      12.097   8.005   3.346  1.00  0.00     0.000 G0
ENDBRANCH  13  17
ENDBRANCH  11  13
ENDBRANCH  10  11
ENDBRANCH   1  10
TORSDOF 0
ENDMDL
MODEL 3
REMARK VINA RESULT:    -2.840      1.390      3.415
REMARK INTER + INTRA:          -2.435
REMARK INTER:                  -3.862
REMARK INTRA:                   1.426
REMARK UNBOUND:                 1.567
REMARK SMILES CC1=CCC(=C(C)C)C(=O)CC(C)=CCC1
REMARK SMILES IDX 12 1 14 2 13 3 15 4 16 5 2 6 1 7 3 8 11 10 9 11 10 12 5 13
REMARK SMILES IDX 6 14 7 15 8 16 4 17
REMARK H PARENT
REMARK Flexibility Score: 60.00
ROOT
ATOM      1  C   UNL     1      10.562   6.132   0.431  1.00  0.00    -0.070 C 
ATOM      2  C   UNL     1      11.083   5.996   1.670  1.00  0.00    -0.027 C 
ATOM      3  C   UNL     1       9.502   5.149  -0.001  1.00  0.00     0.039 C 
ENDROOT
BRANCH   2   4
ATOM      4  C   UNL     1      12.079   6.934   2.317  1.00  0.00     0.032 C 
BRANCH   4   5
ATOM      5  C   UNL     1      11.480   7.893   3.366  1.00  0.00     0.034 C 
BRANCH   5   6
ATOM      6  C   UNL     1      12.229   9.210   3.469  1.00  0.00    -0.077 C 
ATOM      7  C   UNL     1      12.331   9.853   4.829  1.00  0.00     0.039 C 
ATOM      8  C   UNL     1      12.869   9.808   2.435  1.00  0.00    -0.023 CG0
ATOM      9  G   UNL     1      12.888   9.357   0.988  1.00  0.00     0.000 G0
ENDBRANCH   5   6
ENDBRANCH   4   5
ENDBRANCH   2   4
BRANCH   1  10
ATOM     10  C   UNL     1      10.923   7.268  -0.504  1.00  0.00     0.111 C 
BRANCH  10  11
ATOM     11  C   UNL     1      10.626   8.610   0.112  1.00  0.00     0.163 C 
ATOM     12  O   UNL     1       9.482   8.798   0.605  1.00  0.00    -0.294 OA
BRANCH  11  13
ATOM     13  C   UNL     1      11.652   9.691   0.210  1.00  0.00    -0.002 C 
ATOM     14  C   UNL     1      11.409  10.935  -0.303  1.00  0.00    -0.069 C 
ATOM     15  C   UNL     1      12.358  12.093  -0.082  1.00  0.00     0.039 C 
ATOM     16  C   UNL     1      10.168  11.216  -1.122  1.00  0.00     0.039 C 
BRANCH  13  17
ATOM     17  C   UNL     1      12.923   9.375   0.983  1.00  0.00     0.066 CG0
ATOM     18  G   UNL     1      12.842   9.817   2.431  1.00  0.00     0.000 G0
ENDBRANCH  13  17
ENDBRANCH  11  13
ENDBRANCH  10  11
ENDBRANCH   1  10
TORSDOF 0
ENDMDL
MODEL 4
REMARK VINA RESULT:    -2.517      1.358      1.767
REMARK INTER + INTRA:          -1.981
REMARK INTER:                  -2.413
REMARK INTRA:                   0.432
REMARK UNBOUND:                 1.567
REMARK SMILES CC1=CCC(=C(C)C)C(=O)CC(C)=CCC1
REMARK SMILES IDX 12 1 14 2 13 3 15 4 16 5 2 6 1 7 3 8 11 10 9 11 10 12 5 13
REMARK SMILES IDX 6 14 7 15 8 16 4 17
REMARK H PARENT
REMARK Flexibility Score: 60.00
ROOT
ATOM      1  C   UNL     1       9.996   7.748   0.176  1.00  0.00    -0.070 C 
ATOM      2  C   UNL     1       9.318   8.894  -0.052  1.00  0.00    -0.027 C 
ATOM      3  C   UNL     1       9.271   6.627   0.879  1.00  0.00     0.039 C 
ENDROOT
BRANCH   2   4
ATOM      4  C   UNL     1       9.838  10.089  -0.823  1.00  0.00     0.032 C 
BRANCH   4   5
ATOM      5  C   UNL     1      11.241  10.571  -0.401  1.00  0.00     0.034 C 
BRANCH   5   6
ATOM      6  C   UNL     1      11.303  11.038   1.042  1.00  0.00    -0.077 C 
ATOM      7  C   UNL     1      10.343  12.117   1.472  1.00  0.00     0.039 C 
ATOM      8  C   UNL     1      12.116  10.501   1.985  1.00  0.00    -0.023 CG0
ATOM      9  G   UNL     1      13.168   9.428   1.781  1.00  0.00     0.000 G0
ENDBRANCH   5   6
ENDBRANCH   4   5
ENDBRANCH   2   4
BRANCH   1  10
ATOM     10  C   UNL     1      11.408   7.504  -0.316  1.00  0.00     0.111 C 
BRANCH  10  11
ATOM     11  C   UNL     1      12.340   7.154   0.814  1.00  0.00     0.163 C 
ATOM     12  O   UNL     1      13.025   6.102   0.715  1.00  0.00    -0.294 OA
BRANCH  11  13
ATOM     13  C   UNL     1      12.520   8.036   2.006  1.00  0.00    -0.002 C 
ATOM     14  C   UNL     1      12.228   7.582   3.262  1.00  0.00    -0.069 C 
ATOM     15  C   UNL     1      12.548   8.391   4.501  1.00  0.00     0.039 C 
ATOM     16  C   UNL     1      11.570   6.237   3.476  1.00  0.00     0.039 C 
BRANCH  13  17
ATOM     17  C   UNL     1      13.125   9.411   1.769  1.00  0.00     0.066 CG0
ATOM     18  G   UNL     1      12.122  10.527   1.987  1.00  0.00     0.000 G0
ENDBRANCH  13  17
ENDBRANCH  11  13
ENDBRANCH  10  11
ENDBRANCH   1  10
TORSDOF 0
ENDMDL
MODEL 5
REMARK VINA RESULT:    -0.985     11.791     14.205
REMARK INTER + INTRA:           0.179
REMARK INTER:                  -1.138
REMARK INTRA:                   1.317
REMARK UNBOUND:                 1.567
REMARK SMILES CC1=CCC(=C(C)C)C(=O)CC(C)=CCC1
REMARK SMILES IDX 12 1 14 2 13 3 15 4 16 5 2 6 1 7 3 8 11 10 9 11 10 12 5 13
REMARK SMILES IDX 6 14 7 15 8 16 4 17
REMARK H PARENT
REMARK Flexibility Score: 60.00
ROOT
ATOM      1  C   UNL     1      11.231  -4.851   2.915  1.00  0.00    -0.070 C 
ATOM      2  C   UNL     1      11.531  -3.617   2.453  1.00  0.00    -0.027 C 
ATOM      3  C   UNL     1       9.775  -5.225   3.036  1.00  0.00     0.039 C 
ENDROOT
BRANCH   2   4
ATOM      4  C   UNL     1      12.923  -3.094   2.172  1.00  0.00     0.032 C 
BRANCH   4   5
ATOM      5  C   UNL     1      13.124  -2.516   0.756  1.00  0.00     0.034 C 
BRANCH   5   6
ATOM      6  C   UNL     1      12.124  -3.048  -0.254  1.00  0.00    -0.077 C 
ATOM      7  C   UNL     1      11.203  -2.056  -0.917  1.00  0.00     0.039 C 
ATOM      8  C   UNL     1      12.050  -4.343  -0.649  1.00  0.00    -0.023 CG0
ATOM      9  G   UNL     1      12.856  -5.509  -0.111  1.00  0.00     0.000 G0
ENDBRANCH   5   6
ENDBRANCH   4   5
ENDBRANCH   2   4
BRANCH   1  10
ATOM     10  C   UNL     1      12.279  -5.900   3.228  1.00  0.00     0.111 C 
BRANCH  10  11
ATOM     11  C   UNL     1      12.520  -6.813   2.055  1.00  0.00     0.163 C 
ATOM     12  O   UNL     1      13.117  -7.903   2.264  1.00  0.00    -0.294 OA
BRANCH  11  13
ATOM     13  C   UNL     1      12.025  -6.500   0.681  1.00  0.00    -0.002 C 
ATOM     14  C   UNL     1      10.834  -7.002   0.236  1.00  0.00    -0.069 C 
ATOM     15  C   UNL     1      10.230  -6.578  -1.086  1.00  0.00     0.039 C 
ATOM     16  C   UNL     1      10.055  -8.011   1.051  1.00  0.00     0.039 C 
BRANCH  13  17
ATOM     17  C   UNL     1      12.851  -5.533  -0.152  1.00  0.00     0.066 CG0
ATOM     18  G   UNL     1      12.043  -4.336  -0.615  1.00  0.00     0.000 G0
ENDBRANCH  13  17
ENDBRANCH  11  13
ENDBRANCH  10  11
ENDBRANCH   1  10
TORSDOF 0
ENDMDL
