MODEL 1
REMARK VINA RESULT:    62.329      0.000      0.000
REMARK INTER + INTRA:          86.938
REMARK INTER:                  87.835
REMARK INTRA:                  -0.897
REMARK UNBOUND:                -0.897
REMARK SMILES C[C@H](CO)CCC(=O)[C@H](C)[C@H]1C(=O)C[C@@H]2[C@H]3CC=C4C[C@H](O)CC[C@]4(C)[C@@H]3CC[C@]21C
REMARK SMILES IDX 6 1 5 2 2 3 1 4 3 5 4 6 7 8 8 9 9 10 10 11 11 12 12 13 30 14
REMARK SMILES IDX 13 15 14 16 15 17 29 18 31 19 16 20 28 21 27 22 17 23 25 24
REMARK SMILES IDX 18 25 19 26 24 27 26 28 20 29 23 30 21 31 22 32
REMARK H PARENT 4 7 22 33
REMARK Flexibility Score: inf
ROOT
ATOM      1  C   UNL     1      25.992 -31.235  -4.881  1.00  0.00     0.076 C 
ENDROOT
BRANCH   1   2
ATOM      2  C   UNL     1      26.888 -30.916  -6.086  1.00  0.00     0.013 C 
BRANCH   2   3
ATOM      3  C   UNL     1      26.393 -29.695  -6.896  1.00  0.00     0.012 C 
ATOM      4  C   UNL     1      25.970 -30.135  -8.305  1.00  0.00     0.010 C 
BRANCH   3   5
ATOM      5  C   UNL     1      27.433 -28.556  -6.972  1.00  0.00     0.159 C 
BRANCH   5   6
ATOM      6  O   UNL     1      27.822 -28.129  -5.692  1.00  0.00    -0.396 OA
ATOM      7  H   UNL     1      27.870 -28.938  -5.120  1.00  0.00     0.210 HD
ENDBRANCH   5   6
ENDBRANCH   3   5
ENDBRANCH   2   3
ENDBRANCH   1   2
BRANCH   1   8
ATOM      8  C   UNL     1      26.722 -30.954  -3.592  1.00  0.00     0.136 C 
ATOM      9  O   UNL     1      27.306 -29.889  -3.470  1.00  0.00    -0.299 OA
BRANCH   8  10
ATOM     10  C   UNL     1      26.655 -31.938  -2.435  1.00  0.00     0.064 C 
ATOM     11  C   UNL     1      26.319 -31.246  -1.103  1.00  0.00     0.017 C 
BRANCH  10  12
ATOM     12  C   UNL     1      27.845 -32.951  -2.332  1.00  0.00     0.072 C 
ATOM     13  C   UNL     1      28.187 -33.504  -3.692  1.00  0.00     0.137 C 
ATOM     14  C   UNL     1      29.262 -32.500  -1.832  1.00  0.00    -0.019 C 
ATOM     15  O   UNL     1      27.437 -34.230  -4.327  1.00  0.00    -0.299 OA
ATOM     16  C   UNL     1      29.546 -33.121  -4.178  1.00  0.00     0.080 C 
ATOM     17  C   UNL     1      29.967 -32.083  -3.140  1.00  0.00     0.007 C 
ATOM     18  C   UNL     1      29.366 -31.313  -0.846  1.00  0.00     0.008 C 
ATOM     19  C   UNL     1      29.920 -33.761  -1.174  1.00  0.00     0.012 C 
ATOM     20  C   UNL     1      31.474 -31.798  -2.956  1.00  0.00     0.001 C 
ATOM     21  C   UNL     1      30.839 -30.923  -0.586  1.00  0.00     0.005 C 
ATOM     22  C   UNL     1      31.661 -30.672  -1.895  1.00  0.00     0.003 C 
ATOM     23  C   UNL     1      32.085 -31.316  -4.280  1.00  0.00     0.031 C 
ATOM     24  C   UNL     1      33.194 -30.344  -1.649  1.00  0.00    -0.008 C 
ATOM     25  C   UNL     1      33.523 -30.945  -4.100  1.00  0.00    -0.027 C 
ATOM     26  C   UNL     1      34.026 -30.463  -2.943  1.00  0.00    -0.065 C 
ATOM     27  C   UNL     1      33.829 -31.316  -0.604  1.00  0.00     0.014 C 
ATOM     28  C   UNL     1      33.292 -28.885  -1.128  1.00  0.00     0.016 C 
ATOM     29  C   UNL     1      35.527 -30.295  -2.831  1.00  0.00     0.063 C 
ATOM     30  C   UNL     1      35.365 -31.200  -0.481  1.00  0.00     0.033 C 
ATOM     31  C   UNL     1      36.080 -31.324  -1.835  1.00  0.00     0.118 C 
BRANCH  31  32
ATOM     32  O   UNL     1      35.920 -32.627  -2.334  1.00  0.00    -0.393 OA
ATOM     33  H   UNL     1      35.142 -33.022  -1.860  1.00  0.00     0.210 HD
ENDBRANCH  31  32
ENDBRANCH  10  12
ENDBRANCH   8  10
ENDBRANCH   1   8
TORSDOF 8
ENDMDL
MODEL 2
REMARK VINA RESULT:    64.503      9.604     11.552
REMARK INTER + INTRA:          90.002
REMARK INTER:                  87.892
REMARK INTRA:                   2.111
REMARK UNBOUND:                -0.897
REMARK SMILES C[C@H](CO)CCC(=O)[C@H](C)[C@H]1C(=O)C[C@@H]2[C@H]3CC=C4C[C@H](O)CC[C@]4(C)[C@@H]3CC[C@]21C
REMARK SMILES IDX 6 1 5 2 2 3 1 4 3 5 4 6 7 8 8 9 9 10 10 11 11 12 12 13 30 14
REMARK SMILES IDX 13 15 14 16 15 17 29 18 31 19 16 20 28 21 27 22 17 23 25 24
REMARK SMILES IDX 18 25 19 26 24 27 26 28 20 29 23 30 21 31 22 32
REMARK H PARENT 4 7 22 33
REMARK Flexibility Score: inf
ROOT
ATOM      1  C   UNL     1      27.917 -26.734   6.657  1.00  0.00     0.076 C 
ENDROOT
BRANCH   1   2
ATOM      2  C   UNL     1      26.916 -26.648   5.496  1.00  0.00     0.013 C 
BRANCH   2   3
ATOM      3  C   UNL     1      25.836 -27.754   5.551  1.00  0.00     0.012 C 
ATOM      4  C   UNL     1      26.492 -29.137   5.432  1.00  0.00     0.010 C 
BRANCH   3   5
ATOM      5  C   UNL     1      24.738 -27.581   4.479  1.00  0.00     0.159 C 
BRANCH   5   6
ATOM      6  O   UNL     1      23.454 -27.688   5.038  1.00  0.00    -0.396 OA
ATOM      7  H   UNL     1      23.078 -28.554   4.734  1.00  0.00     0.210 HD
ENDBRANCH   5   6
ENDBRANCH   3   5
ENDBRANCH   2   3
ENDBRANCH   1   2
BRANCH   1   8
ATOM      8  C   UNL     1      28.480 -25.372   6.969  1.00  0.00     0.136 C 
ATOM      9  O   UNL     1      27.771 -24.392   6.804  1.00  0.00    -0.299 OA
BRANCH   8  10
ATOM     10  C   UNL     1      29.873 -25.229   7.564  1.00  0.00     0.064 C 
ATOM     11  C   UNL     1      30.299 -23.757   7.695  1.00  0.00     0.017 C 
BRANCH  10  12
ATOM     12  C   UNL     1      30.977 -26.147   6.940  1.00  0.00     0.072 C 
ATOM     13  C   UNL     1      30.756 -26.306   5.457  1.00  0.00     0.137 C 
ATOM     14  C   UNL     1      32.493 -25.741   6.971  1.00  0.00    -0.019 C 
ATOM     15  O   UNL     1      29.797 -26.895   4.982  1.00  0.00    -0.299 OA
ATOM     16  C   UNL     1      31.840 -25.715   4.615  1.00  0.00     0.080 C 
ATOM     17  C   UNL     1      32.660 -24.952   5.654  1.00  0.00     0.007 C 
ATOM     18  C   UNL     1      33.004 -24.844   8.121  1.00  0.00     0.008 C 
ATOM     19  C   UNL     1      33.308 -27.079   6.973  1.00  0.00     0.012 C 
ATOM     20  C   UNL     1      34.132 -24.619   5.326  1.00  0.00     0.001 C 
ATOM     21  C   UNL     1      34.478 -24.431   7.903  1.00  0.00     0.005 C 
ATOM     22  C   UNL     1      34.748 -23.793   6.497  1.00  0.00     0.003 C 
ATOM     23  C   UNL     1      34.209 -23.770   4.049  1.00  0.00     0.031 C 
ATOM     24  C   UNL     1      36.268 -23.433   6.226  1.00  0.00    -0.008 C 
ATOM     25  C   UNL     1      35.619 -23.357   3.767  1.00  0.00    -0.027 C 
ATOM     26  C   UNL     1      36.540 -23.155   4.734  1.00  0.00    -0.065 C 
ATOM     27  C   UNL     1      37.221 -24.594   6.658  1.00  0.00     0.014 C 
ATOM     28  C   UNL     1      36.607 -22.154   7.039  1.00  0.00     0.016 C 
ATOM     29  C   UNL     1      37.975 -22.916   4.313  1.00  0.00     0.063 C 
ATOM     30  C   UNL     1      38.690 -24.405   6.221  1.00  0.00     0.033 C 
ATOM     31  C   UNL     1      38.831 -24.125   4.717  1.00  0.00     0.118 C 
BRANCH  31  32
ATOM     32  O   UNL     1      38.449 -25.264   3.989  1.00  0.00    -0.393 OA
ATOM     33  H   UNL     1      38.379 -26.010   4.640  1.00  0.00     0.210 HD
ENDBRANCH  31  32
ENDBRANCH  10  12
ENDBRANCH   8  10
ENDBRANCH   1   8
TORSDOF 8
ENDMDL
MODEL 3
REMARK VINA RESULT:    64.722     10.085     12.094
REMARK INTER + INTRA:          90.310
REMARK INTER:                  89.250
REMARK INTRA:                   1.060
REMARK UNBOUND:                -0.897
REMARK SMILES C[C@H](CO)CCC(=O)[C@H](C)[C@H]1C(=O)C[C@@H]2[C@H]3CC=C4C[C@H](O)CC[C@]4(C)[C@@H]3CC[C@]21C
REMARK SMILES IDX 6 1 5 2 2 3 1 4 3 5 4 6 7 8 8 9 9 10 10 11 11 12 12 13 30 14
REMARK SMILES IDX 13 15 14 16 15 17 29 18 31 19 16 20 28 21 27 22 17 23 25 24
REMARK SMILES IDX 18 25 19 26 24 27 26 28 20 29 23 30 21 31 22 32
REMARK H PARENT 4 7 22 33
REMARK Flexibility Score: inf
ROOT
ATOM      1  C   UNL     1      30.571 -23.404   5.056  1.00  0.00     0.076 C 
ENDROOT
BRANCH   1   2
ATOM      2  C   UNL     1      29.498 -22.552   4.363  1.00  0.00     0.013 C 
BRANCH   2   3
ATOM      3  C   UNL     1      30.068 -21.255   3.742  1.00  0.00     0.012 C 
ATOM      4  C   UNL     1      29.102 -20.711   2.680  1.00  0.00     0.010 C 
BRANCH   3   5
ATOM      5  C   UNL     1      31.481 -21.440   3.146  1.00  0.00     0.159 C 
BRANCH   5   6
ATOM      6  O   UNL     1      32.309 -22.176   4.009  1.00  0.00    -0.396 OA
ATOM      7  H   UNL     1      33.155 -22.347   3.520  1.00  0.00     0.210 HD
ENDBRANCH   5   6
ENDBRANCH   3   5
ENDBRANCH   2   3
ENDBRANCH   1   2
BRANCH   1   8
ATOM      8  C   UNL     1      30.024 -24.016   6.319  1.00  0.00     0.136 C 
ATOM      9  O   UNL     1      29.646 -23.276   7.213  1.00  0.00    -0.299 OA
BRANCH   8  10
ATOM     10  C   UNL     1      29.861 -25.523   6.440  1.00  0.00     0.064 C 
ATOM     11  C   UNL     1      28.839 -25.911   7.522  1.00  0.00     0.017 C 
BRANCH  10  12
ATOM     12  C   UNL     1      31.190 -26.348   6.510  1.00  0.00     0.072 C 
ATOM     13  C   UNL     1      31.562 -26.867   5.144  1.00  0.00     0.137 C 
ATOM     14  C   UNL     1      32.542 -25.687   6.953  1.00  0.00    -0.019 C 
ATOM     15  O   UNL     1      30.906 -27.705   4.544  1.00  0.00    -0.299 OA
ATOM     16  C   UNL     1      32.833 -26.297   4.604  1.00  0.00     0.080 C 
ATOM     17  C   UNL     1      33.132 -25.192   5.616  1.00  0.00     0.007 C 
ATOM     18  C   UNL     1      32.504 -24.483   7.922  1.00  0.00     0.008 C 
ATOM     19  C   UNL     1      33.401 -26.828   7.599  1.00  0.00     0.012 C 
ATOM     20  C   UNL     1      34.587 -24.687   5.741  1.00  0.00     0.001 C 
ATOM     21  C   UNL     1      33.912 -23.878   8.125  1.00  0.00     0.005 C 
ATOM     22  C   UNL     1      34.643 -23.529   6.783  1.00  0.00     0.003 C 
ATOM     23  C   UNL     1      35.074 -24.141   4.391  1.00  0.00     0.031 C 
ATOM     24  C   UNL     1      36.118 -22.977   6.969  1.00  0.00    -0.008 C 
ATOM     25  C   UNL     1      36.447 -23.561   4.514  1.00  0.00    -0.027 C 
ATOM     26  C   UNL     1      36.913 -22.992   5.648  1.00  0.00    -0.065 C 
ATOM     27  C   UNL     1      36.926 -23.829   8.001  1.00  0.00     0.014 C 
ATOM     28  C   UNL     1      36.019 -21.511   7.472  1.00  0.00     0.016 C 
ATOM     29  C   UNL     1      38.376 -22.605   5.702  1.00  0.00     0.063 C 
ATOM     30  C   UNL     1      38.431 -23.487   8.067  1.00  0.00     0.033 C 
ATOM     31  C   UNL     1      39.109 -23.525   6.688  1.00  0.00     0.118 C 
BRANCH  31  32
ATOM     32  O   UNL     1      39.125 -24.846   6.209  1.00  0.00    -0.393 OA
ATOM     33  H   UNL     1      38.179 -25.106   6.053  1.00  0.00     0.210 HD
ENDBRANCH  31  32
ENDBRANCH  10  12
ENDBRANCH   8  10
ENDBRANCH   1   8
TORSDOF 8
ENDMDL
