MODEL 1
REMARK VINA RESULT:    -4.415      0.000      0.000
REMARK INTER + INTRA:          -5.220
REMARK INTER:                  -5.060
REMARK INTRA:                  -0.160
REMARK UNBOUND:                -0.160
REMARK SMILES CC=Cc1ccc(O)c(OC)c1
REMARK SMILES IDX 4 1 12 2 9 3 7 4 6 5 5 6 3 7 1 8 2 9 10 10 11 11 8 12
REMARK H PARENT 8 13
REMARK Flexibility Score: inf
ROOT
ATOM      1  C   UNL     1     106.233 106.292 103.093  1.00  0.00    -0.022 A 
ATOM      2  C   UNL     1     105.992 106.975 104.298  1.00  0.00     0.058 A 
ATOM      3  C   UNL     1     105.183 108.128 104.326  1.00  0.00     0.161 A 
ATOM      4  C   UNL     1     104.620 108.602 103.128  1.00  0.00     0.157 A 
ATOM      5  C   UNL     1     104.872 107.935 101.926  1.00  0.00     0.051 A 
ATOM      6  C   UNL     1     105.673 106.793 101.903  1.00  0.00     0.012 A 
ENDROOT
BRANCH   1   7
ATOM      7  C   UNL     1     107.101 105.088 103.121  1.00  0.00     0.003 C 
ATOM      8  C   UNL     1     107.795 102.811 102.484  1.00  0.00     0.035 C 
ATOM      9  C   UNL     1     106.879 103.990 102.389  1.00  0.00    -0.030 C 
ENDBRANCH   1   7
BRANCH   3  10
ATOM     10  O   UNL     1     104.919 108.822 105.518  1.00  0.00    -0.493 OA
ATOM     11  C   UNL     1     104.829 108.217 106.803  1.00  0.00     0.278 C 
ENDBRANCH   3  10
BRANCH   4  12
ATOM     12  O   UNL     1     103.813 109.739 103.110  1.00  0.00    -0.504 OA
ATOM     13  H   UNL     1     104.111 110.606 102.677  1.00  0.00     0.293 HD
ENDBRANCH   4  12
TORSDOF 3
ENDMDL
MODEL 2
REMARK VINA RESULT:    -4.411      3.248      5.048
REMARK INTER + INTRA:          -5.216
REMARK INTER:                  -5.051
REMARK INTRA:                  -0.164
REMARK UNBOUND:                -0.160
REMARK SMILES CC=Cc1ccc(O)c(OC)c1
REMARK SMILES IDX 4 1 12 2 9 3 7 4 6 5 5 6 3 7 1 8 2 9 10 10 11 11 8 12
REMARK H PARENT 8 13
REMARK Flexibility Score: inf
ROOT
ATOM      1  C   UNL     1     105.825 105.741 103.185  1.00  0.00    -0.022 A 
ATOM      2  C   UNL     1     106.052 104.965 104.334  1.00  0.00     0.058 A 
ATOM      3  C   UNL     1     106.842 103.800 104.276  1.00  0.00     0.161 A 
ATOM      4  C   UNL     1     107.401 103.410 103.046  1.00  0.00     0.157 A 
ATOM      5  C   UNL     1     107.163 104.170 101.898  1.00  0.00     0.051 A 
ATOM      6  C   UNL     1     106.380 105.323 101.961  1.00  0.00     0.012 A 
ENDROOT
BRANCH   1   7
ATOM      7  C   UNL     1     104.975 106.953 103.303  1.00  0.00     0.003 C 
ATOM      8  C   UNL     1     104.183 109.202 102.682  1.00  0.00     0.035 C 
ATOM      9  C   UNL     1     105.067 108.011 102.489  1.00  0.00    -0.030 C 
ENDBRANCH   1   7
BRANCH   3  10
ATOM     10  O   UNL     1     107.092 103.014 105.413  1.00  0.00    -0.493 OA
ATOM     11  C   UNL     1     107.294 103.529 106.724  1.00  0.00     0.278 C 
ENDBRANCH   3  10
BRANCH   4  12
ATOM     12  O   UNL     1     108.190 102.264 102.943  1.00  0.00    -0.504 OA
ATOM     13  H   UNL     1     109.186 102.276 103.133  1.00  0.00     0.293 HD
ENDBRANCH   4  12
TORSDOF 3
ENDMDL
MODEL 3
REMARK VINA RESULT:    -4.406      3.073      3.541
REMARK INTER + INTRA:          -5.210
REMARK INTER:                  -5.055
REMARK INTRA:                  -0.155
REMARK UNBOUND:                -0.160
REMARK SMILES CC=Cc1ccc(O)c(OC)c1
REMARK SMILES IDX 4 1 12 2 9 3 7 4 6 5 5 6 3 7 1 8 2 9 10 10 11 11 8 12
REMARK H PARENT 8 13
REMARK Flexibility Score: inf
ROOT
ATOM      1  C   UNL     1     105.627 106.264 103.089  1.00  0.00    -0.022 A 
ATOM      2  C   UNL     1     104.956 106.010 104.298  1.00  0.00     0.058 A 
ATOM      3  C   UNL     1     103.816 105.184 104.332  1.00  0.00     0.161 A 
ATOM      4  C   UNL     1     103.341 104.617 103.137  1.00  0.00     0.157 A 
ATOM      5  C   UNL     1     103.996 104.881 101.931  1.00  0.00     0.051 A 
ATOM      6  C   UNL     1     105.126 105.699 101.901  1.00  0.00     0.012 A 
ENDROOT
BRANCH   1   7
ATOM      7  C   UNL     1     106.818 107.150 103.110  1.00  0.00     0.003 C 
ATOM      8  C   UNL     1     109.151 107.779 102.628  1.00  0.00     0.035 C 
ATOM      9  C   UNL     1     107.992 106.836 102.551  1.00  0.00    -0.030 C 
ENDBRANCH   1   7
BRANCH   3  10
ATOM     10  O   UNL     1     103.135 104.907 105.529  1.00  0.00    -0.493 OA
ATOM     11  C   UNL     1     103.719 104.973 106.826  1.00  0.00     0.278 C 
ENDBRANCH   3  10
BRANCH   4  12
ATOM     12  O   UNL     1     102.216 103.793 103.125  1.00  0.00    -0.504 OA
ATOM     13  H   UNL     1     101.325 104.091 103.505  1.00  0.00     0.293 HD
ENDBRANCH   4  12
TORSDOF 3
ENDMDL
MODEL 4
REMARK VINA RESULT:    -4.356      3.111      3.570
REMARK INTER + INTRA:          -5.153
REMARK INTER:                  -5.001
REMARK INTRA:                  -0.152
REMARK UNBOUND:                -0.160
REMARK SMILES CC=Cc1ccc(O)c(OC)c1
REMARK SMILES IDX 4 1 12 2 9 3 7 4 6 5 5 6 3 7 1 8 2 9 10 10 11 11 8 12
REMARK H PARENT 8 13
REMARK Flexibility Score: inf
ROOT
ATOM      1  C   UNL     1     106.384 105.693 103.058  1.00  0.00    -0.022 A 
ATOM      2  C   UNL     1     107.033 105.961 104.275  1.00  0.00     0.058 A 
ATOM      3  C   UNL     1     108.162 106.803 104.323  1.00  0.00     0.161 A 
ATOM      4  C   UNL     1     108.646 107.370 103.131  1.00  0.00     0.157 A 
ATOM      5  C   UNL     1     108.013 107.093 101.917  1.00  0.00     0.051 A 
ATOM      6  C   UNL     1     106.895 106.259 101.875  1.00  0.00     0.012 A 
ENDROOT
BRANCH   1   7
ATOM      7  C   UNL     1     105.204 104.791 103.066  1.00  0.00     0.003 C 
ATOM      8  C   UNL     1     102.856 104.170 102.649  1.00  0.00     0.035 C 
ATOM      9  C   UNL     1     104.000 105.133 102.592  1.00  0.00    -0.030 C 
ENDBRANCH   1   7
BRANCH   3  10
ATOM     10  O   UNL     1     108.821 107.094 105.528  1.00  0.00    -0.493 OA
ATOM     11  C   UNL     1     108.317 106.780 106.822  1.00  0.00     0.278 C 
ENDBRANCH   3  10
BRANCH   4  12
ATOM     12  O   UNL     1     109.760 108.210 103.132  1.00  0.00    -0.504 OA
ATOM     13  H   UNL     1     110.406 108.248 103.913  1.00  0.00     0.293 HD
ENDBRANCH   4  12
TORSDOF 3
ENDMDL
MODEL 5
REMARK VINA RESULT:    -4.285      1.093      2.561
REMARK INTER + INTRA:          -5.072
REMARK INTER:                  -4.902
REMARK INTRA:                  -0.170
REMARK UNBOUND:                -0.160
REMARK SMILES CC=Cc1ccc(O)c(OC)c1
REMARK SMILES IDX 4 1 12 2 9 3 7 4 6 5 5 6 3 7 1 8 2 9 10 10 11 11 8 12
REMARK H PARENT 8 13
REMARK Flexibility Score: inf
ROOT
ATOM      1  C   UNL     1     106.689 105.839 104.022  1.00  0.00    -0.022 A 
ATOM      2  C   UNL     1     105.791 106.528 103.189  1.00  0.00     0.058 A 
ATOM      3  C   UNL     1     105.154 107.704 103.631  1.00  0.00     0.161 A 
ATOM      4  C   UNL     1     105.417 108.184 104.926  1.00  0.00     0.157 A 
ATOM      5  C   UNL     1     106.297 107.492 105.762  1.00  0.00     0.051 A 
ATOM      6  C   UNL     1     106.926 106.327 105.320  1.00  0.00     0.012 A 
ENDROOT
BRANCH   1   7
ATOM      7  C   UNL     1     107.325 104.599 103.508  1.00  0.00     0.003 C 
ATOM      8  C   UNL     1     107.533 102.630 102.040  1.00  0.00     0.035 C 
ATOM      9  C   UNL     1     106.841 103.878 102.490  1.00  0.00    -0.030 C 
ENDBRANCH   1   7
BRANCH   3  10
ATOM     10  O   UNL     1     104.260 108.416 102.814  1.00  0.00    -0.493 OA
ATOM     11  C   UNL     1     104.644 109.416 101.875  1.00  0.00     0.278 C 
ENDBRANCH   3  10
BRANCH   4  12
ATOM     12  O   UNL     1     104.808 109.345 105.403  1.00  0.00    -0.504 OA
ATOM     13  H   UNL     1     105.043 110.263 105.045  1.00  0.00     0.293 HD
ENDBRANCH   4  12
TORSDOF 3
ENDMDL
MODEL 6
REMARK VINA RESULT:    -3.890      2.510      3.920
REMARK INTER + INTRA:          -4.618
REMARK INTER:                  -4.470
REMARK INTRA:                  -0.148
REMARK UNBOUND:                -0.160
REMARK SMILES CC=Cc1ccc(O)c(OC)c1
REMARK SMILES IDX 4 1 12 2 9 3 7 4 6 5 5 6 3 7 1 8 2 9 10 10 11 11 8 12
REMARK H PARENT 8 13
REMARK Flexibility Score: inf
ROOT
ATOM      1  C   UNL     1     105.607 105.712 104.307  1.00  0.00    -0.022 A 
ATOM      2  C   UNL     1     105.178 106.789 103.512  1.00  0.00     0.058 A 
ATOM      3  C   UNL     1     106.102 107.558 102.778  1.00  0.00     0.161 A 
ATOM      4  C   UNL     1     107.470 107.247 102.854  1.00  0.00     0.157 A 
ATOM      5  C   UNL     1     107.902 106.188 103.657  1.00  0.00     0.051 A 
ATOM      6  C   UNL     1     106.983 105.428 104.382  1.00  0.00     0.012 A 
ENDROOT
BRANCH   1   7
ATOM      7  C   UNL     1     104.591 104.942 105.067  1.00  0.00     0.003 C 
ATOM      8  C   UNL     1     102.926 104.576 106.847  1.00  0.00     0.035 C 
ATOM      9  C   UNL     1     103.926 105.422 106.125  1.00  0.00    -0.030 C 
ENDBRANCH   1   7
BRANCH   3  10
ATOM     10  O   UNL     1     105.697 108.632 101.968  1.00  0.00    -0.493 OA
ATOM     11  C   UNL     1     104.486 109.362 102.138  1.00  0.00     0.278 C 
ENDBRANCH   3  10
BRANCH   4  12
ATOM     12  O   UNL     1     108.419 107.982 102.144  1.00  0.00    -0.504 OA
ATOM     13  H   UNL     1     109.159 107.537 101.613  1.00  0.00     0.293 HD
ENDBRANCH   4  12
TORSDOF 3
ENDMDL
MODEL 7
REMARK VINA RESULT:    -3.812      2.655      3.297
REMARK INTER + INTRA:          -4.529
REMARK INTER:                  -4.378
REMARK INTRA:                  -0.151
REMARK UNBOUND:                -0.160
REMARK SMILES CC=Cc1ccc(O)c(OC)c1
REMARK SMILES IDX 4 1 12 2 9 3 7 4 6 5 5 6 3 7 1 8 2 9 10 10 11 11 8 12
REMARK H PARENT 8 13
REMARK Flexibility Score: inf
ROOT
ATOM      1  C   UNL     1     106.408 105.718 104.476  1.00  0.00    -0.022 A 
ATOM      2  C   UNL     1     105.300 105.174 103.803  1.00  0.00     0.058 A 
ATOM      3  C   UNL     1     104.527 105.963 102.929  1.00  0.00     0.161 A 
ATOM      4  C   UNL     1     104.868 107.314 102.739  1.00  0.00     0.157 A 
ATOM      5  C   UNL     1     105.959 107.861 103.418  1.00  0.00     0.051 A 
ATOM      6  C   UNL     1     106.722 107.076 104.283  1.00  0.00     0.012 A 
ENDROOT
BRANCH   1   7
ATOM      7  C   UNL     1     107.181 104.843 105.393  1.00  0.00     0.003 C 
ATOM      8  C   UNL     1     107.508 102.955 106.943  1.00  0.00     0.035 C 
ATOM      9  C   UNL     1     106.666 103.780 106.021  1.00  0.00    -0.030 C 
ENDBRANCH   1   7
BRANCH   3  10
ATOM     10  O   UNL     1     103.421 105.441 102.238  1.00  0.00    -0.493 OA
ATOM     11  C   UNL     1     102.740 104.242 102.590  1.00  0.00     0.278 C 
ENDBRANCH   3  10
BRANCH   4  12
ATOM     12  O   UNL     1     104.130 108.131 101.882  1.00  0.00    -0.504 OA
ATOM     13  H   UNL     1     103.904 107.853 100.933  1.00  0.00     0.293 HD
ENDBRANCH   4  12
TORSDOF 3
ENDMDL
