MODEL 1
REMARK VINA RESULT:    -2.400      0.000      0.000
REMARK INTER + INTRA:          -8.126
REMARK INTER:                  -5.205
REMARK INTRA:                  -2.921
REMARK UNBOUND:                -2.921
REMARK SMILES CCCCCCCCCCCCCCCCCCCCCC(=O)[O-]
REMARK SMILES IDX 12 1 11 2 10 3 9 4 8 5 7 6 6 7 5 8 4 9 3 10 2 11 1 12 13 13
REMARK SMILES IDX 14 14 15 15 16 16 17 17 18 18 19 19 20 20 21 21 22 22 23 23
REMARK SMILES IDX 24 24
REMARK H PARENT
REMARK Flexibility Score: inf
ROOT
ATOM      1  C   UNL     1      29.085  16.199  16.072  1.00  0.00     0.000 C 
ENDROOT
BRANCH   1   2
ATOM      2  C   UNL     1      27.931  16.071  17.082  1.00  0.00     0.000 C 
BRANCH   2   3
ATOM      3  C   UNL     1      28.161  16.903  18.354  1.00  0.00     0.000 C 
BRANCH   3   4
ATOM      4  C   UNL     1      26.876  17.079  19.182  1.00  0.00    -0.000 C 
BRANCH   4   5
ATOM      5  C   UNL     1      26.931  16.330  20.523  1.00  0.00    -0.000 C 
BRANCH   5   6
ATOM      6  C   UNL     1      27.940  16.945  21.506  1.00  0.00    -0.000 C 
BRANCH   6   7
ATOM      7  C   UNL     1      28.381  15.917  22.555  1.00  0.00    -0.000 C 
BRANCH   7   8
ATOM      8  C   UNL     1      29.833  16.162  22.990  1.00  0.00    -0.000 C 
BRANCH   8   9
ATOM      9  C   UNL     1      30.846  15.335  22.180  1.00  0.00    -0.000 C 
BRANCH   9  10
ATOM     10  C   UNL     1      30.829  13.822  22.471  1.00  0.00    -0.000 C 
BRANCH  10  11
ATOM     11  C   UNL     1      32.226  13.167  22.442  1.00  0.00    -0.003 C 
ATOM     12  C   UNL     1      33.349  14.190  22.265  1.00  0.00     0.004 C 
ENDBRANCH  10  11
ENDBRANCH   9  10
ENDBRANCH   8   9
ENDBRANCH   7   8
ENDBRANCH   6   7
ENDBRANCH   5   6
ENDBRANCH   4   5
ENDBRANCH   3   4
ENDBRANCH   2   3
ENDBRANCH   1   2
BRANCH   1  13
ATOM     13  C   UNL     1      30.254  17.043  16.610  1.00  0.00     0.000 C 
BRANCH  13  14
ATOM     14  C   UNL     1      31.358  16.238  17.326  1.00  0.00     0.000 C 
BRANCH  14  15
ATOM     15  C   UNL     1      31.146  14.711  17.349  1.00  0.00     0.000 C 
BRANCH  15  16
ATOM     16  C   UNL     1      30.768  14.127  18.722  1.00  0.00     0.000 C 
BRANCH  16  17
ATOM     17  C   UNL     1      29.555  13.188  18.659  1.00  0.00     0.000 C 
BRANCH  17  18
ATOM     18  C   UNL     1      28.646  13.382  19.878  1.00  0.00     0.000 C 
BRANCH  18  19
ATOM     19  C   UNL     1      27.905  12.082  20.223  1.00  0.00     0.000 C 
BRANCH  19  20
ATOM     20  C   UNL     1      27.244  12.127  21.611  1.00  0.00     0.006 C 
BRANCH  20  21
ATOM     21  C   UNL     1      28.136  11.532  22.709  1.00  0.00     0.053 C 
BRANCH  21  22
ATOM     22  C   UNL     1      28.461  10.105  22.400  1.00  0.00     0.041 C 
ATOM     23  O   UNL     1      27.669   9.187  22.739  1.00  0.00    -0.550 OA
ATOM     24  O   UNL     1      29.661   9.785  21.778  1.00  0.00    -0.550 OA
ENDBRANCH  21  22
ENDBRANCH  20  21
ENDBRANCH  19  20
ENDBRANCH  18  19
ENDBRANCH  17  18
ENDBRANCH  16  17
ENDBRANCH  15  16
ENDBRANCH  14  15
ENDBRANCH  13  14
ENDBRANCH   1  13
TORSDOF 20
ENDMDL
MODEL 2
REMARK VINA RESULT:    -2.330      1.660      4.517
REMARK INTER + INTRA:          -7.976
REMARK INTER:                  -5.447
REMARK INTRA:                  -2.529
REMARK UNBOUND:                -2.921
REMARK SMILES CCCCCCCCCCCCCCCCCCCCCC(=O)[O-]
REMARK SMILES IDX 12 1 11 2 10 3 9 4 8 5 7 6 6 7 5 8 4 9 3 10 2 11 1 12 13 13
REMARK SMILES IDX 14 14 15 15 16 16 17 17 18 18 19 19 20 20 21 21 22 22 23 23
REMARK SMILES IDX 24 24
REMARK H PARENT
REMARK Flexibility Score: inf
ROOT
ATOM      1  C   UNL     1      31.154  17.114  19.201  1.00  0.00     0.000 C 
ENDROOT
BRANCH   1   2
ATOM      2  C   UNL     1      30.016  17.124  20.236  1.00  0.00     0.000 C 
BRANCH   2   3
ATOM      3  C   UNL     1      29.013  15.978  20.026  1.00  0.00     0.000 C 
BRANCH   3   4
ATOM      4  C   UNL     1      27.588  16.487  19.744  1.00  0.00    -0.000 C 
BRANCH   4   5
ATOM      5  C   UNL     1      27.140  16.214  18.299  1.00  0.00    -0.000 C 
BRANCH   5   6
ATOM      6  C   UNL     1      27.839  17.125  17.277  1.00  0.00    -0.000 C 
BRANCH   6   7
ATOM      7  C   UNL     1      27.632  16.607  15.849  1.00  0.00    -0.000 C 
BRANCH   7   8
ATOM      8  C   UNL     1      28.969  16.512  15.098  1.00  0.00    -0.000 C 
BRANCH   8   9
ATOM      9  C   UNL     1      30.164  16.975  15.949  1.00  0.00    -0.000 C 
BRANCH   9  10
ATOM     10  C   UNL     1      31.264  15.916  16.153  1.00  0.00    -0.000 C 
BRANCH  10  11
ATOM     11  C   UNL     1      30.782  14.468  15.928  1.00  0.00    -0.003 C 
ATOM     12  C   UNL     1      30.261  13.818  17.211  1.00  0.00     0.004 C 
ENDBRANCH  10  11
ENDBRANCH   9  10
ENDBRANCH   8   9
ENDBRANCH   7   8
ENDBRANCH   6   7
ENDBRANCH   5   6
ENDBRANCH   4   5
ENDBRANCH   3   4
ENDBRANCH   2   3
ENDBRANCH   1   2
BRANCH   1  13
ATOM     13  C   UNL     1      32.545  16.990  19.848  1.00  0.00     0.000 C 
BRANCH  13  14
ATOM     14  C   UNL     1      32.749  15.725  20.706  1.00  0.00     0.000 C 
BRANCH  14  15
ATOM     15  C   UNL     1      33.195  15.984  22.159  1.00  0.00     0.000 C 
BRANCH  15  16
ATOM     16  C   UNL     1      33.422  14.718  23.005  1.00  0.00     0.000 C 
BRANCH  16  17
ATOM     17  C   UNL     1      32.970  13.435  22.293  1.00  0.00     0.000 C 
BRANCH  17  18
ATOM     18  C   UNL     1      31.667  12.900  22.900  1.00  0.00     0.000 C 
BRANCH  18  19
ATOM     19  C   UNL     1      30.513  12.993  21.891  1.00  0.00     0.000 C 
BRANCH  19  20
ATOM     20  C   UNL     1      29.189  12.450  22.455  1.00  0.00     0.006 C 
BRANCH  20  21
ATOM     21  C   UNL     1      29.254  10.950  22.771  1.00  0.00     0.053 C 
BRANCH  21  22
ATOM     22  C   UNL     1      28.263  10.198  21.941  1.00  0.00     0.041 C 
ATOM     23  O   UNL     1      27.651  10.777  21.005  1.00  0.00    -0.550 OA
ATOM     24  O   UNL     1      27.980   8.869  22.230  1.00  0.00    -0.550 OA
ENDBRANCH  21  22
ENDBRANCH  20  21
ENDBRANCH  19  20
ENDBRANCH  18  19
ENDBRANCH  17  18
ENDBRANCH  16  17
ENDBRANCH  15  16
ENDBRANCH  14  15
ENDBRANCH  13  14
ENDBRANCH   1  13
TORSDOF 20
ENDMDL
MODEL 3
REMARK VINA RESULT:    -0.990      3.990      6.521
REMARK INTER + INTRA:          -5.068
REMARK INTER:                  -3.460
REMARK INTRA:                  -1.607
REMARK UNBOUND:                -2.921
REMARK SMILES CCCCCCCCCCCCCCCCCCCCCC(=O)[O-]
REMARK SMILES IDX 12 1 11 2 10 3 9 4 8 5 7 6 6 7 5 8 4 9 3 10 2 11 1 12 13 13
REMARK SMILES IDX 14 14 15 15 16 16 17 17 18 18 19 19 20 20 21 21 22 22 23 23
REMARK SMILES IDX 24 24
REMARK H PARENT
REMARK Flexibility Score: inf
ROOT
ATOM      1  C   UNL     1      28.564  15.865  19.414  1.00  0.00     0.000 C 
ENDROOT
BRANCH   1   2
ATOM      2  C   UNL     1      27.270  16.138  20.201  1.00  0.00     0.000 C 
BRANCH   2   3
ATOM      3  C   UNL     1      27.384  15.745  21.683  1.00  0.00     0.000 C 
BRANCH   3   4
ATOM      4  C   UNL     1      27.961  14.331  21.875  1.00  0.00    -0.000 C 
BRANCH   4   5
ATOM      5  C   UNL     1      27.293  13.293  20.959  1.00  0.00    -0.000 C 
BRANCH   5   6
ATOM      6  C   UNL     1      28.250  12.166  20.541  1.00  0.00    -0.000 C 
BRANCH   6   7
ATOM      7  C   UNL     1      29.252  12.660  19.490  1.00  0.00    -0.000 C 
BRANCH   7   8
ATOM      8  C   UNL     1      30.659  12.792  20.090  1.00  0.00    -0.000 C 
BRANCH   8   9
ATOM      9  C   UNL     1      30.808  12.049  21.429  1.00  0.00    -0.000 C 
BRANCH   9  10
ATOM     10  C   UNL     1      31.794  12.694  22.422  1.00  0.00    -0.000 C 
BRANCH  10  11
ATOM     11  C   UNL     1      32.381  14.035  21.934  1.00  0.00    -0.003 C 
ATOM     12  C   UNL     1      33.056  14.822  23.058  1.00  0.00     0.004 C 
ENDBRANCH  10  11
ENDBRANCH   9  10
ENDBRANCH   8   9
ENDBRANCH   7   8
ENDBRANCH   6   7
ENDBRANCH   5   6
ENDBRANCH   4   5
ENDBRANCH   3   4
ENDBRANCH   2   3
ENDBRANCH   1   2
BRANCH   1  13
ATOM     13  C   UNL     1      29.712  16.809  19.812  1.00  0.00     0.000 C 
BRANCH  13  14
ATOM     14  C   UNL     1      31.126  16.228  19.614  1.00  0.00     0.000 C 
BRANCH  14  15
ATOM     15  C   UNL     1      32.099  17.124  18.821  1.00  0.00     0.000 C 
BRANCH  15  16
ATOM     16  C   UNL     1      31.967  17.032  17.290  1.00  0.00     0.000 C 
BRANCH  16  17
ATOM     17  C   UNL     1      30.870  16.054  16.843  1.00  0.00     0.000 C 
BRANCH  17  18
ATOM     18  C   UNL     1      30.907  15.845  15.325  1.00  0.00     0.000 C 
BRANCH  18  19
ATOM     19  C   UNL     1      30.329  17.062  14.588  1.00  0.00     0.000 C 
BRANCH  19  20
ATOM     20  C   UNL     1      30.449  16.941  13.060  1.00  0.00     0.006 C 
BRANCH  20  21
ATOM     21  C   UNL     1      31.906  16.945  12.580  1.00  0.00     0.053 C 
BRANCH  21  22
ATOM     22  C   UNL     1      32.226  15.668  11.871  1.00  0.00     0.041 C 
ATOM     23  O   UNL     1      32.838  15.689  10.771  1.00  0.00    -0.550 OA
ATOM     24  O   UNL     1      31.808  14.454  12.403  1.00  0.00    -0.550 OA
ENDBRANCH  21  22
ENDBRANCH  20  21
ENDBRANCH  19  20
ENDBRANCH  18  19
ENDBRANCH  17  18
ENDBRANCH  16  17
ENDBRANCH  15  16
ENDBRANCH  14  15
ENDBRANCH  13  14
ENDBRANCH   1  13
TORSDOF 20
ENDMDL
MODEL 4
REMARK VINA RESULT:    -0.017      2.729      5.919
REMARK INTER + INTRA:          -2.958
REMARK INTER:                  -3.686
REMARK INTRA:                   0.728
REMARK UNBOUND:                -2.921
REMARK SMILES CCCCCCCCCCCCCCCCCCCCCC(=O)[O-]
REMARK SMILES IDX 12 1 11 2 10 3 9 4 8 5 7 6 6 7 5 8 4 9 3 10 2 11 1 12 13 13
REMARK SMILES IDX 14 14 15 15 16 16 17 17 18 18 19 19 20 20 21 21 22 22 23 23
REMARK SMILES IDX 24 24
REMARK H PARENT
REMARK Flexibility Score: inf
ROOT
ATOM      1  C   UNL     1      28.649  11.656  21.151  1.00  0.00     0.000 C 
ENDROOT
BRANCH   1   2
ATOM      2  C   UNL     1      29.868  12.068  21.995  1.00  0.00     0.000 C 
BRANCH   2   3
ATOM      3  C   UNL     1      31.040  12.571  21.137  1.00  0.00     0.000 C 
BRANCH   3   4
ATOM      4  C   UNL     1      32.243  13.017  21.989  1.00  0.00    -0.000 C 
BRANCH   4   5
ATOM      5  C   UNL     1      31.865  14.081  23.032  1.00  0.00    -0.000 C 
BRANCH   5   6
ATOM      6  C   UNL     1      30.499  14.728  22.753  1.00  0.00    -0.000 C 
BRANCH   6   7
ATOM      7  C   UNL     1      30.659  16.208  22.386  1.00  0.00    -0.000 C 
BRANCH   7   8
ATOM      8  C   UNL     1      31.853  16.832  23.124  1.00  0.00    -0.000 C 
BRANCH   8   9
ATOM      9  C   UNL     1      33.099  16.969  22.232  1.00  0.00    -0.000 C 
BRANCH   9  10
ATOM     10  C   UNL     1      33.017  16.226  20.886  1.00  0.00    -0.000 C 
BRANCH  10  11
ATOM     11  C   UNL     1      31.801  16.629  20.026  1.00  0.00    -0.003 C 
ATOM     12  C   UNL     1      32.182  16.927  18.575  1.00  0.00     0.004 C 
ENDBRANCH  10  11
ENDBRANCH   9  10
ENDBRANCH   8   9
ENDBRANCH   7   8
ENDBRANCH   6   7
ENDBRANCH   5   6
ENDBRANCH   4   5
ENDBRANCH   3   4
ENDBRANCH   2   3
ENDBRANCH   1   2
BRANCH   1  13
ATOM     13  C   UNL     1      28.510  12.487  19.863  1.00  0.00     0.000 C 
BRANCH  13  14
ATOM     14  C   UNL     1      28.823  13.989  20.024  1.00  0.00     0.000 C 
BRANCH  14  15
ATOM     15  C   UNL     1      28.739  14.819  18.727  1.00  0.00     0.000 C 
BRANCH  15  16
ATOM     16  C   UNL     1      27.944  16.131  18.845  1.00  0.00     0.000 C 
BRANCH  16  17
ATOM     17  C   UNL     1      27.042  16.394  17.630  1.00  0.00     0.000 C 
BRANCH  17  18
ATOM     18  C   UNL     1      27.817  17.098  16.511  1.00  0.00     0.000 C 
BRANCH  18  19
ATOM     19  C   UNL     1      29.322  17.123  16.817  1.00  0.00     0.000 C 
BRANCH  19  20
ATOM     20  C   UNL     1      30.186  17.094  15.545  1.00  0.00     0.006 C 
BRANCH  20  21
ATOM     21  C   UNL     1      30.135  15.737  14.830  1.00  0.00     0.053 C 
BRANCH  21  22
ATOM     22  C   UNL     1      31.079  14.772  15.475  1.00  0.00     0.041 C 
ATOM     23  O   UNL     1      32.311  15.026  15.523  1.00  0.00    -0.550 OA
ATOM     24  O   UNL     1      30.603  13.569  15.983  1.00  0.00    -0.550 OA
ENDBRANCH  21  22
ENDBRANCH  20  21
ENDBRANCH  19  20
ENDBRANCH  18  19
ENDBRANCH  17  18
ENDBRANCH  16  17
ENDBRANCH  15  16
ENDBRANCH  14  15
ENDBRANCH  13  14
ENDBRANCH   1  13
TORSDOF 20
ENDMDL
