MODEL 1
REMARK VINA RESULT:    -4.580      0.000      0.000
REMARK INTER + INTRA:          -6.145
REMARK INTER:                  -5.919
REMARK INTRA:                  -0.226
REMARK UNBOUND:                -0.226
REMARK SMILES CCCCCCC(=O)[O-]
REMARK SMILES IDX 5 1 6 2 7 3 8 4 9 5 4 6 3 7 2 8 1 9
REMARK H PARENT
REMARK Flexibility Score: inf
ROOT
ATOM      1  C   UNL     1     -16.073  -7.656  -1.821  1.00  0.00     0.006 C 
ENDROOT
BRANCH   1   2
ATOM      2  C   UNL     1     -16.796  -8.621  -2.764  1.00  0.00     0.053 C 
BRANCH   2   3
ATOM      3  C   UNL     1     -16.141  -8.627  -4.110  1.00  0.00     0.041 C 
ATOM      4  O   UNL     1     -15.154  -9.376  -4.331  1.00  0.00    -0.550 OA
ATOM      5  O   UNL     1     -16.652  -7.841  -5.135  1.00  0.00    -0.550 OA
ENDBRANCH   2   3
ENDBRANCH   1   2
BRANCH   1   6
ATOM      6  C   UNL     1     -15.830  -8.304  -0.449  1.00  0.00     0.000 C 
BRANCH   6   7
ATOM      7  C   UNL     1     -16.457  -7.489   0.701  1.00  0.00    -0.000 C 
BRANCH   7   8
ATOM      8  C   UNL     1     -17.788  -8.065   1.210  1.00  0.00    -0.003 C 
ATOM      9  C   UNL     1     -18.110  -9.437   0.621  1.00  0.00     0.004 C 
ENDBRANCH   7   8
ENDBRANCH   6   7
ENDBRANCH   1   6
TORSDOF 5
ENDMDL
MODEL 2
REMARK VINA RESULT:    -4.554      0.754      2.019
REMARK INTER + INTRA:          -6.111
REMARK INTER:                  -5.870
REMARK INTRA:                  -0.242
REMARK UNBOUND:                -0.226
REMARK SMILES CCCCCCC(=O)[O-]
REMARK SMILES IDX 5 1 6 2 7 3 8 4 9 5 4 6 3 7 2 8 1 9
REMARK H PARENT
REMARK Flexibility Score: inf
ROOT
ATOM      1  C   UNL     1     -17.134  -9.634  -2.060  1.00  0.00     0.006 C 
ENDROOT
BRANCH   1   2
ATOM      2  C   UNL     1     -16.702  -8.322  -2.722  1.00  0.00     0.053 C 
BRANCH   2   3
ATOM      3  C   UNL     1     -16.212  -8.575  -4.113  1.00  0.00     0.041 C 
ATOM      4  O   UNL     1     -16.692  -7.927  -5.080  1.00  0.00    -0.550 OA
ATOM      5  O   UNL     1     -15.192  -9.491  -4.336  1.00  0.00    -0.550 OA
ENDBRANCH   2   3
ENDBRANCH   1   2
BRANCH   1   6
ATOM      6  C   UNL     1     -18.331  -9.410  -1.123  1.00  0.00     0.000 C 
BRANCH   6   7
ATOM      7  C   UNL     1     -17.950  -9.577   0.362  1.00  0.00    -0.000 C 
BRANCH   7   8
ATOM      8  C   UNL     1     -17.803  -8.243   1.114  1.00  0.00    -0.003 C 
ATOM      9  C   UNL     1     -16.411  -7.629   0.975  1.00  0.00     0.004 C 
ENDBRANCH   7   8
ENDBRANCH   6   7
ENDBRANCH   1   6
TORSDOF 5
ENDMDL
MODEL 3
REMARK VINA RESULT:    -4.467      5.913      7.166
REMARK INTER + INTRA:          -5.999
REMARK INTER:                  -5.756
REMARK INTRA:                  -0.243
REMARK UNBOUND:                -0.226
REMARK SMILES CCCCCCC(=O)[O-]
REMARK SMILES IDX 5 1 6 2 7 3 8 4 9 5 4 6 3 7 2 8 1 9
REMARK H PARENT
REMARK Flexibility Score: inf
ROOT
ATOM      1  C   UNL     1     -16.108 -14.658  -0.787  1.00  0.00     0.006 C 
ENDROOT
BRANCH   1   2
ATOM      2  C   UNL     1     -16.446 -13.636   0.302  1.00  0.00     0.053 C 
BRANCH   2   3
ATOM      3  C   UNL     1     -15.399 -13.644   1.372  1.00  0.00     0.041 C 
ATOM      4  O   UNL     1     -14.344 -12.973   1.230  1.00  0.00    -0.550 OA
ATOM      5  O   UNL     1     -15.612 -14.356   2.546  1.00  0.00    -0.550 OA
ENDBRANCH   2   3
ENDBRANCH   1   2
BRANCH   1   6
ATOM      6  C   UNL     1     -16.306 -14.058  -2.187  1.00  0.00     0.000 C 
BRANCH   6   7
ATOM      7  C   UNL     1     -17.465 -14.731  -2.952  1.00  0.00    -0.000 C 
BRANCH   7   8
ATOM      8  C   UNL     1     -18.786 -13.945  -2.884  1.00  0.00    -0.003 C 
ATOM      9  C   UNL     1     -18.593 -12.486  -2.475  1.00  0.00     0.004 C 
ENDBRANCH   7   8
ENDBRANCH   6   7
ENDBRANCH   1   6
TORSDOF 5
ENDMDL
MODEL 4
REMARK VINA RESULT:    -4.391      2.690      4.436
REMARK INTER + INTRA:          -5.900
REMARK INTER:                  -5.620
REMARK INTRA:                  -0.280
REMARK UNBOUND:                -0.226
REMARK SMILES CCCCCCC(=O)[O-]
REMARK SMILES IDX 5 1 6 2 7 3 8 4 9 5 4 6 3 7 2 8 1 9
REMARK H PARENT
REMARK Flexibility Score: inf
ROOT
ATOM      1  C   UNL     1     -16.044  -8.243   0.368  1.00  0.00     0.006 C 
ENDROOT
BRANCH   1   2
ATOM      2  C   UNL     1     -17.482  -8.316   0.889  1.00  0.00     0.053 C 
BRANCH   2   3
ATOM      3  C   UNL     1     -18.213  -9.456   0.255  1.00  0.00     0.041 C 
ATOM      4  O   UNL     1     -19.244  -9.242  -0.435  1.00  0.00    -0.550 OA
ATOM      5  O   UNL     1     -17.728 -10.751   0.384  1.00  0.00    -0.550 OA
ENDBRANCH   2   3
ENDBRANCH   1   2
BRANCH   1   6
ATOM      6  C   UNL     1     -15.992  -7.573  -1.014  1.00  0.00     0.000 C 
BRANCH   6   7
ATOM      7  C   UNL     1     -15.617  -8.568  -2.132  1.00  0.00    -0.000 C 
BRANCH   7   8
ATOM      8  C   UNL     1     -16.745  -8.803  -3.151  1.00  0.00    -0.003 C 
ATOM      9  C   UNL     1     -16.483  -8.132  -4.498  1.00  0.00     0.004 C 
ENDBRANCH   7   8
ENDBRANCH   6   7
ENDBRANCH   1   6
TORSDOF 5
ENDMDL
MODEL 5
REMARK VINA RESULT:    -4.343      1.959      2.516
REMARK INTER + INTRA:          -5.838
REMARK INTER:                  -5.539
REMARK INTRA:                  -0.299
REMARK UNBOUND:                -0.226
REMARK SMILES CCCCCCC(=O)[O-]
REMARK SMILES IDX 5 1 6 2 7 3 8 4 9 5 4 6 3 7 2 8 1 9
REMARK H PARENT
REMARK Flexibility Score: inf
ROOT
ATOM      1  C   UNL     1     -16.602  -8.634  -2.760  1.00  0.00     0.006 C 
ENDROOT
BRANCH   1   2
ATOM      2  C   UNL     1     -17.563  -9.638  -2.117  1.00  0.00     0.053 C 
BRANCH   2   3
ATOM      3  C   UNL     1     -17.206 -11.035  -2.516  1.00  0.00     0.041 C 
ATOM      4  O   UNL     1     -16.031 -11.311  -2.872  1.00  0.00    -0.550 OA
ATOM      5  O   UNL     1     -18.160 -12.042  -2.449  1.00  0.00    -0.550 OA
ENDBRANCH   2   3
ENDBRANCH   1   2
BRANCH   1   6
ATOM      6  C   UNL     1     -16.114  -7.601  -1.732  1.00  0.00     0.000 C 
BRANCH   6   7
ATOM      7  C   UNL     1     -15.737  -8.252  -0.385  1.00  0.00    -0.000 C 
BRANCH   7   8
ATOM      8  C   UNL     1     -16.328  -7.527   0.836  1.00  0.00    -0.003 C 
ATOM      9  C   UNL     1     -17.725  -8.023   1.207  1.00  0.00     0.004 C 
ENDBRANCH   7   8
ENDBRANCH   6   7
ENDBRANCH   1   6
TORSDOF 5
ENDMDL
MODEL 6
REMARK VINA RESULT:    -4.309      3.665      4.926
REMARK INTER + INTRA:          -5.795
REMARK INTER:                  -5.574
REMARK INTRA:                  -0.221
REMARK UNBOUND:                -0.226
REMARK SMILES CCCCCCC(=O)[O-]
REMARK SMILES IDX 5 1 6 2 7 3 8 4 9 5 4 6 3 7 2 8 1 9
REMARK H PARENT
REMARK Flexibility Score: inf
ROOT
ATOM      1  C   UNL     1     -17.011 -10.884  -2.328  1.00  0.00     0.006 C 
ENDROOT
BRANCH   1   2
ATOM      2  C   UNL     1     -18.070 -11.989  -2.273  1.00  0.00     0.053 C 
BRANCH   2   3
ATOM      3  C   UNL     1     -18.343 -12.382  -0.856  1.00  0.00     0.041 C 
ATOM      4  O   UNL     1     -17.526 -13.107  -0.231  1.00  0.00    -0.550 OA
ATOM      5  O   UNL     1     -19.478 -11.908  -0.210  1.00  0.00    -0.550 OA
ENDBRANCH   2   3
ENDBRANCH   1   2
BRANCH   1   6
ATOM      6  C   UNL     1     -17.630  -9.511  -2.024  1.00  0.00     0.000 C 
BRANCH   6   7
ATOM      7  C   UNL     1     -16.663  -8.351  -2.339  1.00  0.00    -0.000 C 
BRANCH   7   8
ATOM      8  C   UNL     1     -15.907  -8.523  -3.667  1.00  0.00    -0.003 C 
ATOM      9  C   UNL     1     -16.696  -8.016  -4.874  1.00  0.00     0.004 C 
ENDBRANCH   7   8
ENDBRANCH   6   7
ENDBRANCH   1   6
TORSDOF 5
ENDMDL
MODEL 7
REMARK VINA RESULT:    -4.306      5.324      5.996
REMARK INTER + INTRA:          -5.791
REMARK INTER:                  -5.382
REMARK INTRA:                  -0.409
REMARK UNBOUND:                -0.226
REMARK SMILES CCCCCCC(=O)[O-]
REMARK SMILES IDX 5 1 6 2 7 3 8 4 9 5 4 6 3 7 2 8 1 9
REMARK H PARENT
REMARK Flexibility Score: inf
ROOT
ATOM      1  C   UNL     1     -17.135 -14.417  -2.922  1.00  0.00     0.006 C 
ENDROOT
BRANCH   1   2
ATOM      2  C   UNL     1     -18.517 -13.804  -2.677  1.00  0.00     0.053 C 
BRANCH   2   3
ATOM      3  C   UNL     1     -18.401 -12.565  -1.847  1.00  0.00     0.041 C 
ATOM      4  O   UNL     1     -17.797 -11.556  -2.296  1.00  0.00    -0.550 OA
ATOM      5  O   UNL     1     -19.001 -12.508  -0.596  1.00  0.00    -0.550 OA
ENDBRANCH   2   3
ENDBRANCH   1   2
BRANCH   1   6
ATOM      6  C   UNL     1     -16.460 -14.802  -1.597  1.00  0.00     0.000 C 
BRANCH   6   7
ATOM      7  C   UNL     1     -15.062 -14.167  -1.448  1.00  0.00    -0.000 C 
BRANCH   7   8
ATOM      8  C   UNL     1     -14.906 -13.311  -0.180  1.00  0.00    -0.003 C 
ATOM      9  C   UNL     1     -15.879 -13.705   0.931  1.00  0.00     0.004 C 
ENDBRANCH   7   8
ENDBRANCH   6   7
ENDBRANCH   1   6
TORSDOF 5
ENDMDL
MODEL 8
REMARK VINA RESULT:    -4.266      1.704      2.742
REMARK INTER + INTRA:          -5.738
REMARK INTER:                  -5.593
REMARK INTRA:                  -0.145
REMARK UNBOUND:                -0.226
REMARK SMILES CCCCCCC(=O)[O-]
REMARK SMILES IDX 5 1 6 2 7 3 8 4 9 5 4 6 3 7 2 8 1 9
REMARK H PARENT
REMARK Flexibility Score: inf
ROOT
ATOM      1  C   UNL     1     -17.610  -9.641  -2.248  1.00  0.00     0.006 C 
ENDROOT
BRANCH   1   2
ATOM      2  C   UNL     1     -16.750  -8.442  -2.656  1.00  0.00     0.053 C 
BRANCH   2   3
ATOM      3  C   UNL     1     -16.254  -8.605  -4.059  1.00  0.00     0.041 C 
ATOM      4  O   UNL     1     -16.794  -7.966  -4.999  1.00  0.00    -0.550 OA
ATOM      5  O   UNL     1     -15.165  -9.427  -4.319  1.00  0.00    -0.550 OA
ENDBRANCH   2   3
ENDBRANCH   1   2
BRANCH   1   6
ATOM      6  C   UNL     1     -18.414  -9.336  -0.976  1.00  0.00     0.000 C 
BRANCH   6   7
ATOM      7  C   UNL     1     -18.246 -10.431   0.098  1.00  0.00    -0.000 C 
BRANCH   7   8
ATOM      8  C   UNL     1     -18.961 -11.748  -0.248  1.00  0.00    -0.003 C 
ATOM      9  C   UNL     1     -17.995 -12.908  -0.485  1.00  0.00     0.004 C 
ENDBRANCH   7   8
ENDBRANCH   6   7
ENDBRANCH   1   6
TORSDOF 5
ENDMDL
MODEL 9
REMARK VINA RESULT:    -4.253      3.264      4.334
REMARK INTER + INTRA:          -5.722
REMARK INTER:                  -5.488
REMARK INTRA:                  -0.234
REMARK UNBOUND:                -0.226
REMARK SMILES CCCCCCC(=O)[O-]
REMARK SMILES IDX 5 1 6 2 7 3 8 4 9 5 4 6 3 7 2 8 1 9
REMARK H PARENT
REMARK Flexibility Score: inf
ROOT
ATOM      1  C   UNL     1     -18.072 -10.642  -0.120  1.00  0.00     0.006 C 
ENDROOT
BRANCH   1   2
ATOM      2  C   UNL     1     -18.435  -9.527  -1.105  1.00  0.00     0.053 C 
BRANCH   2   3
ATOM      3  C   UNL     1     -17.344  -9.341  -2.112  1.00  0.00     0.041 C 
ATOM      4  O   UNL     1     -17.010 -10.293  -2.865  1.00  0.00    -0.550 OA
ATOM      5  O   UNL     1     -16.729  -8.103  -2.252  1.00  0.00    -0.550 OA
ENDBRANCH   2   3
ENDBRANCH   1   2
BRANCH   1   6
ATOM      6  C   UNL     1     -19.051 -11.820  -0.236  1.00  0.00     0.000 C 
BRANCH   6   7
ATOM      7  C   UNL     1     -18.444 -13.009  -1.011  1.00  0.00    -0.000 C 
BRANCH   7   8
ATOM      8  C   UNL     1     -17.159 -13.567  -0.376  1.00  0.00    -0.003 C 
ATOM      9  C   UNL     1     -16.463 -14.607  -1.251  1.00  0.00     0.004 C 
ENDBRANCH   7   8
ENDBRANCH   6   7
ENDBRANCH   1   6
TORSDOF 5
ENDMDL
