MODEL 1
REMARK VINA RESULT:    -4.408      0.000      0.000
REMARK INTER + INTRA:         -17.250
REMARK INTER:                 -11.623
REMARK INTRA:                  -5.627
REMARK UNBOUND:                -5.627
REMARK SMILES CCCCCCCCCCCCCCCCCCCCCCCCCCCCCC(=O)[O-]
REMARK SMILES IDX 16 1 17 2 18 3 19 4 20 5 21 6 22 7 23 8 24 9 25 10 26 11
REMARK SMILES IDX 27 12 28 13 29 14 30 15 31 16 32 17 15 18 14 19 13 20 12 21
REMARK SMILES IDX 11 22 10 23 9 24 8 25 7 26 6 27 5 28 4 29 3 30 2 31 1 32
REMARK H PARENT
REMARK Flexibility Score: inf
ROOT
ATOM      1  C   UNL     1      14.115  70.312  16.295  1.00  0.00     0.000 C 
ENDROOT
BRANCH   1   2
ATOM      2  C   UNL     1      13.297  70.348  17.601  1.00  0.00     0.000 C 
BRANCH   2   3
ATOM      3  C   UNL     1      11.781  70.426  17.347  1.00  0.00     0.000 C 
BRANCH   3   4
ATOM      4  C   UNL     1      11.411  71.679  16.534  1.00  0.00     0.000 C 
BRANCH   4   5
ATOM      5  C   UNL     1      10.620  72.722  17.357  1.00  0.00     0.000 C 
BRANCH   5   6
ATOM      6  C   UNL     1      11.444  73.936  17.832  1.00  0.00     0.000 C 
BRANCH   6   7
ATOM      7  C   UNL     1      12.600  73.666  18.820  1.00  0.00     0.000 C 
BRANCH   7   8
ATOM      8  C   UNL     1      13.994  74.168  18.379  1.00  0.00     0.000 C 
BRANCH   8   9
ATOM      9  C   UNL     1      14.287  74.002  16.879  1.00  0.00     0.000 C 
BRANCH   9  10
ATOM     10  C   UNL     1      15.716  73.509  16.592  1.00  0.00     0.000 C 
BRANCH  10  11
ATOM     11  C   UNL     1      16.667  73.877  17.745  1.00  0.00     0.000 C 
BRANCH  11  12
ATOM     12  C   UNL     1      17.784  74.840  17.308  1.00  0.00     0.000 C 
BRANCH  12  13
ATOM     13  C   UNL     1      19.179  74.362  17.747  1.00  0.00     0.006 C 
BRANCH  13  14
ATOM     14  C   UNL     1      19.349  74.369  19.274  1.00  0.00     0.053 C 
BRANCH  14  15
ATOM     15  C   UNL     1      20.018  75.613  19.780  1.00  0.00     0.041 C 
ATOM     16  O   UNL     1      19.622  76.747  19.389  1.00  0.00    -0.550 OA
ATOM     17  O   UNL     1      21.036  75.535  20.724  1.00  0.00    -0.550 OA
ENDBRANCH  14  15
ENDBRANCH  13  14
ENDBRANCH  12  13
ENDBRANCH  11  12
ENDBRANCH  10  11
ENDBRANCH   9  10
ENDBRANCH   8   9
ENDBRANCH   7   8
ENDBRANCH   6   7
ENDBRANCH   5   6
ENDBRANCH   4   5
ENDBRANCH   3   4
ENDBRANCH   2   3
ENDBRANCH   1   2
BRANCH   1  18
ATOM     18  C   UNL     1      14.683  68.924  15.921  1.00  0.00     0.000 C 
BRANCH  18  19
ATOM     19  C   UNL     1      16.206  68.758  16.089  1.00  0.00     0.000 C 
BRANCH  19  20
ATOM     20  C   UNL     1      16.873  69.966  16.768  1.00  0.00     0.000 C 
BRANCH  20  21
ATOM     21  C   UNL     1      17.941  69.560  17.799  1.00  0.00     0.000 C 
BRANCH  21  22
ATOM     22  C   UNL     1      18.700  70.728  18.453  1.00  0.00     0.000 C 
BRANCH  22  23
ATOM     23  C   UNL     1      18.365  70.893  19.943  1.00  0.00     0.000 C 
BRANCH  23  24
ATOM     24  C   UNL     1      16.955  71.458  20.180  1.00  0.00    -0.000 C 
BRANCH  24  25
ATOM     25  C   UNL     1      16.001  70.425  20.802  1.00  0.00    -0.000 C 
BRANCH  25  26
ATOM     26  C   UNL     1      16.756  69.183  21.300  1.00  0.00    -0.000 C 
BRANCH  26  27
ATOM     27  C   UNL     1      16.125  67.869  20.791  1.00  0.00    -0.000 C 
BRANCH  27  28
ATOM     28  C   UNL     1      15.082  68.058  19.670  1.00  0.00    -0.000 C 
BRANCH  28  29
ATOM     29  C   UNL     1      14.265  66.806  19.313  1.00  0.00    -0.000 C 
BRANCH  29  30
ATOM     30  C   UNL     1      12.747  67.045  19.372  1.00  0.00    -0.000 C 
BRANCH  30  31
ATOM     31  C   UNL     1      12.105  66.855  17.992  1.00  0.00    -0.003 C 
ATOM     32  C   UNL     1      12.772  65.716  17.222  1.00  0.00     0.004 C 
ENDBRANCH  30  31
ENDBRANCH  29  30
ENDBRANCH  28  29
ENDBRANCH  27  28
ENDBRANCH  26  27
ENDBRANCH  25  26
ENDBRANCH  24  25
ENDBRANCH  23  24
ENDBRANCH  22  23
ENDBRANCH  21  22
ENDBRANCH  20  21
ENDBRANCH  19  20
ENDBRANCH  18  19
ENDBRANCH   1  18
TORSDOF 28
ENDMDL
MODEL 2
REMARK VINA RESULT:    -4.354      3.005      6.944
REMARK INTER + INTRA:         -17.109
REMARK INTER:                 -12.516
REMARK INTRA:                  -4.592
REMARK UNBOUND:                -5.627
REMARK SMILES CCCCCCCCCCCCCCCCCCCCCCCCCCCCCC(=O)[O-]
REMARK SMILES IDX 16 1 17 2 18 3 19 4 20 5 21 6 22 7 23 8 24 9 25 10 26 11
REMARK SMILES IDX 27 12 28 13 29 14 30 15 31 16 32 17 15 18 14 19 13 20 12 21
REMARK SMILES IDX 11 22 10 23 9 24 8 25 7 26 6 27 5 28 4 29 3 30 2 31 1 32
REMARK H PARENT
REMARK Flexibility Score: inf
ROOT
ATOM      1  C   UNL     1      16.469  75.125  17.788  1.00  0.00     0.000 C 
ENDROOT
BRANCH   1   2
ATOM      2  C   UNL     1      15.696  74.328  16.718  1.00  0.00     0.000 C 
BRANCH   2   3
ATOM      3  C   UNL     1      16.547  73.217  16.078  1.00  0.00     0.000 C 
BRANCH   3   4
ATOM      4  C   UNL     1      16.230  71.842  16.690  1.00  0.00     0.000 C 
BRANCH   4   5
ATOM      5  C   UNL     1      17.241  70.748  16.277  1.00  0.00     0.000 C 
BRANCH   5   6
ATOM      6  C   UNL     1      17.035  69.381  16.960  1.00  0.00     0.000 C 
BRANCH   6   7
ATOM      7  C   UNL     1      15.650  68.713  16.809  1.00  0.00     0.000 C 
BRANCH   7   8
ATOM      8  C   UNL     1      14.787  68.656  18.089  1.00  0.00     0.000 C 
BRANCH   8   9
ATOM      9  C   UNL     1      13.291  68.932  17.864  1.00  0.00     0.000 C 
BRANCH   9  10
ATOM     10  C   UNL     1      13.009  70.354  17.349  1.00  0.00     0.000 C 
BRANCH  10  11
ATOM     11  C   UNL     1      11.501  70.572  17.131  1.00  0.00     0.000 C 
BRANCH  11  12
ATOM     12  C   UNL     1      11.188  71.914  16.449  1.00  0.00     0.000 C 
BRANCH  12  13
ATOM     13  C   UNL     1      12.038  73.070  17.004  1.00  0.00     0.006 C 
BRANCH  13  14
ATOM     14  C   UNL     1      11.750  73.351  18.487  1.00  0.00     0.053 C 
BRANCH  14  15
ATOM     15  C   UNL     1      10.510  74.170  18.695  1.00  0.00     0.041 C 
ATOM     16  O   UNL     1      10.077  74.377  19.864  1.00  0.00    -0.550 OA
ATOM     17  O   UNL     1       9.860  74.756  17.615  1.00  0.00    -0.550 OA
ENDBRANCH  14  15
ENDBRANCH  13  14
ENDBRANCH  12  13
ENDBRANCH  11  12
ENDBRANCH  10  11
ENDBRANCH   9  10
ENDBRANCH   8   9
ENDBRANCH   7   8
ENDBRANCH   6   7
ENDBRANCH   5   6
ENDBRANCH   4   5
ENDBRANCH   3   4
ENDBRANCH   2   3
ENDBRANCH   1   2
BRANCH   1  18
ATOM     18  C   UNL     1      17.239  76.354  17.252  1.00  0.00     0.000 C 
BRANCH  18  19
ATOM     19  C   UNL     1      18.145  76.094  16.033  1.00  0.00     0.000 C 
BRANCH  19  20
ATOM     20  C   UNL     1      19.462  76.887  16.081  1.00  0.00     0.000 C 
BRANCH  20  21
ATOM     21  C   UNL     1      19.458  77.996  17.147  1.00  0.00     0.000 C 
BRANCH  21  22
ATOM     22  C   UNL     1      20.580  77.903  18.197  1.00  0.00     0.000 C 
BRANCH  22  23
ATOM     23  C   UNL     1      21.053  76.460  18.433  1.00  0.00     0.000 C 
BRANCH  23  24
ATOM     24  C   UNL     1      20.861  75.999  19.886  1.00  0.00    -0.000 C 
BRANCH  24  25
ATOM     25  C   UNL     1      19.935  74.776  20.001  1.00  0.00    -0.000 C 
BRANCH  25  26
ATOM     26  C   UNL     1      19.857  73.998  18.678  1.00  0.00    -0.000 C 
BRANCH  26  27
ATOM     27  C   UNL     1      19.092  72.664  18.826  1.00  0.00    -0.000 C 
BRANCH  27  28
ATOM     28  C   UNL     1      18.397  72.480  20.191  1.00  0.00    -0.000 C 
BRANCH  28  29
ATOM     29  C   UNL     1      16.872  72.676  20.185  1.00  0.00    -0.000 C 
BRANCH  29  30
ATOM     30  C   UNL     1      16.099  71.362  20.394  1.00  0.00    -0.000 C 
BRANCH  30  31
ATOM     31  C   UNL     1      17.061  70.179  20.566  1.00  0.00    -0.003 C 
ATOM     32  C   UNL     1      16.774  69.414  21.856  1.00  0.00     0.004 C 
ENDBRANCH  30  31
ENDBRANCH  29  30
ENDBRANCH  28  29
ENDBRANCH  27  28
ENDBRANCH  26  27
ENDBRANCH  25  26
ENDBRANCH  24  25
ENDBRANCH  23  24
ENDBRANCH  22  23
ENDBRANCH  21  22
ENDBRANCH  20  21
ENDBRANCH  19  20
ENDBRANCH  18  19
ENDBRANCH   1  18
TORSDOF 28
ENDMDL
MODEL 3
REMARK VINA RESULT:    -4.322      3.152      8.044
REMARK INTER + INTRA:         -17.023
REMARK INTER:                 -11.946
REMARK INTRA:                  -5.077
REMARK UNBOUND:                -5.627
REMARK SMILES CCCCCCCCCCCCCCCCCCCCCCCCCCCCCC(=O)[O-]
REMARK SMILES IDX 16 1 17 2 18 3 19 4 20 5 21 6 22 7 23 8 24 9 25 10 26 11
REMARK SMILES IDX 27 12 28 13 29 14 30 15 31 16 32 17 15 18 14 19 13 20 12 21
REMARK SMILES IDX 11 22 10 23 9 24 8 25 7 26 6 27 5 28 4 29 3 30 2 31 1 32
REMARK H PARENT
REMARK Flexibility Score: inf
ROOT
ATOM      1  C   UNL     1      18.375  72.242  20.304  1.00  0.00     0.000 C 
ENDROOT
BRANCH   1   2
ATOM      2  C   UNL     1      17.071  72.969  19.917  1.00  0.00     0.000 C 
BRANCH   2   3
ATOM      3  C   UNL     1      15.814  72.238  20.420  1.00  0.00     0.000 C 
BRANCH   3   4
ATOM      4  C   UNL     1      15.439  71.065  19.496  1.00  0.00     0.000 C 
BRANCH   4   5
ATOM      5  C   UNL     1      15.746  69.684  20.118  1.00  0.00     0.000 C 
BRANCH   5   6
ATOM      6  C   UNL     1      15.714  68.503  19.127  1.00  0.00     0.000 C 
BRANCH   6   7
ATOM      7  C   UNL     1      14.373  68.206  18.420  1.00  0.00     0.000 C 
BRANCH   7   8
ATOM      8  C   UNL     1      14.337  68.484  16.900  1.00  0.00     0.000 C 
BRANCH   8   9
ATOM      9  C   UNL     1      13.630  69.793  16.507  1.00  0.00     0.000 C 
BRANCH   9  10
ATOM     10  C   UNL     1      12.467  70.159  17.446  1.00  0.00     0.000 C 
BRANCH  10  11
ATOM     11  C   UNL     1      11.798  71.473  17.008  1.00  0.00     0.000 C 
BRANCH  11  12
ATOM     12  C   UNL     1      11.876  72.566  18.086  1.00  0.00     0.000 C 
BRANCH  12  13
ATOM     13  C   UNL     1      11.668  73.978  17.511  1.00  0.00     0.006 C 
BRANCH  13  14
ATOM     14  C   UNL     1      10.283  74.553  17.849  1.00  0.00     0.053 C 
BRANCH  14  15
ATOM     15  C   UNL     1       9.823  74.188  19.230  1.00  0.00     0.041 C 
ATOM     16  O   UNL     1      10.443  74.627  20.240  1.00  0.00    -0.550 OA
ATOM     17  O   UNL     1       8.681  73.417  19.415  1.00  0.00    -0.550 OA
ENDBRANCH  14  15
ENDBRANCH  13  14
ENDBRANCH  12  13
ENDBRANCH  11  12
ENDBRANCH  10  11
ENDBRANCH   9  10
ENDBRANCH   8   9
ENDBRANCH   7   8
ENDBRANCH   6   7
ENDBRANCH   5   6
ENDBRANCH   4   5
ENDBRANCH   3   4
ENDBRANCH   2   3
ENDBRANCH   1   2
BRANCH   1  18
ATOM     18  C   UNL     1      18.929  71.285  19.225  1.00  0.00     0.000 C 
BRANCH  18  19
ATOM     19  C   UNL     1      18.643  71.688  17.765  1.00  0.00     0.000 C 
BRANCH  19  20
ATOM     20  C   UNL     1      17.841  70.627  16.993  1.00  0.00     0.000 C 
BRANCH  20  21
ATOM     21  C   UNL     1      16.790  71.237  16.049  1.00  0.00     0.000 C 
BRANCH  21  22
ATOM     22  C   UNL     1      16.694  72.773  16.077  1.00  0.00     0.000 C 
BRANCH  22  23
ATOM     23  C   UNL     1      15.338  73.273  16.600  1.00  0.00     0.000 C 
BRANCH  23  24
ATOM     24  C   UNL     1      15.369  74.749  17.027  1.00  0.00    -0.000 C 
BRANCH  24  25
ATOM     25  C   UNL     1      16.083  75.647  16.002  1.00  0.00    -0.000 C 
BRANCH  25  26
ATOM     26  C   UNL     1      17.268  76.396  16.633  1.00  0.00    -0.000 C 
BRANCH  26  27
ATOM     27  C   UNL     1      17.523  75.966  18.094  1.00  0.00    -0.000 C 
BRANCH  27  28
ATOM     28  C   UNL     1      19.010  75.752  18.443  1.00  0.00    -0.000 C 
BRANCH  28  29
ATOM     29  C   UNL     1      19.758  77.002  18.933  1.00  0.00    -0.000 C 
BRANCH  29  30
ATOM     30  C   UNL     1      20.667  77.616  17.854  1.00  0.00    -0.000 C 
BRANCH  30  31
ATOM     31  C   UNL     1      20.043  78.887  17.267  1.00  0.00    -0.003 C 
ATOM     32  C   UNL     1      20.390  80.116  18.106  1.00  0.00     0.004 C 
ENDBRANCH  30  31
ENDBRANCH  29  30
ENDBRANCH  28  29
ENDBRANCH  27  28
ENDBRANCH  26  27
ENDBRANCH  25  26
ENDBRANCH  24  25
ENDBRANCH  23  24
ENDBRANCH  22  23
ENDBRANCH  21  22
ENDBRANCH  20  21
ENDBRANCH  19  20
ENDBRANCH  18  19
ENDBRANCH   1  18
TORSDOF 28
ENDMDL
MODEL 4
REMARK VINA RESULT:    -4.288      3.433      6.925
REMARK INTER + INTRA:         -16.933
REMARK INTER:                 -13.475
REMARK INTRA:                  -3.457
REMARK UNBOUND:                -5.627
REMARK SMILES CCCCCCCCCCCCCCCCCCCCCCCCCCCCCC(=O)[O-]
REMARK SMILES IDX 16 1 17 2 18 3 19 4 20 5 21 6 22 7 23 8 24 9 25 10 26 11
REMARK SMILES IDX 27 12 28 13 29 14 30 15 31 16 32 17 15 18 14 19 13 20 12 21
REMARK SMILES IDX 11 22 10 23 9 24 8 25 7 26 6 27 5 28 4 29 3 30 2 31 1 32
REMARK H PARENT
REMARK Flexibility Score: inf
ROOT
ATOM      1  C   UNL     1      20.198  74.443  20.467  1.00  0.00     0.000 C 
ENDROOT
BRANCH   1   2
ATOM      2  C   UNL     1      20.616  75.924  20.373  1.00  0.00     0.000 C 
BRANCH   2   3
ATOM      3  C   UNL     1      21.160  76.298  18.983  1.00  0.00     0.000 C 
BRANCH   3   4
ATOM      4  C   UNL     1      20.318  77.409  18.331  1.00  0.00     0.000 C 
BRANCH   4   5
ATOM      5  C   UNL     1      20.644  77.614  16.834  1.00  0.00     0.000 C 
BRANCH   5   6
ATOM      6  C   UNL     1      19.416  77.659  15.901  1.00  0.00     0.000 C 
BRANCH   6   7
ATOM      7  C   UNL     1      18.119  76.986  16.403  1.00  0.00     0.000 C 
BRANCH   7   8
ATOM      8  C   UNL     1      17.880  75.539  15.916  1.00  0.00     0.000 C 
BRANCH   8   9
ATOM      9  C   UNL     1      16.628  74.866  16.504  1.00  0.00     0.000 C 
BRANCH   9  10
ATOM     10  C   UNL     1      16.309  75.328  17.937  1.00  0.00     0.000 C 
BRANCH  10  11
ATOM     11  C   UNL     1      15.470  74.274  18.680  1.00  0.00     0.000 C 
BRANCH  11  12
ATOM     12  C   UNL     1      15.138  73.054  17.805  1.00  0.00     0.000 C 
BRANCH  12  13
ATOM     13  C   UNL     1      13.827  72.367  18.223  1.00  0.00     0.006 C 
BRANCH  13  14
ATOM     14  C   UNL     1      12.736  73.374  18.621  1.00  0.00     0.053 C 
BRANCH  14  15
ATOM     15  C   UNL     1      11.373  72.981  18.131  1.00  0.00     0.041 C 
ATOM     16  O   UNL     1      11.190  71.839  17.622  1.00  0.00    -0.550 OA
ATOM     17  O   UNL     1      10.291  73.839  18.285  1.00  0.00    -0.550 OA
ENDBRANCH  14  15
ENDBRANCH  13  14
ENDBRANCH  12  13
ENDBRANCH  11  12
ENDBRANCH  10  11
ENDBRANCH   9  10
ENDBRANCH   8   9
ENDBRANCH   7   8
ENDBRANCH   6   7
ENDBRANCH   5   6
ENDBRANCH   4   5
ENDBRANCH   3   4
ENDBRANCH   2   3
ENDBRANCH   1   2
BRANCH   1  18
ATOM     18  C   UNL     1      19.067  74.025  19.500  1.00  0.00     0.000 C 
BRANCH  18  19
ATOM     19  C   UNL     1      19.511  73.227  18.259  1.00  0.00     0.000 C 
BRANCH  19  20
ATOM     20  C   UNL     1      18.580  72.047  17.935  1.00  0.00     0.000 C 
BRANCH  20  21
ATOM     21  C   UNL     1      18.630  70.934  18.996  1.00  0.00     0.000 C 
BRANCH  21  22
ATOM     22  C   UNL     1      18.189  69.542  18.511  1.00  0.00     0.000 C 
BRANCH  22  23
ATOM     23  C   UNL     1      16.715  69.505  18.076  1.00  0.00     0.000 C 
BRANCH  23  24
ATOM     24  C   UNL     1      15.746  69.357  19.259  1.00  0.00    -0.000 C 
BRANCH  24  25
ATOM     25  C   UNL     1      16.408  68.715  20.489  1.00  0.00    -0.000 C 
BRANCH  25  26
ATOM     26  C   UNL     1      16.342  69.638  21.715  1.00  0.00    -0.000 C 
BRANCH  26  27
ATOM     27  C   UNL     1      17.436  69.313  22.756  1.00  0.00    -0.000 C 
BRANCH  27  28
ATOM     28  C   UNL     1      17.078  68.157  23.713  1.00  0.00    -0.000 C 
BRANCH  28  29
ATOM     29  C   UNL     1      16.550  68.585  25.092  1.00  0.00    -0.000 C 
BRANCH  29  30
ATOM     30  C   UNL     1      17.134  67.748  26.242  1.00  0.00    -0.000 C 
BRANCH  30  31
ATOM     31  C   UNL     1      17.407  66.307  25.791  1.00  0.00    -0.003 C 
ATOM     32  C   UNL     1      16.247  65.382  26.158  1.00  0.00     0.004 C 
ENDBRANCH  30  31
ENDBRANCH  29  30
ENDBRANCH  28  29
ENDBRANCH  27  28
ENDBRANCH  26  27
ENDBRANCH  25  26
ENDBRANCH  24  25
ENDBRANCH  23  24
ENDBRANCH  22  23
ENDBRANCH  21  22
ENDBRANCH  20  21
ENDBRANCH  19  20
ENDBRANCH  18  19
ENDBRANCH   1  18
TORSDOF 28
ENDMDL
MODEL 5
REMARK VINA RESULT:    -4.196      3.305      7.386
REMARK INTER + INTRA:         -16.692
REMARK INTER:                 -12.422
REMARK INTRA:                  -4.270
REMARK UNBOUND:                -5.627
REMARK SMILES CCCCCCCCCCCCCCCCCCCCCCCCCCCCCC(=O)[O-]
REMARK SMILES IDX 16 1 17 2 18 3 19 4 20 5 21 6 22 7 23 8 24 9 25 10 26 11
REMARK SMILES IDX 27 12 28 13 29 14 30 15 31 16 32 17 15 18 14 19 13 20 12 21
REMARK SMILES IDX 11 22 10 23 9 24 8 25 7 26 6 27 5 28 4 29 3 30 2 31 1 32
REMARK H PARENT
REMARK Flexibility Score: inf
ROOT
ATOM      1  C   UNL     1      20.698  76.304  19.397  1.00  0.00     0.000 C 
ENDROOT
BRANCH   1   2
ATOM      2  C   UNL     1      20.462  74.808  19.687  1.00  0.00     0.000 C 
BRANCH   2   3
ATOM      3  C   UNL     1      18.970  74.430  19.668  1.00  0.00     0.000 C 
BRANCH   3   4
ATOM      4  C   UNL     1      18.775  72.923  19.428  1.00  0.00     0.000 C 
BRANCH   4   5
ATOM      5  C   UNL     1      18.496  72.577  17.948  1.00  0.00     0.000 C 
BRANCH   5   6
ATOM      6  C   UNL     1      18.459  71.069  17.628  1.00  0.00     0.000 C 
BRANCH   6   7
ATOM      7  C   UNL     1      17.329  70.569  16.701  1.00  0.00     0.000 C 
BRANCH   7   8
ATOM      8  C   UNL     1      16.657  69.240  17.115  1.00  0.00     0.000 C 
BRANCH   8   9
ATOM      9  C   UNL     1      15.502  69.394  18.119  1.00  0.00     0.000 C 
BRANCH   9  10
ATOM     10  C   UNL     1      15.897  69.020  19.558  1.00  0.00     0.000 C 
BRANCH  10  11
ATOM     11  C   UNL     1      16.312  70.268  20.357  1.00  0.00     0.000 C 
BRANCH  11  12
ATOM     12  C   UNL     1      17.302  69.946  21.488  1.00  0.00     0.000 C 
BRANCH  12  13
ATOM     13  C   UNL     1      16.790  68.834  22.421  1.00  0.00     0.006 C 
BRANCH  13  14
ATOM     14  C   UNL     1      16.872  69.228  23.905  1.00  0.00     0.053 C 
BRANCH  14  15
ATOM     15  C   UNL     1      16.936  68.040  24.819  1.00  0.00     0.041 C 
ATOM     16  O   UNL     1      17.207  66.898  24.354  1.00  0.00    -0.550 OA
ATOM     17  O   UNL     1      16.757  68.192  26.190  1.00  0.00    -0.550 OA
ENDBRANCH  14  15
ENDBRANCH  13  14
ENDBRANCH  12  13
ENDBRANCH  11  12
ENDBRANCH  10  11
ENDBRANCH   9  10
ENDBRANCH   8   9
ENDBRANCH   7   8
ENDBRANCH   6   7
ENDBRANCH   5   6
ENDBRANCH   4   5
ENDBRANCH   3   4
ENDBRANCH   2   3
ENDBRANCH   1   2
BRANCH   1  18
ATOM     18  C   UNL     1      21.158  76.622  17.956  1.00  0.00     0.000 C 
BRANCH  18  19
ATOM     19  C   UNL     1      21.129  75.438  16.970  1.00  0.00     0.000 C 
BRANCH  19  20
ATOM     20  C   UNL     1      19.882  75.433  16.070  1.00  0.00     0.000 C 
BRANCH  20  21
ATOM     21  C   UNL     1      19.276  76.833  15.875  1.00  0.00     0.000 C 
BRANCH  21  22
ATOM     22  C   UNL     1      17.743  76.909  15.995  1.00  0.00     0.000 C 
BRANCH  22  23
ATOM     23  C   UNL     1      17.200  76.085  17.173  1.00  0.00     0.000 C 
BRANCH  23  24
ATOM     24  C   UNL     1      15.871  75.385  16.849  1.00  0.00    -0.000 C 
BRANCH  24  25
ATOM     25  C   UNL     1      15.144  74.883  18.107  1.00  0.00    -0.000 C 
BRANCH  25  26
ATOM     26  C   UNL     1      15.178  73.350  18.207  1.00  0.00    -0.000 C 
BRANCH  26  27
ATOM     27  C   UNL     1      14.065  72.682  17.370  1.00  0.00    -0.000 C 
BRANCH  27  28
ATOM     28  C   UNL     1      12.850  72.206  18.193  1.00  0.00    -0.000 C 
BRANCH  28  29
ATOM     29  C   UNL     1      11.934  73.323  18.720  1.00  0.00    -0.000 C 
BRANCH  29  30
ATOM     30  C   UNL     1      11.109  73.994  17.608  1.00  0.00    -0.000 C 
BRANCH  30  31
ATOM     31  C   UNL     1      10.169  72.986  16.936  1.00  0.00    -0.003 C 
ATOM     32  C   UNL     1       9.149  72.430  17.929  1.00  0.00     0.004 C 
ENDBRANCH  30  31
ENDBRANCH  29  30
ENDBRANCH  28  29
ENDBRANCH  27  28
ENDBRANCH  26  27
ENDBRANCH  25  26
ENDBRANCH  24  25
ENDBRANCH  23  24
ENDBRANCH  22  23
ENDBRANCH  21  22
ENDBRANCH  20  21
ENDBRANCH  19  20
ENDBRANCH  18  19
ENDBRANCH   1  18
TORSDOF 28
ENDMDL
MODEL 6
REMARK VINA RESULT:    -4.193      2.988      6.420
REMARK INTER + INTRA:         -16.684
REMARK INTER:                 -12.324
REMARK INTRA:                  -4.360
REMARK UNBOUND:                -5.627
REMARK SMILES CCCCCCCCCCCCCCCCCCCCCCCCCCCCCC(=O)[O-]
REMARK SMILES IDX 16 1 17 2 18 3 19 4 20 5 21 6 22 7 23 8 24 9 25 10 26 11
REMARK SMILES IDX 27 12 28 13 29 14 30 15 31 16 32 17 15 18 14 19 13 20 12 21
REMARK SMILES IDX 11 22 10 23 9 24 8 25 7 26 6 27 5 28 4 29 3 30 2 31 1 32
REMARK H PARENT
REMARK Flexibility Score: inf
ROOT
ATOM      1  C   UNL     1      18.447  72.053  19.852  1.00  0.00     0.000 C 
ENDROOT
BRANCH   1   2
ATOM      2  C   UNL     1      18.576  73.577  20.046  1.00  0.00     0.000 C 
BRANCH   2   3
ATOM      3  C   UNL     1      19.838  74.153  19.380  1.00  0.00     0.000 C 
BRANCH   3   4
ATOM      4  C   UNL     1      20.259  75.483  20.030  1.00  0.00     0.000 C 
BRANCH   4   5
ATOM      5  C   UNL     1      19.752  76.722  19.257  1.00  0.00     0.000 C 
BRANCH   5   6
ATOM      6  C   UNL     1      19.806  76.596  17.720  1.00  0.00     0.000 C 
BRANCH   6   7
ATOM      7  C   UNL     1      18.808  77.446  16.904  1.00  0.00     0.000 C 
BRANCH   7   8
ATOM      8  C   UNL     1      17.653  76.669  16.232  1.00  0.00     0.000 C 
BRANCH   8   9
ATOM      9  C   UNL     1      17.405  75.266  16.812  1.00  0.00     0.000 C 
BRANCH   9  10
ATOM     10  C   UNL     1      16.173  75.200  17.730  1.00  0.00     0.000 C 
BRANCH  10  11
ATOM     11  C   UNL     1      15.421  73.870  17.547  1.00  0.00     0.000 C 
BRANCH  11  12
ATOM     12  C   UNL     1      14.894  73.299  18.874  1.00  0.00     0.000 C 
BRANCH  12  13
ATOM     13  C   UNL     1      13.476  72.718  18.744  1.00  0.00     0.006 C 
BRANCH  13  14
ATOM     14  C   UNL     1      12.491  73.708  18.103  1.00  0.00     0.053 C 
BRANCH  14  15
ATOM     15  C   UNL     1      11.203  73.823  18.864  1.00  0.00     0.041 C 
ATOM     16  O   UNL     1      10.121  73.433  18.340  1.00  0.00    -0.550 OA
ATOM     17  O   UNL     1      11.192  74.302  20.169  1.00  0.00    -0.550 OA
ENDBRANCH  14  15
ENDBRANCH  13  14
ENDBRANCH  12  13
ENDBRANCH  11  12
ENDBRANCH  10  11
ENDBRANCH   9  10
ENDBRANCH   8   9
ENDBRANCH   7   8
ENDBRANCH   6   7
ENDBRANCH   5   6
ENDBRANCH   4   5
ENDBRANCH   3   4
ENDBRANCH   2   3
ENDBRANCH   1   2
BRANCH   1  18
ATOM     18  C   UNL     1      18.333  71.593  18.380  1.00  0.00     0.000 C 
BRANCH  18  19
ATOM     19  C   UNL     1      18.512  70.082  18.137  1.00  0.00     0.000 C 
BRANCH  19  20
ATOM     20  C   UNL     1      17.652  69.551  16.978  1.00  0.00     0.000 C 
BRANCH  20  21
ATOM     21  C   UNL     1      16.806  70.646  16.307  1.00  0.00     0.000 C 
BRANCH  21  22
ATOM     22  C   UNL     1      15.284  70.422  16.353  1.00  0.00     0.000 C 
BRANCH  22  23
ATOM     23  C   UNL     1      14.908  68.967  16.670  1.00  0.00     0.000 C 
BRANCH  23  24
ATOM     24  C   UNL     1      14.139  68.823  17.993  1.00  0.00    -0.000 C 
BRANCH  24  25
ATOM     25  C   UNL     1      14.966  68.124  19.085  1.00  0.00    -0.000 C 
BRANCH  25  26
ATOM     26  C   UNL     1      15.753  69.134  19.935  1.00  0.00    -0.000 C 
BRANCH  26  27
ATOM     27  C   UNL     1      16.403  68.479  21.173  1.00  0.00    -0.000 C 
BRANCH  27  28
ATOM     28  C   UNL     1      16.961  69.482  22.203  1.00  0.00    -0.000 C 
BRANCH  28  29
ATOM     29  C   UNL     1      16.679  69.140  23.675  1.00  0.00    -0.000 C 
BRANCH  29  30
ATOM     30  C   UNL     1      17.188  67.744  24.072  1.00  0.00    -0.000 C 
BRANCH  30  31
ATOM     31  C   UNL     1      16.976  67.486  25.569  1.00  0.00    -0.003 C 
ATOM     32  C   UNL     1      16.800  68.795  26.338  1.00  0.00     0.004 C 
ENDBRANCH  30  31
ENDBRANCH  29  30
ENDBRANCH  28  29
ENDBRANCH  27  28
ENDBRANCH  26  27
ENDBRANCH  25  26
ENDBRANCH  24  25
ENDBRANCH  23  24
ENDBRANCH  22  23
ENDBRANCH  21  22
ENDBRANCH  20  21
ENDBRANCH  19  20
ENDBRANCH  18  19
ENDBRANCH   1  18
TORSDOF 28
ENDMDL
MODEL 7
REMARK VINA RESULT:    -4.190      3.908      8.048
REMARK INTER + INTRA:         -16.676
REMARK INTER:                 -12.207
REMARK INTRA:                  -4.469
REMARK UNBOUND:                -5.627
REMARK SMILES CCCCCCCCCCCCCCCCCCCCCCCCCCCCCC(=O)[O-]
REMARK SMILES IDX 16 1 17 2 18 3 19 4 20 5 21 6 22 7 23 8 24 9 25 10 26 11
REMARK SMILES IDX 27 12 28 13 29 14 30 15 31 16 32 17 15 18 14 19 13 20 12 21
REMARK SMILES IDX 11 22 10 23 9 24 8 25 7 26 6 27 5 28 4 29 3 30 2 31 1 32
REMARK H PARENT
REMARK Flexibility Score: inf
ROOT
ATOM      1  C   UNL     1      16.141  71.226  16.101  1.00  0.00     0.000 C 
ENDROOT
BRANCH   1   2
ATOM      2  C   UNL     1      15.572  72.620  16.435  1.00  0.00     0.000 C 
BRANCH   2   3
ATOM      3  C   UNL     1      15.302  72.804  17.939  1.00  0.00     0.000 C 
BRANCH   3   4
ATOM      4  C   UNL     1      14.339  73.975  18.198  1.00  0.00     0.000 C 
BRANCH   4   5
ATOM      5  C   UNL     1      13.300  73.672  19.301  1.00  0.00     0.000 C 
BRANCH   5   6
ATOM      6  C   UNL     1      11.827  73.757  18.850  1.00  0.00     0.000 C 
BRANCH   6   7
ATOM      7  C   UNL     1      11.559  74.024  17.352  1.00  0.00     0.000 C 
BRANCH   7   8
ATOM      8  C   UNL     1      11.366  72.771  16.469  1.00  0.00     0.000 C 
BRANCH   8   9
ATOM      9  C   UNL     1      10.321  71.773  16.996  1.00  0.00     0.000 C 
BRANCH   9  10
ATOM     10  C   UNL     1      10.919  70.401  17.351  1.00  0.00     0.000 C 
BRANCH  10  11
ATOM     11  C   UNL     1      12.456  70.449  17.331  1.00  0.00     0.000 C 
BRANCH  11  12
ATOM     12  C   UNL     1      13.096  69.073  17.582  1.00  0.00     0.000 C 
BRANCH  12  13
ATOM     13  C   UNL     1      12.078  68.029  18.072  1.00  0.00     0.006 C 
BRANCH  13  14
ATOM     14  C   UNL     1      12.747  66.718  18.514  1.00  0.00     0.053 C 
BRANCH  14  15
ATOM     15  C   UNL     1      12.345  65.546  17.668  1.00  0.00     0.041 C 
ATOM     16  O   UNL     1      13.211  64.698  17.309  1.00  0.00    -0.550 OA
ATOM     17  O   UNL     1      11.014  65.348  17.320  1.00  0.00    -0.550 OA
ENDBRANCH  14  15
ENDBRANCH  13  14
ENDBRANCH  12  13
ENDBRANCH  11  12
ENDBRANCH  10  11
ENDBRANCH   9  10
ENDBRANCH   8   9
ENDBRANCH   7   8
ENDBRANCH   6   7
ENDBRANCH   5   6
ENDBRANCH   4   5
ENDBRANCH   3   4
ENDBRANCH   2   3
ENDBRANCH   1   2
BRANCH   1  18
ATOM     18  C   UNL     1      16.408  70.323  17.327  1.00  0.00     0.000 C 
BRANCH  18  19
ATOM     19  C   UNL     1      17.775  69.613  17.348  1.00  0.00     0.000 C 
BRANCH  19  20
ATOM     20  C   UNL     1      18.435  69.616  18.737  1.00  0.00     0.000 C 
BRANCH  20  21
ATOM     21  C   UNL     1      17.592  70.339  19.801  1.00  0.00     0.000 C 
BRANCH  21  22
ATOM     22  C   UNL     1      18.324  71.446  20.580  1.00  0.00     0.000 C 
BRANCH  22  23
ATOM     23  C   UNL     1      17.915  72.857  20.129  1.00  0.00     0.000 C 
BRANCH  23  24
ATOM     24  C   UNL     1      19.023  73.578  19.345  1.00  0.00    -0.000 C 
BRANCH  24  25
ATOM     25  C   UNL     1      18.992  73.254  17.843  1.00  0.00    -0.000 C 
BRANCH  25  26
ATOM     26  C   UNL     1      19.013  74.529  16.987  1.00  0.00    -0.000 C 
BRANCH  26  27
ATOM     27  C   UNL     1      18.072  75.623  17.539  1.00  0.00    -0.000 C 
BRANCH  27  28
ATOM     28  C   UNL     1      18.106  76.947  16.749  1.00  0.00    -0.000 C 
BRANCH  28  29
ATOM     29  C   UNL     1      19.436  77.259  16.043  1.00  0.00    -0.000 C 
BRANCH  29  30
ATOM     30  C   UNL     1      20.488  77.863  16.990  1.00  0.00    -0.000 C 
BRANCH  30  31
ATOM     31  C   UNL     1      19.827  78.747  18.055  1.00  0.00    -0.003 C 
ATOM     32  C   UNL     1      20.423  80.153  18.058  1.00  0.00     0.004 C 
ENDBRANCH  30  31
ENDBRANCH  29  30
ENDBRANCH  28  29
ENDBRANCH  27  28
ENDBRANCH  26  27
ENDBRANCH  25  26
ENDBRANCH  24  25
ENDBRANCH  23  24
ENDBRANCH  22  23
ENDBRANCH  21  22
ENDBRANCH  20  21
ENDBRANCH  19  20
ENDBRANCH  18  19
ENDBRANCH   1  18
TORSDOF 28
ENDMDL
MODEL 8
REMARK VINA RESULT:    -4.167      3.388      7.569
REMARK INTER + INTRA:         -16.615
REMARK INTER:                 -12.856
REMARK INTRA:                  -3.759
REMARK UNBOUND:                -5.627
REMARK SMILES CCCCCCCCCCCCCCCCCCCCCCCCCCCCCC(=O)[O-]
REMARK SMILES IDX 16 1 17 2 18 3 19 4 20 5 21 6 22 7 23 8 24 9 25 10 26 11
REMARK SMILES IDX 27 12 28 13 29 14 30 15 31 16 32 17 15 18 14 19 13 20 12 21
REMARK SMILES IDX 11 22 10 23 9 24 8 25 7 26 6 27 5 28 4 29 3 30 2 31 1 32
REMARK H PARENT
REMARK Flexibility Score: inf
ROOT
ATOM      1  C   UNL     1      19.429  74.115  19.692  1.00  0.00     0.000 C 
ENDROOT
BRANCH   1   2
ATOM      2  C   UNL     1      18.632  72.905  20.220  1.00  0.00     0.000 C 
BRANCH   2   3
ATOM      3  C   UNL     1      18.748  71.675  19.302  1.00  0.00     0.000 C 
BRANCH   3   4
ATOM      4  C   UNL     1      18.781  72.082  17.818  1.00  0.00     0.000 C 
BRANCH   4   5
ATOM      5  C   UNL     1      17.750  71.317  16.958  1.00  0.00     0.000 C 
BRANCH   5   6
ATOM      6  C   UNL     1      17.514  69.851  17.376  1.00  0.00     0.000 C 
BRANCH   6   7
ATOM      7  C   UNL     1      16.154  69.218  17.006  1.00  0.00     0.000 C 
BRANCH   7   8
ATOM      8  C   UNL     1      15.299  68.718  18.192  1.00  0.00     0.000 C 
BRANCH   8   9
ATOM      9  C   UNL     1      15.425  69.563  19.471  1.00  0.00     0.000 C 
BRANCH   9  10
ATOM     10  C   UNL     1      16.449  68.998  20.471  1.00  0.00     0.000 C 
BRANCH  10  11
ATOM     11  C   UNL     1      16.508  69.860  21.744  1.00  0.00     0.000 C 
BRANCH  11  12
ATOM     12  C   UNL     1      17.478  69.298  22.797  1.00  0.00     0.000 C 
BRANCH  12  13
ATOM     13  C   UNL     1      16.748  68.635  23.977  1.00  0.00     0.006 C 
BRANCH  13  14
ATOM     14  C   UNL     1      17.503  67.411  24.522  1.00  0.00     0.053 C 
BRANCH  14  15
ATOM     15  C   UNL     1      16.984  66.953  25.854  1.00  0.00     0.041 C 
ATOM     16  O   UNL     1      16.063  66.091  25.911  1.00  0.00    -0.550 OA
ATOM     17  O   UNL     1      17.548  67.426  27.033  1.00  0.00    -0.550 OA
ENDBRANCH  14  15
ENDBRANCH  13  14
ENDBRANCH  12  13
ENDBRANCH  11  12
ENDBRANCH  10  11
ENDBRANCH   9  10
ENDBRANCH   8   9
ENDBRANCH   7   8
ENDBRANCH   6   7
ENDBRANCH   5   6
ENDBRANCH   4   5
ENDBRANCH   3   4
ENDBRANCH   2   3
ENDBRANCH   1   2
BRANCH   1  18
ATOM     18  C   UNL     1      20.255  74.865  20.761  1.00  0.00     0.000 C 
BRANCH  18  19
ATOM     19  C   UNL     1      21.139  76.014  20.237  1.00  0.00     0.000 C 
BRANCH  19  20
ATOM     20  C   UNL     1      20.943  76.291  18.737  1.00  0.00     0.000 C 
BRANCH  20  21
ATOM     21  C   UNL     1      19.917  77.402  18.460  1.00  0.00     0.000 C 
BRANCH  21  22
ATOM     22  C   UNL     1      19.706  77.749  16.976  1.00  0.00     0.000 C 
BRANCH  22  23
ATOM     23  C   UNL     1      18.401  77.168  16.411  1.00  0.00     0.000 C 
BRANCH  23  24
ATOM     24  C   UNL     1      18.388  75.632  16.393  1.00  0.00    -0.000 C 
BRANCH  24  25
ATOM     25  C   UNL     1      16.967  75.051  16.481  1.00  0.00    -0.000 C 
BRANCH  25  26
ATOM     26  C   UNL     1      16.354  75.261  17.874  1.00  0.00    -0.000 C 
BRANCH  26  27
ATOM     27  C   UNL     1      15.646  73.994  18.402  1.00  0.00    -0.000 C 
BRANCH  27  28
ATOM     28  C   UNL     1      14.133  73.943  18.108  1.00  0.00    -0.000 C 
BRANCH  28  29
ATOM     29  C   UNL     1      13.433  72.627  18.483  1.00  0.00    -0.000 C 
BRANCH  29  30
ATOM     30  C   UNL     1      11.959  72.587  18.046  1.00  0.00    -0.000 C 
BRANCH  30  31
ATOM     31  C   UNL     1      11.751  71.587  16.903  1.00  0.00    -0.003 C 
ATOM     32  C   UNL     1      12.014  70.154  17.364  1.00  0.00     0.004 C 
ENDBRANCH  30  31
ENDBRANCH  29  30
ENDBRANCH  28  29
ENDBRANCH  27  28
ENDBRANCH  26  27
ENDBRANCH  25  26
ENDBRANCH  24  25
ENDBRANCH  23  24
ENDBRANCH  22  23
ENDBRANCH  21  22
ENDBRANCH  20  21
ENDBRANCH  19  20
ENDBRANCH  18  19
ENDBRANCH   1  18
TORSDOF 28
ENDMDL
MODEL 9
REMARK VINA RESULT:    -4.073      2.612      5.968
REMARK INTER + INTRA:         -16.368
REMARK INTER:                 -11.881
REMARK INTRA:                  -4.487
REMARK UNBOUND:                -5.627
REMARK SMILES CCCCCCCCCCCCCCCCCCCCCCCCCCCCCC(=O)[O-]
REMARK SMILES IDX 16 1 17 2 18 3 19 4 20 5 21 6 22 7 23 8 24 9 25 10 26 11
REMARK SMILES IDX 27 12 28 13 29 14 30 15 31 16 32 17 15 18 14 19 13 20 12 21
REMARK SMILES IDX 11 22 10 23 9 24 8 25 7 26 6 27 5 28 4 29 3 30 2 31 1 32
REMARK H PARENT
REMARK Flexibility Score: inf
ROOT
ATOM      1  C   UNL     1      20.201  74.862  20.129  1.00  0.00     0.000 C 
ENDROOT
BRANCH   1   2
ATOM      2  C   UNL     1      20.420  76.354  19.805  1.00  0.00     0.000 C 
BRANCH   2   3
ATOM      3  C   UNL     1      21.189  76.567  18.489  1.00  0.00     0.000 C 
BRANCH   3   4
ATOM      4  C   UNL     1      20.340  77.333  17.459  1.00  0.00     0.000 C 
BRANCH   4   5
ATOM      5  C   UNL     1      20.195  76.581  16.116  1.00  0.00     0.000 C 
BRANCH   5   6
ATOM      6  C   UNL     1      18.857  75.837  15.929  1.00  0.00     0.000 C 
BRANCH   6   7
ATOM      7  C   UNL     1      17.630  76.380  16.694  1.00  0.00     0.000 C 
BRANCH   7   8
ATOM      8  C   UNL     1      16.291  75.659  16.418  1.00  0.00     0.000 C 
BRANCH   8   9
ATOM      9  C   UNL     1      15.738  74.861  17.612  1.00  0.00     0.000 C 
BRANCH   9  10
ATOM     10  C   UNL     1      14.929  73.623  17.189  1.00  0.00     0.000 C 
BRANCH  10  11
ATOM     11  C   UNL     1      14.060  73.111  18.350  1.00  0.00     0.000 C 
BRANCH  11  12
ATOM     12  C   UNL     1      14.877  72.820  19.620  1.00  0.00     0.000 C 
BRANCH  12  13
ATOM     13  C   UNL     1      15.317  71.349  19.714  1.00  0.00     0.006 C 
BRANCH  13  14
ATOM     14  C   UNL     1      16.395  71.125  20.787  1.00  0.00     0.053 C 
BRANCH  14  15
ATOM     15  C   UNL     1      16.414  69.719  21.309  1.00  0.00     0.041 C 
ATOM     16  O   UNL     1      16.414  68.745  20.504  1.00  0.00    -0.550 OA
ATOM     17  O   UNL     1      16.490  69.473  22.675  1.00  0.00    -0.550 OA
ENDBRANCH  14  15
ENDBRANCH  13  14
ENDBRANCH  12  13
ENDBRANCH  11  12
ENDBRANCH  10  11
ENDBRANCH   9  10
ENDBRANCH   8   9
ENDBRANCH   7   8
ENDBRANCH   6   7
ENDBRANCH   5   6
ENDBRANCH   4   5
ENDBRANCH   3   4
ENDBRANCH   2   3
ENDBRANCH   1   2
BRANCH   1  18
ATOM     18  C   UNL     1      19.071  74.182  19.323  1.00  0.00     0.000 C 
BRANCH  18  19
ATOM     19  C   UNL     1      19.529  73.163  18.261  1.00  0.00     0.000 C 
BRANCH  19  20
ATOM     20  C   UNL     1      18.394  72.247  17.774  1.00  0.00     0.000 C 
BRANCH  20  21
ATOM     21  C   UNL     1      18.660  70.758  18.058  1.00  0.00     0.000 C 
BRANCH  21  22
ATOM     22  C   UNL     1      17.711  69.774  17.350  1.00  0.00     0.000 C 
BRANCH  22  23
ATOM     23  C   UNL     1      16.679  70.482  16.460  1.00  0.00     0.000 C 
BRANCH  23  24
ATOM     24  C   UNL     1      15.386  69.670  16.282  1.00  0.00    -0.000 C 
BRANCH  24  25
ATOM     25  C   UNL     1      15.281  68.500  17.273  1.00  0.00    -0.000 C 
BRANCH  25  26
ATOM     26  C   UNL     1      13.829  68.026  17.439  1.00  0.00    -0.000 C 
BRANCH  26  27
ATOM     27  C   UNL     1      13.606  67.273  18.769  1.00  0.00    -0.000 C 
BRANCH  27  28
ATOM     28  C   UNL     1      12.214  66.622  18.904  1.00  0.00    -0.000 C 
BRANCH  28  29
ATOM     29  C   UNL     1      11.490  66.336  17.578  1.00  0.00    -0.000 C 
BRANCH  29  30
ATOM     30  C   UNL     1      12.021  65.081  16.865  1.00  0.00    -0.000 C 
BRANCH  30  31
ATOM     31  C   UNL     1      11.074  63.892  17.066  1.00  0.00    -0.003 C 
ATOM     32  C   UNL     1       9.612  64.333  17.023  1.00  0.00     0.004 C 
ENDBRANCH  30  31
ENDBRANCH  29  30
ENDBRANCH  28  29
ENDBRANCH  27  28
ENDBRANCH  26  27
ENDBRANCH  25  26
ENDBRANCH  24  25
ENDBRANCH  23  24
ENDBRANCH  22  23
ENDBRANCH  21  22
ENDBRANCH  20  21
ENDBRANCH  19  20
ENDBRANCH  18  19
ENDBRANCH   1  18
TORSDOF 28
ENDMDL
