MODEL 1
REMARK VINA RESULT:    11.721      0.000      0.000
REMARK INTER + INTRA:          11.721
REMARK INTER:                  11.721
REMARK INTRA:                   0.000
REMARK UNBOUND:                 0.000
REMARK SMILES C=C1CCC[C@]2(C)C=C3OC(=O)C(C)=C3C[C@H]12
REMARK SMILES IDX 14 1 13 2 15 3 16 4 17 5 2 6 1 7 3 8 4 9 5 10 6 11 8 12 9 13
REMARK SMILES IDX 10 14 11 15 12 16 7 17
REMARK H PARENT
REMARK Flexibility Score: inf
ROOT
ATOM      1  C   UNL     1      -6.152  28.128  21.258  1.00  0.00     0.053 C 
ATOM      2  C   UNL     1      -4.857  28.204  20.514  1.00  0.00     0.041 C 
ATOM      3  C   UNL     1      -4.648  28.812  19.349  1.00  0.00     0.005 C 
ATOM      4  C   UNL     1      -5.617  29.539  18.478  1.00  0.00     0.049 C 
ATOM      5  C   UNL     1      -4.844  30.451  17.490  1.00  0.00     0.029 C 
ATOM      6  C   UNL     1      -5.814  31.018  16.467  1.00  0.00    -0.073 C 
ATOM      7  C   UNL     1      -6.368  32.226  16.651  1.00  0.00     0.008 C 
ATOM      8  C   UNL     1      -6.267  30.135  15.327  1.00  0.00     0.031 C 
ATOM      9  C   UNL     1      -5.077  29.442  14.658  1.00  0.00     0.005 C 
ATOM     10  C   UNL     1      -4.155  28.758  15.681  1.00  0.00     0.012 C 
ATOM     11  C   UNL     1      -3.635  29.731  16.775  1.00  0.00    -0.004 C 
ATOM     12  C   UNL     1      -2.792  28.924  17.759  1.00  0.00     0.027 C 
ATOM     13  C   UNL     1      -3.303  28.503  18.911  1.00  0.00     0.131 C 
ATOM     14  O   UNL     1      -2.664  27.703  19.848  1.00  0.00    -0.423 OA
ATOM     15  C   UNL     1      -3.613  27.502  20.842  1.00  0.00     0.339 C 
ATOM     16  O   UNL     1      -3.417  26.801  21.868  1.00  0.00    -0.246 OA
ATOM     17  C   UNL     1      -2.702  30.795  16.150  1.00  0.00     0.016 C 
ENDROOT
TORSDOF 0
ENDMDL
