MODEL 1
REMARK VINA RESULT:    -4.755      0.000      0.000
REMARK INTER + INTRA:          -7.312
REMARK INTER:                  -6.700
REMARK INTRA:                  -0.612
REMARK UNBOUND:                -0.612
REMARK SMILES COc1ccc(-c2cc(=O)c3c(OC)c(OC)c(OC)c(OC)c3o2)cc1OC
REMARK SMILES IDX 7 1 8 2 9 3 10 4 11 5 24 6 25 7 21 8 18 9 15 10 12 11 6 12
REMARK SMILES IDX 3 13 27 14 4 15 26 16 5 17 2 18 1 19 28 20 29 21 22 22 23 23
REMARK SMILES IDX 13 24 14 25 19 26 20 27 16 28 17 29
REMARK H PARENT
REMARK Flexibility Score: inf
ROOT
ATOM      1  C   UNL     1      53.302   7.956 -50.999  1.00  0.00     0.138 A 
ATOM      2  C   UNL     1      53.874   8.906 -51.852  1.00  0.00     0.100 A 
ATOM      3  C   UNL     1      53.202   9.272 -53.015  1.00  0.00     0.197 A 
ATOM      4  O   UNL     1      53.732  10.125 -53.777  1.00  0.00    -0.289 OA
ATOM      5  C   UNL     1      51.956   8.679 -53.319  1.00  0.00     0.115 A 
ATOM      6  C   UNL     1      51.441   7.721 -52.414  1.00  0.00     0.188 A 
ATOM      7  O   UNL     1      52.133   7.409 -51.320  1.00  0.00    -0.452 OA
ATOM      8  C   UNL     1      50.190   7.110 -52.664  1.00  0.00     0.209 A 
ATOM      9  C   UNL     1      49.472   7.431 -53.826  1.00  0.00     0.211 A 
ATOM     10  C   UNL     1      50.006   8.354 -54.755  1.00  0.00     0.208 A 
ATOM     11  C   UNL     1      51.212   9.025 -54.470  1.00  0.00     0.179 A 
ENDROOT
BRANCH   1  12
ATOM     12  C   UNL     1      53.974   7.537 -49.744  1.00  0.00     0.021 A 
ATOM     13  C   UNL     1      55.261   6.691 -47.380  1.00  0.00     0.160 A 
ATOM     14  C   UNL     1      54.104   7.480 -47.301  1.00  0.00     0.161 A 
ATOM     15  C   UNL     1      55.766   6.324 -48.641  1.00  0.00     0.051 A 
ATOM     16  C   UNL     1      53.463   7.898 -48.484  1.00  0.00     0.062 A 
ATOM     17  C   UNL     1      55.124   6.740 -49.808  1.00  0.00     0.016 A 
BRANCH  13  18
ATOM     18  O   UNL     1      55.879   6.290 -46.184  1.00  0.00    -0.493 OA
ATOM     19  C   UNL     1      55.725   5.007 -45.587  1.00  0.00     0.278 C 
ENDBRANCH  13  18
BRANCH  14  20
ATOM     20  O   UNL     1      53.621   7.826 -46.029  1.00  0.00    -0.493 OA
ATOM     21  C   UNL     1      52.448   7.280 -45.434  1.00  0.00     0.278 C 
ENDBRANCH  14  20
ENDBRANCH   1  12
BRANCH   8  22
ATOM     22  O   UNL     1      49.592   6.176 -51.796  1.00  0.00    -0.490 OA
ATOM     23  C   UNL     1      48.849   6.462 -50.616  1.00  0.00     0.278 C 
ENDBRANCH   8  22
BRANCH  11  24
ATOM     24  O   UNL     1      51.674  10.041 -55.315  1.00  0.00    -0.492 OA
ATOM     25  C   UNL     1      52.236   9.773 -56.596  1.00  0.00     0.278 C 
ENDBRANCH  11  24
BRANCH   9  26
ATOM     26  O   UNL     1      48.235   6.780 -54.001  1.00  0.00    -0.490 OA
ATOM     27  C   UNL     1      46.942   7.326 -53.763  1.00  0.00     0.279 C 
ENDBRANCH   9  26
BRANCH  10  28
ATOM     28  O   UNL     1      49.346   8.590 -55.965  1.00  0.00    -0.490 OA
ATOM     29  C   UNL     1      49.268   7.611 -56.997  1.00  0.00     0.278 C 
ENDBRANCH  10  28
TORSDOF 7
ENDMDL
MODEL 2
REMARK VINA RESULT:    -4.682      3.533      9.522
REMARK INTER + INTRA:          -7.210
REMARK INTER:                  -6.432
REMARK INTRA:                  -0.778
REMARK UNBOUND:                -0.612
REMARK SMILES COc1ccc(-c2cc(=O)c3c(OC)c(OC)c(OC)c(OC)c3o2)cc1OC
REMARK SMILES IDX 7 1 8 2 9 3 10 4 11 5 24 6 25 7 21 8 18 9 15 10 12 11 6 12
REMARK SMILES IDX 3 13 27 14 4 15 26 16 5 17 2 18 1 19 28 20 29 21 22 22 23 23
REMARK SMILES IDX 13 24 14 25 19 26 20 27 16 28 17 29
REMARK H PARENT
REMARK Flexibility Score: inf
ROOT
ATOM      1  C   UNL     1      54.081   7.584 -46.682  1.00  0.00     0.138 A 
ATOM      2  C   UNL     1      55.092   8.155 -45.901  1.00  0.00     0.100 A 
ATOM      3  C   UNL     1      55.049   8.008 -44.517  1.00  0.00     0.197 A 
ATOM      4  O   UNL     1      55.963   8.532 -43.825  1.00  0.00    -0.289 OA
ATOM      5  C   UNL     1      53.989   7.290 -43.921  1.00  0.00     0.115 A 
ATOM      6  C   UNL     1      52.998   6.746 -44.773  1.00  0.00     0.188 A 
ATOM      7  O   UNL     1      53.090   6.923 -46.090  1.00  0.00    -0.452 OA
ATOM      8  C   UNL     1      51.924   6.004 -44.228  1.00  0.00     0.209 A 
ATOM      9  C   UNL     1      51.823   5.832 -42.839  1.00  0.00     0.211 A 
ATOM     10  C   UNL     1      52.785   6.414 -41.983  1.00  0.00     0.208 A 
ATOM     11  C   UNL     1      53.901   7.084 -42.526  1.00  0.00     0.179 A 
ENDROOT
BRANCH   1  12
ATOM     12  C   UNL     1      54.084   7.705 -48.161  1.00  0.00     0.021 A 
ATOM     13  C   UNL     1      54.037   7.955 -50.971  1.00  0.00     0.160 A 
ATOM     14  C   UNL     1      54.645   6.838 -50.379  1.00  0.00     0.161 A 
ATOM     15  C   UNL     1      53.449   8.939 -50.155  1.00  0.00     0.051 A 
ATOM     16  C   UNL     1      54.664   6.716 -48.976  1.00  0.00     0.062 A 
ATOM     17  C   UNL     1      53.470   8.810 -48.766  1.00  0.00     0.016 A 
BRANCH  13  18
ATOM     18  O   UNL     1      54.035   8.050 -52.372  1.00  0.00    -0.493 OA
ATOM     19  C   UNL     1      53.714   9.230 -53.101  1.00  0.00     0.278 C 
ENDBRANCH  13  18
BRANCH  14  20
ATOM     20  O   UNL     1      55.219   5.870 -51.219  1.00  0.00    -0.493 OA
ATOM     21  C   UNL     1      54.629   4.609 -51.519  1.00  0.00     0.278 C 
ENDBRANCH  14  20
ENDBRANCH   1  12
BRANCH   8  22
ATOM     22  O   UNL     1      50.919   5.400 -45.009  1.00  0.00    -0.490 OA
ATOM     23  C   UNL     1      51.011   4.166 -45.711  1.00  0.00     0.278 C 
ENDBRANCH   8  22
BRANCH  11  24
ATOM     24  O   UNL     1      54.929   7.538 -41.691  1.00  0.00    -0.492 OA
ATOM     25  C   UNL     1      55.864   6.654 -41.080  1.00  0.00     0.278 C 
ENDBRANCH  11  24
BRANCH   9  26
ATOM     26  O   UNL     1      50.724   5.081 -42.376  1.00  0.00    -0.490 OA
ATOM     27  C   UNL     1      50.745   3.732 -41.922  1.00  0.00     0.279 C 
ENDBRANCH   9  26
BRANCH  10  28
ATOM     28  O   UNL     1      52.625   6.339 -40.596  1.00  0.00    -0.490 OA
ATOM     29  C   UNL     1      51.778   7.229 -39.875  1.00  0.00     0.278 C 
ENDBRANCH  10  28
TORSDOF 7
ENDMDL
MODEL 3
REMARK VINA RESULT:    -4.657     11.480     14.777
REMARK INTER + INTRA:          -7.175
REMARK INTER:                  -6.479
REMARK INTRA:                  -0.696
REMARK UNBOUND:                -0.612
REMARK SMILES COc1ccc(-c2cc(=O)c3c(OC)c(OC)c(OC)c(OC)c3o2)cc1OC
REMARK SMILES IDX 7 1 8 2 9 3 10 4 11 5 24 6 25 7 21 8 18 9 15 10 12 11 6 12
REMARK SMILES IDX 3 13 27 14 4 15 26 16 5 17 2 18 1 19 28 20 29 21 22 22 23 23
REMARK SMILES IDX 13 24 14 25 19 26 20 27 16 28 17 29
REMARK H PARENT
REMARK Flexibility Score: inf
ROOT
ATOM      1  C   UNL     1      53.520  -4.434 -52.536  1.00  0.00     0.138 A 
ATOM      2  C   UNL     1      52.780  -5.615 -52.665  1.00  0.00     0.100 A 
ATOM      3  C   UNL     1      52.610  -6.438 -51.556  1.00  0.00     0.197 A 
ATOM      4  O   UNL     1      51.946  -7.502 -51.687  1.00  0.00    -0.289 OA
ATOM      5  C   UNL     1      53.186  -6.073 -50.318  1.00  0.00     0.115 A 
ATOM      6  C   UNL     1      53.927  -4.868 -50.264  1.00  0.00     0.188 A 
ATOM      7  O   UNL     1      54.059  -4.125 -51.360  1.00  0.00    -0.452 OA
ATOM      8  C   UNL     1      54.510  -4.449 -49.045  1.00  0.00     0.209 A 
ATOM      9  C   UNL     1      54.382  -5.244 -47.896  1.00  0.00     0.211 A 
ATOM     10  C   UNL     1      53.682  -6.471 -47.958  1.00  0.00     0.208 A 
ATOM     11  C   UNL     1      53.030  -6.851 -49.149  1.00  0.00     0.179 A 
ENDROOT
BRANCH   1  12
ATOM     12  C   UNL     1      53.724  -3.519 -53.686  1.00  0.00     0.021 A 
ATOM     13  C   UNL     1      54.130  -1.740 -55.839  1.00  0.00     0.160 A 
ATOM     14  C   UNL     1      52.991  -2.557 -55.814  1.00  0.00     0.161 A 
ATOM     15  C   UNL     1      55.059  -1.811 -54.784  1.00  0.00     0.051 A 
ATOM     16  C   UNL     1      52.790  -3.442 -54.736  1.00  0.00     0.062 A 
ATOM     17  C   UNL     1      54.852  -2.688 -53.719  1.00  0.00     0.016 A 
BRANCH  13  18
ATOM     18  O   UNL     1      54.304  -0.869 -56.926  1.00  0.00    -0.493 OA
ATOM     19  C   UNL     1      54.092   0.539 -56.874  1.00  0.00     0.278 C 
ENDBRANCH  13  18
BRANCH  14  20
ATOM     20  O   UNL     1      52.080  -2.460 -56.877  1.00  0.00    -0.493 OA
ATOM     21  C   UNL     1      52.041  -3.345 -57.992  1.00  0.00     0.278 C 
ENDBRANCH  14  20
ENDBRANCH   1  12
BRANCH   8  22
ATOM     22  O   UNL     1      55.231  -3.248 -48.899  1.00  0.00    -0.490 OA
ATOM     23  C   UNL     1      56.570  -3.002 -49.313  1.00  0.00     0.278 C 
ENDBRANCH   8  22
BRANCH  11  24
ATOM     24  O   UNL     1      52.219  -7.992 -49.178  1.00  0.00    -0.492 OA
ATOM     25  C   UNL     1      50.891  -7.999 -48.663  1.00  0.00     0.278 C 
ENDBRANCH  11  24
BRANCH   9  26
ATOM     26  O   UNL     1      54.992  -4.757 -46.722  1.00  0.00    -0.490 OA
ATOM     27  C   UNL     1      56.246  -5.160 -46.183  1.00  0.00     0.279 C 
ENDBRANCH   9  26
BRANCH  10  28
ATOM     28  O   UNL     1      53.648  -7.316 -46.845  1.00  0.00    -0.490 OA
ATOM     29  C   UNL     1      52.788  -7.083 -45.734  1.00  0.00     0.278 C 
ENDBRANCH  10  28
TORSDOF 7
ENDMDL
MODEL 4
REMARK VINA RESULT:    -4.653      1.824      2.406
REMARK INTER + INTRA:          -7.169
REMARK INTER:                  -6.352
REMARK INTRA:                  -0.816
REMARK UNBOUND:                -0.612
REMARK SMILES COc1ccc(-c2cc(=O)c3c(OC)c(OC)c(OC)c(OC)c3o2)cc1OC
REMARK SMILES IDX 7 1 8 2 9 3 10 4 11 5 24 6 25 7 21 8 18 9 15 10 12 11 6 12
REMARK SMILES IDX 3 13 27 14 4 15 26 16 5 17 2 18 1 19 28 20 29 21 22 22 23 23
REMARK SMILES IDX 13 24 14 25 19 26 20 27 16 28 17 29
REMARK H PARENT
REMARK Flexibility Score: inf
ROOT
ATOM      1  C   UNL     1      53.012   7.828 -48.833  1.00  0.00     0.138 A 
ATOM      2  C   UNL     1      53.777   8.640 -49.678  1.00  0.00     0.100 A 
ATOM      3  C   UNL     1      53.443   8.728 -51.027  1.00  0.00     0.197 A 
ATOM      4  O   UNL     1      54.144   9.459 -51.777  1.00  0.00    -0.289 OA
ATOM      5  C   UNL     1      52.341   7.997 -51.525  1.00  0.00     0.115 A 
ATOM      6  C   UNL     1      51.618   7.190 -50.614  1.00  0.00     0.188 A 
ATOM      7  O   UNL     1      51.988   7.143 -49.336  1.00  0.00    -0.452 OA
ATOM      8  C   UNL     1      50.496   6.451 -51.057  1.00  0.00     0.209 A 
ATOM      9  C   UNL     1      50.119   6.491 -52.408  1.00  0.00     0.211 A 
ATOM     10  C   UNL     1      50.868   7.259 -53.329  1.00  0.00     0.208 A 
ATOM     11  C   UNL     1      51.935   8.062 -52.876  1.00  0.00     0.179 A 
ENDROOT
BRANCH   1  12
ATOM     12  C   UNL     1      53.322   7.705 -47.388  1.00  0.00     0.021 A 
ATOM     13  C   UNL     1      53.958   7.444 -44.651  1.00  0.00     0.160 A 
ATOM     14  C   UNL     1      52.626   7.318 -45.074  1.00  0.00     0.161 A 
ATOM     15  C   UNL     1      54.967   7.693 -45.599  1.00  0.00     0.051 A 
ATOM     16  C   UNL     1      52.314   7.446 -46.442  1.00  0.00     0.062 A 
ATOM     17  C   UNL     1      54.649   7.817 -46.953  1.00  0.00     0.016 A 
BRANCH  13  18
ATOM     18  O   UNL     1      54.238   7.311 -43.282  1.00  0.00    -0.493 OA
ATOM     19  C   UNL     1      55.539   7.417 -42.711  1.00  0.00     0.278 C 
ENDBRANCH  13  18
BRANCH  14  20
ATOM     20  O   UNL     1      51.642   7.064 -44.105  1.00  0.00    -0.493 OA
ATOM     21  C   UNL     1      50.924   5.840 -43.985  1.00  0.00     0.278 C 
ENDBRANCH  14  20
ENDBRANCH   1  12
BRANCH   8  22
ATOM     22  O   UNL     1      49.703   5.654 -50.209  1.00  0.00    -0.490 OA
ATOM     23  C   UNL     1      48.670   6.103 -49.339  1.00  0.00     0.278 C 
ENDBRANCH   8  22
BRANCH  11  24
ATOM     24  O   UNL     1      52.589   8.931 -53.756  1.00  0.00    -0.492 OA
ATOM     25  C   UNL     1      51.983  10.125 -54.243  1.00  0.00     0.278 C 
ENDBRANCH  11  24
BRANCH   9  26
ATOM     26  O   UNL     1      48.991   5.727 -52.770  1.00  0.00    -0.490 OA
ATOM     27  C   UNL     1      47.674   6.211 -53.009  1.00  0.00     0.279 C 
ENDBRANCH   9  26
BRANCH  10  28
ATOM     28  O   UNL     1      50.561   7.213 -54.693  1.00  0.00    -0.490 OA
ATOM     29  C   UNL     1      51.134   6.250 -55.572  1.00  0.00     0.278 C 
ENDBRANCH  10  28
TORSDOF 7
ENDMDL
MODEL 5
REMARK VINA RESULT:    -4.651      2.908      4.508
REMARK INTER + INTRA:          -7.166
REMARK INTER:                  -6.378
REMARK INTRA:                  -0.788
REMARK UNBOUND:                -0.612
REMARK SMILES COc1ccc(-c2cc(=O)c3c(OC)c(OC)c(OC)c(OC)c3o2)cc1OC
REMARK SMILES IDX 7 1 8 2 9 3 10 4 11 5 24 6 25 7 21 8 18 9 15 10 12 11 6 12
REMARK SMILES IDX 3 13 27 14 4 15 26 16 5 17 2 18 1 19 28 20 29 21 22 22 23 23
REMARK SMILES IDX 13 24 14 25 19 26 20 27 16 28 17 29
REMARK H PARENT
REMARK Flexibility Score: inf
ROOT
ATOM      1  C   UNL     1      53.856   7.613 -48.792  1.00  0.00     0.138 A 
ATOM      2  C   UNL     1      53.509   8.740 -49.546  1.00  0.00     0.100 A 
ATOM      3  C   UNL     1      53.510   8.658 -50.935  1.00  0.00     0.197 A 
ATOM      4  O   UNL     1      53.200   9.683 -51.602  1.00  0.00    -0.289 OA
ATOM      5  C   UNL     1      53.862   7.443 -51.565  1.00  0.00     0.115 A 
ATOM      6  C   UNL     1      54.208   6.347 -50.739  1.00  0.00     0.188 A 
ATOM      7  O   UNL     1      54.193   6.488 -49.415  1.00  0.00    -0.452 OA
ATOM      8  C   UNL     1      54.552   5.103 -51.319  1.00  0.00     0.209 A 
ATOM      9  C   UNL     1      54.581   4.964 -52.715  1.00  0.00     0.211 A 
ATOM     10  C   UNL     1      54.281   6.070 -53.543  1.00  0.00     0.208 A 
ATOM     11  C   UNL     1      53.858   7.287 -52.969  1.00  0.00     0.179 A 
ENDROOT
BRANCH   1  12
ATOM     12  C   UNL     1      53.864   7.647 -47.309  1.00  0.00     0.021 A 
ATOM     13  C   UNL     1      53.928   7.683 -44.488  1.00  0.00     0.160 A 
ATOM     14  C   UNL     1      52.718   7.440 -45.156  1.00  0.00     0.161 A 
ATOM     15  C   UNL     1      55.101   7.900 -45.233  1.00  0.00     0.051 A 
ATOM     16  C   UNL     1      52.692   7.420 -46.565  1.00  0.00     0.062 A 
ATOM     17  C   UNL     1      55.067   7.877 -46.628  1.00  0.00     0.016 A 
BRANCH  13  18
ATOM     18  O   UNL     1      53.923   7.697 -43.084  1.00  0.00    -0.493 OA
ATOM     19  C   UNL     1      54.435   6.651 -42.264  1.00  0.00     0.278 C 
ENDBRANCH  13  18
BRANCH  14  20
ATOM     20  O   UNL     1      51.565   7.222 -44.386  1.00  0.00    -0.493 OA
ATOM     21  C   UNL     1      51.024   5.939 -44.087  1.00  0.00     0.278 C 
ENDBRANCH  14  20
ENDBRANCH   1  12
BRANCH   8  22
ATOM     22  O   UNL     1      54.873   3.956 -50.568  1.00  0.00    -0.490 OA
ATOM     23  C   UNL     1      56.097   3.698 -49.888  1.00  0.00     0.278 C 
ENDBRANCH   8  22
BRANCH  11  24
ATOM     24  O   UNL     1      53.424   8.340 -53.783  1.00  0.00    -0.492 OA
ATOM     25  C   UNL     1      52.167   8.320 -54.454  1.00  0.00     0.278 C 
ENDBRANCH  11  24
BRANCH   9  26
ATOM     26  O   UNL     1      54.933   3.694 -53.214  1.00  0.00    -0.490 OA
ATOM     27  C   UNL     1      56.234   3.260 -53.596  1.00  0.00     0.279 C 
ENDBRANCH   9  26
BRANCH  10  28
ATOM     28  O   UNL     1      54.417   5.964 -54.930  1.00  0.00    -0.490 OA
ATOM     29  C   UNL     1      55.635   6.268 -55.604  1.00  0.00     0.278 C 
ENDBRANCH  10  28
TORSDOF 7
ENDMDL
MODEL 6
REMARK VINA RESULT:    -4.596      3.067      5.768
REMARK INTER + INTRA:          -7.089
REMARK INTER:                  -6.333
REMARK INTRA:                  -0.756
REMARK UNBOUND:                -0.612
REMARK SMILES COc1ccc(-c2cc(=O)c3c(OC)c(OC)c(OC)c(OC)c3o2)cc1OC
REMARK SMILES IDX 7 1 8 2 9 3 10 4 11 5 24 6 25 7 21 8 18 9 15 10 12 11 6 12
REMARK SMILES IDX 3 13 27 14 4 15 26 16 5 17 2 18 1 19 28 20 29 21 22 22 23 23
REMARK SMILES IDX 13 24 14 25 19 26 20 27 16 28 17 29
REMARK H PARENT
REMARK Flexibility Score: inf
ROOT
ATOM      1  C   UNL     1      55.418   6.330 -47.145  1.00  0.00     0.138 A 
ATOM      2  C   UNL     1      55.858   5.039 -47.457  1.00  0.00     0.100 A 
ATOM      3  C   UNL     1      55.785   4.593 -48.773  1.00  0.00     0.197 A 
ATOM      4  O   UNL     1      56.181   3.425 -49.039  1.00  0.00    -0.289 OA
ATOM      5  C   UNL     1      55.267   5.445 -49.774  1.00  0.00     0.115 A 
ATOM      6  C   UNL     1      54.834   6.735 -49.385  1.00  0.00     0.188 A 
ATOM      7  O   UNL     1      54.925   7.104 -48.109  1.00  0.00    -0.452 OA
ATOM      8  C   UNL     1      54.323   7.633 -50.351  1.00  0.00     0.209 A 
ATOM      9  C   UNL     1      54.215   7.234 -51.692  1.00  0.00     0.211 A 
ATOM     10  C   UNL     1      54.604   5.930 -52.076  1.00  0.00     0.208 A 
ATOM     11  C   UNL     1      55.190   5.062 -51.132  1.00  0.00     0.179 A 
ENDROOT
BRANCH   1  12
ATOM     12  C   UNL     1      55.481   6.856 -45.760  1.00  0.00     0.021 A 
ATOM     13  C   UNL     1      55.639   7.892 -43.139  1.00  0.00     0.160 A 
ATOM     14  C   UNL     1      55.512   6.509 -43.337  1.00  0.00     0.161 A 
ATOM     15  C   UNL     1      55.694   8.750 -44.253  1.00  0.00     0.051 A 
ATOM     16  C   UNL     1      55.436   5.996 -44.647  1.00  0.00     0.062 A 
ATOM     17  C   UNL     1      55.620   8.234 -45.547  1.00  0.00     0.016 A 
BRANCH  13  18
ATOM     18  O   UNL     1      55.712   8.374 -41.823  1.00  0.00    -0.493 OA
ATOM     19  C   UNL     1      56.842   9.040 -41.269  1.00  0.00     0.278 C 
ENDBRANCH  13  18
BRANCH  14  20
ATOM     20  O   UNL     1      55.466   5.677 -42.207  1.00  0.00    -0.493 OA
ATOM     21  C   UNL     1      56.571   4.933 -41.706  1.00  0.00     0.278 C 
ENDBRANCH  14  20
ENDBRANCH   1  12
BRANCH   8  22
ATOM     22  O   UNL     1      53.905   8.944 -50.051  1.00  0.00    -0.490 OA
ATOM     23  C   UNL     1      52.743   9.323 -49.322  1.00  0.00     0.278 C 
ENDBRANCH   8  22
BRANCH  11  24
ATOM     24  O   UNL     1      55.706   3.824 -51.535  1.00  0.00    -0.492 OA
ATOM     25  C   UNL     1      56.923   3.704 -52.265  1.00  0.00     0.278 C 
ENDBRANCH  11  24
BRANCH   9  26
ATOM     26  O   UNL     1      53.696   8.187 -52.592  1.00  0.00    -0.490 OA
ATOM     27  C   UNL     1      52.331   8.360 -52.954  1.00  0.00     0.279 C 
ENDBRANCH   9  26
BRANCH  10  28
ATOM     28  O   UNL     1      54.393   5.494 -53.388  1.00  0.00    -0.490 OA
ATOM     29  C   UNL     1      53.206   4.816 -53.787  1.00  0.00     0.278 C 
ENDBRANCH  10  28
TORSDOF 7
ENDMDL
MODEL 7
REMARK VINA RESULT:    -4.569      2.923      5.511
REMARK INTER + INTRA:          -7.051
REMARK INTER:                  -6.359
REMARK INTRA:                  -0.692
REMARK UNBOUND:                -0.612
REMARK SMILES COc1ccc(-c2cc(=O)c3c(OC)c(OC)c(OC)c(OC)c3o2)cc1OC
REMARK SMILES IDX 7 1 8 2 9 3 10 4 11 5 24 6 25 7 21 8 18 9 15 10 12 11 6 12
REMARK SMILES IDX 3 13 27 14 4 15 26 16 5 17 2 18 1 19 28 20 29 21 22 22 23 23
REMARK SMILES IDX 13 24 14 25 19 26 20 27 16 28 17 29
REMARK H PARENT
REMARK Flexibility Score: inf
ROOT
ATOM      1  C   UNL     1      54.653   7.291 -47.433  1.00  0.00     0.138 A 
ATOM      2  C   UNL     1      53.836   8.259 -48.029  1.00  0.00     0.100 A 
ATOM      3  C   UNL     1      53.517   8.145 -49.379  1.00  0.00     0.197 A 
ATOM      4  O   UNL     1      52.785   9.028 -49.904  1.00  0.00    -0.289 OA
ATOM      5  C   UNL     1      54.020   7.059 -50.129  1.00  0.00     0.115 A 
ATOM      6  C   UNL     1      54.845   6.121 -49.462  1.00  0.00     0.188 A 
ATOM      7  O   UNL     1      55.119   6.286 -48.170  1.00  0.00    -0.452 OA
ATOM      8  C   UNL     1      55.361   5.006 -50.163  1.00  0.00     0.209 A 
ATOM      9  C   UNL     1      55.081   4.845 -51.528  1.00  0.00     0.211 A 
ATOM     10  C   UNL     1      54.296   5.804 -52.208  1.00  0.00     0.208 A 
ATOM     11  C   UNL     1      53.712   6.871 -51.495  1.00  0.00     0.179 A 
ENDROOT
BRANCH   1  12
ATOM     12  C   UNL     1      55.017   7.363 -45.997  1.00  0.00     0.021 A 
ATOM     13  C   UNL     1      55.750   7.536 -43.278  1.00  0.00     0.160 A 
ATOM     14  C   UNL     1      55.401   6.294 -43.829  1.00  0.00     0.161 A 
ATOM     15  C   UNL     1      55.738   8.684 -44.090  1.00  0.00     0.051 A 
ATOM     16  C   UNL     1      55.038   6.212 -45.188  1.00  0.00     0.062 A 
ATOM     17  C   UNL     1      55.379   8.595 -45.435  1.00  0.00     0.016 A 
BRANCH  13  18
ATOM     18  O   UNL     1      56.107   7.587 -41.921  1.00  0.00    -0.493 OA
ATOM     19  C   UNL     1      56.631   8.738 -41.267  1.00  0.00     0.278 C 
ENDBRANCH  13  18
BRANCH  14  20
ATOM     20  O   UNL     1      55.428   5.165 -42.996  1.00  0.00    -0.493 OA
ATOM     21  C   UNL     1      56.487   4.214 -42.958  1.00  0.00     0.278 C 
ENDBRANCH  14  20
ENDBRANCH   1  12
BRANCH   8  22
ATOM     22  O   UNL     1      56.158   4.011 -49.564  1.00  0.00    -0.490 OA
ATOM     23  C   UNL     1      55.705   2.916 -48.776  1.00  0.00     0.278 C 
ENDBRANCH   8  22
BRANCH  11  24
ATOM     24  O   UNL     1      52.821   7.743 -52.131  1.00  0.00    -0.492 OA
ATOM     25  C   UNL     1      51.488   7.365 -52.463  1.00  0.00     0.278 C 
ENDBRANCH  11  24
BRANCH   9  26
ATOM     26  O   UNL     1      55.633   3.708 -52.154  1.00  0.00    -0.490 OA
ATOM     27  C   UNL     1      56.820   3.659 -52.937  1.00  0.00     0.279 C 
ENDBRANCH   9  26
BRANCH  10  28
ATOM     28  O   UNL     1      54.110   5.705 -53.590  1.00  0.00    -0.490 OA
ATOM     29  C   UNL     1      54.747   6.583 -54.513  1.00  0.00     0.278 C 
ENDBRANCH  10  28
TORSDOF 7
ENDMDL
MODEL 8
REMARK VINA RESULT:    -4.538     10.882     14.154
REMARK INTER + INTRA:          -7.008
REMARK INTER:                  -6.199
REMARK INTRA:                  -0.808
REMARK UNBOUND:                -0.612
REMARK SMILES COc1ccc(-c2cc(=O)c3c(OC)c(OC)c(OC)c(OC)c3o2)cc1OC
REMARK SMILES IDX 7 1 8 2 9 3 10 4 11 5 24 6 25 7 21 8 18 9 15 10 12 11 6 12
REMARK SMILES IDX 3 13 27 14 4 15 26 16 5 17 2 18 1 19 28 20 29 21 22 22 23 23
REMARK SMILES IDX 13 24 14 25 19 26 20 27 16 28 17 29
REMARK H PARENT
REMARK Flexibility Score: inf
ROOT
ATOM      1  C   UNL     1      53.655  -3.781 -52.965  1.00  0.00     0.138 A 
ATOM      2  C   UNL     1      52.929  -4.977 -52.996  1.00  0.00     0.100 A 
ATOM      3  C   UNL     1      52.874  -5.772 -51.854  1.00  0.00     0.197 A 
ATOM      4  O   UNL     1      52.220  -6.849 -51.897  1.00  0.00    -0.289 OA
ATOM      5  C   UNL     1      53.552  -5.364 -50.683  1.00  0.00     0.115 A 
ATOM      6  C   UNL     1      54.272  -4.146 -50.727  1.00  0.00     0.188 A 
ATOM      7  O   UNL     1      54.291  -3.431 -51.851  1.00  0.00    -0.452 OA
ATOM      8  C   UNL     1      54.954  -3.684 -49.577  1.00  0.00     0.209 A 
ATOM      9  C   UNL     1      54.943  -4.448 -48.401  1.00  0.00     0.211 A 
ATOM     10  C   UNL     1      54.264  -5.687 -48.368  1.00  0.00     0.208 A 
ATOM     11  C   UNL     1      53.515  -6.111 -49.485  1.00  0.00     0.179 A 
ENDROOT
BRANCH   1  12
ATOM     12  C   UNL     1      53.739  -2.896 -54.152  1.00  0.00     0.021 A 
ATOM     13  C   UNL     1      53.906  -1.257 -56.443  1.00  0.00     0.160 A 
ATOM     14  C   UNL     1      54.526  -0.856 -55.251  1.00  0.00     0.161 A 
ATOM     15  C   UNL     1      53.210  -2.479 -56.487  1.00  0.00     0.051 A 
ATOM     16  C   UNL     1      54.443  -1.679 -54.110  1.00  0.00     0.062 A 
ATOM     17  C   UNL     1      53.133  -3.289 -55.353  1.00  0.00     0.016 A 
BRANCH  13  18
ATOM     18  O   UNL     1      54.005  -0.416 -57.563  1.00  0.00    -0.493 OA
ATOM     19  C   UNL     1      53.381  -0.666 -58.818  1.00  0.00     0.278 C 
ENDBRANCH  13  18
BRANCH  14  20
ATOM     20  O   UNL     1      55.218   0.366 -55.239  1.00  0.00    -0.493 OA
ATOM     21  C   UNL     1      54.910   1.461 -54.383  1.00  0.00     0.278 C 
ENDBRANCH  14  20
ENDBRANCH   1  12
BRANCH   8  22
ATOM     22  O   UNL     1      55.662  -2.467 -49.528  1.00  0.00    -0.490 OA
ATOM     23  C   UNL     1      56.963  -2.217 -50.050  1.00  0.00     0.278 C 
ENDBRANCH   8  22
BRANCH  11  24
ATOM     24  O   UNL     1      52.726  -7.265 -49.411  1.00  0.00    -0.492 OA
ATOM     25  C   UNL     1      51.519  -7.319 -48.655  1.00  0.00     0.278 C 
ENDBRANCH  11  24
BRANCH   9  26
ATOM     26  O   UNL     1      55.647  -3.918 -47.300  1.00  0.00    -0.490 OA
ATOM     27  C   UNL     1      56.969  -4.254 -46.892  1.00  0.00     0.279 C 
ENDBRANCH   9  26
BRANCH  10  28
ATOM     28  O   UNL     1      54.345  -6.501 -47.234  1.00  0.00    -0.490 OA
ATOM     29  C   UNL     1      55.274  -7.576 -47.129  1.00  0.00     0.278 C 
ENDBRANCH  10  28
TORSDOF 7
ENDMDL
MODEL 9
REMARK VINA RESULT:    -4.517      3.224      9.869
REMARK INTER + INTRA:          -6.977
REMARK INTER:                  -6.183
REMARK INTRA:                  -0.794
REMARK UNBOUND:                -0.612
REMARK SMILES COc1ccc(-c2cc(=O)c3c(OC)c(OC)c(OC)c(OC)c3o2)cc1OC
REMARK SMILES IDX 7 1 8 2 9 3 10 4 11 5 24 6 25 7 21 8 18 9 15 10 12 11 6 12
REMARK SMILES IDX 3 13 27 14 4 15 26 16 5 17 2 18 1 19 28 20 29 21 22 22 23 23
REMARK SMILES IDX 13 24 14 25 19 26 20 27 16 28 17 29
REMARK H PARENT
REMARK Flexibility Score: inf
ROOT
ATOM      1  C   UNL     1      54.497   7.114 -47.634  1.00  0.00     0.138 A 
ATOM      2  C   UNL     1      54.021   7.860 -46.550  1.00  0.00     0.100 A 
ATOM      3  C   UNL     1      54.343   7.463 -45.255  1.00  0.00     0.197 A 
ATOM      4  O   UNL     1      53.903   8.141 -44.287  1.00  0.00    -0.289 OA
ATOM      5  C   UNL     1      55.141   6.315 -45.052  1.00  0.00     0.115 A 
ATOM      6  C   UNL     1      55.581   5.606 -46.195  1.00  0.00     0.188 A 
ATOM      7  O   UNL     1      55.237   6.032 -47.409  1.00  0.00    -0.452 OA
ATOM      8  C   UNL     1      56.397   4.459 -46.048  1.00  0.00     0.209 A 
ATOM      9  C   UNL     1      56.744   4.006 -44.767  1.00  0.00     0.211 A 
ATOM     10  C   UNL     1      56.268   4.685 -43.622  1.00  0.00     0.208 A 
ATOM     11  C   UNL     1      55.524   5.874 -43.766  1.00  0.00     0.179 A 
ENDROOT
BRANCH   1  12
ATOM     12  C   UNL     1      54.188   7.498 -49.033  1.00  0.00     0.021 A 
ATOM     13  C   UNL     1      53.552   8.251 -51.678  1.00  0.00     0.160 A 
ATOM     14  C   UNL     1      54.180   7.020 -51.433  1.00  0.00     0.161 A 
ATOM     15  C   UNL     1      53.239   9.097 -50.598  1.00  0.00     0.051 A 
ATOM     16  C   UNL     1      54.493   6.647 -50.111  1.00  0.00     0.062 A 
ATOM     17  C   UNL     1      53.551   8.720 -49.291  1.00  0.00     0.016 A 
BRANCH  13  18
ATOM     18  O   UNL     1      53.253   8.595 -53.005  1.00  0.00    -0.493 OA
ATOM     19  C   UNL     1      53.670   9.800 -53.640  1.00  0.00     0.278 C 
ENDBRANCH  13  18
BRANCH  14  20
ATOM     20  O   UNL     1      54.475   6.195 -52.530  1.00  0.00    -0.493 OA
ATOM     21  C   UNL     1      55.055   4.898 -52.433  1.00  0.00     0.278 C 
ENDBRANCH  14  20
ENDBRANCH   1  12
BRANCH   8  22
ATOM     22  O   UNL     1      56.905   3.720 -47.134  1.00  0.00    -0.490 OA
ATOM     23  C   UNL     1      56.212   2.735 -47.893  1.00  0.00     0.278 C 
ENDBRANCH   8  22
BRANCH  11  24
ATOM     24  O   UNL     1      55.170   6.627 -42.640  1.00  0.00    -0.492 OA
ATOM     25  C   UNL     1      56.112   7.423 -41.926  1.00  0.00     0.278 C 
ENDBRANCH  11  24
BRANCH   9  26
ATOM     26  O   UNL     1      57.559   2.857 -44.705  1.00  0.00    -0.490 OA
ATOM     27  C   UNL     1      58.964   2.820 -44.482  1.00  0.00     0.279 C 
ENDBRANCH   9  26
BRANCH  10  28
ATOM     28  O   UNL     1      56.520   4.170 -42.347  1.00  0.00    -0.490 OA
ATOM     29  C   UNL     1      55.652   3.235 -41.714  1.00  0.00     0.278 C 
ENDBRANCH  10  28
TORSDOF 7
ENDMDL
