MODEL 1
REMARK VINA RESULT:    -2.837      0.000      0.000
REMARK INTER + INTRA:          -3.706
REMARK INTER:                  -3.500
REMARK INTRA:                  -0.206
REMARK UNBOUND:                -0.206
REMARK SMILES CCCCCC(=O)[O-]
REMARK SMILES IDX 4 1 5 2 6 3 7 4 8 5 3 6 2 7 1 8
REMARK H PARENT
REMARK Flexibility Score: inf
ROOT
ATOM      1  C   UNL     1       1.238   0.694   8.172  1.00  0.00     0.006 C 
ENDROOT
BRANCH   1   2
ATOM      2  C   UNL     1       0.241   1.828   7.899  1.00  0.00     0.053 C 
BRANCH   2   3
ATOM      3  C   UNL     1      -0.280   1.786   6.495  1.00  0.00     0.041 C 
ATOM      4  O   UNL     1      -1.420   2.247   6.229  1.00  0.00    -0.550 OA
ATOM      5  O   UNL     1       0.509   1.270   5.475  1.00  0.00    -0.550 OA
ENDBRANCH   2   3
ENDBRANCH   1   2
BRANCH   1   6
ATOM      6  C   UNL     1       0.632  -0.418   9.039  1.00  0.00     0.000 C 
BRANCH   6   7
ATOM      7  C   UNL     1       0.799  -1.788   8.373  1.00  0.00    -0.003 C 
ATOM      8  C   UNL     1      -0.115  -1.927   7.159  1.00  0.00     0.004 C 
ENDBRANCH   6   7
ENDBRANCH   1   6
TORSDOF 4
ENDMDL
MODEL 2
REMARK VINA RESULT:    -2.788      0.509      1.293
REMARK INTER + INTRA:          -3.646
REMARK INTER:                  -3.402
REMARK INTRA:                  -0.244
REMARK UNBOUND:                -0.206
REMARK SMILES CCCCCC(=O)[O-]
REMARK SMILES IDX 4 1 5 2 6 3 7 4 8 5 3 6 2 7 1 8
REMARK H PARENT
REMARK Flexibility Score: inf
ROOT
ATOM      1  C   UNL     1       1.238   0.500   8.019  1.00  0.00     0.006 C 
ENDROOT
BRANCH   1   2
ATOM      2  C   UNL     1       0.271   1.680   7.857  1.00  0.00     0.053 C 
BRANCH   2   3
ATOM      3  C   UNL     1      -0.247   1.787   6.455  1.00  0.00     0.041 C 
ATOM      4  O   UNL     1       0.433   1.344   5.493  1.00  0.00    -0.550 OA
ATOM      5  O   UNL     1      -1.496   2.345   6.215  1.00  0.00    -0.550 OA
ENDBRANCH   2   3
ENDBRANCH   1   2
BRANCH   1   6
ATOM      6  C   UNL     1       0.551  -0.738   8.613  1.00  0.00     0.000 C 
BRANCH   6   7
ATOM      7  C   UNL     1       0.209  -1.755   7.519  1.00  0.00    -0.003 C 
ATOM      8  C   UNL     1      -1.282  -1.740   7.197  1.00  0.00     0.004 C 
ENDBRANCH   6   7
ENDBRANCH   1   6
TORSDOF 4
ENDMDL
MODEL 3
REMARK VINA RESULT:    -2.770      1.213      1.814
REMARK INTER + INTRA:          -3.624
REMARK INTER:                  -3.523
REMARK INTRA:                  -0.100
REMARK UNBOUND:                -0.206
REMARK SMILES CCCCCC(=O)[O-]
REMARK SMILES IDX 4 1 5 2 6 3 7 4 8 5 3 6 2 7 1 8
REMARK H PARENT
REMARK Flexibility Score: inf
ROOT
ATOM      1  C   UNL     1       0.459  -0.776   7.103  1.00  0.00     0.006 C 
ENDROOT
BRANCH   1   2
ATOM      2  C   UNL     1      -0.662   0.259   7.257  1.00  0.00     0.053 C 
BRANCH   2   3
ATOM      3  C   UNL     1      -0.512   1.391   6.286  1.00  0.00     0.041 C 
ATOM      4  O   UNL     1       0.437   1.395   5.460  1.00  0.00    -0.550 OA
ATOM      5  O   UNL     1      -1.442   2.423   6.271  1.00  0.00    -0.550 OA
ENDBRANCH   2   3
ENDBRANCH   1   2
BRANCH   1   6
ATOM      6  C   UNL     1       0.484  -1.782   8.263  1.00  0.00     0.000 C 
BRANCH   6   7
ATOM      7  C   UNL     1       0.466  -3.223   7.741  1.00  0.00    -0.003 C 
ATOM      8  C   UNL     1      -0.746  -3.472   6.848  1.00  0.00     0.004 C 
ENDBRANCH   6   7
ENDBRANCH   1   6
TORSDOF 4
ENDMDL
MODEL 4
REMARK VINA RESULT:    -2.717     13.262     14.316
REMARK INTER + INTRA:          -3.558
REMARK INTER:                  -3.401
REMARK INTRA:                  -0.156
REMARK UNBOUND:                -0.206
REMARK SMILES CCCCCC(=O)[O-]
REMARK SMILES IDX 4 1 5 2 6 3 7 4 8 5 3 6 2 7 1 8
REMARK H PARENT
REMARK Flexibility Score: inf
ROOT
ATOM      1  C   UNL     1      -6.882  -2.075  -3.971  1.00  0.00     0.006 C 
ENDROOT
BRANCH   1   2
ATOM      2  C   UNL     1      -6.203  -3.450  -3.923  1.00  0.00     0.053 C 
BRANCH   2   3
ATOM      3  C   UNL     1      -5.977  -4.007  -5.295  1.00  0.00     0.041 C 
ATOM      4  O   UNL     1      -4.807  -4.229  -5.703  1.00  0.00    -0.550 OA
ATOM      5  O   UNL     1      -7.059  -4.316  -6.109  1.00  0.00    -0.550 OA
ENDBRANCH   2   3
ENDBRANCH   1   2
BRANCH   1   6
ATOM      6  C   UNL     1      -5.983  -1.005  -4.606  1.00  0.00     0.000 C 
BRANCH   6   7
ATOM      7  C   UNL     1      -6.194   0.358  -3.937  1.00  0.00    -0.003 C 
ATOM      8  C   UNL     1      -7.088   0.236  -2.707  1.00  0.00     0.004 C 
ENDBRANCH   6   7
ENDBRANCH   1   6
TORSDOF 4
ENDMDL
MODEL 5
REMARK VINA RESULT:    -2.602      1.917      3.435
REMARK INTER + INTRA:          -3.416
REMARK INTER:                  -3.205
REMARK INTRA:                  -0.212
REMARK UNBOUND:                -0.206
REMARK SMILES CCCCCC(=O)[O-]
REMARK SMILES IDX 4 1 5 2 6 3 7 4 8 5 3 6 2 7 1 8
REMARK H PARENT
REMARK Flexibility Score: inf
ROOT
ATOM      1  C   UNL     1      -0.071   2.596   8.034  1.00  0.00     0.006 C 
ENDROOT
BRANCH   1   2
ATOM      2  C   UNL     1       0.797   1.342   7.874  1.00  0.00     0.053 C 
BRANCH   2   3
ATOM      3  C   UNL     1       0.526   0.638   6.579  1.00  0.00     0.041 C 
ATOM      4  O   UNL     1       0.511   1.283   5.499  1.00  0.00    -0.550 OA
ATOM      5  O   UNL     1       0.324  -0.737   6.563  1.00  0.00    -0.550 OA
ENDBRANCH   2   3
ENDBRANCH   1   2
BRANCH   1   6
ATOM      6  C   UNL     1      -1.405   2.294   8.733  1.00  0.00     0.000 C 
BRANCH   6   7
ATOM      7  C   UNL     1      -2.556   3.062   8.074  1.00  0.00    -0.003 C 
ATOM      8  C   UNL     1      -2.515   2.922   6.555  1.00  0.00     0.004 C 
ENDBRANCH   6   7
ENDBRANCH   1   6
TORSDOF 4
ENDMDL
MODEL 6
REMARK VINA RESULT:    -2.569      1.966      2.843
REMARK INTER + INTRA:          -3.375
REMARK INTER:                  -3.100
REMARK INTRA:                  -0.276
REMARK UNBOUND:                -0.206
REMARK SMILES CCCCCC(=O)[O-]
REMARK SMILES IDX 4 1 5 2 6 3 7 4 8 5 3 6 2 7 1 8
REMARK H PARENT
REMARK Flexibility Score: inf
ROOT
ATOM      1  C   UNL     1      -1.192   2.362   8.326  1.00  0.00     0.006 C 
ENDROOT
BRANCH   1   2
ATOM      2  C   UNL     1      -1.282   2.220   6.801  1.00  0.00     0.053 C 
BRANCH   2   3
ATOM      3  C   UNL     1      -0.445   1.085   6.297  1.00  0.00     0.041 C 
ATOM      4  O   UNL     1       0.464   1.294   5.452  1.00  0.00    -0.550 OA
ATOM      5  O   UNL     1      -0.645  -0.199   6.788  1.00  0.00    -0.550 OA
ENDBRANCH   2   3
ENDBRANCH   1   2
BRANCH   1   6
ATOM      6  C   UNL     1       0.215   2.767   8.791  1.00  0.00     0.000 C 
BRANCH   6   7
ATOM      7  C   UNL     1       0.746   1.792   9.847  1.00  0.00    -0.003 C 
ATOM      8  C   UNL     1       1.824   0.881   9.265  1.00  0.00     0.004 C 
ENDBRANCH   6   7
ENDBRANCH   1   6
TORSDOF 4
ENDMDL
MODEL 7
REMARK VINA RESULT:    -2.466      2.592      4.476
REMARK INTER + INTRA:          -3.249
REMARK INTER:                  -3.122
REMARK INTRA:                  -0.127
REMARK UNBOUND:                -0.206
REMARK SMILES CCCCCC(=O)[O-]
REMARK SMILES IDX 4 1 5 2 6 3 7 4 8 5 3 6 2 7 1 8
REMARK H PARENT
REMARK Flexibility Score: inf
ROOT
ATOM      1  C   UNL     1      -2.107   1.574   7.119  1.00  0.00     0.006 C 
ENDROOT
BRANCH   1   2
ATOM      2  C   UNL     1      -0.722   2.209   7.298  1.00  0.00     0.053 C 
BRANCH   2   3
ATOM      3  C   UNL     1       0.353   1.395   6.645  1.00  0.00     0.041 C 
ATOM      4  O   UNL     1       0.451   1.366   5.391  1.00  0.00    -0.550 OA
ATOM      5  O   UNL     1       1.268   0.698   7.424  1.00  0.00    -0.550 OA
ENDBRANCH   2   3
ENDBRANCH   1   2
BRANCH   1   6
ATOM      6  C   UNL     1      -2.965   2.330   6.094  1.00  0.00     0.000 C 
BRANCH   6   7
ATOM      7  C   UNL     1      -3.123   3.802   6.488  1.00  0.00    -0.003 C 
ATOM      8  C   UNL     1      -4.555   4.108   6.918  1.00  0.00     0.004 C 
ENDBRANCH   6   7
ENDBRANCH   1   6
TORSDOF 4
ENDMDL
MODEL 8
REMARK VINA RESULT:    -2.368     10.553     11.303
REMARK INTER + INTRA:          -3.128
REMARK INTER:                  -2.978
REMARK INTRA:                  -0.150
REMARK UNBOUND:                -0.206
REMARK SMILES CCCCCC(=O)[O-]
REMARK SMILES IDX 4 1 5 2 6 3 7 4 8 5 3 6 2 7 1 8
REMARK H PARENT
REMARK Flexibility Score: inf
ROOT
ATOM      1  C   UNL     1       1.582   5.738  -0.935  1.00  0.00     0.006 C 
ENDROOT
BRANCH   1   2
ATOM      2  C   UNL     1       1.494   7.093  -1.650  1.00  0.00     0.053 C 
BRANCH   2   3
ATOM      3  C   UNL     1       0.287   7.179  -2.533  1.00  0.00     0.041 C 
ATOM      4  O   UNL     1      -0.737   7.801  -2.147  1.00  0.00    -0.550 OA
ATOM      5  O   UNL     1       0.307   6.603  -3.797  1.00  0.00    -0.550 OA
ENDBRANCH   2   3
ENDBRANCH   1   2
BRANCH   1   6
ATOM      6  C   UNL     1       2.839   4.951  -1.333  1.00  0.00     0.000 C 
BRANCH   6   7
ATOM      7  C   UNL     1       2.641   4.243  -2.678  1.00  0.00    -0.003 C 
ATOM      8  C   UNL     1       3.975   4.012  -3.381  1.00  0.00     0.004 C 
ENDBRANCH   6   7
ENDBRANCH   1   6
TORSDOF 4
ENDMDL
MODEL 9
REMARK VINA RESULT:    -2.362      2.248      3.750
REMARK INTER + INTRA:          -3.119
REMARK INTER:                  -2.935
REMARK INTRA:                  -0.185
REMARK UNBOUND:                -0.206
REMARK SMILES CCCCCC(=O)[O-]
REMARK SMILES IDX 4 1 5 2 6 3 7 4 8 5 3 6 2 7 1 8
REMARK H PARENT
REMARK Flexibility Score: inf
ROOT
ATOM      1  C   UNL     1       0.862   0.495   6.370  1.00  0.00     0.006 C 
ENDROOT
BRANCH   1   2
ATOM      2  C   UNL     1       0.681  -0.540   7.487  1.00  0.00     0.053 C 
BRANCH   2   3
ATOM      3  C   UNL     1      -0.346  -1.571   7.131  1.00  0.00     0.041 C 
ATOM      4  O   UNL     1       0.007  -2.744   6.845  1.00  0.00    -0.550 OA
ATOM      5  O   UNL     1      -1.696  -1.244   7.149  1.00  0.00    -0.550 OA
ENDBRANCH   2   3
ENDBRANCH   1   2
BRANCH   1   6
ATOM      6  C   UNL     1       0.244   1.854   6.731  1.00  0.00     0.000 C 
BRANCH   6   7
ATOM      7  C   UNL     1       0.250   2.075   8.248  1.00  0.00    -0.003 C 
ATOM      8  C   UNL     1      -1.085   2.637   8.728  1.00  0.00     0.004 C 
ENDBRANCH   6   7
ENDBRANCH   1   6
TORSDOF 4
ENDMDL
