MODEL 1
REMARK VINA RESULT:    -3.904      0.000      0.000
REMARK INTER + INTRA:          -6.222
REMARK INTER:                  -5.730
REMARK INTRA:                  -0.492
REMARK UNBOUND:                -0.492
REMARK SMILES O=C([O-])CCCCCCCC(=O)[O-]
REMARK SMILES IDX 7 1 6 2 5 3 4 4 2 5 1 6 3 7 8 8 9 9 10 10 11 11 12 12 13 13
REMARK H PARENT
REMARK Flexibility Score: inf
ROOT
ATOM      1  C   UNL     1     163.744 162.089 182.544  1.00  0.00     0.000 C 
ENDROOT
BRANCH   1   2
ATOM      2  C   UNL     1     163.481 160.644 182.985  1.00  0.00     0.000 C 
BRANCH   2   3
ATOM      3  C   UNL     1     164.796 159.896 183.235  1.00  0.00     0.006 C 
BRANCH   3   4
ATOM      4  C   UNL     1     165.999 160.746 182.818  1.00  0.00     0.053 C 
BRANCH   4   5
ATOM      5  C   UNL     1     167.207 160.373 183.619  1.00  0.00     0.041 C 
ATOM      6  O   UNL     1     167.102 160.142 184.852  1.00  0.00    -0.550 OA
ATOM      7  O   UNL     1     168.439 160.233 182.993  1.00  0.00    -0.550 OA
ENDBRANCH   4   5
ENDBRANCH   3   4
ENDBRANCH   2   3
ENDBRANCH   1   2
BRANCH   1   8
ATOM      8  C   UNL     1     162.820 163.067 183.285  1.00  0.00     0.000 C 
BRANCH   8   9
ATOM      9  C   UNL     1     161.434 162.470 183.571  1.00  0.00     0.006 C 
BRANCH   9  10
ATOM     10  C   UNL     1     160.372 162.931 182.564  1.00  0.00     0.053 C 
BRANCH  10  11
ATOM     11  C   UNL     1     160.164 161.887 181.512  1.00  0.00     0.041 C 
ATOM     12  O   UNL     1     159.897 160.701 181.840  1.00  0.00    -0.550 OA
ATOM     13  O   UNL     1     160.216 162.234 180.168  1.00  0.00    -0.550 OA
ENDBRANCH  10  11
ENDBRANCH   9  10
ENDBRANCH   8   9
ENDBRANCH   1   8
TORSDOF 8
ENDMDL
MODEL 2
REMARK VINA RESULT:    -3.876      1.785      5.625
REMARK INTER + INTRA:          -6.181
REMARK INTER:                  -5.686
REMARK INTRA:                  -0.495
REMARK UNBOUND:                -0.492
REMARK SMILES O=C([O-])CCCCCCCC(=O)[O-]
REMARK SMILES IDX 7 1 6 2 5 3 4 4 2 5 1 6 3 7 8 8 9 9 10 10 11 11 12 12 13 13
REMARK H PARENT
REMARK Flexibility Score: inf
ROOT
ATOM      1  C   UNL     1     161.861 162.857 183.184  1.00  0.00     0.000 C 
ENDROOT
BRANCH   1   2
ATOM      2  C   UNL     1     161.207 161.517 183.544  1.00  0.00     0.000 C 
BRANCH   2   3
ATOM      3  C   UNL     1     160.210 161.082 182.463  1.00  0.00     0.006 C 
BRANCH   3   4
ATOM      4  C   UNL     1     160.246 162.037 181.267  1.00  0.00     0.053 C 
BRANCH   4   5
ATOM      5  C   UNL     1     160.652 161.307 180.025  1.00  0.00     0.041 C 
ATOM      6  O   UNL     1     160.246 161.698 178.899  1.00  0.00    -0.550 OA
ATOM      7  O   UNL     1     161.519 160.225 180.108  1.00  0.00    -0.550 OA
ENDBRANCH   4   5
ENDBRANCH   3   4
ENDBRANCH   2   3
ENDBRANCH   1   2
BRANCH   1   8
ATOM      8  C   UNL     1     163.350 162.672 182.854  1.00  0.00     0.000 C 
BRANCH   8   9
ATOM      9  C   UNL     1     163.814 161.216 183.013  1.00  0.00     0.006 C 
BRANCH   9  10
ATOM     10  C   UNL     1     165.336 161.063 182.885  1.00  0.00     0.053 C 
BRANCH  10  11
ATOM     11  C   UNL     1     165.685 160.381 181.599  1.00  0.00     0.041 C 
ATOM     12  O   UNL     1     166.829 159.882 181.437  1.00  0.00    -0.550 OA
ATOM     13  O   UNL     1     164.730 160.253 180.599  1.00  0.00    -0.550 OA
ENDBRANCH  10  11
ENDBRANCH   9  10
ENDBRANCH   8   9
ENDBRANCH   1   8
TORSDOF 8
ENDMDL
MODEL 3
REMARK VINA RESULT:    -3.812      3.712      5.291
REMARK INTER + INTRA:          -6.087
REMARK INTER:                  -5.655
REMARK INTRA:                  -0.431
REMARK UNBOUND:                -0.492
REMARK SMILES O=C([O-])CCCCCCCC(=O)[O-]
REMARK SMILES IDX 7 1 6 2 5 3 4 4 2 5 1 6 3 7 8 8 9 9 10 10 11 11 12 12 13 13
REMARK H PARENT
REMARK Flexibility Score: inf
ROOT
ATOM      1  C   UNL     1     161.026 163.125 183.175  1.00  0.00     0.000 C 
ENDROOT
BRANCH   1   2
ATOM      2  C   UNL     1     160.666 161.690 183.580  1.00  0.00     0.000 C 
BRANCH   2   3
ATOM      3  C   UNL     1     160.700 160.750 182.369  1.00  0.00     0.006 C 
BRANCH   3   4
ATOM      4  C   UNL     1     162.006 160.909 181.586  1.00  0.00     0.053 C 
BRANCH   4   5
ATOM      5  C   UNL     1     161.787 160.616 180.135  1.00  0.00     0.041 C 
ATOM      6  O   UNL     1     162.711 160.109 179.445  1.00  0.00    -0.550 OA
ATOM      7  O   UNL     1     160.547 160.857 179.557  1.00  0.00    -0.550 OA
ENDBRANCH   4   5
ENDBRANCH   3   4
ENDBRANCH   2   3
ENDBRANCH   1   2
BRANCH   1   8
ATOM      8  C   UNL     1     159.887 163.773 182.373  1.00  0.00     0.000 C 
BRANCH   8   9
ATOM      9  C   UNL     1     160.388 164.848 181.396  1.00  0.00     0.006 C 
BRANCH   9  10
ATOM     10  C   UNL     1     161.289 165.888 182.074  1.00  0.00     0.053 C 
BRANCH  10  11
ATOM     11  C   UNL     1     160.593 167.211 182.149  1.00  0.00     0.041 C 
ATOM     12  O   UNL     1     160.692 167.922 183.184  1.00  0.00    -0.550 OA
ATOM     13  O   UNL     1     159.876 167.682 181.057  1.00  0.00    -0.550 OA
ENDBRANCH  10  11
ENDBRANCH   9  10
ENDBRANCH   8   9
ENDBRANCH   1   8
TORSDOF 8
ENDMDL
MODEL 4
REMARK VINA RESULT:    -3.803      0.838      6.322
REMARK INTER + INTRA:          -6.074
REMARK INTER:                  -5.567
REMARK INTRA:                  -0.508
REMARK UNBOUND:                -0.492
REMARK SMILES O=C([O-])CCCCCCCC(=O)[O-]
REMARK SMILES IDX 7 1 6 2 5 3 4 4 2 5 1 6 3 7 8 8 9 9 10 10 11 11 12 12 13 13
REMARK H PARENT
REMARK Flexibility Score: inf
ROOT
ATOM      1  C   UNL     1     163.741 162.022 182.967  1.00  0.00     0.000 C 
ENDROOT
BRANCH   1   2
ATOM      2  C   UNL     1     162.310 162.568 183.049  1.00  0.00     0.000 C 
BRANCH   2   3
ATOM      3  C   UNL     1     161.287 161.427 183.111  1.00  0.00     0.006 C 
BRANCH   3   4
ATOM      4  C   UNL     1     160.115 161.687 182.160  1.00  0.00     0.053 C 
BRANCH   4   5
ATOM      5  C   UNL     1     160.532 161.467 180.740  1.00  0.00     0.041 C 
ATOM      6  O   UNL     1     160.249 162.320 179.858  1.00  0.00    -0.550 OA
ATOM      7  O   UNL     1     161.275 160.344 180.401  1.00  0.00    -0.550 OA
ENDBRANCH   4   5
ENDBRANCH   3   4
ENDBRANCH   2   3
ENDBRANCH   1   2
BRANCH   1   8
ATOM      8  C   UNL     1     163.741 160.489 182.874  1.00  0.00     0.000 C 
BRANCH   8   9
ATOM      9  C   UNL     1     165.106 159.875 183.221  1.00  0.00     0.006 C 
BRANCH   9  10
ATOM     10  C   UNL     1     166.276 160.639 182.586  1.00  0.00     0.053 C 
BRANCH  10  11
ATOM     11  C   UNL     1     167.490 160.551 183.457  1.00  0.00     0.041 C 
ATOM     12  O   UNL     1     167.373 160.562 184.711  1.00  0.00    -0.550 OA
ATOM     13  O   UNL     1     168.747 160.407 182.885  1.00  0.00    -0.550 OA
ENDBRANCH  10  11
ENDBRANCH   9  10
ENDBRANCH   8   9
ENDBRANCH   1   8
TORSDOF 8
ENDMDL
MODEL 5
REMARK VINA RESULT:    -3.794      3.993      6.355
REMARK INTER + INTRA:          -6.061
REMARK INTER:                  -5.649
REMARK INTRA:                  -0.412
REMARK UNBOUND:                -0.492
REMARK SMILES O=C([O-])CCCCCCCC(=O)[O-]
REMARK SMILES IDX 7 1 6 2 5 3 4 4 2 5 1 6 3 7 8 8 9 9 10 10 11 11 12 12 13 13
REMARK H PARENT
REMARK Flexibility Score: inf
ROOT
ATOM      1  C   UNL     1     161.056 163.675 182.472  1.00  0.00     0.000 C 
ENDROOT
BRANCH   1   2
ATOM      2  C   UNL     1     159.876 164.341 181.752  1.00  0.00     0.000 C 
BRANCH   2   3
ATOM      3  C   UNL     1     160.305 165.654 181.087  1.00  0.00     0.006 C 
BRANCH   3   4
ATOM      4  C   UNL     1     161.300 166.416 181.968  1.00  0.00     0.053 C 
BRANCH   4   5
ATOM      5  C   UNL     1     160.736 167.742 182.370  1.00  0.00     0.041 C 
ATOM      6  O   UNL     1     159.877 168.310 181.647  1.00  0.00    -0.550 OA
ATOM      7  O   UNL     1     161.122 168.325 183.570  1.00  0.00    -0.550 OA
ENDBRANCH   4   5
ENDBRANCH   3   4
ENDBRANCH   2   3
ENDBRANCH   1   2
BRANCH   1   8
ATOM      8  C   UNL     1     160.570 162.563 183.413  1.00  0.00     0.000 C 
BRANCH   8   9
ATOM      9  C   UNL     1     160.996 161.163 182.944  1.00  0.00     0.006 C 
BRANCH   9  10
ATOM     10  C   UNL     1     160.031 160.565 181.912  1.00  0.00     0.053 C 
BRANCH  10  11
ATOM     11  C   UNL     1     160.603 160.682 180.534  1.00  0.00     0.041 C 
ATOM     12  O   UNL     1     159.876 161.051 179.575  1.00  0.00    -0.550 OA
ATOM     13  O   UNL     1     161.952 160.432 180.318  1.00  0.00    -0.550 OA
ENDBRANCH  10  11
ENDBRANCH   9  10
ENDBRANCH   8   9
ENDBRANCH   1   8
TORSDOF 8
ENDMDL
MODEL 6
REMARK VINA RESULT:    -3.780      2.609      5.305
REMARK INTER + INTRA:          -6.040
REMARK INTER:                  -5.139
REMARK INTRA:                  -0.901
REMARK UNBOUND:                -0.492
REMARK SMILES O=C([O-])CCCCCCCC(=O)[O-]
REMARK SMILES IDX 7 1 6 2 5 3 4 4 2 5 1 6 3 7 8 8 9 9 10 10 11 11 12 12 13 13
REMARK H PARENT
REMARK Flexibility Score: inf
ROOT
ATOM      1  C   UNL     1     161.192 162.649 183.666  1.00  0.00     0.000 C 
ENDROOT
BRANCH   1   2
ATOM      2  C   UNL     1     161.006 161.157 183.359  1.00  0.00     0.000 C 
BRANCH   2   3
ATOM      3  C   UNL     1     159.953 160.947 182.264  1.00  0.00     0.006 C 
BRANCH   3   4
ATOM      4  C   UNL     1     160.601 160.456 180.966  1.00  0.00     0.053 C 
BRANCH   4   5
ATOM      5  C   UNL     1     160.545 161.521 179.916  1.00  0.00     0.041 C 
ATOM      6  O   UNL     1     161.042 162.656 180.139  1.00  0.00    -0.550 OA
ATOM      7  O   UNL     1     159.988 161.243 178.674  1.00  0.00    -0.550 OA
ENDBRANCH   4   5
ENDBRANCH   3   4
ENDBRANCH   2   3
ENDBRANCH   1   2
BRANCH   1   8
ATOM      8  C   UNL     1     162.617 163.107 183.321  1.00  0.00     0.000 C 
BRANCH   8   9
ATOM      9  C   UNL     1     163.533 161.941 182.919  1.00  0.00     0.006 C 
BRANCH   9  10
ATOM     10  C   UNL     1     164.483 162.304 181.770  1.00  0.00     0.053 C 
BRANCH  10  11
ATOM     11  C   UNL     1     164.286 161.371 180.616  1.00  0.00     0.041 C 
ATOM     12  O   UNL     1     164.174 160.132 180.814  1.00  0.00    -0.550 OA
ATOM     13  O   UNL     1     164.176 161.874 179.326  1.00  0.00    -0.550 OA
ENDBRANCH  10  11
ENDBRANCH   9  10
ENDBRANCH   8   9
ENDBRANCH   1   8
TORSDOF 8
ENDMDL
MODEL 7
REMARK VINA RESULT:    -3.726      3.149      4.431
REMARK INTER + INTRA:          -5.960
REMARK INTER:                  -5.207
REMARK INTRA:                  -0.753
REMARK UNBOUND:                -0.492
REMARK SMILES O=C([O-])CCCCCCCC(=O)[O-]
REMARK SMILES IDX 7 1 6 2 5 3 4 4 2 5 1 6 3 7 8 8 9 9 10 10 11 11 12 12 13 13
REMARK H PARENT
REMARK Flexibility Score: inf
ROOT
ATOM      1  C   UNL     1     160.242 161.802 181.521  1.00  0.00     0.000 C 
ENDROOT
BRANCH   1   2
ATOM      2  C   UNL     1     160.269 161.373 182.993  1.00  0.00     0.000 C 
BRANCH   2   3
ATOM      3  C   UNL     1     161.036 162.388 183.849  1.00  0.00     0.006 C 
BRANCH   3   4
ATOM      4  C   UNL     1     161.982 163.230 182.988  1.00  0.00     0.053 C 
BRANCH   4   5
ATOM      5  C   UNL     1     163.406 162.855 183.255  1.00  0.00     0.041 C 
ATOM      6  O   UNL     1     164.208 163.707 183.721  1.00  0.00    -0.550 OA
ATOM      7  O   UNL     1     163.835 161.552 183.036  1.00  0.00    -0.550 OA
ENDBRANCH   4   5
ENDBRANCH   3   4
ENDBRANCH   2   3
ENDBRANCH   1   2
BRANCH   1   8
ATOM      8  C   UNL     1     160.228 160.579 180.592  1.00  0.00     0.000 C 
BRANCH   8   9
ATOM      9  C   UNL     1     161.607 160.283 179.983  1.00  0.00     0.006 C 
BRANCH   9  10
ATOM     10  C   UNL     1     162.385 161.558 179.633  1.00  0.00     0.053 C 
BRANCH  10  11
ATOM     11  C   UNL     1     163.840 161.251 179.460  1.00  0.00     0.041 C 
ATOM     12  O   UNL     1     164.712 162.051 179.887  1.00  0.00    -0.550 OA
ATOM     13  O   UNL     1     164.232 160.056 178.871  1.00  0.00    -0.550 OA
ENDBRANCH  10  11
ENDBRANCH   9  10
ENDBRANCH   8   9
ENDBRANCH   1   8
TORSDOF 8
ENDMDL
