MODEL 1
REMARK VINA RESULT:    -3.933      0.000      0.000
REMARK INTER + INTRA:          -4.607
REMARK INTER:                  -4.393
REMARK INTRA:                  -0.214
REMARK UNBOUND:                -0.214
REMARK SMILES CC(C)c1ccc(C(=O)[O-])cc1
REMARK SMILES IDX 7 1 6 2 11 3 5 4 12 5 4 6 8 7 9 8 10 9 2 10 1 11 3 12
REMARK H PARENT
REMARK Flexibility Score: inf
ROOT
ATOM      1  C   UNL     1      53.570  54.226  47.145  1.00  0.00    -0.003 A 
ATOM      2  C   UNL     1      53.359  55.009  48.291  1.00  0.00     0.010 A 
ATOM      3  C   UNL     1      53.292  52.849  47.199  1.00  0.00     0.010 A 
ATOM      4  C   UNL     1      52.880  54.429  49.468  1.00  0.00     0.004 A 
ATOM      5  C   UNL     1      52.813  52.269  48.376  1.00  0.00     0.004 A 
ATOM      6  C   UNL     1      52.601  53.054  49.526  1.00  0.00    -0.045 A 
ENDROOT
BRANCH   1   7
ATOM      7  C   UNL     1      54.078  54.845  45.900  1.00  0.00     0.071 C 
ATOM      8  O   UNL     1      55.194  54.505  45.424  1.00  0.00    -0.545 OA
ATOM      9  O   UNL     1      53.330  55.812  45.237  1.00  0.00    -0.545 OA
ENDBRANCH   1   7
BRANCH   6  10
ATOM     10  C   UNL     1      52.081  52.436  50.811  1.00  0.00     0.013 C 
ATOM     11  C   UNL     1      52.498  50.965  50.925  1.00  0.00     0.012 C 
ATOM     12  C   UNL     1      52.541  53.237  52.035  1.00  0.00     0.012 C 
ENDBRANCH   6  10
TORSDOF 2
ENDMDL
MODEL 2
REMARK VINA RESULT:    -3.802      2.994      5.236
REMARK INTER + INTRA:          -4.460
REMARK INTER:                  -4.250
REMARK INTRA:                  -0.210
REMARK UNBOUND:                -0.214
REMARK SMILES CC(C)c1ccc(C(=O)[O-])cc1
REMARK SMILES IDX 7 1 6 2 11 3 5 4 12 5 4 6 8 7 9 8 10 9 2 10 1 11 3 12
REMARK H PARENT
REMARK Flexibility Score: inf
ROOT
ATOM      1  C   UNL     1      52.609  53.216  49.548  1.00  0.00    -0.003 A 
ATOM      2  C   UNL     1      52.776  52.613  48.291  1.00  0.00     0.010 A 
ATOM      3  C   UNL     1      52.941  54.573  49.702  1.00  0.00     0.010 A 
ATOM      4  C   UNL     1      53.266  53.350  47.210  1.00  0.00     0.004 A 
ATOM      5  C   UNL     1      53.430  55.310  48.621  1.00  0.00     0.004 A 
ATOM      6  C   UNL     1      53.598  54.706  47.361  1.00  0.00    -0.045 A 
ENDROOT
BRANCH   1   7
ATOM      7  C   UNL     1      52.091  52.432  50.691  1.00  0.00     0.071 C 
ATOM      8  O   UNL     1      51.513  53.004  51.652  1.00  0.00    -0.545 OA
ATOM      9  O   UNL     1      52.235  51.049  50.720  1.00  0.00    -0.545 OA
ENDBRANCH   1   7
BRANCH   6  10
ATOM     10  C   UNL     1      54.129  55.495  46.177  1.00  0.00     0.013 C 
ATOM     11  C   UNL     1      55.184  54.692  45.407  1.00  0.00     0.012 C 
ATOM     12  C   UNL     1      52.990  55.939  45.253  1.00  0.00     0.012 C 
ENDBRANCH   6  10
TORSDOF 2
ENDMDL
MODEL 3
REMARK VINA RESULT:    -3.802      2.999      5.051
REMARK INTER + INTRA:          -4.460
REMARK INTER:                  -4.252
REMARK INTRA:                  -0.208
REMARK UNBOUND:                -0.214
REMARK SMILES CC(C)c1ccc(C(=O)[O-])cc1
REMARK SMILES IDX 7 1 6 2 11 3 5 4 12 5 4 6 8 7 9 8 10 9 2 10 1 11 3 12
REMARK H PARENT
REMARK Flexibility Score: inf
ROOT
ATOM      1  C   UNL     1      52.616  53.218  49.569  1.00  0.00    -0.003 A 
ATOM      2  C   UNL     1      52.960  54.571  49.722  1.00  0.00     0.010 A 
ATOM      3  C   UNL     1      52.775  52.612  48.310  1.00  0.00     0.010 A 
ATOM      4  C   UNL     1      53.453  55.304  48.639  1.00  0.00     0.004 A 
ATOM      5  C   UNL     1      53.268  53.346  47.228  1.00  0.00     0.004 A 
ATOM      6  C   UNL     1      53.613  54.702  47.381  1.00  0.00    -0.045 A 
ENDROOT
BRANCH   1   7
ATOM      7  C   UNL     1      52.095  52.445  50.718  1.00  0.00     0.071 C 
ATOM      8  O   UNL     1      51.496  53.025  51.662  1.00  0.00    -0.545 OA
ATOM      9  O   UNL     1      52.260  51.065  50.772  1.00  0.00    -0.545 OA
ENDBRANCH   1   7
BRANCH   6  10
ATOM     10  C   UNL     1      54.148  55.510  46.213  1.00  0.00     0.013 C 
ATOM     11  C   UNL     1      55.201  54.718  45.430  1.00  0.00     0.012 C 
ATOM     12  C   UNL     1      53.013  55.976  45.295  1.00  0.00     0.012 C 
ENDBRANCH   6  10
TORSDOF 2
ENDMDL
MODEL 4
REMARK VINA RESULT:    -3.509      2.985      5.288
REMARK INTER + INTRA:          -4.133
REMARK INTER:                  -3.924
REMARK INTRA:                  -0.209
REMARK UNBOUND:                -0.214
REMARK SMILES CC(C)c1ccc(C(=O)[O-])cc1
REMARK SMILES IDX 7 1 6 2 11 3 5 4 12 5 4 6 8 7 9 8 10 9 2 10 1 11 3 12
REMARK H PARENT
REMARK Flexibility Score: inf
ROOT
ATOM      1  C   UNL     1      54.030  52.955  47.513  1.00  0.00    -0.003 A 
ATOM      2  C   UNL     1      55.056  53.185  46.583  1.00  0.00     0.010 A 
ATOM      3  C   UNL     1      52.961  53.866  47.586  1.00  0.00     0.010 A 
ATOM      4  C   UNL     1      55.017  54.302  45.743  1.00  0.00     0.004 A 
ATOM      5  C   UNL     1      52.921  54.981  46.746  1.00  0.00     0.004 A 
ATOM      6  C   UNL     1      53.951  55.212  45.814  1.00  0.00    -0.045 A 
ENDROOT
BRANCH   1   7
ATOM      7  C   UNL     1      54.075  51.772  48.400  1.00  0.00     0.071 C 
ATOM      8  O   UNL     1      53.197  51.601  49.286  1.00  0.00    -0.545 OA
ATOM      9  O   UNL     1      55.091  50.831  48.269  1.00  0.00    -0.545 OA
ENDBRANCH   1   7
BRANCH   6  10
ATOM     10  C   UNL     1      53.920  56.421  44.896  1.00  0.00     0.013 C 
ATOM     11  C   UNL     1      52.572  56.532  44.175  1.00  0.00     0.012 C 
ATOM     12  C   UNL     1      54.244  57.707  45.665  1.00  0.00     0.012 C 
ENDBRANCH   6  10
TORSDOF 2
ENDMDL
MODEL 5
REMARK VINA RESULT:    -3.500      9.132     11.536
REMARK INTER + INTRA:          -4.124
REMARK INTER:                  -3.922
REMARK INTRA:                  -0.202
REMARK UNBOUND:                -0.214
REMARK SMILES CC(C)c1ccc(C(=O)[O-])cc1
REMARK SMILES IDX 7 1 6 2 11 3 5 4 12 5 4 6 8 7 9 8 10 9 2 10 1 11 3 12
REMARK H PARENT
REMARK Flexibility Score: inf
ROOT
ATOM      1  C   UNL     1      52.262  44.818  52.884  1.00  0.00    -0.003 A 
ATOM      2  C   UNL     1      53.285  43.857  52.852  1.00  0.00     0.010 A 
ATOM      3  C   UNL     1      51.129  44.580  53.682  1.00  0.00     0.010 A 
ATOM      4  C   UNL     1      53.179  42.681  53.602  1.00  0.00     0.004 A 
ATOM      5  C   UNL     1      51.023  43.406  54.432  1.00  0.00     0.004 A 
ATOM      6  C   UNL     1      52.049  42.442  54.399  1.00  0.00    -0.045 A 
ENDROOT
BRANCH   1   7
ATOM      7  C   UNL     1      52.378  46.060  52.089  1.00  0.00     0.071 C 
ATOM      8  O   UNL     1      51.910  46.120  50.921  1.00  0.00    -0.545 OA
ATOM      9  O   UNL     1      53.006  47.181  52.620  1.00  0.00    -0.545 OA
ENDBRANCH   1   7
BRANCH   6  10
ATOM     10  C   UNL     1      51.946  41.162  55.208  1.00  0.00     0.013 C 
ATOM     11  C   UNL     1      52.169  39.930  54.323  1.00  0.00     0.012 C 
ATOM     12  C   UNL     1      52.921  41.175  56.391  1.00  0.00     0.012 C 
ENDBRANCH   6  10
TORSDOF 2
ENDMDL
MODEL 6
REMARK VINA RESULT:    -3.486      1.353      2.460
REMARK INTER + INTRA:          -4.107
REMARK INTER:                  -3.896
REMARK INTRA:                  -0.211
REMARK UNBOUND:                -0.214
REMARK SMILES CC(C)c1ccc(C(=O)[O-])cc1
REMARK SMILES IDX 7 1 6 2 11 3 5 4 12 5 4 6 8 7 9 8 10 9 2 10 1 11 3 12
REMARK H PARENT
REMARK Flexibility Score: inf
ROOT
ATOM      1  C   UNL     1      53.172  55.514  46.692  1.00  0.00    -0.003 A 
ATOM      2  C   UNL     1      53.120  54.154  47.037  1.00  0.00     0.010 A 
ATOM      3  C   UNL     1      53.188  56.477  47.716  1.00  0.00     0.010 A 
ATOM      4  C   UNL     1      53.084  53.764  48.379  1.00  0.00     0.004 A 
ATOM      5  C   UNL     1      53.154  56.086  49.056  1.00  0.00     0.004 A 
ATOM      6  C   UNL     1      53.101  54.723  49.403  1.00  0.00    -0.045 A 
ENDROOT
BRANCH   1   7
ATOM      7  C   UNL     1      53.209  55.923  45.270  1.00  0.00     0.071 C 
ATOM      8  O   UNL     1      54.296  55.935  44.634  1.00  0.00    -0.545 OA
ATOM      9  O   UNL     1      52.042  56.303  44.616  1.00  0.00    -0.545 OA
ENDBRANCH   1   7
BRANCH   6  10
ATOM     10  C   UNL     1      53.062  54.285  50.856  1.00  0.00     0.013 C 
ATOM     11  C   UNL     1      52.843  55.482  51.788  1.00  0.00     0.012 C 
ATOM     12  C   UNL     1      51.995  53.208  51.081  1.00  0.00     0.012 C 
ENDBRANCH   6  10
TORSDOF 2
ENDMDL
MODEL 7
REMARK VINA RESULT:    -3.438      9.287     11.736
REMARK INTER + INTRA:          -4.054
REMARK INTER:                  -3.845
REMARK INTRA:                  -0.209
REMARK UNBOUND:                -0.214
REMARK SMILES CC(C)c1ccc(C(=O)[O-])cc1
REMARK SMILES IDX 7 1 6 2 11 3 5 4 12 5 4 6 8 7 9 8 10 9 2 10 1 11 3 12
REMARK H PARENT
REMARK Flexibility Score: inf
ROOT
ATOM      1  C   UNL     1      52.341  43.110  53.982  1.00  0.00    -0.003 A 
ATOM      2  C   UNL     1      51.518  44.242  54.084  1.00  0.00     0.010 A 
ATOM      3  C   UNL     1      53.203  42.991  52.877  1.00  0.00     0.010 A 
ATOM      4  C   UNL     1      51.554  45.237  53.103  1.00  0.00     0.004 A 
ATOM      5  C   UNL     1      53.239  43.986  51.897  1.00  0.00     0.004 A 
ATOM      6  C   UNL     1      52.414  45.122  51.999  1.00  0.00    -0.045 A 
ENDROOT
BRANCH   1   7
ATOM      7  C   UNL     1      52.299  42.059  55.022  1.00  0.00     0.071 C 
ATOM      8  O   UNL     1      52.876  42.229  56.129  1.00  0.00    -0.545 OA
ATOM      9  O   UNL     1      51.622  40.866  54.792  1.00  0.00    -0.545 OA
ENDBRANCH   1   7
BRANCH   6  10
ATOM     10  C   UNL     1      52.443  46.210  50.941  1.00  0.00     0.013 C 
ATOM     11  C   UNL     1      52.735  47.579  51.566  1.00  0.00     0.012 C 
ATOM     12  C   UNL     1      53.453  45.880  49.836  1.00  0.00     0.012 C 
ENDBRANCH   6  10
TORSDOF 2
ENDMDL
MODEL 8
REMARK VINA RESULT:    -3.379      3.081      5.392
REMARK INTER + INTRA:          -3.987
REMARK INTER:                  -3.787
REMARK INTRA:                  -0.201
REMARK UNBOUND:                -0.214
REMARK SMILES CC(C)c1ccc(C(=O)[O-])cc1
REMARK SMILES IDX 7 1 6 2 11 3 5 4 12 5 4 6 8 7 9 8 10 9 2 10 1 11 3 12
REMARK H PARENT
REMARK Flexibility Score: inf
ROOT
ATOM      1  C   UNL     1      53.133  55.396  49.126  1.00  0.00    -0.003 A 
ATOM      2  C   UNL     1      53.150  56.771  48.842  1.00  0.00     0.010 A 
ATOM      3  C   UNL     1      53.099  54.481  48.059  1.00  0.00     0.010 A 
ATOM      4  C   UNL     1      53.133  57.224  47.520  1.00  0.00     0.004 A 
ATOM      5  C   UNL     1      53.083  54.933  46.738  1.00  0.00     0.004 A 
ATOM      6  C   UNL     1      53.100  56.312  46.453  1.00  0.00    -0.045 A 
ENDROOT
BRANCH   1   7
ATOM      7  C   UNL     1      53.150  54.922  50.527  1.00  0.00     0.071 C 
ATOM      8  O   UNL     1      54.108  54.224  50.956  1.00  0.00    -0.545 OA
ATOM      9  O   UNL     1      52.108  55.238  51.391  1.00  0.00    -0.545 OA
ENDBRANCH   1   7
BRANCH   6  10
ATOM     10  C   UNL     1      53.082  56.817  45.021  1.00  0.00     0.013 C 
ATOM     11  C   UNL     1      54.326  56.351  44.256  1.00  0.00     0.012 C 
ATOM     12  C   UNL     1      51.798  56.391  44.300  1.00  0.00     0.012 C 
ENDBRANCH   6  10
TORSDOF 2
ENDMDL
MODEL 9
REMARK VINA RESULT:    -3.365     12.959     13.934
REMARK INTER + INTRA:          -3.973
REMARK INTER:                  -3.766
REMARK INTRA:                  -0.207
REMARK UNBOUND:                -0.214
REMARK SMILES CC(C)c1ccc(C(=O)[O-])cc1
REMARK SMILES IDX 7 1 6 2 11 3 5 4 12 5 4 6 8 7 9 8 10 9 2 10 1 11 3 12
REMARK H PARENT
REMARK Flexibility Score: inf
ROOT
ATOM      1  C   UNL     1      51.256  51.313  61.240  1.00  0.00    -0.003 A 
ATOM      2  C   UNL     1      50.072  50.611  61.518  1.00  0.00     0.010 A 
ATOM      3  C   UNL     1      52.445  50.592  61.036  1.00  0.00     0.010 A 
ATOM      4  C   UNL     1      50.077  49.215  61.592  1.00  0.00     0.004 A 
ATOM      5  C   UNL     1      52.449  49.197  61.109  1.00  0.00     0.004 A 
ATOM      6  C   UNL     1      51.263  48.492  61.388  1.00  0.00    -0.045 A 
ENDROOT
BRANCH   1   7
ATOM      7  C   UNL     1      51.247  52.791  61.163  1.00  0.00     0.071 C 
ATOM      8  O   UNL     1      50.707  53.477  62.071  1.00  0.00    -0.545 OA
ATOM      9  O   UNL     1      51.835  53.444  60.086  1.00  0.00    -0.545 OA
ENDBRANCH   1   7
BRANCH   6  10
ATOM     10  C   UNL     1      51.253  46.976  61.472  1.00  0.00     0.013 C 
ATOM     11  C   UNL     1      52.423  46.373  60.685  1.00  0.00     0.012 C 
ATOM     12  C   UNL     1      51.264  46.502  62.929  1.00  0.00     0.012 C 
ENDBRANCH   6  10
TORSDOF 2
ENDMDL
