MODEL 1
REMARK VINA RESULT:    -2.931      0.000      0.000
REMARK INTER + INTRA:          -3.199
REMARK INTER:                  -3.102
REMARK INTRA:                  -0.097
REMARK UNBOUND:                -0.097
REMARK SMILES C=C(C)[C@@H]1CC=C(C)C(=O)C1
REMARK SMILES IDX 8 1 7 2 6 3 5 4 4 5 11 6 9 7 10 8 2 9 1 10 3 11
REMARK H PARENT
REMARK Flexibility Score: inf
ROOT
ATOM      1  C   UNL     1       9.436  29.878 -25.172  1.00  0.00     0.048 C 
ATOM      2  C   UNL     1       8.138  30.634 -25.118  1.00  0.00    -0.012 C 
ATOM      3  C   UNL     1       7.255  30.520 -26.125  1.00  0.00    -0.019 C 
ATOM      4  C   UNL     1       5.933  31.241 -26.113  1.00  0.00     0.036 C 
ATOM      5  C   UNL     1       6.045  32.594 -25.386  1.00  0.00     0.025 C 
ATOM      6  C   UNL     1       6.612  32.392 -23.968  1.00  0.00     0.089 C 
ATOM      7  C   UNL     1       7.889  31.598 -24.016  1.00  0.00     0.158 C 
ATOM      8  O   UNL     1       8.732  31.733 -23.089  1.00  0.00    -0.295 OA
ENDROOT
BRANCH   5   9
ATOM      9  C   UNL     1       4.712  33.330 -25.358  1.00  0.00    -0.077 C 
ATOM     10  C   UNL     1       4.556  34.468 -24.660  1.00  0.00     0.008 C 
ATOM     11  C   UNL     1       3.533  32.786 -26.122  1.00  0.00     0.039 C 
ENDBRANCH   5   9
TORSDOF 1
ENDMDL
MODEL 2
REMARK VINA RESULT:    -2.452      3.905      6.832
REMARK INTER + INTRA:          -2.692
REMARK INTER:                  -2.597
REMARK INTRA:                  -0.096
REMARK UNBOUND:                -0.097
REMARK SMILES C=C(C)[C@@H]1CC=C(C)C(=O)C1
REMARK SMILES IDX 8 1 7 2 6 3 5 4 4 5 11 6 9 7 10 8 2 9 1 10 3 11
REMARK H PARENT
REMARK Flexibility Score: inf
ROOT
ATOM      1  C   UNL     1       0.877  37.722 -23.418  1.00  0.00     0.048 C 
ATOM      2  C   UNL     1       1.623  36.500 -23.877  1.00  0.00    -0.012 C 
ATOM      3  C   UNL     1       2.410  35.834 -23.015  1.00  0.00    -0.019 C 
ATOM      4  C   UNL     1       3.165  34.594 -23.417  1.00  0.00     0.036 C 
ATOM      5  C   UNL     1       3.585  34.656 -24.897  1.00  0.00     0.025 C 
ATOM      6  C   UNL     1       2.356  34.907 -25.792  1.00  0.00     0.089 C 
ATOM      7  C   UNL     1       1.585  36.104 -25.307  1.00  0.00     0.158 C 
ATOM      8  O   UNL     1       0.875  36.750 -26.125  1.00  0.00    -0.295 OA
ENDROOT
BRANCH   5   9
ATOM      9  C   UNL     1       4.341  33.404 -25.321  1.00  0.00    -0.077 C 
ATOM     10  C   UNL     1       3.770  32.473 -26.104  1.00  0.00     0.008 C 
ATOM     11  C   UNL     1       5.760  33.186 -24.861  1.00  0.00     0.039 C 
ENDBRANCH   5   9
TORSDOF 1
ENDMDL
MODEL 3
REMARK VINA RESULT:    -2.124      2.011      4.705
REMARK INTER + INTRA:          -2.346
REMARK INTER:                  -2.249
REMARK INTRA:                  -0.096
REMARK UNBOUND:                -0.097
REMARK SMILES C=C(C)[C@@H]1CC=C(C)C(=O)C1
REMARK SMILES IDX 8 1 7 2 6 3 5 4 4 5 11 6 9 7 10 8 2 9 1 10 3 11
REMARK H PARENT
REMARK Flexibility Score: inf
ROOT
ATOM      1  C   UNL     1       4.339  34.206 -24.381  1.00  0.00     0.048 C 
ATOM      2  C   UNL     1       5.265  33.053 -24.653  1.00  0.00    -0.012 C 
ATOM      3  C   UNL     1       6.502  33.051 -24.130  1.00  0.00    -0.019 C 
ATOM      4  C   UNL     1       7.463  31.913 -24.355  1.00  0.00     0.036 C 
ATOM      5  C   UNL     1       7.251  31.275 -25.741  1.00  0.00     0.025 C 
ATOM      6  C   UNL     1       5.783  30.841 -25.910  1.00  0.00     0.089 C 
ATOM      7  C   UNL     1       4.854  31.982 -25.596  1.00  0.00     0.158 C 
ATOM      8  O   UNL     1       3.706  32.001 -26.117  1.00  0.00    -0.295 OA
ENDROOT
BRANCH   5   9
ATOM      9  C   UNL     1       8.210  30.116 -25.979  1.00  0.00    -0.077 C 
ATOM     10  C   UNL     1       7.768  28.850 -26.069  1.00  0.00     0.008 C 
ATOM     11  C   UNL     1       9.688  30.374 -26.119  1.00  0.00     0.039 C 
ENDBRANCH   5   9
TORSDOF 1
ENDMDL
MODEL 4
REMARK VINA RESULT:    -1.605      1.377      2.167
REMARK INTER + INTRA:          -1.796
REMARK INTER:                  -1.699
REMARK INTRA:                  -0.097
REMARK UNBOUND:                -0.097
REMARK SMILES C=C(C)[C@@H]1CC=C(C)C(=O)C1
REMARK SMILES IDX 8 1 7 2 6 3 5 4 4 5 11 6 9 7 10 8 2 9 1 10 3 11
REMARK H PARENT
REMARK Flexibility Score: inf
ROOT
ATOM      1  C   UNL     1       7.415  30.792 -25.594  1.00  0.00     0.048 C 
ATOM      2  C   UNL     1       6.239  31.688 -25.322  1.00  0.00    -0.012 C 
ATOM      3  C   UNL     1       5.163  31.642 -26.125  1.00  0.00    -0.019 C 
ATOM      4  C   UNL     1       3.951  32.504 -25.887  1.00  0.00     0.036 C 
ATOM      5  C   UNL     1       4.346  33.857 -25.267  1.00  0.00     0.025 C 
ATOM      6  C   UNL     1       5.166  33.637 -23.982  1.00  0.00     0.089 C 
ATOM      7  C   UNL     1       6.318  32.706 -24.243  1.00  0.00     0.158 C 
ATOM      8  O   UNL     1       7.342  32.775 -23.511  1.00  0.00    -0.295 OA
ENDROOT
BRANCH   5   9
ATOM      9  C   UNL     1       3.128  34.736 -25.012  1.00  0.00    -0.077 C 
ATOM     10  C   UNL     1       2.913  35.301 -23.812  1.00  0.00     0.008 C 
ATOM     11  C   UNL     1       2.133  34.987 -26.115  1.00  0.00     0.039 C 
ENDBRANCH   5   9
TORSDOF 1
ENDMDL
MODEL 5
REMARK VINA RESULT:    -1.598      2.127      3.158
REMARK INTER + INTRA:          -1.789
REMARK INTER:                  -1.699
REMARK INTRA:                  -0.089
REMARK UNBOUND:                -0.097
REMARK SMILES C=C(C)[C@@H]1CC=C(C)C(=O)C1
REMARK SMILES IDX 8 1 7 2 6 3 5 4 4 5 11 6 9 7 10 8 2 9 1 10 3 11
REMARK H PARENT
REMARK Flexibility Score: inf
ROOT
ATOM      1  C   UNL     1       7.265  30.933 -25.083  1.00  0.00     0.048 C 
ATOM      2  C   UNL     1       6.188  31.977 -25.179  1.00  0.00    -0.012 C 
ATOM      3  C   UNL     1       6.406  33.211 -24.693  1.00  0.00    -0.019 C 
ATOM      4  C   UNL     1       5.369  34.299 -24.780  1.00  0.00     0.036 C 
ATOM      5  C   UNL     1       3.946  33.716 -24.690  1.00  0.00     0.025 C 
ATOM      6  C   UNL     1       3.744  32.631 -25.764  1.00  0.00     0.089 C 
ATOM      7  C   UNL     1       4.846  31.609 -25.697  1.00  0.00     0.158 C 
ATOM      8  O   UNL     1       4.628  30.442 -26.120  1.00  0.00    -0.295 OA
ENDROOT
BRANCH   5   9
ATOM      9  C   UNL     1       2.885  34.805 -24.787  1.00  0.00    -0.077 C 
ATOM     10  C   UNL     1       2.453  35.459 -23.695  1.00  0.00     0.008 C 
ATOM     11  C   UNL     1       2.296  35.170 -26.125  1.00  0.00     0.039 C 
ENDBRANCH   5   9
TORSDOF 1
ENDMDL
MODEL 6
REMARK VINA RESULT:    -1.579     17.415     18.366
REMARK INTER + INTRA:          -1.768
REMARK INTER:                  -1.673
REMARK INTRA:                  -0.095
REMARK UNBOUND:                -0.097
REMARK SMILES C=C(C)[C@@H]1CC=C(C)C(=O)C1
REMARK SMILES IDX 8 1 7 2 6 3 5 4 4 5 11 6 9 7 10 8 2 9 1 10 3 11
REMARK H PARENT
REMARK Flexibility Score: inf
ROOT
ATOM      1  C   UNL     1       5.978  24.512  -5.954  1.00  0.00     0.048 C 
ATOM      2  C   UNL     1       5.475  24.226  -7.341  1.00  0.00    -0.012 C 
ATOM      3  C   UNL     1       5.014  25.229  -8.106  1.00  0.00    -0.019 C 
ATOM      4  C   UNL     1       4.516  25.001  -9.508  1.00  0.00     0.036 C 
ATOM      5  C   UNL     1       3.861  23.614  -9.646  1.00  0.00     0.025 C 
ATOM      6  C   UNL     1       4.838  22.514  -9.187  1.00  0.00     0.089 C 
ATOM      7  C   UNL     1       5.375  22.823  -7.816  1.00  0.00     0.158 C 
ATOM      8  O   UNL     1       5.774  21.876  -7.085  1.00  0.00    -0.295 OA
ENDROOT
BRANCH   5   9
ATOM      9  C   UNL     1       3.362  23.365 -11.062  1.00  0.00    -0.077 C 
ATOM     10  C   UNL     1       4.069  22.626 -11.934  1.00  0.00     0.008 C 
ATOM     11  C   UNL     1       2.050  23.953 -11.515  1.00  0.00     0.039 C 
ENDBRANCH   5   9
TORSDOF 1
ENDMDL
MODEL 7
REMARK VINA RESULT:    -1.502      1.723      4.313
REMARK INTER + INTRA:          -1.687
REMARK INTER:                  -1.591
REMARK INTRA:                  -0.096
REMARK UNBOUND:                -0.097
REMARK SMILES C=C(C)[C@@H]1CC=C(C)C(=O)C1
REMARK SMILES IDX 8 1 7 2 6 3 5 4 4 5 11 6 9 7 10 8 2 9 1 10 3 11
REMARK H PARENT
REMARK Flexibility Score: inf
ROOT
ATOM      1  C   UNL     1       3.038  33.968 -25.577  1.00  0.00     0.048 C 
ATOM      2  C   UNL     1       4.360  33.254 -25.531  1.00  0.00    -0.012 C 
ATOM      3  C   UNL     1       4.494  32.056 -26.125  1.00  0.00    -0.019 C 
ATOM      4  C   UNL     1       5.800  31.306 -26.124  1.00  0.00     0.036 C 
ATOM      5  C   UNL     1       6.594  31.577 -24.833  1.00  0.00     0.025 C 
ATOM      6  C   UNL     1       6.792  33.092 -24.635  1.00  0.00     0.089 C 
ATOM      7  C   UNL     1       5.475  33.813 -24.725  1.00  0.00     0.158 C 
ATOM      8  O   UNL     1       5.339  34.919 -24.136  1.00  0.00    -0.295 OA
ENDROOT
BRANCH   5   9
ATOM      9  C   UNL     1       7.922  30.832 -24.822  1.00  0.00    -0.077 C 
ATOM     10  C   UNL     1       8.745  30.882 -23.760  1.00  0.00     0.008 C 
ATOM     11  C   UNL     1       8.341  30.016 -26.019  1.00  0.00     0.039 C 
ENDBRANCH   5   9
TORSDOF 1
ENDMDL
MODEL 8
REMARK VINA RESULT:    -1.212     11.439     12.553
REMARK INTER + INTRA:          -1.380
REMARK INTER:                  -1.286
REMARK INTRA:                  -0.094
REMARK UNBOUND:                -0.097
REMARK SMILES C=C(C)[C@@H]1CC=C(C)C(=O)C1
REMARK SMILES IDX 8 1 7 2 6 3 5 4 4 5 11 6 9 7 10 8 2 9 1 10 3 11
REMARK H PARENT
REMARK Flexibility Score: inf
ROOT
ATOM      1  C   UNL     1      13.612  36.108 -18.285  1.00  0.00     0.048 C 
ATOM      2  C   UNL     1      12.907  37.173 -17.492  1.00  0.00    -0.012 C 
ATOM      3  C   UNL     1      12.084  38.035 -18.113  1.00  0.00    -0.019 C 
ATOM      4  C   UNL     1      11.339  39.109 -17.365  1.00  0.00     0.036 C 
ATOM      5  C   UNL     1      12.155  39.613 -16.160  1.00  0.00     0.025 C 
ATOM      6  C   UNL     1      12.549  38.434 -15.250  1.00  0.00     0.089 C 
ATOM      7  C   UNL     1      13.216  37.348 -16.050  1.00  0.00     0.158 C 
ATOM      8  O   UNL     1      14.016  36.563 -15.473  1.00  0.00    -0.295 OA
ENDROOT
BRANCH   5   9
ATOM      9  C   UNL     1      11.409  40.693 -15.387  1.00  0.00    -0.077 C 
ATOM     10  C   UNL     1      10.116  40.547 -15.052  1.00  0.00     0.008 C 
ATOM     11  C   UNL     1      12.119  41.959 -14.983  1.00  0.00     0.039 C 
ENDBRANCH   5   9
TORSDOF 1
ENDMDL
