MODEL 1
REMARK VINA RESULT:    -7.683      0.000      0.000
REMARK INTER + INTRA:          -7.968
REMARK INTER:                  -8.132
REMARK INTRA:                   0.164
REMARK UNBOUND:                 0.164
REMARK SMILES CC1=CC[C@@H]2[C@H]3[C@@H](C(C)C)CC[C@]2(C)[C@@H]13
REMARK SMILES IDX 1 1 2 2 3 3 4 4 5 5 6 6 15 7 13 8 12 9 11 10 7 11 14 12 8 13
REMARK SMILES IDX 9 14 10 15
REMARK H PARENT
REMARK Flexibility Score: inf
ROOT
ATOM      1  C   UNL     1      -2.376 -15.169  12.790  1.00  0.00     0.039 C 
ATOM      2  C   UNL     1      -2.416 -14.710  11.363  1.00  0.00    -0.073 C 
ATOM      3  C   UNL     1      -2.189 -13.412  11.034  1.00  0.00    -0.027 C 
ATOM      4  C   UNL     1      -2.219 -13.007   9.556  1.00  0.00     0.031 C 
ATOM      5  C   UNL     1      -2.559 -14.241   8.659  1.00  0.00     0.003 C 
ATOM      6  C   UNL     1      -3.762 -14.963   9.306  1.00  0.00     0.004 C 
ATOM      7  C   UNL     1      -2.731 -15.675  10.216  1.00  0.00     0.024 C 
ATOM      8  C   UNL     1      -1.723 -15.479   9.059  1.00  0.00    -0.022 C 
ATOM      9  C   UNL     1      -1.907 -16.583   7.979  1.00  0.00     0.008 C 
ATOM     10  C   UNL     1      -3.386 -17.023   7.813  1.00  0.00     0.005 C 
ATOM     11  C   UNL     1      -4.429 -15.964   8.312  1.00  0.00    -0.005 C 
ATOM     12  C   UNL     1      -0.225 -15.285   9.398  1.00  0.00     0.012 C 
ENDROOT
BRANCH  11  13
ATOM     13  C   UNL     1      -5.165 -15.266   7.119  1.00  0.00    -0.014 C 
ATOM     14  C   UNL     1      -4.639 -15.716   5.743  1.00  0.00     0.007 C 
ATOM     15  C   UNL     1      -5.036 -13.734   7.213  1.00  0.00     0.007 C 
ENDBRANCH  11  13
TORSDOF 1
ENDMDL
MODEL 2
REMARK VINA RESULT:    -7.448      1.547      4.962
REMARK INTER + INTRA:          -7.720
REMARK INTER:                  -7.441
REMARK INTRA:                  -0.278
REMARK UNBOUND:                 0.164
REMARK SMILES CC1=CC[C@@H]2[C@H]3[C@@H](C(C)C)CC[C@]2(C)[C@@H]13
REMARK SMILES IDX 1 1 2 2 3 3 4 4 5 5 6 6 15 7 13 8 12 9 11 10 7 11 14 12 8 13
REMARK SMILES IDX 9 14 10 15
REMARK H PARENT
REMARK Flexibility Score: inf
ROOT
ATOM      1  C   UNL     1      -5.796 -16.500   8.474  1.00  0.00     0.039 C 
ATOM      2  C   UNL     1      -4.366 -16.529   8.922  1.00  0.00    -0.073 C 
ATOM      3  C   UNL     1      -3.438 -17.278   8.271  1.00  0.00    -0.027 C 
ATOM      4  C   UNL     1      -1.986 -17.248   8.760  1.00  0.00     0.031 C 
ATOM      5  C   UNL     1      -1.852 -16.325  10.014  1.00  0.00     0.003 C 
ATOM      6  C   UNL     1      -3.004 -16.689  10.978  1.00  0.00     0.004 C 
ATOM      7  C   UNL     1      -3.887 -15.733  10.140  1.00  0.00     0.024 C 
ATOM      8  C   UNL     1      -2.579 -14.976   9.806  1.00  0.00    -0.022 C 
ATOM      9  C   UNL     1      -2.194 -14.011  10.963  1.00  0.00     0.008 C 
ATOM     10  C   UNL     1      -2.577 -14.563  12.362  1.00  0.00     0.005 C 
ATOM     11  C   UNL     1      -2.751 -16.120  12.410  1.00  0.00    -0.005 C 
ATOM     12  C   UNL     1      -2.454 -14.270   8.434  1.00  0.00     0.012 C 
ENDROOT
BRANCH  11  13
ATOM     13  C   UNL     1      -1.566 -16.815  13.160  1.00  0.00    -0.014 C 
ATOM     14  C   UNL     1      -1.581 -18.348  13.019  1.00  0.00     0.007 C 
ATOM     15  C   UNL     1      -1.582 -16.463  14.660  1.00  0.00     0.007 C 
ENDBRANCH  11  13
TORSDOF 1
ENDMDL
MODEL 3
REMARK VINA RESULT:    -7.412      1.266      2.105
REMARK INTER + INTRA:          -7.681
REMARK INTER:                  -7.406
REMARK INTRA:                  -0.276
REMARK UNBOUND:                 0.164
REMARK SMILES CC1=CC[C@@H]2[C@H]3[C@@H](C(C)C)CC[C@]2(C)[C@@H]13
REMARK SMILES IDX 1 1 2 2 3 3 4 4 5 5 6 6 15 7 13 8 12 9 11 10 7 11 14 12 8 13
REMARK SMILES IDX 9 14 10 15
REMARK H PARENT
REMARK Flexibility Score: inf
ROOT
ATOM      1  C   UNL     1      -2.396 -15.685  12.109  1.00  0.00     0.039 C 
ATOM      2  C   UNL     1      -2.292 -15.678  10.612  1.00  0.00    -0.073 C 
ATOM      3  C   UNL     1      -1.133 -15.345   9.988  1.00  0.00    -0.027 C 
ATOM      4  C   UNL     1      -1.081 -15.380   8.456  1.00  0.00     0.031 C 
ATOM      5  C   UNL     1      -2.472 -15.789   7.873  1.00  0.00     0.003 C 
ATOM      6  C   UNL     1      -3.543 -14.953   8.609  1.00  0.00     0.004 C 
ATOM      7  C   UNL     1      -3.488 -16.028   9.721  1.00  0.00     0.024 C 
ATOM      8  C   UNL     1      -3.058 -17.015   8.610  1.00  0.00    -0.022 C 
ATOM      9  C   UNL     1      -4.298 -17.531   7.826  1.00  0.00     0.008 C 
ATOM     10  C   UNL     1      -5.414 -16.461   7.691  1.00  0.00     0.005 C 
ATOM     11  C   UNL     1      -4.910 -14.985   7.855  1.00  0.00    -0.005 C 
ATOM     12  C   UNL     1      -2.112 -18.184   8.974  1.00  0.00     0.012 C 
ENDROOT
BRANCH  11  13
ATOM     13  C   UNL     1      -4.890 -14.222   6.488  1.00  0.00    -0.014 C 
ATOM     14  C   UNL     1      -5.702 -12.915   6.518  1.00  0.00     0.007 C 
ATOM     15  C   UNL     1      -5.438 -15.111   5.354  1.00  0.00     0.007 C 
ENDBRANCH  11  13
TORSDOF 1
ENDMDL
MODEL 4
REMARK VINA RESULT:    -7.069      1.071      4.481
REMARK INTER + INTRA:          -7.318
REMARK INTER:                  -7.507
REMARK INTRA:                   0.189
REMARK UNBOUND:                 0.164
REMARK SMILES CC1=CC[C@@H]2[C@H]3[C@@H](C(C)C)CC[C@]2(C)[C@@H]13
REMARK SMILES IDX 1 1 2 2 3 3 4 4 5 5 6 6 15 7 13 8 12 9 11 10 7 11 14 12 8 13
REMARK SMILES IDX 9 14 10 15
REMARK H PARENT
REMARK Flexibility Score: inf
ROOT
ATOM      1  C   UNL     1      -5.278 -15.737   5.344  1.00  0.00     0.039 C 
ATOM      2  C   UNL     1      -4.886 -15.875   6.784  1.00  0.00    -0.073 C 
ATOM      3  C   UNL     1      -5.784 -16.271   7.724  1.00  0.00    -0.027 C 
ATOM      4  C   UNL     1      -5.319 -16.419   9.177  1.00  0.00     0.031 C 
ATOM      5  C   UNL     1      -3.811 -16.030   9.309  1.00  0.00     0.003 C 
ATOM      6  C   UNL     1      -3.610 -14.702   8.545  1.00  0.00     0.004 C 
ATOM      7  C   UNL     1      -3.466 -15.563   7.266  1.00  0.00     0.024 C 
ATOM      8  C   UNL     1      -2.957 -16.687   8.199  1.00  0.00    -0.022 C 
ATOM      9  C   UNL     1      -1.452 -16.482   8.533  1.00  0.00     0.008 C 
ATOM     10  C   UNL     1      -1.055 -14.985   8.634  1.00  0.00     0.005 C 
ATOM     11  C   UNL     1      -2.257 -14.023   8.927  1.00  0.00    -0.005 C 
ATOM     12  C   UNL     1      -3.241 -18.160   7.819  1.00  0.00     0.012 C 
ENDROOT
BRANCH  11  13
ATOM     13  C   UNL     1      -2.222 -13.478  10.394  1.00  0.00    -0.014 C 
ATOM     14  C   UNL     1      -1.073 -12.482  10.638  1.00  0.00     0.007 C 
ATOM     15  C   UNL     1      -2.089 -14.632  11.407  1.00  0.00     0.007 C 
ENDBRANCH  11  13
TORSDOF 1
ENDMDL
MODEL 5
REMARK VINA RESULT:    -6.657      1.237      4.668
REMARK INTER + INTRA:          -6.882
REMARK INTER:                  -6.676
REMARK INTRA:                  -0.206
REMARK UNBOUND:                 0.164
REMARK SMILES CC1=CC[C@@H]2[C@H]3[C@@H](C(C)C)CC[C@]2(C)[C@@H]13
REMARK SMILES IDX 1 1 2 2 3 3 4 4 5 5 6 6 15 7 13 8 12 9 11 10 7 11 14 12 8 13
REMARK SMILES IDX 9 14 10 15
REMARK H PARENT
REMARK Flexibility Score: inf
ROOT
ATOM      1  C   UNL     1      -4.844 -14.453   6.293  1.00  0.00     0.039 C 
ATOM      2  C   UNL     1      -4.720 -15.301   7.524  1.00  0.00    -0.073 C 
ATOM      3  C   UNL     1      -5.762 -16.047   7.972  1.00  0.00    -0.027 C 
ATOM      4  C   UNL     1      -5.568 -16.915   9.222  1.00  0.00     0.031 C 
ATOM      5  C   UNL     1      -4.124 -16.734   9.791  1.00  0.00     0.003 C 
ATOM      6  C   UNL     1      -3.828 -15.218   9.826  1.00  0.00     0.004 C 
ATOM      7  C   UNL     1      -3.424 -15.353   8.338  1.00  0.00     0.024 C 
ATOM      8  C   UNL     1      -3.059 -16.819   8.672  1.00  0.00    -0.022 C 
ATOM      9  C   UNL     1      -1.649 -16.898   9.323  1.00  0.00     0.008 C 
ATOM     10  C   UNL     1      -1.326 -15.669  10.214  1.00  0.00     0.005 C 
ATOM     11  C   UNL     1      -2.592 -14.898  10.724  1.00  0.00    -0.005 C 
ATOM     12  C   UNL     1      -3.221 -17.899   7.575  1.00  0.00     0.012 C 
ENDROOT
BRANCH  11  13
ATOM     13  C   UNL     1      -2.845 -15.142  12.250  1.00  0.00    -0.014 C 
ATOM     14  C   UNL     1      -2.461 -13.933  13.123  1.00  0.00     0.007 C 
ATOM     15  C   UNL     1      -2.062 -16.372  12.748  1.00  0.00     0.007 C 
ENDBRANCH  11  13
TORSDOF 1
ENDMDL
MODEL 6
REMARK VINA RESULT:    -6.565      1.254      2.353
REMARK INTER + INTRA:          -6.785
REMARK INTER:                  -7.132
REMARK INTRA:                   0.347
REMARK UNBOUND:                 0.164
REMARK SMILES CC1=CC[C@@H]2[C@H]3[C@@H](C(C)C)CC[C@]2(C)[C@@H]13
REMARK SMILES IDX 1 1 2 2 3 3 4 4 5 5 6 6 15 7 13 8 12 9 11 10 7 11 14 12 8 13
REMARK SMILES IDX 9 14 10 15
REMARK H PARENT
REMARK Flexibility Score: inf
ROOT
ATOM      1  C   UNL     1      -1.620 -12.736  10.639  1.00  0.00     0.039 C 
ATOM      2  C   UNL     1      -1.836 -14.038   9.926  1.00  0.00    -0.073 C 
ATOM      3  C   UNL     1      -0.830 -14.639   9.238  1.00  0.00    -0.027 C 
ATOM      4  C   UNL     1      -1.103 -15.981   8.550  1.00  0.00     0.031 C 
ATOM      5  C   UNL     1      -2.592 -16.409   8.761  1.00  0.00     0.003 C 
ATOM      6  C   UNL     1      -3.472 -15.175   8.465  1.00  0.00     0.004 C 
ATOM      7  C   UNL     1      -3.197 -14.740   9.924  1.00  0.00     0.024 C 
ATOM      8  C   UNL     1      -3.025 -16.245  10.237  1.00  0.00    -0.022 C 
ATOM      9  C   UNL     1      -4.409 -16.925  10.435  1.00  0.00     0.008 C 
ATOM     10  C   UNL     1      -5.514 -16.319   9.530  1.00  0.00     0.005 C 
ATOM     11  C   UNL     1      -4.967 -15.575   8.263  1.00  0.00    -0.005 C 
ATOM     12  C   UNL     1      -2.038 -16.669  11.351  1.00  0.00     0.012 C 
ENDROOT
BRANCH  11  13
ATOM     13  C   UNL     1      -5.227 -16.391   6.952  1.00  0.00    -0.014 C 
ATOM     14  C   UNL     1      -4.226 -17.544   6.754  1.00  0.00     0.007 C 
ATOM     15  C   UNL     1      -5.168 -15.475   5.714  1.00  0.00     0.007 C 
ENDBRANCH  11  13
TORSDOF 1
ENDMDL
MODEL 7
REMARK VINA RESULT:    -6.328      1.439      4.598
REMARK INTER + INTRA:          -6.534
REMARK INTER:                  -6.909
REMARK INTRA:                   0.375
REMARK UNBOUND:                 0.164
REMARK SMILES CC1=CC[C@@H]2[C@H]3[C@@H](C(C)C)CC[C@]2(C)[C@@H]13
REMARK SMILES IDX 1 1 2 2 3 3 4 4 5 5 6 6 15 7 13 8 12 9 11 10 7 11 14 12 8 13
REMARK SMILES IDX 9 14 10 15
REMARK H PARENT
REMARK Flexibility Score: inf
ROOT
ATOM      1  C   UNL     1      -2.795 -19.089   7.643  1.00  0.00     0.039 C 
ATOM      2  C   UNL     1      -3.112 -17.695   8.098  1.00  0.00    -0.073 C 
ATOM      3  C   UNL     1      -3.289 -16.686   7.206  1.00  0.00    -0.027 C 
ATOM      4  C   UNL     1      -3.637 -15.288   7.730  1.00  0.00     0.031 C 
ATOM      5  C   UNL     1      -3.692 -15.289   9.292  1.00  0.00     0.003 C 
ATOM      6  C   UNL     1      -2.436 -16.033   9.797  1.00  0.00     0.004 C 
ATOM      7  C   UNL     1      -3.234 -17.342   9.584  1.00  0.00     0.024 C 
ATOM      8  C   UNL     1      -4.503 -16.491   9.830  1.00  0.00    -0.022 C 
ATOM      9  C   UNL     1      -4.745 -16.296  11.353  1.00  0.00     0.008 C 
ATOM     10  C   UNL     1      -3.426 -16.193  12.165  1.00  0.00     0.005 C 
ATOM     11  C   UNL     1      -2.182 -15.763  11.313  1.00  0.00    -0.005 C 
ATOM     12  C   UNL     1      -5.816 -16.882   9.109  1.00  0.00     0.012 C 
ENDROOT
BRANCH  11  13
ATOM     13  C   UNL     1      -1.746 -14.292  11.624  1.00  0.00    -0.014 C 
ATOM     14  C   UNL     1      -2.431 -13.714  12.876  1.00  0.00     0.007 C 
ATOM     15  C   UNL     1      -2.049 -13.364  10.431  1.00  0.00     0.007 C 
ENDBRANCH  11  13
TORSDOF 1
ENDMDL
MODEL 8
REMARK VINA RESULT:    -6.272      1.403      2.712
REMARK INTER + INTRA:          -6.475
REMARK INTER:                  -6.402
REMARK INTRA:                  -0.073
REMARK UNBOUND:                 0.164
REMARK SMILES CC1=CC[C@@H]2[C@H]3[C@@H](C(C)C)CC[C@]2(C)[C@@H]13
REMARK SMILES IDX 1 1 2 2 3 3 4 4 5 5 6 6 15 7 13 8 12 9 11 10 7 11 14 12 8 13
REMARK SMILES IDX 9 14 10 15
REMARK H PARENT
REMARK Flexibility Score: inf
ROOT
ATOM      1  C   UNL     1      -1.239 -17.471  13.324  1.00  0.00     0.039 C 
ATOM      2  C   UNL     1      -2.147 -16.763  12.363  1.00  0.00    -0.073 C 
ATOM      3  C   UNL     1      -3.445 -16.513  12.675  1.00  0.00    -0.027 C 
ATOM      4  C   UNL     1      -4.318 -15.763  11.662  1.00  0.00     0.031 C 
ATOM      5  C   UNL     1      -3.498 -15.437  10.372  1.00  0.00     0.003 C 
ATOM      6  C   UNL     1      -2.746 -16.724   9.967  1.00  0.00     0.004 C 
ATOM      7  C   UNL     1      -1.660 -16.303  10.986  1.00  0.00     0.024 C 
ATOM      8  C   UNL     1      -2.110 -14.848  10.716  1.00  0.00    -0.022 C 
ATOM      9  C   UNL     1      -1.456 -14.304   9.414  1.00  0.00     0.008 C 
ATOM     10  C   UNL     1      -1.268 -15.400   8.331  1.00  0.00     0.005 C 
ATOM     11  C   UNL     1      -2.215 -16.638   8.502  1.00  0.00    -0.005 C 
ATOM     12  C   UNL     1      -2.008 -13.809  11.859  1.00  0.00     0.012 C 
ENDROOT
BRANCH  11  13
ATOM     13  C   UNL     1      -3.348 -16.657   7.421  1.00  0.00    -0.014 C 
ATOM     14  C   UNL     1      -3.672 -15.258   6.866  1.00  0.00     0.007 C 
ATOM     15  C   UNL     1      -4.643 -17.267   7.993  1.00  0.00     0.007 C 
ENDBRANCH  11  13
TORSDOF 1
ENDMDL
