MODEL 1
REMARK VINA RESULT:     3.170      0.000      0.000
REMARK INTER + INTRA:           8.623
REMARK INTER:                   5.950
REMARK INTRA:                   2.673
REMARK UNBOUND:                 2.673
REMARK SMILES O=C([O-])CCCCCCCCCCCCCCC(=O)[O-]
REMARK SMILES IDX 10 1 9 2 8 3 7 4 6 5 5 6 4 7 2 8 1 9 3 10 11 11 12 12 13 13
REMARK SMILES IDX 14 14 15 15 16 16 17 17 18 18 19 19 20 20
REMARK H PARENT
REMARK Flexibility Score: inf
ROOT
ATOM      1  C   UNL     1       3.226 -51.125   7.568  1.00  0.00     0.000 C 
ENDROOT
BRANCH   1   2
ATOM      2  C   UNL     1       3.475 -52.163   8.678  1.00  0.00     0.000 C 
BRANCH   2   3
ATOM      3  C   UNL     1       2.891 -51.755  10.048  1.00  0.00     0.000 C 
BRANCH   3   4
ATOM      4  C   UNL     1       3.978 -51.599  11.125  1.00  0.00     0.000 C 
BRANCH   4   5
ATOM      5  C   UNL     1       5.399 -51.841  10.584  1.00  0.00     0.000 C 
BRANCH   5   6
ATOM      6  C   UNL     1       5.743 -53.313  10.294  1.00  0.00     0.006 C 
BRANCH   6   7
ATOM      7  C   UNL     1       6.939 -53.820  11.110  1.00  0.00     0.053 C 
BRANCH   7   8
ATOM      8  C   UNL     1       8.221 -53.520  10.400  1.00  0.00     0.041 C 
ATOM      9  O   UNL     1       8.640 -54.290   9.495  1.00  0.00    -0.550 OA
ATOM     10  O   UNL     1       8.933 -52.367  10.705  1.00  0.00    -0.550 OA
ENDBRANCH   7   8
ENDBRANCH   6   7
ENDBRANCH   5   6
ENDBRANCH   4   5
ENDBRANCH   3   4
ENDBRANCH   2   3
ENDBRANCH   1   2
BRANCH   1  11
ATOM     11  C   UNL     1       3.025 -49.683   8.068  1.00  0.00     0.000 C 
BRANCH  11  12
ATOM     12  C   UNL     1       1.596 -49.347   8.541  1.00  0.00     0.000 C 
BRANCH  12  13
ATOM     13  C   UNL     1       1.359 -49.465  10.058  1.00  0.00     0.000 C 
BRANCH  13  14
ATOM     14  C   UNL     1      -0.074 -49.088  10.471  1.00  0.00     0.000 C 
BRANCH  14  15
ATOM     15  C   UNL     1      -0.828 -50.257  11.125  1.00  0.00     0.000 C 
BRANCH  15  16
ATOM     16  C   UNL     1      -0.022 -51.565  11.108  1.00  0.00     0.006 C 
BRANCH  16  17
ATOM     17  C   UNL     1      -0.718 -52.626  10.250  1.00  0.00     0.053 C 
BRANCH  17  18
ATOM     18  C   UNL     1      -0.966 -52.105   8.870  1.00  0.00     0.041 C 
ATOM     19  O   UNL     1      -0.992 -52.893   7.889  1.00  0.00    -0.550 OA
ATOM     20  O   UNL     1      -1.125 -50.740   8.660  1.00  0.00    -0.550 OA
ENDBRANCH  17  18
ENDBRANCH  16  17
ENDBRANCH  15  16
ENDBRANCH  14  15
ENDBRANCH  13  14
ENDBRANCH  12  13
ENDBRANCH  11  12
ENDBRANCH   1  11
TORSDOF 15
ENDMDL
MODEL 2
REMARK VINA RESULT:     4.189      4.112      6.970
REMARK INTER + INTRA:          10.535
REMARK INTER:                   7.862
REMARK INTRA:                   2.673
REMARK UNBOUND:                 2.673
REMARK SMILES O=C([O-])CCCCCCCCCCCCCCC(=O)[O-]
REMARK SMILES IDX 10 1 9 2 8 3 7 4 6 5 5 6 4 7 2 8 1 9 3 10 11 11 12 12 13 13
REMARK SMILES IDX 14 14 15 15 16 16 17 17 18 18 19 19 20 20
REMARK H PARENT
REMARK Flexibility Score: inf
ROOT
ATOM      1  C   UNL     1       4.046 -51.503   9.115  1.00  0.00     0.000 C 
ENDROOT
BRANCH   1   2
ATOM      2  C   UNL     1       2.792 -52.218   8.579  1.00  0.00     0.000 C 
BRANCH   2   3
ATOM      3  C   UNL     1       1.666 -51.253   8.149  1.00  0.00     0.000 C 
BRANCH   3   4
ATOM      4  C   UNL     1       0.272 -51.760   8.554  1.00  0.00     0.000 C 
BRANCH   4   5
ATOM      5  C   UNL     1       0.264 -52.470   9.920  1.00  0.00     0.000 C 
BRANCH   5   6
ATOM      6  C   UNL     1      -0.035 -51.560  11.125  1.00  0.00     0.006 C 
BRANCH   6   7
ATOM      7  C   UNL     1      -0.724 -50.248  10.727  1.00  0.00     0.053 C 
BRANCH   7   8
ATOM      8  C   UNL     1       0.159 -49.447   9.825  1.00  0.00     0.041 C 
ATOM      9  O   UNL     1      -0.344 -48.661   8.978  1.00  0.00    -0.550 OA
ATOM     10  O   UNL     1       1.540 -49.535   9.945  1.00  0.00    -0.550 OA
ENDBRANCH   7   8
ENDBRANCH   6   7
ENDBRANCH   5   6
ENDBRANCH   4   5
ENDBRANCH   3   4
ENDBRANCH   2   3
ENDBRANCH   1   2
BRANCH   1  11
ATOM     11  C   UNL     1       4.667 -52.146  10.369  1.00  0.00     0.000 C 
BRANCH  11  12
ATOM     12  C   UNL     1       5.048 -53.633  10.222  1.00  0.00     0.000 C 
BRANCH  12  13
ATOM     13  C   UNL     1       4.265 -54.607  11.122  1.00  0.00     0.000 C 
BRANCH  13  14
ATOM     14  C   UNL     1       3.541 -55.707  10.326  1.00  0.00     0.000 C 
BRANCH  14  15
ATOM     15  C   UNL     1       3.595 -57.075  11.025  1.00  0.00     0.000 C 
BRANCH  15  16
ATOM     16  C   UNL     1       2.281 -57.859  10.893  1.00  0.00     0.006 C 
BRANCH  16  17
ATOM     17  C   UNL     1       2.531 -59.367  10.999  1.00  0.00     0.053 C 
BRANCH  17  18
ATOM     18  C   UNL     1       1.241 -60.120  10.917  1.00  0.00     0.041 C 
ATOM     19  O   UNL     1       1.244 -61.365  10.728  1.00  0.00    -0.550 OA
ATOM     20  O   UNL     1       0.032 -59.440  11.005  1.00  0.00    -0.550 OA
ENDBRANCH  17  18
ENDBRANCH  16  17
ENDBRANCH  15  16
ENDBRANCH  14  15
ENDBRANCH  13  14
ENDBRANCH  12  13
ENDBRANCH  11  12
ENDBRANCH   1  11
TORSDOF 15
ENDMDL
MODEL 3
REMARK VINA RESULT:     4.466      3.427      6.497
REMARK INTER + INTRA:          11.056
REMARK INTER:                  10.823
REMARK INTRA:                   0.233
REMARK UNBOUND:                 2.673
REMARK SMILES O=C([O-])CCCCCCCCCCCCCCC(=O)[O-]
REMARK SMILES IDX 10 1 9 2 8 3 7 4 6 5 5 6 4 7 2 8 1 9 3 10 11 11 12 12 13 13
REMARK SMILES IDX 14 14 15 15 16 16 17 17 18 18 19 19 20 20
REMARK H PARENT
REMARK Flexibility Score: inf
ROOT
ATOM      1  C   UNL     1       3.892 -49.487   9.319  1.00  0.00     0.000 C 
ENDROOT
BRANCH   1   2
ATOM      2  C   UNL     1       2.583 -50.164   8.873  1.00  0.00     0.000 C 
BRANCH   2   3
ATOM      3  C   UNL     1       1.520 -49.173   8.351  1.00  0.00     0.000 C 
BRANCH   3   4
ATOM      4  C   UNL     1       0.165 -49.339   9.058  1.00  0.00     0.000 C 
BRANCH   4   5
ATOM      5  C   UNL     1      -0.838 -50.178   8.245  1.00  0.00     0.000 C 
BRANCH   5   6
ATOM      6  C   UNL     1      -1.125 -51.580   8.812  1.00  0.00     0.006 C 
BRANCH   6   7
ATOM      7  C   UNL     1      -0.988 -51.646  10.339  1.00  0.00     0.053 C 
BRANCH   7   8
ATOM      8  C   UNL     1       0.285 -52.333  10.720  1.00  0.00     0.041 C 
ATOM      9  O   UNL     1       1.329 -51.661  10.931  1.00  0.00    -0.550 OA
ATOM     10  O   UNL     1       0.310 -53.712  10.884  1.00  0.00    -0.550 OA
ENDBRANCH   7   8
ENDBRANCH   6   7
ENDBRANCH   5   6
ENDBRANCH   4   5
ENDBRANCH   3   4
ENDBRANCH   2   3
ENDBRANCH   1   2
BRANCH   1  11
ATOM     11  C   UNL     1       4.439 -49.972  10.675  1.00  0.00     0.000 C 
BRANCH  11  12
ATOM     12  C   UNL     1       4.981 -51.416  10.683  1.00  0.00     0.000 C 
BRANCH  12  13
ATOM     13  C   UNL     1       3.967 -52.498  11.098  1.00  0.00     0.000 C 
BRANCH  13  14
ATOM     14  C   UNL     1       4.309 -53.887  10.532  1.00  0.00     0.000 C 
BRANCH  14  15
ATOM     15  C   UNL     1       3.423 -54.998  11.118  1.00  0.00     0.000 C 
BRANCH  15  16
ATOM     16  C   UNL     1       3.672 -56.364  10.460  1.00  0.00     0.006 C 
BRANCH  16  17
ATOM     17  C   UNL     1       2.484 -57.304  10.683  1.00  0.00     0.053 C 
BRANCH  17  18
ATOM     18  C   UNL     1       2.942 -58.727  10.731  1.00  0.00     0.041 C 
ATOM     19  O   UNL     1       2.116 -59.666  10.579  1.00  0.00    -0.550 OA
ATOM     20  O   UNL     1       4.276 -59.020  10.990  1.00  0.00    -0.550 OA
ENDBRANCH  17  18
ENDBRANCH  16  17
ENDBRANCH  15  16
ENDBRANCH  14  15
ENDBRANCH  13  14
ENDBRANCH  12  13
ENDBRANCH  11  12
ENDBRANCH   1  11
TORSDOF 15
ENDMDL
MODEL 4
REMARK VINA RESULT:     5.567      1.688      6.936
REMARK INTER + INTRA:          13.121
REMARK INTER:                  12.652
REMARK INTRA:                   0.470
REMARK UNBOUND:                 2.673
REMARK SMILES O=C([O-])CCCCCCCCCCCCCCC(=O)[O-]
REMARK SMILES IDX 10 1 9 2 8 3 7 4 6 5 5 6 4 7 2 8 1 9 3 10 11 11 12 12 13 13
REMARK SMILES IDX 14 14 15 15 16 16 17 17 18 18 19 19 20 20
REMARK H PARENT
REMARK Flexibility Score: inf
ROOT
ATOM      1  C   UNL     1       3.890 -51.030   7.338  1.00  0.00     0.000 C 
ENDROOT
BRANCH   1   2
ATOM      2  C   UNL     1       2.569 -51.638   6.832  1.00  0.00     0.000 C 
BRANCH   2   3
ATOM      3  C   UNL     1       1.319 -51.082   7.548  1.00  0.00     0.000 C 
BRANCH   3   4
ATOM      4  C   UNL     1       0.049 -51.885   7.221  1.00  0.00     0.000 C 
BRANCH   4   5
ATOM      5  C   UNL     1      -0.809 -52.185   8.463  1.00  0.00     0.000 C 
BRANCH   5   6
ATOM      6  C   UNL     1      -0.192 -51.745   9.803  1.00  0.00     0.006 C 
BRANCH   6   7
ATOM      7  C   UNL     1      -1.093 -50.786  10.590  1.00  0.00     0.053 C 
BRANCH   7   8
ATOM      8  C   UNL     1      -0.427 -49.456  10.750  1.00  0.00     0.041 C 
ATOM      9  O   UNL     1       0.774 -49.389  11.124  1.00  0.00    -0.550 OA
ATOM     10  O   UNL     1      -1.117 -48.290  10.445  1.00  0.00    -0.550 OA
ENDBRANCH   7   8
ENDBRANCH   6   7
ENDBRANCH   5   6
ENDBRANCH   4   5
ENDBRANCH   3   4
ENDBRANCH   2   3
ENDBRANCH   1   2
BRANCH   1  11
ATOM     11  C   UNL     1       3.732 -49.988   8.461  1.00  0.00     0.000 C 
BRANCH  11  12
ATOM     12  C   UNL     1       2.812 -50.414   9.624  1.00  0.00     0.000 C 
BRANCH  12  13
ATOM     13  C   UNL     1       3.243 -51.690  10.371  1.00  0.00     0.000 C 
BRANCH  13  14
ATOM     14  C   UNL     1       4.616 -51.551  11.050  1.00  0.00     0.000 C 
BRANCH  14  15
ATOM     15  C   UNL     1       5.399 -52.874  11.076  1.00  0.00     0.000 C 
BRANCH  15  16
ATOM     16  C   UNL     1       5.581 -53.482   9.677  1.00  0.00     0.006 C 
BRANCH  16  17
ATOM     17  C   UNL     1       6.972 -53.164   9.120  1.00  0.00     0.053 C 
BRANCH  17  18
ATOM     18  C   UNL     1       7.996 -53.202  10.210  1.00  0.00     0.041 C 
ATOM     19  O   UNL     1       8.352 -54.302  10.709  1.00  0.00    -0.550 OA
ATOM     20  O   UNL     1       8.524 -52.017  10.709  1.00  0.00    -0.550 OA
ENDBRANCH  17  18
ENDBRANCH  16  17
ENDBRANCH  15  16
ENDBRANCH  14  15
ENDBRANCH  13  14
ENDBRANCH  12  13
ENDBRANCH  11  12
ENDBRANCH   1  11
TORSDOF 15
ENDMDL
