MODEL 1
REMARK VINA RESULT:    -5.269      0.000      0.000
REMARK INTER + INTRA:          -6.852
REMARK INTER:                  -6.502
REMARK INTRA:                  -0.351
REMARK UNBOUND:                -0.351
REMARK SMILES Oc1cc(O)c2cc(O)c(-c3cc(O)c(O)c(O)c3)[o+]c2c1
REMARK SMILES IDX 10 1 20 2 21 3 22 4 2 5 3 6 4 7 6 8 7 9 8 10 11 11 12 12
REMARK SMILES IDX 13 13 19 14 15 15 17 16 14 17 16 19 18 21 9 23 1 25 5 27
REMARK H PARENT 14 18 16 20 18 22 9 24 1 26 5 28
REMARK Flexibility Score: inf
ROOT
ATOM      1  C   UNL     1      23.387   1.044  28.239  1.00  0.00     0.402 A 
ATOM      2  O   UNL     1      22.365   1.377  29.023  1.00  0.00    -0.202 OA
ATOM      3  C   UNL     1      21.808   0.539  29.891  1.00  0.00     0.368 A 
ATOM      4  C   UNL     1      20.734   0.981  30.668  1.00  0.00     0.162 A 
ATOM      5  C   UNL     1      20.129   0.119  31.588  1.00  0.00     0.128 A 
ATOM      6  C   UNL     1      20.598  -1.188  31.730  1.00  0.00     0.093 A 
ATOM      7  C   UNL     1      21.673  -1.655  30.963  1.00  0.00     0.136 A 
ATOM      8  C   UNL     1      22.293  -0.784  30.030  1.00  0.00     0.125 A 
ATOM      9  C   UNL     1      23.384  -1.160  29.228  1.00  0.00     0.078 A 
ATOM     10  C   UNL     1      23.946  -0.244  28.335  1.00  0.00     0.223 A 
ENDROOT
BRANCH   1  11
ATOM     11  C   UNL     1      23.915   2.064  27.304  1.00  0.00     0.091 A 
ATOM     12  C   UNL     1      25.050   2.804  27.659  1.00  0.00     0.068 A 
ATOM     13  C   UNL     1      25.564   3.790  26.808  1.00  0.00     0.162 A 
ATOM     14  C   UNL     1      23.268   2.348  26.091  1.00  0.00     0.068 A 
ATOM     15  C   UNL     1      24.921   4.056  25.576  1.00  0.00     0.200 A 
ATOM     16  C   UNL     1      23.766   3.329  25.230  1.00  0.00     0.162 A 
BRANCH  13  17
ATOM     17  O   UNL     1      26.707   4.476  27.228  1.00  0.00    -0.504 OA
ATOM     18  H   UNL     1      26.865   5.461  27.073  1.00  0.00     0.293 HD
ENDBRANCH  13  17
BRANCH  15  19
ATOM     19  O   UNL     1      25.390   5.022  24.683  1.00  0.00    -0.502 OA
ATOM     20  H   UNL     1      25.695   4.825  23.741  1.00  0.00     0.293 HD
ENDBRANCH  15  19
BRANCH  16  21
ATOM     21  O   UNL     1      23.093   3.573  24.032  1.00  0.00    -0.504 OA
ATOM     22  H   UNL     1      22.746   4.492  23.784  1.00  0.00     0.293 HD
ENDBRANCH  16  21
ENDBRANCH   1  11
BRANCH  10  23
ATOM     23  O   UNL     1      25.059  -0.602  27.575  1.00  0.00    -0.500 OA
ATOM     24  H   UNL     1      25.700  -1.327  27.876  1.00  0.00     0.294 HD
ENDBRANCH  10  23
BRANCH   5  25
ATOM     25  O   UNL     1      19.057   0.553  32.366  1.00  0.00    -0.507 OA
ATOM     26  H   UNL     1      19.182   0.831  33.333  1.00  0.00     0.293 HD
ENDBRANCH   5  25
BRANCH   7  27
ATOM     27  O   UNL     1      22.080  -2.976  31.163  1.00  0.00    -0.507 OA
ATOM     28  H   UNL     1      21.656  -3.778  30.719  1.00  0.00     0.293 HD
ENDBRANCH   7  27
TORSDOF 7
ENDMDL
MODEL 2
REMARK VINA RESULT:    -5.225      7.824     11.114
REMARK INTER + INTRA:          -6.798
REMARK INTER:                  -6.438
REMARK INTRA:                  -0.360
REMARK UNBOUND:                -0.351
REMARK SMILES Oc1cc(O)c2cc(O)c(-c3cc(O)c(O)c(O)c3)[o+]c2c1
REMARK SMILES IDX 10 1 20 2 21 3 22 4 2 5 3 6 4 7 6 8 7 9 8 10 11 11 12 12
REMARK SMILES IDX 13 13 19 14 15 15 17 16 14 17 16 19 18 21 9 23 1 25 5 27
REMARK H PARENT 14 18 16 20 18 22 9 24 1 26 5 28
REMARK Flexibility Score: inf
ROOT
ATOM      1  C   UNL     1      16.944  -6.095  27.513  1.00  0.00     0.402 A 
ATOM      2  O   UNL     1      18.179  -5.602  27.553  1.00  0.00    -0.202 OA
ATOM      3  C   UNL     1      18.503  -4.497  28.216  1.00  0.00     0.368 A 
ATOM      4  C   UNL     1      19.828  -4.055  28.194  1.00  0.00     0.162 A 
ATOM      5  C   UNL     1      20.196  -2.895  28.882  1.00  0.00     0.128 A 
ATOM      6  C   UNL     1      19.234  -2.172  29.591  1.00  0.00     0.093 A 
ATOM      7  C   UNL     1      17.899  -2.594  29.628  1.00  0.00     0.136 A 
ATOM      8  C   UNL     1      17.521  -3.773  28.935  1.00  0.00     0.125 A 
ATOM      9  C   UNL     1      16.210  -4.278  28.926  1.00  0.00     0.078 A 
ATOM     10  C   UNL     1      15.915  -5.449  28.224  1.00  0.00     0.223 A 
ENDROOT
BRANCH   1  11
ATOM     11  C   UNL     1      16.707  -7.329  26.730  1.00  0.00     0.091 A 
ATOM     12  C   UNL     1      17.118  -8.564  27.248  1.00  0.00     0.068 A 
ATOM     13  C   UNL     1      16.928  -9.749  26.527  1.00  0.00     0.162 A 
ATOM     14  C   UNL     1      16.130  -7.284  25.451  1.00  0.00     0.068 A 
ATOM     15  C   UNL     1      16.325  -9.700  25.247  1.00  0.00     0.200 A 
ATOM     16  C   UNL     1      15.934  -8.457  24.716  1.00  0.00     0.162 A 
BRANCH  13  17
ATOM     17  O   UNL     1      17.354 -10.942  27.117  1.00  0.00    -0.504 OA
ATOM     18  H   UNL     1      18.301 -11.289  27.073  1.00  0.00     0.293 HD
ENDBRANCH  13  17
BRANCH  15  19
ATOM     19  O   UNL     1      16.103 -10.849  24.483  1.00  0.00    -0.502 OA
ATOM     20  H   UNL     1      15.469 -10.895  23.700  1.00  0.00     0.293 HD
ENDBRANCH  15  19
BRANCH  16  21
ATOM     21  O   UNL     1      15.352  -8.365  23.452  1.00  0.00    -0.504 OA
ATOM     22  H   UNL     1      15.680  -8.909  22.664  1.00  0.00     0.293 HD
ENDBRANCH  16  21
ENDBRANCH   1  11
BRANCH  10  23
ATOM     23  O   UNL     1      14.624  -5.977  28.255  1.00  0.00    -0.500 OA
ATOM     24  H   UNL     1      14.103  -6.161  27.406  1.00  0.00     0.294 HD
ENDBRANCH  10  23
BRANCH   5  25
ATOM     25  O   UNL     1      21.516  -2.448  28.865  1.00  0.00    -0.507 OA
ATOM     26  H   UNL     1      22.139  -2.666  28.097  1.00  0.00     0.293 HD
ENDBRANCH   5  25
BRANCH   7  27
ATOM     27  O   UNL     1      16.998  -1.815  30.358  1.00  0.00    -0.507 OA
ATOM     28  H   UNL     1      16.088  -2.129  30.665  1.00  0.00     0.293 HD
ENDBRANCH   7  27
TORSDOF 7
ENDMDL
MODEL 3
REMARK VINA RESULT:    -4.954      8.100     10.642
REMARK INTER + INTRA:          -6.463
REMARK INTER:                  -6.116
REMARK INTRA:                  -0.347
REMARK UNBOUND:                -0.351
REMARK SMILES Oc1cc(O)c2cc(O)c(-c3cc(O)c(O)c(O)c3)[o+]c2c1
REMARK SMILES IDX 10 1 20 2 21 3 22 4 2 5 3 6 4 7 6 8 7 9 8 10 11 11 12 12
REMARK SMILES IDX 13 13 19 14 15 15 17 16 14 17 16 19 18 21 9 23 1 25 5 27
REMARK H PARENT 14 18 16 20 18 22 9 24 1 26 5 28
REMARK Flexibility Score: inf
ROOT
ATOM      1  C   UNL     1      17.653  -6.629  27.765  1.00  0.00     0.402 A 
ATOM      2  O   UNL     1      17.041  -6.682  26.585  1.00  0.00    -0.202 OA
ATOM      3  C   UNL     1      16.595  -7.811  26.044  1.00  0.00     0.368 A 
ATOM      4  C   UNL     1      15.969  -7.765  24.796  1.00  0.00     0.162 A 
ATOM      5  C   UNL     1      15.491  -8.938  24.204  1.00  0.00     0.128 A 
ATOM      6  C   UNL     1      15.643 -10.161  24.861  1.00  0.00     0.093 A 
ATOM      7  C   UNL     1      16.267 -10.234  26.112  1.00  0.00     0.136 A 
ATOM      8  C   UNL     1      16.751  -9.045  26.719  1.00  0.00     0.125 A 
ATOM      9  C   UNL     1      17.378  -9.020  27.976  1.00  0.00     0.078 A 
ATOM     10  C   UNL     1      17.824  -7.809  28.513  1.00  0.00     0.223 A 
ENDROOT
BRANCH   1  11
ATOM     11  C   UNL     1      18.115  -5.311  28.257  1.00  0.00     0.091 A 
ATOM     12  C   UNL     1      17.176  -4.380  28.719  1.00  0.00     0.068 A 
ATOM     13  C   UNL     1      17.574  -3.117  29.173  1.00  0.00     0.162 A 
ATOM     14  C   UNL     1      19.470  -4.949  28.216  1.00  0.00     0.068 A 
ATOM     15  C   UNL     1      18.946  -2.766  29.151  1.00  0.00     0.200 A 
ATOM     16  C   UNL     1      19.887  -3.693  28.664  1.00  0.00     0.162 A 
BRANCH  13  17
ATOM     17  O   UNL     1      16.580  -2.249  29.630  1.00  0.00    -0.504 OA
ATOM     18  H   UNL     1      16.733  -1.521  30.313  1.00  0.00     0.293 HD
ENDBRANCH  13  17
BRANCH  15  19
ATOM     19  O   UNL     1      19.405  -1.524  29.596  1.00  0.00    -0.502 OA
ATOM     20  H   UNL     1      19.997  -0.911  29.055  1.00  0.00     0.293 HD
ENDBRANCH  15  19
BRANCH  16  21
ATOM     21  O   UNL     1      21.245  -3.379  28.611  1.00  0.00    -0.504 OA
ATOM     22  H   UNL     1      21.725  -3.197  27.737  1.00  0.00     0.293 HD
ENDBRANCH  16  21
ENDBRANCH   1  11
BRANCH  10  23
ATOM     23  O   UNL     1      18.402  -7.777  29.782  1.00  0.00    -0.500 OA
ATOM     24  H   UNL     1      17.838  -7.780  30.624  1.00  0.00     0.294 HD
ENDBRANCH  10  23
BRANCH   5  25
ATOM     25  O   UNL     1      14.865  -8.900  22.959  1.00  0.00    -0.507 OA
ATOM     26  H   UNL     1      14.491  -8.038  22.580  1.00  0.00     0.293 HD
ENDBRANCH   5  25
BRANCH   7  27
ATOM     27  O   UNL     1      16.382 -11.495  26.702  1.00  0.00    -0.507 OA
ATOM     28  H   UNL     1      16.966 -12.240  26.349  1.00  0.00     0.293 HD
ENDBRANCH   7  27
TORSDOF 7
ENDMDL
MODEL 4
REMARK VINA RESULT:    -4.916      2.195      7.084
REMARK INTER + INTRA:          -6.416
REMARK INTER:                  -6.083
REMARK INTRA:                  -0.333
REMARK UNBOUND:                -0.351
REMARK SMILES Oc1cc(O)c2cc(O)c(-c3cc(O)c(O)c(O)c3)[o+]c2c1
REMARK SMILES IDX 10 1 20 2 21 3 22 4 2 5 3 6 4 7 6 8 7 9 8 10 11 11 12 12
REMARK SMILES IDX 13 13 19 14 15 15 17 16 14 17 16 19 18 21 9 23 1 25 5 27
REMARK H PARENT 14 18 16 20 18 22 9 24 1 26 5 28
REMARK Flexibility Score: inf
ROOT
ATOM      1  C   UNL     1      22.167   1.557  28.569  1.00  0.00     0.402 A 
ATOM      2  O   UNL     1      22.843   1.632  27.426  1.00  0.00    -0.202 OA
ATOM      3  C   UNL     1      22.769   2.671  26.601  1.00  0.00     0.368 A 
ATOM      4  C   UNL     1      23.515   2.655  25.420  1.00  0.00     0.162 A 
ATOM      5  C   UNL     1      23.455   3.735  24.534  1.00  0.00     0.128 A 
ATOM      6  C   UNL     1      22.644   4.833  24.829  1.00  0.00     0.093 A 
ATOM      7  C   UNL     1      21.887   4.873  26.007  1.00  0.00     0.136 A 
ATOM      8  C   UNL     1      21.947   3.781  26.911  1.00  0.00     0.125 A 
ATOM      9  C   UNL     1      21.233   3.740  28.120  1.00  0.00     0.078 A 
ATOM     10  C   UNL     1      21.347   2.631  28.963  1.00  0.00     0.223 A 
ENDROOT
BRANCH   1  11
ATOM     11  C   UNL     1      22.324   0.340  29.398  1.00  0.00     0.091 A 
ATOM     12  C   UNL     1      23.170   0.372  30.515  1.00  0.00     0.068 A 
ATOM     13  C   UNL     1      23.358  -0.765  31.310  1.00  0.00     0.162 A 
ATOM     14  C   UNL     1      21.690  -0.864  29.057  1.00  0.00     0.068 A 
ATOM     15  C   UNL     1      22.697  -1.971  30.975  1.00  0.00     0.200 A 
ATOM     16  C   UNL     1      21.868  -2.010  29.838  1.00  0.00     0.162 A 
BRANCH  13  17
ATOM     17  O   UNL     1      24.207  -0.650  32.414  1.00  0.00    -0.504 OA
ATOM     18  H   UNL     1      24.473  -1.423  33.007  1.00  0.00     0.293 HD
ENDBRANCH  13  17
BRANCH  15  19
ATOM     19  O   UNL     1      22.841  -3.136  31.732  1.00  0.00    -0.502 OA
ATOM     20  H   UNL     1      22.432  -3.274  32.645  1.00  0.00     0.293 HD
ENDBRANCH  15  19
BRANCH  16  21
ATOM     21  O   UNL     1      21.212  -3.183  29.465  1.00  0.00    -0.504 OA
ATOM     22  H   UNL     1      20.736  -3.277  28.576  1.00  0.00     0.293 HD
ENDBRANCH  16  21
ENDBRANCH   1  11
BRANCH  10  23
ATOM     23  O   UNL     1      20.677   2.611  30.187  1.00  0.00    -0.500 OA
ATOM     24  H   UNL     1      21.122   2.922  31.043  1.00  0.00     0.294 HD
ENDBRANCH  10  23
BRANCH   5  25
ATOM     25  O   UNL     1      24.196   3.726  23.353  1.00  0.00    -0.507 OA
ATOM     26  H   UNL     1      24.161   2.943  22.711  1.00  0.00     0.293 HD
ENDBRANCH   5  25
BRANCH   7  27
ATOM     27  O   UNL     1      21.100   6.006  26.227  1.00  0.00    -0.507 OA
ATOM     28  H   UNL     1      20.093   5.995  26.313  1.00  0.00     0.293 HD
ENDBRANCH   7  27
TORSDOF 7
ENDMDL
MODEL 5
REMARK VINA RESULT:    -4.914      8.022     10.548
REMARK INTER + INTRA:          -6.414
REMARK INTER:                  -6.064
REMARK INTRA:                  -0.350
REMARK UNBOUND:                -0.351
REMARK SMILES Oc1cc(O)c2cc(O)c(-c3cc(O)c(O)c(O)c3)[o+]c2c1
REMARK SMILES IDX 10 1 20 2 21 3 22 4 2 5 3 6 4 7 6 8 7 9 8 10 11 11 12 12
REMARK SMILES IDX 13 13 19 14 15 15 17 16 14 17 16 19 18 21 9 23 1 25 5 27
REMARK H PARENT 14 18 16 20 18 22 9 24 1 26 5 28
REMARK Flexibility Score: inf
ROOT
ATOM      1  C   UNL     1      17.637  -6.569  27.836  1.00  0.00     0.402 A 
ATOM      2  O   UNL     1      17.028  -6.620  26.654  1.00  0.00    -0.202 OA
ATOM      3  C   UNL     1      16.609  -7.751  26.096  1.00  0.00     0.368 A 
ATOM      4  C   UNL     1      15.984  -7.702  24.848  1.00  0.00     0.162 A 
ATOM      5  C   UNL     1      15.535  -8.878  24.238  1.00  0.00     0.128 A 
ATOM      6  C   UNL     1      15.715 -10.106  24.878  1.00  0.00     0.093 A 
ATOM      7  C   UNL     1      16.340 -10.182  26.129  1.00  0.00     0.136 A 
ATOM      8  C   UNL     1      16.794  -8.991  26.754  1.00  0.00     0.125 A 
ATOM      9  C   UNL     1      17.419  -8.969  28.012  1.00  0.00     0.078 A 
ATOM     10  C   UNL     1      17.835  -7.756  28.567  1.00  0.00     0.223 A 
ENDROOT
BRANCH   1  11
ATOM     11  C   UNL     1      18.067  -5.248  28.347  1.00  0.00     0.091 A 
ATOM     12  C   UNL     1      19.416  -4.880  28.259  1.00  0.00     0.068 A 
ATOM     13  C   UNL     1      19.861  -3.647  28.750  1.00  0.00     0.162 A 
ATOM     14  C   UNL     1      17.162  -4.376  28.973  1.00  0.00     0.068 A 
ATOM     15  C   UNL     1      18.940  -2.762  29.360  1.00  0.00     0.200 A 
ATOM     16  C   UNL     1      17.589  -3.142  29.470  1.00  0.00     0.162 A 
BRANCH  13  17
ATOM     17  O   UNL     1      21.220  -3.348  28.614  1.00  0.00    -0.504 OA
ATOM     18  H   UNL     1      21.579  -2.427  28.409  1.00  0.00     0.293 HD
ENDBRANCH  13  17
BRANCH  15  19
ATOM     19  O   UNL     1      19.323  -1.516  29.863  1.00  0.00    -0.502 OA
ATOM     20  H   UNL     1      19.718  -0.775  29.303  1.00  0.00     0.293 HD
ENDBRANCH  15  19
BRANCH  16  21
ATOM     21  O   UNL     1      16.653  -2.305  30.079  1.00  0.00    -0.504 OA
ATOM     22  H   UNL     1      16.259  -1.501  29.607  1.00  0.00     0.293 HD
ENDBRANCH  16  21
ENDBRANCH   1  11
BRANCH  10  23
ATOM     23  O   UNL     1      18.410  -7.728  29.837  1.00  0.00    -0.500 OA
ATOM     24  H   UNL     1      18.969  -6.944  30.152  1.00  0.00     0.294 HD
ENDBRANCH  10  23
BRANCH   5  25
ATOM     25  O   UNL     1      14.910  -8.837  22.993  1.00  0.00    -0.507 OA
ATOM     26  H   UNL     1      14.206  -9.517  22.731  1.00  0.00     0.293 HD
ENDBRANCH   5  25
BRANCH   7  27
ATOM     27  O   UNL     1      16.484 -11.448  26.701  1.00  0.00    -0.507 OA
ATOM     28  H   UNL     1      15.716 -12.025  27.012  1.00  0.00     0.293 HD
ENDBRANCH   7  27
TORSDOF 7
ENDMDL
MODEL 6
REMARK VINA RESULT:    -4.909      1.385      3.125
REMARK INTER + INTRA:          -6.407
REMARK INTER:                  -6.028
REMARK INTRA:                  -0.379
REMARK UNBOUND:                -0.351
REMARK SMILES Oc1cc(O)c2cc(O)c(-c3cc(O)c(O)c(O)c3)[o+]c2c1
REMARK SMILES IDX 10 1 20 2 21 3 22 4 2 5 3 6 4 7 6 8 7 9 8 10 11 11 12 12
REMARK SMILES IDX 13 13 19 14 15 15 17 16 14 17 16 19 18 21 9 23 1 25 5 27
REMARK H PARENT 14 18 16 20 18 22 9 24 1 26 5 28
REMARK Flexibility Score: inf
ROOT
ATOM      1  C   UNL     1      22.318   1.484  28.549  1.00  0.00     0.402 A 
ATOM      2  O   UNL     1      22.179   0.162  28.488  1.00  0.00    -0.202 OA
ATOM      3  C   UNL     1      21.486  -0.541  29.379  1.00  0.00     0.368 A 
ATOM      4  C   UNL     1      21.400  -1.927  29.232  1.00  0.00     0.162 A 
ATOM      5  C   UNL     1      20.679  -2.690  30.155  1.00  0.00     0.128 A 
ATOM      6  C   UNL     1      20.044  -2.064  31.230  1.00  0.00     0.093 A 
ATOM      7  C   UNL     1      20.115  -0.676  31.399  1.00  0.00     0.136 A 
ATOM      8  C   UNL     1      20.842   0.104  30.463  1.00  0.00     0.125 A 
ATOM      9  C   UNL     1      20.957   1.502  30.545  1.00  0.00     0.078 A 
ATOM     10  C   UNL     1      21.687   2.203  29.582  1.00  0.00     0.223 A 
ENDROOT
BRANCH   1  11
ATOM     11  C   UNL     1      23.124   2.153  27.502  1.00  0.00     0.091 A 
ATOM     12  C   UNL     1      22.497   2.608  26.335  1.00  0.00     0.068 A 
ATOM     13  C   UNL     1      23.231   3.226  25.316  1.00  0.00     0.162 A 
ATOM     14  C   UNL     1      24.515   2.289  27.626  1.00  0.00     0.068 A 
ATOM     15  C   UNL     1      24.631   3.383  25.457  1.00  0.00     0.200 A 
ATOM     16  C   UNL     1      25.264   2.903  26.618  1.00  0.00     0.162 A 
BRANCH  13  17
ATOM     17  O   UNL     1      22.531   3.665  24.188  1.00  0.00    -0.504 OA
ATOM     18  H   UNL     1      21.691   4.224  24.225  1.00  0.00     0.293 HD
ENDBRANCH  13  17
BRANCH  15  19
ATOM     19  O   UNL     1      25.415   3.997  24.477  1.00  0.00    -0.502 OA
ATOM     20  H   UNL     1      25.881   4.884  24.597  1.00  0.00     0.293 HD
ENDBRANCH  15  19
BRANCH  16  21
ATOM     21  O   UNL     1      26.644   3.023  26.788  1.00  0.00    -0.504 OA
ATOM     22  H   UNL     1      27.183   3.753  26.339  1.00  0.00     0.293 HD
ENDBRANCH  16  21
ENDBRANCH   1  11
BRANCH  10  23
ATOM     23  O   UNL     1      21.760   3.595  29.635  1.00  0.00    -0.500 OA
ATOM     24  H   UNL     1      21.740   4.096  30.515  1.00  0.00     0.294 HD
ENDBRANCH  10  23
BRANCH   5  25
ATOM     25  O   UNL     1      20.590  -4.074  30.016  1.00  0.00    -0.507 OA
ATOM     26  H   UNL     1      20.531  -4.685  30.822  1.00  0.00     0.293 HD
ENDBRANCH   5  25
BRANCH   7  27
ATOM     27  O   UNL     1      19.454  -0.127  32.501  1.00  0.00    -0.507 OA
ATOM     28  H   UNL     1      18.493  -0.322  32.746  1.00  0.00     0.293 HD
ENDBRANCH   7  27
TORSDOF 7
ENDMDL
MODEL 7
REMARK VINA RESULT:    -4.903      1.315      2.602
REMARK INTER + INTRA:          -6.401
REMARK INTER:                  -6.062
REMARK INTRA:                  -0.339
REMARK UNBOUND:                -0.351
REMARK SMILES Oc1cc(O)c2cc(O)c(-c3cc(O)c(O)c(O)c3)[o+]c2c1
REMARK SMILES IDX 10 1 20 2 21 3 22 4 2 5 3 6 4 7 6 8 7 9 8 10 11 11 12 12
REMARK SMILES IDX 13 13 19 14 15 15 17 16 14 17 16 19 18 21 9 23 1 25 5 27
REMARK H PARENT 14 18 16 20 18 22 9 24 1 26 5 28
REMARK Flexibility Score: inf
ROOT
ATOM      1  C   UNL     1      22.274   1.614  28.509  1.00  0.00     0.402 A 
ATOM      2  O   UNL     1      22.223   0.288  28.599  1.00  0.00    -0.202 OA
ATOM      3  C   UNL     1      21.545  -0.354  29.545  1.00  0.00     0.368 A 
ATOM      4  C   UNL     1      21.555  -1.751  29.558  1.00  0.00     0.162 A 
ATOM      5  C   UNL     1      20.852  -2.451  30.543  1.00  0.00     0.128 A 
ATOM      6  C   UNL     1      20.139  -1.751  31.519  1.00  0.00     0.093 A 
ATOM      7  C   UNL     1      20.113  -0.351  31.527  1.00  0.00     0.136 A 
ATOM      8  C   UNL     1      20.823   0.364  30.528  1.00  0.00     0.125 A 
ATOM      9  C   UNL     1      20.844   1.767  30.450  1.00  0.00     0.078 A 
ATOM     10  C   UNL     1      21.561   2.401  29.432  1.00  0.00     0.223 A 
ENDROOT
BRANCH   1  11
ATOM     11  C   UNL     1      23.073   2.212  27.414  1.00  0.00     0.091 A 
ATOM     12  C   UNL     1      24.461   2.332  27.560  1.00  0.00     0.068 A 
ATOM     13  C   UNL     1      25.245   2.911  26.555  1.00  0.00     0.162 A 
ATOM     14  C   UNL     1      22.463   2.716  26.255  1.00  0.00     0.068 A 
ATOM     15  C   UNL     1      24.627   3.397  25.378  1.00  0.00     0.200 A 
ATOM     16  C   UNL     1      23.230   3.299  25.242  1.00  0.00     0.162 A 
BRANCH  13  17
ATOM     17  O   UNL     1      26.624   2.983  26.770  1.00  0.00    -0.504 OA
ATOM     18  H   UNL     1      27.054   3.018  27.683  1.00  0.00     0.293 HD
ENDBRANCH  13  17
BRANCH  15  19
ATOM     19  O   UNL     1      25.356   3.979  24.338  1.00  0.00    -0.502 OA
ATOM     20  H   UNL     1      25.673   3.481  23.519  1.00  0.00     0.293 HD
ENDBRANCH  15  19
BRANCH  16  21
ATOM     21  O   UNL     1      22.580   3.781  24.105  1.00  0.00    -0.504 OA
ATOM     22  H   UNL     1      21.945   4.568  24.138  1.00  0.00     0.293 HD
ENDBRANCH  16  21
ENDBRANCH   1  11
BRANCH  10  23
ATOM     23  O   UNL     1      21.542   3.792  29.325  1.00  0.00    -0.500 OA
ATOM     24  H   UNL     1      21.366   4.386  30.127  1.00  0.00     0.294 HD
ENDBRANCH  10  23
BRANCH   5  25
ATOM     25  O   UNL     1      20.857  -3.845  30.563  1.00  0.00    -0.507 OA
ATOM     26  H   UNL     1      20.461  -4.387  29.804  1.00  0.00     0.293 HD
ENDBRANCH   5  25
BRANCH   7  27
ATOM     27  O   UNL     1      19.379   0.273  32.538  1.00  0.00    -0.507 OA
ATOM     28  H   UNL     1      18.399   0.509  32.471  1.00  0.00     0.293 HD
ENDBRANCH   7  27
TORSDOF 7
ENDMDL
MODEL 8
REMARK VINA RESULT:    -4.728      2.127      6.568
REMARK INTER + INTRA:          -6.184
REMARK INTER:                  -5.812
REMARK INTRA:                  -0.372
REMARK UNBOUND:                -0.351
REMARK SMILES Oc1cc(O)c2cc(O)c(-c3cc(O)c(O)c(O)c3)[o+]c2c1
REMARK SMILES IDX 10 1 20 2 21 3 22 4 2 5 3 6 4 7 6 8 7 9 8 10 11 11 12 12
REMARK SMILES IDX 13 13 19 14 15 15 17 16 14 17 16 19 18 21 9 23 1 25 5 27
REMARK H PARENT 14 18 16 20 18 22 9 24 1 26 5 28
REMARK Flexibility Score: inf
ROOT
ATOM      1  C   UNL     1      22.928   1.093  28.501  1.00  0.00     0.402 A 
ATOM      2  O   UNL     1      22.008   2.052  28.544  1.00  0.00    -0.202 OA
ATOM      3  C   UNL     1      22.067   3.155  27.805  1.00  0.00     0.368 A 
ATOM      4  C   UNL     1      21.053   4.108  27.924  1.00  0.00     0.162 A 
ATOM      5  C   UNL     1      21.092   5.278  27.160  1.00  0.00     0.128 A 
ATOM      6  C   UNL     1      22.151   5.496  26.276  1.00  0.00     0.093 A 
ATOM      7  C   UNL     1      23.180   4.556  26.138  1.00  0.00     0.136 A 
ATOM      8  C   UNL     1      23.143   3.366  26.909  1.00  0.00     0.125 A 
ATOM      9  C   UNL     1      24.124   2.362  26.828  1.00  0.00     0.078 A 
ATOM     10  C   UNL     1      24.017   1.213  27.617  1.00  0.00     0.223 A 
ENDROOT
BRANCH   1  11
ATOM     11  C   UNL     1      22.756  -0.085  29.382  1.00  0.00     0.091 A 
ATOM     12  C   UNL     1      23.434  -0.136  30.606  1.00  0.00     0.068 A 
ATOM     13  C   UNL     1      23.310  -1.242  31.455  1.00  0.00     0.162 A 
ATOM     14  C   UNL     1      21.972  -1.182  28.991  1.00  0.00     0.068 A 
ATOM     15  C   UNL     1      22.500  -2.336  31.066  1.00  0.00     0.200 A 
ATOM     16  C   UNL     1      21.838  -2.296  29.824  1.00  0.00     0.162 A 
BRANCH  13  17
ATOM     17  O   UNL     1      24.008  -1.212  32.665  1.00  0.00    -0.504 OA
ATOM     18  H   UNL     1      23.996  -1.959  33.345  1.00  0.00     0.293 HD
ENDBRANCH  13  17
BRANCH  15  19
ATOM     19  O   UNL     1      22.332  -3.464  31.872  1.00  0.00    -0.502 OA
ATOM     20  H   UNL     1      23.092  -3.979  32.292  1.00  0.00     0.293 HD
ENDBRANCH  15  19
BRANCH  16  21
ATOM     21  O   UNL     1      21.043  -3.360  29.397  1.00  0.00    -0.504 OA
ATOM     22  H   UNL     1      21.168  -3.799  28.493  1.00  0.00     0.293 HD
ENDBRANCH  16  21
ENDBRANCH   1  11
BRANCH  10  23
ATOM     23  O   UNL     1      24.963   0.195  27.501  1.00  0.00    -0.500 OA
ATOM     24  H   UNL     1      24.979  -0.429  26.702  1.00  0.00     0.294 HD
ENDBRANCH  10  23
BRANCH   5  25
ATOM     25  O   UNL     1      20.084   6.234  27.273  1.00  0.00    -0.507 OA
ATOM     26  H   UNL     1      19.744   6.541  28.177  1.00  0.00     0.293 HD
ENDBRANCH   5  25
BRANCH   7  27
ATOM     27  O   UNL     1      24.204   4.850  25.235  1.00  0.00    -0.507 OA
ATOM     28  H   UNL     1      24.357   5.759  24.820  1.00  0.00     0.293 HD
ENDBRANCH   7  27
TORSDOF 7
ENDMDL
MODEL 9
REMARK VINA RESULT:    -4.633      2.090      6.895
REMARK INTER + INTRA:          -6.067
REMARK INTER:                  -5.750
REMARK INTRA:                  -0.317
REMARK UNBOUND:                -0.351
REMARK SMILES Oc1cc(O)c2cc(O)c(-c3cc(O)c(O)c(O)c3)[o+]c2c1
REMARK SMILES IDX 10 1 20 2 21 3 22 4 2 5 3 6 4 7 6 8 7 9 8 10 11 11 12 12
REMARK SMILES IDX 13 13 19 14 15 15 17 16 14 17 16 19 18 21 9 23 1 25 5 27
REMARK H PARENT 14 18 16 20 18 22 9 24 1 26 5 28
REMARK Flexibility Score: inf
ROOT
ATOM      1  C   UNL     1      22.839   1.818  27.999  1.00  0.00     0.402 A 
ATOM      2  O   UNL     1      21.866   2.680  27.719  1.00  0.00    -0.202 OA
ATOM      3  C   UNL     1      21.903   3.513  26.683  1.00  0.00     0.368 A 
ATOM      4  C   UNL     1      20.833   4.386  26.474  1.00  0.00     0.162 A 
ATOM      5  C   UNL     1      20.849   5.273  25.393  1.00  0.00     0.128 A 
ATOM      6  C   UNL     1      21.939   5.288  24.521  1.00  0.00     0.093 A 
ATOM      7  C   UNL     1      23.024   4.422  24.709  1.00  0.00     0.136 A 
ATOM      8  C   UNL     1      23.012   3.518  25.803  1.00  0.00     0.125 A 
ATOM      9  C   UNL     1      24.049   2.606  26.062  1.00  0.00     0.078 A 
ATOM     10  C   UNL     1      23.964   1.742  27.157  1.00  0.00     0.223 A 
ENDROOT
BRANCH   1  11
ATOM     11  C   UNL     1      22.684   0.949  29.188  1.00  0.00     0.091 A 
ATOM     12  C   UNL     1      22.320  -0.393  29.019  1.00  0.00     0.068 A 
ATOM     13  C   UNL     1      22.145  -1.238  30.121  1.00  0.00     0.162 A 
ATOM     14  C   UNL     1      22.839   1.455  30.488  1.00  0.00     0.068 A 
ATOM     15  C   UNL     1      22.325  -0.728  31.430  1.00  0.00     0.200 A 
ATOM     16  C   UNL     1      22.667   0.626  31.601  1.00  0.00     0.162 A 
BRANCH  13  17
ATOM     17  O   UNL     1      21.794  -2.567  29.870  1.00  0.00    -0.504 OA
ATOM     18  H   UNL     1      21.845  -3.306  30.556  1.00  0.00     0.293 HD
ENDBRANCH  13  17
BRANCH  15  19
ATOM     19  O   UNL     1      22.171  -1.524  32.568  1.00  0.00    -0.502 OA
ATOM     20  H   UNL     1      22.294  -2.526  32.581  1.00  0.00     0.293 HD
ENDBRANCH  15  19
BRANCH  16  21
ATOM     21  O   UNL     1      22.837   1.171  32.874  1.00  0.00    -0.504 OA
ATOM     22  H   UNL     1      23.741   1.468  33.219  1.00  0.00     0.293 HD
ENDBRANCH  16  21
ENDBRANCH   1  11
BRANCH  10  23
ATOM     23  O   UNL     1      24.970   0.803  27.386  1.00  0.00    -0.500 OA
ATOM     24  H   UNL     1      25.082   0.351  28.287  1.00  0.00     0.294 HD
ENDBRANCH  10  23
BRANCH   5  25
ATOM     25  O   UNL     1      19.785   6.147  25.178  1.00  0.00    -0.507 OA
ATOM     26  H   UNL     1      19.190   6.456  25.938  1.00  0.00     0.293 HD
ENDBRANCH   5  25
BRANCH   7  27
ATOM     27  O   UNL     1      24.077   4.501  23.794  1.00  0.00    -0.507 OA
ATOM     28  H   UNL     1      24.117   3.990  22.924  1.00  0.00     0.293 HD
ENDBRANCH   7  27
TORSDOF 7
ENDMDL
