MODEL 1
REMARK VINA RESULT:     4.925      0.000      0.000
REMARK INTER + INTRA:           9.126
REMARK INTER:                   6.077
REMARK INTRA:                   3.049
REMARK UNBOUND:                 3.049
REMARK SMILES C=C1CC[C@H]2[C@H]([C@H]3[C@@H](C)CC[C@@H]13)C2(C)C
REMARK SMILES IDX 3 1 2 2 1 3 12 4 9 5 8 6 10 7 7 8 11 9 4 11 5 12 6 13 13 14
REMARK SMILES IDX 14 16 15 17
REMARK H PARENT
REMARK Flexibility Score: 80.00
ROOT
ATOM      1  C   UNL     1       7.008   4.880  13.264  1.00  0.00     0.031 C 
ENDROOT
BRANCH   1   2
ATOM      2  C   UNL     1       5.585   5.371  13.005  1.00  0.00    -0.074 C 
ATOM      3  C   UNL     1       4.952   4.922  11.906  1.00  0.00     0.008 C 
BRANCH   2   4
ATOM      4  C   UNL     1       5.026   6.479  13.924  1.00  0.00     0.018 C 
ATOM      5  C   UNL     1       5.168   8.585  11.315  1.00  0.00     0.008 C 
ATOM      6  C   UNL     1       4.929   8.700  12.831  1.00  0.00    -0.010 C 
ATOM      7  C   UNL     1       3.485   8.259  13.145  1.00  0.00     0.004 C 
ATOM      8  C   UNL     1       5.774   7.821  13.793  1.00  0.00     0.003 CG0
ATOM      9  C   UNL     1       3.542   6.847  13.749  1.00  0.00     0.008 C 
ATOM     10  G   UNL     1       7.320   7.626  13.828  1.00  0.00     0.000 G0
ENDBRANCH   2   4
ENDBRANCH   1   2
BRANCH   1  11
ATOM     11  C   UNL     1       8.083   5.656  12.454  1.00  0.00     0.009 C 
BRANCH  11  12
ATOM     12  C   UNL     1       7.816   7.173  12.442  1.00  0.00    -0.001 C 
ATOM     13  C   UNL     1       7.297   7.594  13.830  1.00  0.00     0.002 CG0
ATOM     14  C   UNL     1       8.537   8.269  13.238  1.00  0.00    -0.029 C 
ATOM     15  G   UNL     1       5.759   7.844  13.794  1.00  0.00     0.000 G0
ATOM     16  C   UNL     1       8.394   9.711  12.740  1.00  0.00     0.011 C 
ATOM     17  C   UNL     1       9.898   7.877  13.837  1.00  0.00     0.011 C 
ENDBRANCH  11  12
ENDBRANCH   1  11
TORSDOF 0
ENDMDL
MODEL 2
REMARK VINA RESULT:     6.161      1.118      3.943
REMARK INTER + INTRA:          10.651
REMARK INTER:                   8.166
REMARK INTRA:                   2.485
REMARK UNBOUND:                 3.049
REMARK SMILES C=C1CC[C@H]2[C@H]([C@H]3[C@@H](C)CC[C@@H]13)C2(C)C
REMARK SMILES IDX 3 1 2 2 1 3 12 4 9 5 8 6 10 7 7 8 11 9 4 11 5 12 6 13 13 14
REMARK SMILES IDX 14 16 15 17
REMARK H PARENT
REMARK Flexibility Score: 80.00
ROOT
ATOM      1  C   UNL     1       4.930   4.914  12.138  1.00  0.00     0.031 C 
ENDROOT
BRANCH   1   2
ATOM      2  C   UNL     1       6.273   5.459  12.618  1.00  0.00    -0.074 C 
ATOM      3  C   UNL     1       6.848   4.875  13.686  1.00  0.00     0.008 C 
BRANCH   2   4
ATOM      4  C   UNL     1       6.805   6.751  11.958  1.00  0.00     0.018 C 
ATOM      5  C   UNL     1       7.047   8.104  15.020  1.00  0.00     0.008 C 
ATOM      6  C   UNL     1       7.142   8.604  13.568  1.00  0.00    -0.010 C 
ATOM      7  C   UNL     1       8.519   8.214  12.993  1.00  0.00     0.004 C 
ATOM      8  C   UNL     1       6.155   8.036  12.511  1.00  0.00     0.003 CG0
ATOM      9  C   UNL     1       8.318   7.012  12.057  1.00  0.00     0.008 C 
ATOM     10  G   UNL     1       4.604   7.906  12.598  1.00  0.00     0.000 G0
ENDBRANCH   2   4
ENDBRANCH   1   2
BRANCH   1  11
ATOM     11  C   UNL     1       3.711   5.607  12.806  1.00  0.00     0.009 C 
BRANCH  11  12
ATOM     12  C   UNL     1       4.117   6.880  13.573  1.00  0.00    -0.001 C 
ATOM     13  C   UNL     1       4.590   7.938  12.559  1.00  0.00     0.002 CG0
ATOM     14  C   UNL     1       3.454   8.263  13.533  1.00  0.00    -0.029 C 
ATOM     15  G   UNL     1       6.144   8.058  12.567  1.00  0.00     0.000 G0
ATOM     16  C   UNL     1       3.759   9.225  14.687  1.00  0.00     0.011 C 
ATOM     17  C   UNL     1       2.030   8.308  12.955  1.00  0.00     0.011 C 
ENDBRANCH  11  12
ENDBRANCH   1  11
TORSDOF 0
ENDMDL
MODEL 3
REMARK VINA RESULT:     7.044      1.284      4.447
REMARK INTER + INTRA:          11.741
REMARK INTER:                   9.163
REMARK INTRA:                   2.577
REMARK UNBOUND:                 3.049
REMARK SMILES C=C1CC[C@H]2[C@H]([C@H]3[C@@H](C)CC[C@@H]13)C2(C)C
REMARK SMILES IDX 3 1 2 2 1 3 12 4 9 5 8 6 10 7 7 8 11 9 4 11 5 12 6 13 13 14
REMARK SMILES IDX 14 16 15 17
REMARK H PARENT
REMARK Flexibility Score: 80.00
ROOT
ATOM      1  C   UNL     1       5.411   9.267  11.422  1.00  0.00     0.031 C 
ENDROOT
BRANCH   1   2
ATOM      2  C   UNL     1       6.680   8.526  11.837  1.00  0.00    -0.074 C 
ATOM      3  C   UNL     1       7.401   7.919  10.877  1.00  0.00     0.008 C 
BRANCH   2   4
ATOM      4  C   UNL     1       6.966   8.374  13.348  1.00  0.00     0.018 C 
ATOM      5  C   UNL     1       7.111   5.052  12.891  1.00  0.00     0.008 C 
ATOM      6  C   UNL     1       7.062   6.013  14.092  1.00  0.00    -0.010 C 
ATOM      7  C   UNL     1       8.459   6.635  14.293  1.00  0.00     0.004 C 
ATOM      8  C   UNL     1       6.138   7.259  14.020  1.00  0.00     0.003 CG0
ATOM      9  C   UNL     1       8.418   8.074  13.757  1.00  0.00     0.008 C 
ATOM     10  G   UNL     1       4.634   7.334  13.617  1.00  0.00     0.000 G0
ENDBRANCH   2   4
ENDBRANCH   1   2
BRANCH   1  11
ATOM     11  C   UNL     1       4.148   8.363  11.408  1.00  0.00     0.009 C 
BRANCH  11  12
ATOM     12  C   UNL     1       4.376   7.039  12.161  1.00  0.00    -0.001 C 
ATOM     13  C   UNL     1       4.629   7.354  13.647  1.00  0.00     0.002 CG0
ATOM     14  C   UNL     1       3.497   6.403  13.246  1.00  0.00    -0.029 C 
ATOM     15  G   UNL     1       6.142   7.213  13.994  1.00  0.00     0.000 G0
ATOM     16  C   UNL     1       3.690   4.908  13.524  1.00  0.00     0.011 C 
ATOM     17  C   UNL     1       2.061   6.944  13.350  1.00  0.00     0.011 C 
ENDBRANCH  11  12
ENDBRANCH   1  11
TORSDOF 0
ENDMDL
MODEL 4
REMARK VINA RESULT:     7.113      1.276      3.801
REMARK INTER + INTRA:          11.825
REMARK INTER:                   8.752
REMARK INTRA:                   3.073
REMARK UNBOUND:                 3.049
REMARK SMILES C=C1CC[C@H]2[C@H]([C@H]3[C@@H](C)CC[C@@H]13)C2(C)C
REMARK SMILES IDX 3 1 2 2 1 3 12 4 9 5 8 6 10 7 7 8 11 9 4 11 5 12 6 13 13 14
REMARK SMILES IDX 14 16 15 17
REMARK H PARENT
REMARK Flexibility Score: 80.00
ROOT
ATOM      1  C   UNL     1       5.091   4.895  12.403  1.00  0.00     0.031 C 
ENDROOT
BRANCH   1   2
ATOM      2  C   UNL     1       6.466   5.145  13.021  1.00  0.00    -0.074 C 
ATOM      3  C   UNL     1       6.628   4.880  14.330  1.00  0.00     0.008 C 
BRANCH   2   4
ATOM      4  C   UNL     1       7.532   5.844  12.149  1.00  0.00     0.018 C 
ATOM      5  C   UNL     1       7.562   8.360  14.369  1.00  0.00     0.008 C 
ATOM      6  C   UNL     1       8.128   8.107  12.961  1.00  0.00    -0.010 C 
ATOM      7  C   UNL     1       9.379   7.213  13.077  1.00  0.00     0.004 C 
ATOM      8  C   UNL     1       7.255   7.345  11.926  1.00  0.00     0.003 CG0
ATOM      9  C   UNL     1       8.987   5.791  12.649  1.00  0.00     0.008 C 
ATOM     10  G   UNL     1       5.772   7.605  11.524  1.00  0.00     0.000 G0
ENDBRANCH   2   4
ENDBRANCH   1   2
BRANCH   1  11
ATOM     11  C   UNL     1       4.115   6.091  12.572  1.00  0.00     0.009 C 
BRANCH  11  12
ATOM     12  C   UNL     1       4.861   7.431  12.718  1.00  0.00    -0.001 C 
ATOM     13  C   UNL     1       5.815   7.598  11.520  1.00  0.00     0.002 CG0
ATOM     14  C   UNL     1       4.765   8.672  11.820  1.00  0.00    -0.029 C 
ATOM     15  G   UNL     1       7.290   7.321  11.942  1.00  0.00     0.000 G0
ATOM     16  C   UNL     1       5.254  10.003  12.401  1.00  0.00     0.011 C 
ATOM     17  C   UNL     1       3.543   8.733  10.888  1.00  0.00     0.011 C 
ENDBRANCH  11  12
ENDBRANCH   1  11
TORSDOF 0
ENDMDL
