MODEL 1
REMARK VINA RESULT:    -5.074      0.000      0.000
REMARK INTER + INTRA:          -5.074
REMARK INTER:                  -5.074
REMARK INTRA:                   0.000
REMARK UNBOUND:                 0.000
REMARK SMILES CC1(C)O[C@]2(C)CC[C@H]1CC2
REMARK SMILES IDX 1 1 2 2 9 3 8 4 7 5 5 6 4 7 11 8 10 9 6 10 3 11
REMARK H PARENT
REMARK Flexibility Score: inf
ROOT
ATOM      1  C   UNL     1      26.382   5.703  20.422  1.00  0.00     0.042 C 
ATOM      2  C   UNL     1      25.008   5.225  20.940  1.00  0.00     0.066 C 
ATOM      3  C   UNL     1      25.141   4.615  22.389  1.00  0.00     0.021 C 
ATOM      4  C   UNL     1      26.047   3.363  22.311  1.00  0.00     0.009 C 
ATOM      5  C   UNL     1      25.522   2.422  21.200  1.00  0.00     0.035 C 
ATOM      6  C   UNL     1      24.210   3.001  20.597  1.00  0.00     0.066 C 
ATOM      7  O   UNL     1      24.485   4.271  20.004  1.00  0.00    -0.369 OA
ATOM      8  C   UNL     1      23.167   3.185  21.737  1.00  0.00     0.035 C 
ATOM      9  C   UNL     1      23.749   4.108  22.836  1.00  0.00     0.009 C 
ATOM     10  C   UNL     1      23.659   2.062  19.518  1.00  0.00     0.042 C 
ATOM     11  C   UNL     1      24.070   6.452  20.949  1.00  0.00     0.042 C 
ENDROOT
TORSDOF 0
ENDMDL
MODEL 2
REMARK VINA RESULT:    -5.074      3.070      5.446
REMARK INTER + INTRA:          -5.074
REMARK INTER:                  -5.074
REMARK INTRA:                   0.000
REMARK UNBOUND:                 0.000
REMARK SMILES CC1(C)O[C@]2(C)CC[C@H]1CC2
REMARK SMILES IDX 1 1 2 2 9 3 8 4 7 5 5 6 4 7 11 8 10 9 6 10 3 11
REMARK H PARENT
REMARK Flexibility Score: inf
ROOT
ATOM      1  C   UNL     1      25.186   7.191  23.722  1.00  0.00     0.042 C 
ATOM      2  C   UNL     1      24.414   7.282  22.388  1.00  0.00     0.066 C 
ATOM      3  C   UNL     1      25.288   7.995  21.286  1.00  0.00     0.021 C 
ATOM      4  C   UNL     1      25.560   9.449  21.743  1.00  0.00     0.009 C 
ATOM      5  C   UNL     1      24.219  10.124  22.119  1.00  0.00     0.035 C 
ATOM      6  C   UNL     1      23.040   9.152  21.825  1.00  0.00     0.066 C 
ATOM      7  O   UNL     1      23.185   7.981  22.631  1.00  0.00    -0.369 OA
ATOM      8  C   UNL     1      23.080   8.747  20.324  1.00  0.00     0.035 C 
ATOM      9  C   UNL     1      24.449   8.104  19.990  1.00  0.00     0.009 C 
ATOM     10  C   UNL     1      21.702   9.820  22.160  1.00  0.00     0.042 C 
ATOM     11  C   UNL     1      24.069   5.839  21.960  1.00  0.00     0.042 C 
ENDROOT
TORSDOF 0
ENDMDL
MODEL 3
REMARK VINA RESULT:    -4.975      2.495      3.895
REMARK INTER + INTRA:          -4.975
REMARK INTER:                  -4.975
REMARK INTRA:                   0.000
REMARK UNBOUND:                 0.000
REMARK SMILES CC1(C)O[C@]2(C)CC[C@H]1CC2
REMARK SMILES IDX 1 1 2 2 9 3 8 4 7 5 5 6 4 7 11 8 10 9 6 10 3 11
REMARK H PARENT
REMARK Flexibility Score: inf
ROOT
ATOM      1  C   UNL     1      26.165   5.072  22.718  1.00  0.00     0.042 C 
ATOM      2  C   UNL     1      24.768   5.710  22.559  1.00  0.00     0.066 C 
ATOM      3  C   UNL     1      24.744   7.161  23.178  1.00  0.00     0.021 C 
ATOM      4  C   UNL     1      25.012   7.048  24.698  1.00  0.00     0.009 C 
ATOM      5  C   UNL     1      24.042   6.009  25.310  1.00  0.00     0.035 C 
ATOM      6  C   UNL     1      23.063   5.495  24.217  1.00  0.00     0.066 C 
ATOM      7  O   UNL     1      23.809   4.846  23.185  1.00  0.00    -0.369 OA
ATOM      8  C   UNL     1      22.300   6.707  23.610  1.00  0.00     0.035 C 
ATOM      9  C   UNL     1      23.312   7.730  23.037  1.00  0.00     0.009 C 
ATOM     10  C   UNL     1      22.073   4.490  24.817  1.00  0.00     0.042 C 
ATOM     11  C   UNL     1      24.455   5.757  21.047  1.00  0.00     0.042 C 
ENDROOT
TORSDOF 0
ENDMDL
MODEL 4
REMARK VINA RESULT:    -4.962      2.386      3.736
REMARK INTER + INTRA:          -4.962
REMARK INTER:                  -4.962
REMARK INTRA:                   0.000
REMARK UNBOUND:                 0.000
REMARK SMILES CC1(C)O[C@]2(C)CC[C@H]1CC2
REMARK SMILES IDX 1 1 2 2 9 3 8 4 7 5 5 6 4 7 11 8 10 9 6 10 3 11
REMARK H PARENT
REMARK Flexibility Score: inf
ROOT
ATOM      1  C   UNL     1      25.865   7.935  21.471  1.00  0.00     0.042 C 
ATOM      2  C   UNL     1      24.937   6.891  20.813  1.00  0.00     0.066 C 
ATOM      3  C   UNL     1      25.757   5.618  20.370  1.00  0.00     0.021 C 
ATOM      4  C   UNL     1      26.780   6.047  19.291  1.00  0.00     0.009 C 
ATOM      5  C   UNL     1      26.046   6.832  18.177  1.00  0.00     0.035 C 
ATOM      6  C   UNL     1      24.518   6.847  18.463  1.00  0.00     0.066 C 
ATOM      7  O   UNL     1      24.279   7.517  19.703  1.00  0.00    -0.369 OA
ATOM      8  C   UNL     1      24.007   5.382  18.567  1.00  0.00     0.035 C 
ATOM      9  C   UNL     1      24.790   4.631  19.673  1.00  0.00     0.009 C 
ATOM     10  C   UNL     1      23.774   7.592  17.349  1.00  0.00     0.042 C 
ATOM     11  C   UNL     1      23.863   6.511  21.856  1.00  0.00     0.042 C 
ENDROOT
TORSDOF 0
ENDMDL
MODEL 5
REMARK VINA RESULT:    -4.904      2.924      4.600
REMARK INTER + INTRA:          -4.904
REMARK INTER:                  -4.904
REMARK INTRA:                   0.000
REMARK UNBOUND:                 0.000
REMARK SMILES CC1(C)O[C@]2(C)CC[C@H]1CC2
REMARK SMILES IDX 1 1 2 2 9 3 8 4 7 5 5 6 4 7 11 8 10 9 6 10 3 11
REMARK H PARENT
REMARK Flexibility Score: inf
ROOT
ATOM      1  C   UNL     1      25.223   5.887  20.484  1.00  0.00     0.042 C 
ATOM      2  C   UNL     1      24.622   7.300  20.652  1.00  0.00     0.066 C 
ATOM      3  C   UNL     1      25.572   8.209  21.524  1.00  0.00     0.021 C 
ATOM      4  C   UNL     1      25.671   7.595  22.942  1.00  0.00     0.009 C 
ATOM      5  C   UNL     1      24.245   7.344  23.488  1.00  0.00     0.035 C 
ATOM      6  C   UNL     1      23.191   7.876  22.475  1.00  0.00     0.066 C 
ATOM      7  O   UNL     1      23.322   7.163  21.244  1.00  0.00    -0.369 OA
ATOM      8  C   UNL     1      23.453   9.388  22.220  1.00  0.00     0.035 C 
ATOM      9  C   UNL     1      24.899   9.591  21.703  1.00  0.00     0.009 C 
ATOM     10  C   UNL     1      21.774   7.666  23.019  1.00  0.00     0.042 C 
ATOM     11  C   UNL     1      24.446   7.894  19.238  1.00  0.00     0.042 C 
ENDROOT
TORSDOF 0
ENDMDL
MODEL 6
REMARK VINA RESULT:    -4.851      1.893      4.273
REMARK INTER + INTRA:          -4.851
REMARK INTER:                  -4.851
REMARK INTRA:                   0.000
REMARK UNBOUND:                 0.000
REMARK SMILES CC1(C)O[C@]2(C)CC[C@H]1CC2
REMARK SMILES IDX 1 1 2 2 9 3 8 4 7 5 5 6 4 7 11 8 10 9 6 10 3 11
REMARK H PARENT
REMARK Flexibility Score: inf
ROOT
ATOM      1  C   UNL     1      24.862   4.165  21.000  1.00  0.00     0.042 C 
ATOM      2  C   UNL     1      24.538   5.158  19.864  1.00  0.00     0.066 C 
ATOM      3  C   UNL     1      25.864   5.711  19.211  1.00  0.00     0.021 C 
ATOM      4  C   UNL     1      26.645   6.503  20.287  1.00  0.00     0.009 C 
ATOM      5  C   UNL     1      25.700   7.541  20.940  1.00  0.00     0.035 C 
ATOM      6  C   UNL     1      24.313   7.506  20.238  1.00  0.00     0.066 C 
ATOM      7  O   UNL     1      23.732   6.212  20.410  1.00  0.00    -0.369 OA
ATOM      8  C   UNL     1      24.508   7.780  18.719  1.00  0.00     0.035 C 
ATOM      9  C   UNL     1      25.481   6.736  18.118  1.00  0.00     0.009 C 
ATOM     10  C   UNL     1      23.378   8.553  20.851  1.00  0.00     0.042 C 
ATOM     11  C   UNL     1      23.691   4.399  18.819  1.00  0.00     0.042 C 
ENDROOT
TORSDOF 0
ENDMDL
MODEL 7
REMARK VINA RESULT:    -4.848      1.957      4.265
REMARK INTER + INTRA:          -4.848
REMARK INTER:                  -4.848
REMARK INTRA:                   0.000
REMARK UNBOUND:                 0.000
REMARK SMILES CC1(C)O[C@]2(C)CC[C@H]1CC2
REMARK SMILES IDX 1 1 2 2 9 3 8 4 7 5 5 6 4 7 11 8 10 9 6 10 3 11
REMARK H PARENT
REMARK Flexibility Score: inf
ROOT
ATOM      1  C   UNL     1      23.899   5.224  21.777  1.00  0.00     0.042 C 
ATOM      2  C   UNL     1      24.513   5.384  20.369  1.00  0.00     0.066 C 
ATOM      3  C   UNL     1      25.956   6.014  20.458  1.00  0.00     0.021 C 
ATOM      4  C   UNL     1      25.833   7.437  21.055  1.00  0.00     0.009 C 
ATOM      5  C   UNL     1      24.769   8.232  20.258  1.00  0.00     0.035 C 
ATOM      6  C   UNL     1      24.249   7.372  19.072  1.00  0.00     0.066 C 
ATOM      7  O   UNL     1      23.625   6.193  19.584  1.00  0.00    -0.369 OA
ATOM      8  C   UNL     1      25.453   6.963  18.176  1.00  0.00     0.035 C 
ATOM      9  C   UNL     1      26.500   6.198  19.022  1.00  0.00     0.009 C 
ATOM     10  C   UNL     1      23.219   8.159  18.253  1.00  0.00     0.042 C 
ATOM     11  C   UNL     1      24.570   3.978  19.732  1.00  0.00     0.042 C 
ENDROOT
TORSDOF 0
ENDMDL
MODEL 8
REMARK VINA RESULT:    -4.817      2.363      3.247
REMARK INTER + INTRA:          -4.817
REMARK INTER:                  -4.817
REMARK INTRA:                   0.000
REMARK UNBOUND:                 0.000
REMARK SMILES CC1(C)O[C@]2(C)CC[C@H]1CC2
REMARK SMILES IDX 1 1 2 2 9 3 8 4 7 5 5 6 4 7 11 8 10 9 6 10 3 11
REMARK H PARENT
REMARK Flexibility Score: inf
ROOT
ATOM      1  C   UNL     1      24.412   8.617  22.237  1.00  0.00     0.042 C 
ATOM      2  C   UNL     1      23.674   7.428  22.889  1.00  0.00     0.066 C 
ATOM      3  C   UNL     1      24.261   7.126  24.322  1.00  0.00     0.021 C 
ATOM      4  C   UNL     1      25.741   6.699  24.164  1.00  0.00     0.009 C 
ATOM      5  C   UNL     1      25.834   5.565  23.114  1.00  0.00     0.035 C 
ATOM      6  C   UNL     1      24.407   5.169  22.638  1.00  0.00     0.066 C 
ATOM      7  O   UNL     1      23.791   6.297  22.014  1.00  0.00    -0.369 OA
ATOM      8  C   UNL     1      23.562   4.744  23.873  1.00  0.00     0.035 C 
ATOM      9  C   UNL     1      23.522   5.898  24.905  1.00  0.00     0.009 C 
ATOM     10  C   UNL     1      24.482   4.023  21.624  1.00  0.00     0.042 C 
ATOM     11  C   UNL     1      22.181   7.811  22.982  1.00  0.00     0.042 C 
ENDROOT
TORSDOF 0
ENDMDL
MODEL 9
REMARK VINA RESULT:    -4.746      3.003      4.382
REMARK INTER + INTRA:          -4.746
REMARK INTER:                  -4.746
REMARK INTRA:                   0.000
REMARK UNBOUND:                 0.000
REMARK SMILES CC1(C)O[C@]2(C)CC[C@H]1CC2
REMARK SMILES IDX 1 1 2 2 9 3 8 4 7 5 5 6 4 7 11 8 10 9 6 10 3 11
REMARK H PARENT
REMARK Flexibility Score: inf
ROOT
ATOM      1  C   UNL     1      24.731   7.891  20.490  1.00  0.00     0.042 C 
ATOM      2  C   UNL     1      25.551   8.089  21.782  1.00  0.00     0.066 C 
ATOM      3  C   UNL     1      26.888   7.253  21.727  1.00  0.00     0.021 C 
ATOM      4  C   UNL     1      26.523   5.750  21.656  1.00  0.00     0.009 C 
ATOM      5  C   UNL     1      25.532   5.413  22.797  1.00  0.00     0.035 C 
ATOM      6  C   UNL     1      25.307   6.668  23.687  1.00  0.00     0.066 C 
ATOM      7  O   UNL     1      24.729   7.708  22.895  1.00  0.00    -0.369 OA
ATOM      8  C   UNL     1      26.679   7.150  24.239  1.00  0.00     0.035 C 
ATOM      9  C   UNL     1      27.643   7.447  23.064  1.00  0.00     0.009 C 
ATOM     10  C   UNL     1      24.355   6.340  24.842  1.00  0.00     0.042 C 
ATOM     11  C   UNL     1      25.857   9.597  21.905  1.00  0.00     0.042 C 
ENDROOT
TORSDOF 0
ENDMDL
