MODEL 1
REMARK VINA RESULT:    -5.644      0.000      0.000
REMARK INTER + INTRA:          -9.867
REMARK INTER:                  -8.284
REMARK INTRA:                  -1.582
REMARK UNBOUND:                -1.582
REMARK SMILES O=c1c(O[C@@H]2O[C@H](CO)[C@H](O)[C@H](O)[C@H]2O)c(-c2ccc(O)c(O)c2)oc2cc(O)cc(O)c12
REMARK SMILES IDX 4 1 3 2 16 3 25 4 2 5 26 6 1 7 33 8 27 9 31 10 28 11 30 12
REMARK SMILES IDX 17 13 18 14 19 15 20 16 24 17 22 18 21 19 23 21 32 23 29 25
REMARK SMILES IDX 5 27 14 28 6 29 12 30 7 31 10 32 15 33 13 35 8 37 9 38 11 40
REMARK H PARENT 21 20 23 22 32 24 29 26 15 34 13 36 9 39 11 41
REMARK Flexibility Score: inf
ROOT
ATOM      1  O   UNL     1      -3.881  37.807   6.734  1.00  0.00    -0.454 OA
ENDROOT
BRANCH   1   2
ATOM      2  C   UNL     1      -2.472  37.863   6.795  1.00  0.00     0.214 A 
ATOM      3  C   UNL     1      -1.854  38.980   7.401  1.00  0.00     0.180 A 
ATOM      4  O   UNL     1      -0.547  39.140   7.297  1.00  0.00    -0.452 OA
ATOM      5  C   UNL     1      -1.652  36.853   6.248  1.00  0.00     0.239 A 
ATOM      6  C   UNL     1       0.258  38.252   6.720  1.00  0.00     0.146 A 
ATOM      7  O   UNL     1      -2.171  35.809   5.776  1.00  0.00    -0.285 OA
ATOM      8  C   UNL     1      -0.252  37.024   6.232  1.00  0.00     0.111 A 
ATOM      9  C   UNL     1       1.614  38.543   6.602  1.00  0.00     0.094 A 
ATOM     10  C   UNL     1       0.655  36.042   5.775  1.00  0.00     0.134 A 
ATOM     11  C   UNL     1       2.490  37.616   6.027  1.00  0.00     0.123 A 
ATOM     12  C   UNL     1       2.023  36.346   5.681  1.00  0.00     0.093 A 
BRANCH   3  13
ATOM     13  C   UNL     1      -2.609  39.977   8.200  1.00  0.00     0.025 A 
ATOM     14  C   UNL     1      -3.109  39.626   9.473  1.00  0.00     0.016 A 
ATOM     15  C   UNL     1      -3.977  40.485  10.152  1.00  0.00     0.051 A 
ATOM     16  C   UNL     1      -4.298  41.739   9.608  1.00  0.00     0.157 A 
ATOM     17  C   UNL     1      -2.946  41.226   7.660  1.00  0.00     0.062 A 
ATOM     18  C   UNL     1      -3.750  42.123   8.371  1.00  0.00     0.158 A 
BRANCH  16  19
ATOM     19  O   UNL     1      -5.140  42.615  10.287  1.00  0.00    -0.504 OA
ATOM     20  H   UNL     1      -5.079  43.623  10.204  1.00  0.00     0.293 HD
ENDBRANCH  16  19
BRANCH  18  21
ATOM     21  O   UNL     1      -4.061  43.354   7.796  1.00  0.00    -0.504 OA
ATOM     22  H   UNL     1      -3.348  44.003   7.490  1.00  0.00     0.293 HD
ENDBRANCH  18  21
ENDBRANCH   3  13
BRANCH  10  23
ATOM     23  O   UNL     1       0.215  34.771   5.404  1.00  0.00    -0.507 OA
ATOM     24  H   UNL     1      -0.263  34.617   4.520  1.00  0.00     0.293 HD
ENDBRANCH  10  23
BRANCH  11  25
ATOM     25  O   UNL     1       3.805  37.994   5.750  1.00  0.00    -0.508 OA
ATOM     26  H   UNL     1       4.534  37.428   6.165  1.00  0.00     0.293 HD
ENDBRANCH  11  25
ENDBRANCH   1   2
BRANCH   1  27
ATOM     27  C   UNL     1      -4.742  37.232   7.711  1.00  0.00     0.339 C 
ATOM     28  C   UNL     1      -5.759  36.276   6.982  1.00  0.00     0.214 C 
ATOM     29  O   UNL     1      -3.957  36.516   8.661  1.00  0.00    -0.332 OA
ATOM     30  C   UNL     1      -5.552  34.814   7.385  1.00  0.00     0.180 C 
ATOM     31  C   UNL     1      -4.808  35.870   9.599  1.00  0.00     0.179 C 
ATOM     32  C   UNL     1      -5.587  34.684   8.924  1.00  0.00     0.177 C 
BRANCH  28  33
ATOM     33  O   UNL     1      -7.111  36.624   7.188  1.00  0.00    -0.384 OA
ATOM     34  H   UNL     1      -7.675  36.146   6.527  1.00  0.00     0.211 HD
ENDBRANCH  28  33
BRANCH  30  35
ATOM     35  O   UNL     1      -4.312  34.388   6.879  1.00  0.00    -0.387 OA
ATOM     36  H   UNL     1      -3.609  34.895   7.369  1.00  0.00     0.211 HD
ENDBRANCH  30  35
BRANCH  31  37
ATOM     37  C   UNL     1      -4.000  35.437  10.845  1.00  0.00     0.191 C 
BRANCH  37  38
ATOM     38  O   UNL     1      -2.809  34.759  10.542  1.00  0.00    -0.394 OA
ATOM     39  H   UNL     1      -2.864  33.799  10.815  1.00  0.00     0.210 HD
ENDBRANCH  37  38
ENDBRANCH  31  37
BRANCH  32  40
ATOM     40  O   UNL     1      -5.086  33.420   9.287  1.00  0.00    -0.387 OA
ATOM     41  H   UNL     1      -5.647  33.085  10.032  1.00  0.00     0.211 HD
ENDBRANCH  32  40
ENDBRANCH   1  27
TORSDOF 12
ENDMDL
MODEL 2
REMARK VINA RESULT:    -5.578      0.837      1.363
REMARK INTER + INTRA:          -9.768
REMARK INTER:                  -8.230
REMARK INTRA:                  -1.538
REMARK UNBOUND:                -1.582
REMARK SMILES O=c1c(O[C@@H]2O[C@H](CO)[C@H](O)[C@H](O)[C@H]2O)c(-c2ccc(O)c(O)c2)oc2cc(O)cc(O)c12
REMARK SMILES IDX 4 1 3 2 16 3 25 4 2 5 26 6 1 7 33 8 27 9 31 10 28 11 30 12
REMARK SMILES IDX 17 13 18 14 19 15 20 16 24 17 22 18 21 19 23 21 32 23 29 25
REMARK SMILES IDX 5 27 14 28 6 29 12 30 7 31 10 32 15 33 13 35 8 37 9 38 11 40
REMARK H PARENT 21 20 23 22 32 24 29 26 15 34 13 36 9 39 11 41
REMARK Flexibility Score: inf
ROOT
ATOM      1  O   UNL     1      -3.545  37.442   6.647  1.00  0.00    -0.454 OA
ENDROOT
BRANCH   1   2
ATOM      2  C   UNL     1      -2.167  37.745   6.660  1.00  0.00     0.214 A 
ATOM      3  C   UNL     1      -1.742  38.990   7.178  1.00  0.00     0.180 A 
ATOM      4  O   UNL     1      -0.486  39.367   7.023  1.00  0.00    -0.452 OA
ATOM      5  C   UNL     1      -1.194  36.860   6.149  1.00  0.00     0.239 A 
ATOM      6  C   UNL     1       0.451  38.597   6.476  1.00  0.00     0.146 A 
ATOM      7  O   UNL     1      -1.532  35.713   5.758  1.00  0.00    -0.285 OA
ATOM      8  C   UNL     1       0.154  37.270   6.079  1.00  0.00     0.111 A 
ATOM      9  C   UNL     1       1.732  39.110   6.298  1.00  0.00     0.094 A 
ATOM     10  C   UNL     1       1.209  36.433   5.654  1.00  0.00     0.134 A 
ATOM     11  C   UNL     1       2.745  38.314   5.753  1.00  0.00     0.123 A 
ATOM     12  C   UNL     1       2.501  36.962   5.499  1.00  0.00     0.093 A 
BRANCH   3  13
ATOM     13  C   UNL     1      -2.643  39.890   7.939  1.00  0.00     0.025 A 
ATOM     14  C   UNL     1      -2.942  41.176   7.438  1.00  0.00     0.016 A 
ATOM     15  C   UNL     1      -3.632  42.099   8.228  1.00  0.00     0.051 A 
ATOM     16  C   UNL     1      -4.103  41.728   9.498  1.00  0.00     0.157 A 
ATOM     17  C   UNL     1      -3.107  39.535   9.213  1.00  0.00     0.062 A 
ATOM     18  C   UNL     1      -3.868  40.427   9.976  1.00  0.00     0.158 A 
BRANCH  16  19
ATOM     19  O   UNL     1      -4.815  42.629  10.284  1.00  0.00    -0.504 OA
ATOM     20  H   UNL     1      -5.521  43.255   9.913  1.00  0.00     0.293 HD
ENDBRANCH  16  19
BRANCH  18  21
ATOM     21  O   UNL     1      -4.308  40.032  11.239  1.00  0.00    -0.504 OA
ATOM     22  H   UNL     1      -4.763  40.671  11.876  1.00  0.00     0.293 HD
ENDBRANCH  18  21
ENDBRANCH   3  13
BRANCH  10  23
ATOM     23  O   UNL     1       0.991  35.083   5.375  1.00  0.00    -0.507 OA
ATOM     24  H   UNL     1       0.072  34.664   5.491  1.00  0.00     0.293 HD
ENDBRANCH  10  23
BRANCH  11  25
ATOM     25  O   UNL     1       3.968  38.895   5.412  1.00  0.00    -0.508 OA
ATOM     26  H   UNL     1       4.796  38.343   5.592  1.00  0.00     0.293 HD
ENDBRANCH  11  25
ENDBRANCH   1   2
BRANCH   1  27
ATOM     27  C   UNL     1      -4.271  36.785   7.681  1.00  0.00     0.339 C 
ATOM     28  C   UNL     1      -5.193  35.688   7.026  1.00  0.00     0.214 C 
ATOM     29  O   UNL     1      -3.349  36.200   8.597  1.00  0.00    -0.332 OA
ATOM     30  C   UNL     1      -4.776  34.276   7.443  1.00  0.00     0.180 C 
ATOM     31  C   UNL     1      -4.058  35.472   9.593  1.00  0.00     0.179 C 
ATOM     32  C   UNL     1      -4.711  34.179   8.983  1.00  0.00     0.177 C 
BRANCH  28  33
ATOM     33  O   UNL     1      -6.566  35.865   7.302  1.00  0.00    -0.384 OA
ATOM     34  H   UNL     1      -6.750  35.579   8.232  1.00  0.00     0.211 HD
ENDBRANCH  28  33
BRANCH  30  35
ATOM     35  O   UNL     1      -3.520  34.000   6.875  1.00  0.00    -0.387 OA
ATOM     36  H   UNL     1      -3.056  34.874   6.760  1.00  0.00     0.211 HD
ENDBRANCH  30  35
BRANCH  31  37
ATOM     37  C   UNL     1      -3.135  35.177  10.799  1.00  0.00     0.191 C 
BRANCH  37  38
ATOM     38  O   UNL     1      -1.853  34.734  10.438  1.00  0.00    -0.394 OA
ATOM     39  H   UNL     1      -1.674  34.907   9.470  1.00  0.00     0.210 HD
ENDBRANCH  37  38
ENDBRANCH  31  37
BRANCH  32  40
ATOM     40  O   UNL     1      -4.032  33.000   9.340  1.00  0.00    -0.387 OA
ATOM     41  H   UNL     1      -4.145  32.880  10.316  1.00  0.00     0.211 HD
ENDBRANCH  32  40
ENDBRANCH   1  27
TORSDOF 12
ENDMDL
MODEL 3
REMARK VINA RESULT:    -5.225      2.243      7.919
REMARK INTER + INTRA:          -9.251
REMARK INTER:                  -7.903
REMARK INTRA:                  -1.348
REMARK UNBOUND:                -1.582
REMARK SMILES O=c1c(O[C@@H]2O[C@H](CO)[C@H](O)[C@H](O)[C@H]2O)c(-c2ccc(O)c(O)c2)oc2cc(O)cc(O)c12
REMARK SMILES IDX 4 1 3 2 16 3 25 4 2 5 26 6 1 7 33 8 27 9 31 10 28 11 30 12
REMARK SMILES IDX 17 13 18 14 19 15 20 16 24 17 22 18 21 19 23 21 32 23 29 25
REMARK SMILES IDX 5 27 14 28 6 29 12 30 7 31 10 32 15 33 13 35 8 37 9 38 11 40
REMARK H PARENT 21 20 23 22 32 24 29 26 15 34 13 36 9 39 11 41
REMARK Flexibility Score: inf
ROOT
ATOM      1  O   UNL     1      -2.792  40.022   6.734  1.00  0.00    -0.454 OA
ENDROOT
BRANCH   1   2
ATOM      2  C   UNL     1      -3.762  40.216   7.741  1.00  0.00     0.214 A 
ATOM      3  C   UNL     1      -4.494  39.104   8.214  1.00  0.00     0.180 A 
ATOM      4  O   UNL     1      -5.529  39.296   9.011  1.00  0.00    -0.452 OA
ATOM      5  C   UNL     1      -4.048  41.490   8.276  1.00  0.00     0.239 A 
ATOM      6  C   UNL     1      -5.886  40.488   9.480  1.00  0.00     0.146 A 
ATOM      7  O   UNL     1      -3.358  42.485   7.936  1.00  0.00    -0.285 OA
ATOM      8  C   UNL     1      -5.111  41.638   9.192  1.00  0.00     0.111 A 
ATOM      9  C   UNL     1      -7.033  40.595  10.261  1.00  0.00     0.094 A 
ATOM     10  C   UNL     1      -5.429  42.854   9.837  1.00  0.00     0.134 A 
ATOM     11  C   UNL     1      -7.416  41.831  10.792  1.00  0.00     0.123 A 
ATOM     12  C   UNL     1      -6.579  42.939  10.639  1.00  0.00     0.093 A 
BRANCH   3  13
ATOM     13  C   UNL     1      -4.122  37.705   7.890  1.00  0.00     0.025 A 
ATOM     14  C   UNL     1      -4.761  37.035   6.824  1.00  0.00     0.016 A 
ATOM     15  C   UNL     1      -4.560  35.666   6.627  1.00  0.00     0.051 A 
ATOM     16  C   UNL     1      -3.658  34.962   7.441  1.00  0.00     0.157 A 
ATOM     17  C   UNL     1      -3.234  36.989   8.705  1.00  0.00     0.062 A 
ATOM     18  C   UNL     1      -2.967  35.637   8.463  1.00  0.00     0.158 A 
BRANCH  16  19
ATOM     19  O   UNL     1      -3.428  33.604   7.238  1.00  0.00    -0.504 OA
ATOM     20  H   UNL     1      -3.028  33.228   6.386  1.00  0.00     0.293 HD
ENDBRANCH  16  19
BRANCH  18  21
ATOM     21  O   UNL     1      -2.078  34.964   9.299  1.00  0.00    -0.504 OA
ATOM     22  H   UNL     1      -1.074  35.040   9.194  1.00  0.00     0.293 HD
ENDBRANCH  18  21
ENDBRANCH   3  13
BRANCH  10  23
ATOM     23  O   UNL     1      -4.621  43.982   9.688  1.00  0.00    -0.507 OA
ATOM     24  H   UNL     1      -3.936  44.043   8.939  1.00  0.00     0.293 HD
ENDBRANCH  10  23
BRANCH  11  25
ATOM     25  O   UNL     1      -8.659  41.956  11.415  1.00  0.00    -0.508 OA
ATOM     26  H   UNL     1      -9.413  42.321  10.849  1.00  0.00     0.293 HD
ENDBRANCH  11  25
ENDBRANCH   1   2
BRANCH   1  27
ATOM     27  C   UNL     1      -1.384  39.932   6.929  1.00  0.00     0.339 C 
ATOM     28  C   UNL     1      -0.905  38.503   6.470  1.00  0.00     0.214 C 
ATOM     29  O   UNL     1      -0.743  40.955   6.171  1.00  0.00    -0.332 OA
ATOM     30  C   UNL     1       0.018  38.579   5.253  1.00  0.00     0.180 C 
ATOM     31  C   UNL     1       0.668  40.830   6.292  1.00  0.00     0.179 C 
ATOM     32  C   UNL     1       1.184  39.552   5.536  1.00  0.00     0.177 C 
BRANCH  28  33
ATOM     33  O   UNL     1      -0.266  37.766   7.490  1.00  0.00    -0.384 OA
ATOM     34  H   UNL     1      -0.223  38.317   8.312  1.00  0.00     0.211 HD
ENDBRANCH  28  33
BRANCH  30  35
ATOM     35  O   UNL     1      -0.737  39.018   4.151  1.00  0.00    -0.387 OA
ATOM     36  H   UNL     1      -0.183  39.690   3.670  1.00  0.00     0.211 HD
ENDBRANCH  30  35
BRANCH  31  37
ATOM     37  C   UNL     1       1.363  42.132   5.830  1.00  0.00     0.191 C 
BRANCH  37  38
ATOM     38  O   UNL     1       2.741  42.165   6.092  1.00  0.00    -0.394 OA
ATOM     39  H   UNL     1       3.033  43.082   6.362  1.00  0.00     0.210 HD
ENDBRANCH  37  38
ENDBRANCH  31  37
BRANCH  32  40
ATOM     40  O   UNL     1       1.833  39.854   4.326  1.00  0.00    -0.387 OA
ATOM     41  H   UNL     1       1.827  40.840   4.227  1.00  0.00     0.211 HD
ENDBRANCH  32  40
ENDBRANCH   1  27
TORSDOF 12
ENDMDL
MODEL 4
REMARK VINA RESULT:    -5.193      1.829      3.010
REMARK INTER + INTRA:          -9.204
REMARK INTER:                  -7.798
REMARK INTRA:                  -1.407
REMARK UNBOUND:                -1.582
REMARK SMILES O=c1c(O[C@@H]2O[C@H](CO)[C@H](O)[C@H](O)[C@H]2O)c(-c2ccc(O)c(O)c2)oc2cc(O)cc(O)c12
REMARK SMILES IDX 4 1 3 2 16 3 25 4 2 5 26 6 1 7 33 8 27 9 31 10 28 11 30 12
REMARK SMILES IDX 17 13 18 14 19 15 20 16 24 17 22 18 21 19 23 21 32 23 29 25
REMARK SMILES IDX 5 27 14 28 6 29 12 30 7 31 10 32 15 33 13 35 8 37 9 38 11 40
REMARK H PARENT 21 20 23 22 32 24 29 26 15 34 13 36 9 39 11 41
REMARK Flexibility Score: inf
ROOT
ATOM      1  O   UNL     1      -3.846  36.873   6.941  1.00  0.00    -0.454 OA
ENDROOT
BRANCH   1   2
ATOM      2  C   UNL     1      -2.465  37.152   6.862  1.00  0.00     0.214 A 
ATOM      3  C   UNL     1      -1.988  38.402   7.316  1.00  0.00     0.180 A 
ATOM      4  O   UNL     1      -0.738  38.751   7.075  1.00  0.00    -0.452 OA
ATOM      5  C   UNL     1      -1.540  36.235   6.319  1.00  0.00     0.239 A 
ATOM      6  C   UNL     1       0.151  37.949   6.495  1.00  0.00     0.146 A 
ATOM      7  O   UNL     1      -1.920  35.084   5.983  1.00  0.00    -0.285 OA
ATOM      8  C   UNL     1      -0.192  36.617   6.155  1.00  0.00     0.111 A 
ATOM      9  C   UNL     1       1.427  38.434   6.224  1.00  0.00     0.094 A 
ATOM     10  C   UNL     1       0.821  35.749   5.691  1.00  0.00     0.134 A 
ATOM     11  C   UNL     1       2.391  37.604   5.642  1.00  0.00     0.123 A 
ATOM     12  C   UNL     1       2.109  36.251   5.442  1.00  0.00     0.093 A 
BRANCH   3  13
ATOM     13  C   UNL     1      -2.826  39.339   8.104  1.00  0.00     0.025 A 
ATOM     14  C   UNL     1      -3.031  40.659   7.644  1.00  0.00     0.016 A 
ATOM     15  C   UNL     1      -3.657  41.603   8.462  1.00  0.00     0.051 A 
ATOM     16  C   UNL     1      -4.157  41.226   9.719  1.00  0.00     0.157 A 
ATOM     17  C   UNL     1      -3.319  38.978   9.366  1.00  0.00     0.062 A 
ATOM     18  C   UNL     1      -4.017  39.898  10.156  1.00  0.00     0.158 A 
BRANCH  16  19
ATOM     19  O   UNL     1      -4.806  42.151  10.532  1.00  0.00    -0.504 OA
ATOM     20  H   UNL     1      -5.509  41.895  11.217  1.00  0.00     0.293 HD
ENDBRANCH  16  19
BRANCH  18  21
ATOM     21  O   UNL     1      -4.488  39.495  11.405  1.00  0.00    -0.504 OA
ATOM     22  H   UNL     1      -5.225  38.810  11.509  1.00  0.00     0.293 HD
ENDBRANCH  18  21
ENDBRANCH   3  13
BRANCH  10  23
ATOM     23  O   UNL     1       0.564  34.397   5.465  1.00  0.00    -0.507 OA
ATOM     24  H   UNL     1      -0.304  34.092   5.030  1.00  0.00     0.293 HD
ENDBRANCH  10  23
BRANCH  11  25
ATOM     25  O   UNL     1       3.600  38.153   5.210  1.00  0.00    -0.508 OA
ATOM     26  H   UNL     1       4.170  38.601   5.916  1.00  0.00     0.293 HD
ENDBRANCH  11  25
ENDBRANCH   1   2
BRANCH   1  27
ATOM     27  C   UNL     1      -4.828  37.208   5.966  1.00  0.00     0.339 C 
ATOM     28  C   UNL     1      -5.356  35.877   5.311  1.00  0.00     0.214 C 
ATOM     29  O   UNL     1      -5.887  37.923   6.598  1.00  0.00    -0.332 OA
ATOM     30  C   UNL     1      -6.832  35.634   5.631  1.00  0.00     0.180 C 
ATOM     31  C   UNL     1      -6.914  38.196   5.653  1.00  0.00     0.179 C 
ATOM     32  C   UNL     1      -7.666  36.877   5.247  1.00  0.00     0.177 C 
BRANCH  28  33
ATOM     33  O   UNL     1      -5.173  35.823   3.912  1.00  0.00    -0.384 OA
ATOM     34  H   UNL     1      -5.862  36.381   3.472  1.00  0.00     0.211 HD
ENDBRANCH  28  33
BRANCH  30  35
ATOM     35  O   UNL     1      -6.948  35.366   7.006  1.00  0.00    -0.387 OA
ATOM     36  H   UNL     1      -6.843  36.235   7.481  1.00  0.00     0.211 HD
ENDBRANCH  30  35
BRANCH  31  37
ATOM     37  C   UNL     1      -7.860  39.294   6.192  1.00  0.00     0.191 C 
BRANCH  37  38
ATOM     38  O   UNL     1      -8.312  39.063   7.500  1.00  0.00    -0.394 OA
ATOM     39  H   UNL     1      -7.916  38.224   7.872  1.00  0.00     0.210 HD
ENDBRANCH  37  38
ENDBRANCH  31  37
BRANCH  32  40
ATOM     40  O   UNL     1      -8.942  36.770   5.828  1.00  0.00    -0.387 OA
ATOM     41  H   UNL     1      -9.005  35.870   6.237  1.00  0.00     0.211 HD
ENDBRANCH  32  40
ENDBRANCH   1  27
TORSDOF 12
ENDMDL
MODEL 5
REMARK VINA RESULT:    -5.189      3.376      7.252
REMARK INTER + INTRA:          -9.198
REMARK INTER:                  -7.835
REMARK INTRA:                  -1.363
REMARK UNBOUND:                -1.582
REMARK SMILES O=c1c(O[C@@H]2O[C@H](CO)[C@H](O)[C@H](O)[C@H]2O)c(-c2ccc(O)c(O)c2)oc2cc(O)cc(O)c12
REMARK SMILES IDX 4 1 3 2 16 3 25 4 2 5 26 6 1 7 33 8 27 9 31 10 28 11 30 12
REMARK SMILES IDX 17 13 18 14 19 15 20 16 24 17 22 18 21 19 23 21 32 23 29 25
REMARK SMILES IDX 5 27 14 28 6 29 12 30 7 31 10 32 15 33 13 35 8 37 9 38 11 40
REMARK H PARENT 21 20 23 22 32 24 29 26 15 34 13 36 9 39 11 41
REMARK Flexibility Score: inf
ROOT
ATOM      1  O   UNL     1      -6.768  36.999  10.957  1.00  0.00    -0.454 OA
ENDROOT
BRANCH   1   2
ATOM      2  C   UNL     1      -6.443  38.286  10.475  1.00  0.00     0.214 A 
ATOM      3  C   UNL     1      -5.423  38.420   9.506  1.00  0.00     0.180 A 
ATOM      4  O   UNL     1      -4.978  39.622   9.189  1.00  0.00    -0.452 OA
ATOM      5  C   UNL     1      -7.084  39.452  10.946  1.00  0.00     0.239 A 
ATOM      6  C   UNL     1      -5.499  40.749   9.667  1.00  0.00     0.146 A 
ATOM      7  O   UNL     1      -8.050  39.358  11.745  1.00  0.00    -0.285 OA
ATOM      8  C   UNL     1      -6.633  40.717  10.516  1.00  0.00     0.111 A 
ATOM      9  C   UNL     1      -4.916  41.965   9.323  1.00  0.00     0.094 A 
ATOM     10  C   UNL     1      -7.253  41.935  10.872  1.00  0.00     0.134 A 
ATOM     11  C   UNL     1      -5.460  43.167   9.786  1.00  0.00     0.123 A 
ATOM     12  C   UNL     1      -6.662  43.154  10.498  1.00  0.00     0.093 A 
BRANCH   3  13
ATOM     13  C   UNL     1      -4.848  37.259   8.784  1.00  0.00     0.025 A 
ATOM     14  C   UNL     1      -5.652  36.514   7.893  1.00  0.00     0.016 A 
ATOM     15  C   UNL     1      -5.184  35.314   7.353  1.00  0.00     0.051 A 
ATOM     16  C   UNL     1      -3.878  34.878   7.630  1.00  0.00     0.157 A 
ATOM     17  C   UNL     1      -3.551  36.807   9.064  1.00  0.00     0.062 A 
ATOM     18  C   UNL     1      -3.047  35.648   8.463  1.00  0.00     0.158 A 
BRANCH  16  19
ATOM     19  O   UNL     1      -3.390  33.697   7.077  1.00  0.00    -0.504 OA
ATOM     20  H   UNL     1      -2.904  33.658   6.188  1.00  0.00     0.293 HD
ENDBRANCH  16  19
BRANCH  18  21
ATOM     21  O   UNL     1      -1.752  35.235   8.771  1.00  0.00    -0.504 OA
ATOM     22  H   UNL     1      -1.119  35.805   9.317  1.00  0.00     0.293 HD
ENDBRANCH  18  21
ENDBRANCH   3  13
BRANCH  10  23
ATOM     23  O   UNL     1      -8.443  41.953  11.598  1.00  0.00    -0.507 OA
ATOM     24  H   UNL     1      -8.676  42.733  12.207  1.00  0.00     0.293 HD
ENDBRANCH  10  23
BRANCH  11  25
ATOM     25  O   UNL     1      -4.763  44.360   9.586  1.00  0.00    -0.508 OA
ATOM     26  H   UNL     1      -5.278  45.118   9.156  1.00  0.00     0.293 HD
ENDBRANCH  11  25
ENDBRANCH   1   2
BRANCH   1  27
ATOM     27  C   UNL     1      -6.631  36.545  12.299  1.00  0.00     0.339 C 
ATOM     28  C   UNL     1      -6.501  34.976  12.286  1.00  0.00     0.214 C 
ATOM     29  O   UNL     1      -5.478  37.150  12.880  1.00  0.00    -0.332 OA
ATOM     30  C   UNL     1      -5.126  34.517  12.777  1.00  0.00     0.180 C 
ATOM     31  C   UNL     1      -5.281  36.646  14.195  1.00  0.00     0.179 C 
ATOM     32  C   UNL     1      -4.824  35.143  14.156  1.00  0.00     0.177 C 
BRANCH  28  33
ATOM     33  O   UNL     1      -7.501  34.318  13.034  1.00  0.00    -0.384 OA
ATOM     34  H   UNL     1      -8.191  34.976  13.304  1.00  0.00     0.211 HD
ENDBRANCH  28  33
BRANCH  30  35
ATOM     35  O   UNL     1      -4.164  34.912  11.831  1.00  0.00    -0.387 OA
ATOM     36  H   UNL     1      -3.290  34.546  12.137  1.00  0.00     0.211 HD
ENDBRANCH  30  35
BRANCH  31  37
ATOM     37  C   UNL     1      -4.309  37.558  14.978  1.00  0.00     0.191 C 
BRANCH  37  38
ATOM     38  O   UNL     1      -3.081  37.768  14.332  1.00  0.00    -0.394 OA
ATOM     39  H   UNL     1      -2.717  38.674  14.541  1.00  0.00     0.210 HD
ENDBRANCH  37  38
ENDBRANCH  31  37
BRANCH  32  40
ATOM     40  O   UNL     1      -3.457  34.977  14.445  1.00  0.00    -0.387 OA
ATOM     41  H   UNL     1      -3.193  35.716  15.050  1.00  0.00     0.211 HD
ENDBRANCH  32  40
ENDBRANCH   1  27
TORSDOF 12
ENDMDL
MODEL 6
REMARK VINA RESULT:    -5.095      3.198      7.284
REMARK INTER + INTRA:          -9.060
REMARK INTER:                  -7.599
REMARK INTRA:                  -1.461
REMARK UNBOUND:                -1.582
REMARK SMILES O=c1c(O[C@@H]2O[C@H](CO)[C@H](O)[C@H](O)[C@H]2O)c(-c2ccc(O)c(O)c2)oc2cc(O)cc(O)c12
REMARK SMILES IDX 4 1 3 2 16 3 25 4 2 5 26 6 1 7 33 8 27 9 31 10 28 11 30 12
REMARK SMILES IDX 17 13 18 14 19 15 20 16 24 17 22 18 21 19 23 21 32 23 29 25
REMARK SMILES IDX 5 27 14 28 6 29 12 30 7 31 10 32 15 33 13 35 8 37 9 38 11 40
REMARK H PARENT 21 20 23 22 32 24 29 26 15 34 13 36 9 39 11 41
REMARK Flexibility Score: inf
ROOT
ATOM      1  O   UNL     1      -5.766  37.502  11.250  1.00  0.00    -0.454 OA
ENDROOT
BRANCH   1   2
ATOM      2  C   UNL     1      -5.888  38.691  10.499  1.00  0.00     0.214 A 
ATOM      3  C   UNL     1      -5.292  38.760   9.219  1.00  0.00     0.180 A 
ATOM      4  O   UNL     1      -5.233  39.918   8.588  1.00  0.00    -0.452 OA
ATOM      5  C   UNL     1      -6.563  39.829  10.990  1.00  0.00     0.239 A 
ATOM      6  C   UNL     1      -5.787  41.036   9.049  1.00  0.00     0.146 A 
ATOM      7  O   UNL     1      -7.174  39.771  12.088  1.00  0.00    -0.285 OA
ATOM      8  C   UNL     1      -6.548  41.026  10.243  1.00  0.00     0.111 A 
ATOM      9  C   UNL     1      -5.612  42.221   8.341  1.00  0.00     0.094 A 
ATOM     10  C   UNL     1      -7.253  42.192  10.614  1.00  0.00     0.134 A 
ATOM     11  C   UNL     1      -6.208  43.406   8.786  1.00  0.00     0.123 A 
ATOM     12  C   UNL     1      -7.080  43.375   9.876  1.00  0.00     0.093 A 
BRANCH   3  13
ATOM     13  C   UNL     1      -4.761  37.564   8.519  1.00  0.00     0.025 A 
ATOM     14  C   UNL     1      -5.644  36.688   7.852  1.00  0.00     0.016 A 
ATOM     15  C   UNL     1      -5.185  35.466   7.352  1.00  0.00     0.051 A 
ATOM     16  C   UNL     1      -3.823  35.136   7.441  1.00  0.00     0.157 A 
ATOM     17  C   UNL     1      -3.406  37.218   8.613  1.00  0.00     0.062 A 
ATOM     18  C   UNL     1      -2.925  36.034   8.044  1.00  0.00     0.158 A 
BRANCH  16  19
ATOM     19  O   UNL     1      -3.347  33.934   6.923  1.00  0.00    -0.504 OA
ATOM     20  H   UNL     1      -3.056  33.819   5.959  1.00  0.00     0.293 HD
ENDBRANCH  16  19
BRANCH  18  21
ATOM     21  O   UNL     1      -1.570  35.729   8.162  1.00  0.00    -0.504 OA
ATOM     22  H   UNL     1      -1.078  35.178   7.471  1.00  0.00     0.293 HD
ENDBRANCH  18  21
ENDBRANCH   3  13
BRANCH  10  23
ATOM     23  O   UNL     1      -8.116  42.196  11.709  1.00  0.00    -0.507 OA
ATOM     24  H   UNL     1      -7.800  41.899  12.629  1.00  0.00     0.293 HD
ENDBRANCH  10  23
BRANCH  11  25
ATOM     25  O   UNL     1      -5.875  44.615   8.172  1.00  0.00    -0.508 OA
ATOM     26  H   UNL     1      -5.032  44.621   7.612  1.00  0.00     0.293 HD
ENDBRANCH  11  25
ENDBRANCH   1   2
BRANCH   1  27
ATOM     27  C   UNL     1      -4.647  37.121  12.044  1.00  0.00     0.339 C 
ATOM     28  C   UNL     1      -5.042  37.256  13.563  1.00  0.00     0.214 C 
ATOM     29  O   UNL     1      -4.286  35.780  11.725  1.00  0.00    -0.332 OA
ATOM     30  C   UNL     1      -5.060  35.897  14.265  1.00  0.00     0.180 C 
ATOM     31  C   UNL     1      -3.219  35.357  12.565  1.00  0.00     0.179 C 
ATOM     32  C   UNL     1      -3.713  35.173  14.046  1.00  0.00     0.177 C 
BRANCH  28  33
ATOM     33  O   UNL     1      -4.213  38.139  14.287  1.00  0.00    -0.384 OA
ATOM     34  H   UNL     1      -3.323  38.180  13.853  1.00  0.00     0.211 HD
ENDBRANCH  28  33
BRANCH  30  35
ATOM     35  O   UNL     1      -6.121  35.140  13.738  1.00  0.00    -0.387 OA
ATOM     36  H   UNL     1      -5.800  34.200  13.668  1.00  0.00     0.211 HD
ENDBRANCH  30  35
BRANCH  31  37
ATOM     37  C   UNL     1      -2.550  34.089  11.985  1.00  0.00     0.191 C 
BRANCH  37  38
ATOM     38  O   UNL     1      -1.310  33.784  12.566  1.00  0.00    -0.394 OA
ATOM     39  H   UNL     1      -1.037  34.491  13.217  1.00  0.00     0.210 HD
ENDBRANCH  37  38
ENDBRANCH  31  37
BRANCH  32  40
ATOM     40  O   UNL     1      -3.853  33.823  14.415  1.00  0.00    -0.387 OA
ATOM     41  H   UNL     1      -3.211  33.651  15.150  1.00  0.00     0.211 HD
ENDBRANCH  32  40
ENDBRANCH   1  27
TORSDOF 12
ENDMDL
MODEL 7
REMARK VINA RESULT:    -5.078      1.343      2.525
REMARK INTER + INTRA:          -9.035
REMARK INTER:                  -8.031
REMARK INTRA:                  -1.005
REMARK UNBOUND:                -1.582
REMARK SMILES O=c1c(O[C@@H]2O[C@H](CO)[C@H](O)[C@H](O)[C@H]2O)c(-c2ccc(O)c(O)c2)oc2cc(O)cc(O)c12
REMARK SMILES IDX 4 1 3 2 16 3 25 4 2 5 26 6 1 7 33 8 27 9 31 10 28 11 30 12
REMARK SMILES IDX 17 13 18 14 19 15 20 16 24 17 22 18 21 19 23 21 32 23 29 25
REMARK SMILES IDX 5 27 14 28 6 29 12 30 7 31 10 32 15 33 13 35 8 37 9 38 11 40
REMARK H PARENT 21 20 23 22 32 24 29 26 15 34 13 36 9 39 11 41
REMARK Flexibility Score: inf
ROOT
ATOM      1  O   UNL     1      -3.582  36.701   7.424  1.00  0.00    -0.454 OA
ENDROOT
BRANCH   1   2
ATOM      2  C   UNL     1      -2.278  37.089   7.047  1.00  0.00     0.214 A 
ATOM      3  C   UNL     1      -1.899  38.445   7.179  1.00  0.00     0.180 A 
ATOM      4  O   UNL     1      -0.759  38.858   6.657  1.00  0.00    -0.452 OA
ATOM      5  C   UNL     1      -1.342  36.177   6.516  1.00  0.00     0.239 A 
ATOM      6  C   UNL     1       0.120  38.046   6.076  1.00  0.00     0.146 A 
ATOM      7  O   UNL     1      -1.620  34.951   6.464  1.00  0.00    -0.285 OA
ATOM      8  C   UNL     1      -0.098  36.647   6.046  1.00  0.00     0.111 A 
ATOM      9  C   UNL     1       1.263  38.589   5.496  1.00  0.00     0.094 A 
ATOM     10  C   UNL     1       0.930  35.806   5.566  1.00  0.00     0.134 A 
ATOM     11  C   UNL     1       2.220  37.757   4.905  1.00  0.00     0.123 A 
ATOM     12  C   UNL     1       2.087  36.370   5.003  1.00  0.00     0.093 A 
BRANCH   3  13
ATOM     13  C   UNL     1      -2.714  39.434   7.927  1.00  0.00     0.025 A 
ATOM     14  C   UNL     1      -2.948  40.714   7.378  1.00  0.00     0.016 A 
ATOM     15  C   UNL     1      -3.550  41.713   8.147  1.00  0.00     0.051 A 
ATOM     16  C   UNL     1      -3.997  41.429   9.448  1.00  0.00     0.157 A 
ATOM     17  C   UNL     1      -3.153  39.166   9.231  1.00  0.00     0.062 A 
ATOM     18  C   UNL     1      -3.828  40.138   9.977  1.00  0.00     0.158 A 
BRANCH  16  19
ATOM     19  O   UNL     1      -4.621  42.409  10.215  1.00  0.00    -0.504 OA
ATOM     20  H   UNL     1      -4.513  42.482  11.220  1.00  0.00     0.293 HD
ENDBRANCH  16  19
BRANCH  18  21
ATOM     21  O   UNL     1      -4.246  39.828  11.271  1.00  0.00    -0.504 OA
ATOM     22  H   UNL     1      -4.133  40.471  12.043  1.00  0.00     0.293 HD
ENDBRANCH  18  21
ENDBRANCH   3  13
BRANCH  10  23
ATOM     23  O   UNL     1       0.816  34.417   5.633  1.00  0.00    -0.507 OA
ATOM     24  H   UNL     1       1.576  33.844   5.989  1.00  0.00     0.293 HD
ENDBRANCH  10  23
BRANCH  11  25
ATOM     25  O   UNL     1       3.264  38.324   4.171  1.00  0.00    -0.508 OA
ATOM     26  H   UNL     1       3.080  39.223   3.745  1.00  0.00     0.293 HD
ENDBRANCH  11  25
ENDBRANCH   1   2
BRANCH   1  27
ATOM     27  C   UNL     1      -3.938  35.500   8.101  1.00  0.00     0.339 C 
ATOM     28  C   UNL     1      -3.152  35.443   9.465  1.00  0.00     0.214 C 
ATOM     29  O   UNL     1      -5.346  35.489   8.321  1.00  0.00    -0.332 OA
ATOM     30  C   UNL     1      -4.096  35.522  10.667  1.00  0.00     0.180 C 
ATOM     31  C   UNL     1      -5.708  34.334   9.067  1.00  0.00     0.179 C 
ATOM     32  C   UNL     1      -5.191  34.439  10.547  1.00  0.00     0.177 C 
BRANCH  28  33
ATOM     33  O   UNL     1      -2.330  34.304   9.598  1.00  0.00    -0.384 OA
ATOM     34  H   UNL     1      -2.625  33.613   8.953  1.00  0.00     0.211 HD
ENDBRANCH  28  33
BRANCH  30  35
ATOM     35  O   UNL     1      -4.669  36.806  10.696  1.00  0.00    -0.387 OA
ATOM     36  H   UNL     1      -3.931  37.447  10.886  1.00  0.00     0.211 HD
ENDBRANCH  30  35
BRANCH  31  37
ATOM     37  C   UNL     1      -7.232  34.089   8.969  1.00  0.00     0.191 C 
BRANCH  37  38
ATOM     38  O   UNL     1      -8.007  35.236   9.198  1.00  0.00    -0.394 OA
ATOM     39  H   UNL     1      -7.844  35.925   8.492  1.00  0.00     0.210 HD
ENDBRANCH  37  38
ENDBRANCH  31  37
BRANCH  32  40
ATOM     40  O   UNL     1      -6.217  34.721  11.468  1.00  0.00    -0.387 OA
ATOM     41  H   UNL     1      -5.791  35.117  12.270  1.00  0.00     0.211 HD
ENDBRANCH  32  40
ENDBRANCH   1  27
TORSDOF 12
ENDMDL
MODEL 8
REMARK VINA RESULT:    -5.053      1.789      6.117
REMARK INTER + INTRA:          -8.998
REMARK INTER:                  -7.563
REMARK INTRA:                  -1.435
REMARK UNBOUND:                -1.582
REMARK SMILES O=c1c(O[C@@H]2O[C@H](CO)[C@H](O)[C@H](O)[C@H]2O)c(-c2ccc(O)c(O)c2)oc2cc(O)cc(O)c12
REMARK SMILES IDX 4 1 3 2 16 3 25 4 2 5 26 6 1 7 33 8 27 9 31 10 28 11 30 12
REMARK SMILES IDX 17 13 18 14 19 15 20 16 24 17 22 18 21 19 23 21 32 23 29 25
REMARK SMILES IDX 5 27 14 28 6 29 12 30 7 31 10 32 15 33 13 35 8 37 9 38 11 40
REMARK H PARENT 21 20 23 22 32 24 29 26 15 34 13 36 9 39 11 41
REMARK Flexibility Score: inf
ROOT
ATOM      1  O   UNL     1      -3.161  38.498   9.108  1.00  0.00    -0.454 OA
ENDROOT
BRANCH   1   2
ATOM      2  C   UNL     1      -3.534  39.829   8.824  1.00  0.00     0.214 A 
ATOM      3  C   UNL     1      -2.797  40.560   7.865  1.00  0.00     0.180 A 
ATOM      4  O   UNL     1      -3.010  41.856   7.726  1.00  0.00    -0.452 OA
ATOM      5  C   UNL     1      -4.604  40.471   9.484  1.00  0.00     0.239 A 
ATOM      6  C   UNL     1      -3.956  42.520   8.385  1.00  0.00     0.146 A 
ATOM      7  O   UNL     1      -5.330  39.822  10.281  1.00  0.00    -0.285 OA
ATOM      8  C   UNL     1      -4.852  41.839   9.244  1.00  0.00     0.111 A 
ATOM      9  C   UNL     1      -4.057  43.898   8.219  1.00  0.00     0.094 A 
ATOM     10  C   UNL     1      -5.940  42.549   9.798  1.00  0.00     0.134 A 
ATOM     11  C   UNL     1      -5.060  44.619   8.876  1.00  0.00     0.123 A 
ATOM     12  C   UNL     1      -6.038  43.937   9.604  1.00  0.00     0.093 A 
BRANCH   3  13
ATOM     13  C   UNL     1      -1.811  39.922   6.958  1.00  0.00     0.025 A 
ATOM     14  C   UNL     1      -2.154  39.663   5.613  1.00  0.00     0.016 A 
ATOM     15  C   UNL     1      -1.310  38.898   4.804  1.00  0.00     0.051 A 
ATOM     16  C   UNL     1      -0.076  38.446   5.299  1.00  0.00     0.157 A 
ATOM     17  C   UNL     1      -0.582  39.456   7.446  1.00  0.00     0.062 A 
ATOM     18  C   UNL     1       0.303  38.758   6.616  1.00  0.00     0.158 A 
BRANCH  16  19
ATOM     19  O   UNL     1       0.785  37.706   4.494  1.00  0.00    -0.504 OA
ATOM     20  H   UNL     1       0.563  36.781   4.144  1.00  0.00     0.293 HD
ENDBRANCH  16  19
BRANCH  18  21
ATOM     21  O   UNL     1       1.514  38.311   7.144  1.00  0.00    -0.504 OA
ATOM     22  H   UNL     1       2.306  38.083   6.558  1.00  0.00     0.293 HD
ENDBRANCH  18  21
ENDBRANCH   3  13
BRANCH  10  23
ATOM     23  O   UNL     1      -6.921  41.897  10.546  1.00  0.00    -0.507 OA
ATOM     24  H   UNL     1      -7.030  40.887  10.504  1.00  0.00     0.293 HD
ENDBRANCH  10  23
BRANCH  11  25
ATOM     25  O   UNL     1      -5.036  46.014   8.846  1.00  0.00    -0.508 OA
ATOM     26  H   UNL     1      -4.123  46.450   8.822  1.00  0.00     0.293 HD
ENDBRANCH  11  25
ENDBRANCH   1   2
BRANCH   1  27
ATOM     27  C   UNL     1      -3.973  37.342   8.931  1.00  0.00     0.339 C 
ATOM     28  C   UNL     1      -4.417  37.268   7.422  1.00  0.00     0.214 C 
ATOM     29  O   UNL     1      -3.225  36.186   9.302  1.00  0.00    -0.332 OA
ATOM     30  C   UNL     1      -3.824  36.047   6.716  1.00  0.00     0.180 C 
ATOM     31  C   UNL     1      -3.994  35.016   9.056  1.00  0.00     0.179 C 
ATOM     32  C   UNL     1      -4.155  34.766   7.513  1.00  0.00     0.177 C 
BRANCH  28  33
ATOM     33  O   UNL     1      -5.817  37.271   7.243  1.00  0.00    -0.384 OA
ATOM     34  H   UNL     1      -6.047  36.703   6.465  1.00  0.00     0.211 HD
ENDBRANCH  28  33
BRANCH  30  35
ATOM     35  O   UNL     1      -2.433  36.225   6.618  1.00  0.00    -0.387 OA
ATOM     36  H   UNL     1      -2.010  35.500   7.153  1.00  0.00     0.211 HD
ENDBRANCH  30  35
BRANCH  31  37
ATOM     37  C   UNL     1      -3.387  33.808   9.808  1.00  0.00     0.191 C 
BRANCH  37  38
ATOM     38  O   UNL     1      -1.989  33.729   9.720  1.00  0.00    -0.394 OA
ATOM     39  H   UNL     1      -1.697  32.801   9.491  1.00  0.00     0.210 HD
ENDBRANCH  37  38
ENDBRANCH  31  37
BRANCH  32  40
ATOM     40  O   UNL     1      -3.352  33.712   7.040  1.00  0.00    -0.387 OA
ATOM     41  H   UNL     1      -3.792  32.865   7.306  1.00  0.00     0.211 HD
ENDBRANCH  32  40
ENDBRANCH   1  27
TORSDOF 12
ENDMDL
MODEL 9
REMARK VINA RESULT:    -5.050      2.518      5.915
REMARK INTER + INTRA:          -8.994
REMARK INTER:                  -7.521
REMARK INTRA:                  -1.472
REMARK UNBOUND:                -1.582
REMARK SMILES O=c1c(O[C@@H]2O[C@H](CO)[C@H](O)[C@H](O)[C@H]2O)c(-c2ccc(O)c(O)c2)oc2cc(O)cc(O)c12
REMARK SMILES IDX 4 1 3 2 16 3 25 4 2 5 26 6 1 7 33 8 27 9 31 10 28 11 30 12
REMARK SMILES IDX 17 13 18 14 19 15 20 16 24 17 22 18 21 19 23 21 32 23 29 25
REMARK SMILES IDX 5 27 14 28 6 29 12 30 7 31 10 32 15 33 13 35 8 37 9 38 11 40
REMARK H PARENT 21 20 23 22 32 24 29 26 15 34 13 36 9 39 11 41
REMARK Flexibility Score: inf
ROOT
ATOM      1  O   UNL     1      -4.854  38.100   8.528  1.00  0.00    -0.454 OA
ENDROOT
BRANCH   1   2
ATOM      2  C   UNL     1      -4.719  39.482   8.780  1.00  0.00     0.214 A 
ATOM      3  C   UNL     1      -5.161  40.002  10.018  1.00  0.00     0.180 A 
ATOM      4  O   UNL     1      -5.218  41.309  10.194  1.00  0.00    -0.452 OA
ATOM      5  C   UNL     1      -4.180  40.374   7.829  1.00  0.00     0.239 A 
ATOM      6  C   UNL     1      -4.794  42.192   9.294  1.00  0.00     0.146 A 
ATOM      7  O   UNL     1      -3.702  39.932   6.753  1.00  0.00    -0.285 OA
ATOM      8  C   UNL     1      -4.182  41.760   8.092  1.00  0.00     0.111 A 
ATOM      9  C   UNL     1      -4.959  43.551   9.547  1.00  0.00     0.094 A 
ATOM     10  C   UNL     1      -3.601  42.724   7.238  1.00  0.00     0.134 A 
ATOM     11  C   UNL     1      -4.496  44.502   8.632  1.00  0.00     0.123 A 
ATOM     12  C   UNL     1      -3.758  44.091   7.519  1.00  0.00     0.093 A 
BRANCH   3  13
ATOM     13  C   UNL     1      -5.529  39.135  11.164  1.00  0.00     0.025 A 
ATOM     14  C   UNL     1      -6.884  38.809  11.395  1.00  0.00     0.016 A 
ATOM     15  C   UNL     1      -7.263  38.154  12.570  1.00  0.00     0.051 A 
ATOM     16  C   UNL     1      -6.288  37.744  13.494  1.00  0.00     0.157 A 
ATOM     17  C   UNL     1      -4.567  38.732  12.100  1.00  0.00     0.062 A 
ATOM     18  C   UNL     1      -4.931  38.005  13.239  1.00  0.00     0.158 A 
BRANCH  16  19
ATOM     19  O   UNL     1      -6.650  37.067  14.655  1.00  0.00    -0.504 OA
ATOM     20  H   UNL     1      -6.746  36.059  14.706  1.00  0.00     0.293 HD
ENDBRANCH  16  19
BRANCH  18  21
ATOM     21  O   UNL     1      -3.940  37.626  14.144  1.00  0.00    -0.504 OA
ATOM     22  H   UNL     1      -2.972  37.896  14.029  1.00  0.00     0.293 HD
ENDBRANCH  18  21
ENDBRANCH   3  13
BRANCH  10  23
ATOM     23  O   UNL     1      -2.876  42.342   6.109  1.00  0.00    -0.507 OA
ATOM     24  H   UNL     1      -3.312  41.817   5.356  1.00  0.00     0.293 HD
ENDBRANCH  10  23
BRANCH  11  25
ATOM     25  O   UNL     1      -4.829  45.846   8.810  1.00  0.00    -0.508 OA
ATOM     26  H   UNL     1      -4.779  46.203   9.756  1.00  0.00     0.293 HD
ENDBRANCH  11  25
ENDBRANCH   1   2
BRANCH   1  27
ATOM     27  C   UNL     1      -3.867  37.102   8.765  1.00  0.00     0.339 C 
ATOM     28  C   UNL     1      -4.535  35.915   9.555  1.00  0.00     0.214 C 
ATOM     29  O   UNL     1      -3.346  36.657   7.515  1.00  0.00    -0.332 OA
ATOM     30  C   UNL     1      -4.567  34.629   8.726  1.00  0.00     0.180 C 
ATOM     31  C   UNL     1      -2.415  35.603   7.730  1.00  0.00     0.179 C 
ATOM     32  C   UNL     1      -3.148  34.299   8.213  1.00  0.00     0.177 C 
BRANCH  28  33
ATOM     33  O   UNL     1      -3.923  35.648  10.798  1.00  0.00    -0.384 OA
ATOM     34  H   UNL     1      -4.625  35.497  11.481  1.00  0.00     0.211 HD
ENDBRANCH  28  33
BRANCH  30  35
ATOM     35  O   UNL     1      -5.452  34.819   7.650  1.00  0.00    -0.387 OA
ATOM     36  H   UNL     1      -6.307  34.373   7.898  1.00  0.00     0.211 HD
ENDBRANCH  30  35
BRANCH  31  37
ATOM     37  C   UNL     1      -1.552  35.384   6.465  1.00  0.00     0.191 C 
BRANCH  37  38
ATOM     38  O   UNL     1      -0.609  34.353   6.593  1.00  0.00    -0.394 OA
ATOM     39  H   UNL     1      -0.238  34.095   5.702  1.00  0.00     0.210 HD
ENDBRANCH  37  38
ENDBRANCH  31  37
BRANCH  32  40
ATOM     40  O   UNL     1      -3.240  33.318   7.209  1.00  0.00    -0.387 OA
ATOM     41  H   UNL     1      -4.168  33.339   6.862  1.00  0.00     0.211 HD
ENDBRANCH  32  40
ENDBRANCH   1  27
TORSDOF 12
ENDMDL
