MODEL 1
REMARK VINA RESULT:    -4.037      0.000      0.000
REMARK INTER + INTRA:          -4.399
REMARK INTER:                  -4.273
REMARK INTRA:                  -0.126
REMARK UNBOUND:                -0.126
REMARK SMILES C=C(C)[C@@H]1CC=C(C)CC1
REMARK SMILES IDX 8 1 7 2 6 3 5 4 4 5 10 6 9 7 2 8 1 9 3 10
REMARK H PARENT
REMARK Flexibility Score: inf
ROOT
ATOM      1  C   UNL     1     134.711 140.873 136.253  1.00  0.00     0.039 C 
ATOM      2  C   UNL     1     136.018 140.191 135.953  1.00  0.00    -0.077 C 
ATOM      3  C   UNL     1     136.489 139.267 136.818  1.00  0.00    -0.027 C 
ATOM      4  C   UNL     1     137.760 138.490 136.579  1.00  0.00     0.035 C 
ATOM      5  C   UNL     1     138.710 139.214 135.609  1.00  0.00     0.018 C 
ATOM      6  C   UNL     1     137.935 139.671 134.364  1.00  0.00     0.013 C 
ATOM      7  C   UNL     1     136.830 140.658 134.760  1.00  0.00     0.031 C 
ENDROOT
BRANCH   5   8
ATOM      8  C   UNL     1     139.906 138.345 135.242  1.00  0.00    -0.077 C 
ATOM      9  C   UNL     1     140.126 137.958 133.974  1.00  0.00     0.008 C 
ATOM     10  C   UNL     1     140.875 137.903 136.308  1.00  0.00     0.039 C 
ENDBRANCH   5   8
TORSDOF 1
ENDMDL
MODEL 2
REMARK VINA RESULT:    -4.033      6.379      7.972
REMARK INTER + INTRA:          -4.395
REMARK INTER:                  -4.269
REMARK INTRA:                  -0.126
REMARK UNBOUND:                -0.126
REMARK SMILES C=C(C)[C@@H]1CC=C(C)CC1
REMARK SMILES IDX 8 1 7 2 6 3 5 4 4 5 10 6 9 7 2 8 1 9 3 10
REMARK H PARENT
REMARK Flexibility Score: inf
ROOT
ATOM      1  C   UNL     1     137.972 131.769 136.198  1.00  0.00     0.039 C 
ATOM      2  C   UNL     1     136.658 132.437 135.901  1.00  0.00    -0.077 C 
ATOM      3  C   UNL     1     136.206 133.397 136.736  1.00  0.00    -0.027 C 
ATOM      4  C   UNL     1     134.929 134.162 136.495  1.00  0.00     0.035 C 
ATOM      5  C   UNL     1     133.958 133.398 135.578  1.00  0.00     0.018 C 
ATOM      6  C   UNL     1     134.704 132.890 134.336  1.00  0.00     0.013 C 
ATOM      7  C   UNL     1     135.820 131.921 134.747  1.00  0.00     0.031 C 
ENDROOT
BRANCH   5   8
ATOM      8  C   UNL     1     132.752 134.251 135.203  1.00  0.00    -0.077 C 
ATOM      9  C   UNL     1     132.545 134.649 133.936  1.00  0.00     0.008 C 
ATOM     10  C   UNL     1     131.760 134.663 136.260  1.00  0.00     0.039 C 
ENDBRANCH   5   8
TORSDOF 1
ENDMDL
MODEL 3
REMARK VINA RESULT:    -4.029      4.075      5.594
REMARK INTER + INTRA:          -4.391
REMARK INTER:                  -4.264
REMARK INTRA:                  -0.127
REMARK UNBOUND:                -0.126
REMARK SMILES C=C(C)[C@@H]1CC=C(C)CC1
REMARK SMILES IDX 8 1 7 2 6 3 5 4 4 5 10 6 9 7 2 8 1 9 3 10
REMARK H PARENT
REMARK Flexibility Score: inf
ROOT
ATOM      1  C   UNL     1     140.867 137.984 136.227  1.00  0.00     0.039 C 
ATOM      2  C   UNL     1     140.202 136.670 135.923  1.00  0.00    -0.077 C 
ATOM      3  C   UNL     1     139.285 136.183 136.786  1.00  0.00    -0.027 C 
ATOM      4  C   UNL     1     138.525 134.902 136.542  1.00  0.00     0.035 C 
ATOM      5  C   UNL     1     139.261 133.967 135.567  1.00  0.00     0.018 C 
ATOM      6  C   UNL     1     139.706 134.753 134.325  1.00  0.00     0.013 C 
ATOM      7  C   UNL     1     140.679 135.870 134.725  1.00  0.00     0.031 C 
ENDROOT
BRANCH   5   8
ATOM      8  C   UNL     1     138.407 132.761 135.196  1.00  0.00    -0.077 C 
ATOM      9  C   UNL     1     138.038 132.530 133.924  1.00  0.00     0.008 C 
ATOM     10  C   UNL     1     137.962 131.793 136.262  1.00  0.00     0.039 C 
ENDBRANCH   5   8
TORSDOF 1
ENDMDL
MODEL 4
REMARK VINA RESULT:    -4.026      3.827      5.607
REMARK INTER + INTRA:          -4.388
REMARK INTER:                  -4.266
REMARK INTRA:                  -0.123
REMARK UNBOUND:                -0.126
REMARK SMILES C=C(C)[C@@H]1CC=C(C)CC1
REMARK SMILES IDX 8 1 7 2 6 3 5 4 4 5 10 6 9 7 2 8 1 9 3 10
REMARK H PARENT
REMARK Flexibility Score: inf
ROOT
ATOM      1  C   UNL     1     137.885 131.729 136.255  1.00  0.00     0.039 C 
ATOM      2  C   UNL     1     138.448 133.103 136.012  1.00  0.00    -0.077 C 
ATOM      3  C   UNL     1     139.590 133.227 135.302  1.00  0.00    -0.027 C 
ATOM      4  C   UNL     1     140.204 134.563 134.960  1.00  0.00     0.035 C 
ATOM      5  C   UNL     1     139.753 135.673 135.924  1.00  0.00     0.018 C 
ATOM      6  C   UNL     1     138.226 135.636 136.086  1.00  0.00     0.013 C 
ATOM      7  C   UNL     1     137.789 134.293 136.684  1.00  0.00     0.031 C 
ENDROOT
BRANCH   5   8
ATOM      8  C   UNL     1     140.239 137.043 135.467  1.00  0.00    -0.077 C 
ATOM      9  C   UNL     1     140.904 137.863 136.299  1.00  0.00     0.008 C 
ATOM     10  C   UNL     1     139.980 137.505 134.056  1.00  0.00     0.039 C 
ENDBRANCH   5   8
TORSDOF 1
ENDMDL
MODEL 5
REMARK VINA RESULT:    -4.017      1.048      4.596
REMARK INTER + INTRA:          -4.378
REMARK INTER:                  -4.255
REMARK INTRA:                  -0.124
REMARK UNBOUND:                -0.126
REMARK SMILES C=C(C)[C@@H]1CC=C(C)CC1
REMARK SMILES IDX 8 1 7 2 6 3 5 4 4 5 10 6 9 7 2 8 1 9 3 10
REMARK H PARENT
REMARK Flexibility Score: inf
ROOT
ATOM      1  C   UNL     1     140.872 137.899 136.306  1.00  0.00     0.039 C 
ATOM      2  C   UNL     1     139.499 138.466 136.071  1.00  0.00    -0.077 C 
ATOM      3  C   UNL     1     139.364 139.550 135.277  1.00  0.00    -0.027 C 
ATOM      4  C   UNL     1     138.026 140.159 134.937  1.00  0.00     0.035 C 
ATOM      5  C   UNL     1     136.947 139.807 135.975  1.00  0.00     0.018 C 
ATOM      6  C   UNL     1     136.968 138.297 136.257  1.00  0.00     0.013 C 
ATOM      7  C   UNL     1     138.326 137.884 136.837  1.00  0.00     0.031 C 
ENDROOT
BRANCH   5   8
ATOM      8  C   UNL     1     135.568 140.279 135.533  1.00  0.00    -0.077 C 
ATOM      9  C   UNL     1     134.741 140.913 136.381  1.00  0.00     0.008 C 
ATOM     10  C   UNL     1     135.107 140.043 134.117  1.00  0.00     0.039 C 
ENDBRANCH   5   8
TORSDOF 1
ENDMDL
MODEL 6
REMARK VINA RESULT:    -4.002      4.095      5.932
REMARK INTER + INTRA:          -4.362
REMARK INTER:                  -4.239
REMARK INTRA:                  -0.122
REMARK UNBOUND:                -0.126
REMARK SMILES C=C(C)[C@@H]1CC=C(C)CC1
REMARK SMILES IDX 8 1 7 2 6 3 5 4 4 5 10 6 9 7 2 8 1 9 3 10
REMARK H PARENT
REMARK Flexibility Score: inf
ROOT
ATOM      1  C   UNL     1     134.862 140.881 136.313  1.00  0.00     0.039 C 
ATOM      2  C   UNL     1     134.266 139.526 136.048  1.00  0.00    -0.077 C 
ATOM      3  C   UNL     1     133.076 139.445 135.414  1.00  0.00    -0.027 C 
ATOM      4  C   UNL     1     132.423 138.134 135.054  1.00  0.00     0.035 C 
ATOM      5  C   UNL     1     132.925 136.975 135.933  1.00  0.00     0.018 C 
ATOM      6  C   UNL     1     134.459 136.990 135.990  1.00  0.00     0.013 C 
ATOM      7  C   UNL     1     134.954 138.300 136.617  1.00  0.00     0.031 C 
ENDROOT
BRANCH   5   8
ATOM      8  C   UNL     1     132.391 135.632 135.449  1.00  0.00    -0.077 C 
ATOM      9  C   UNL     1     131.749 134.794 136.280  1.00  0.00     0.008 C 
ATOM     10  C   UNL     1     132.574 135.221 134.010  1.00  0.00     0.039 C 
ENDBRANCH   5   8
TORSDOF 1
ENDMDL
MODEL 7
REMARK VINA RESULT:    -4.000      4.109      5.657
REMARK INTER + INTRA:          -4.360
REMARK INTER:                  -4.233
REMARK INTRA:                  -0.126
REMARK UNBOUND:                -0.126
REMARK SMILES C=C(C)[C@@H]1CC=C(C)CC1
REMARK SMILES IDX 8 1 7 2 6 3 5 4 4 5 10 6 9 7 2 8 1 9 3 10
REMARK H PARENT
REMARK Flexibility Score: inf
ROOT
ATOM      1  C   UNL     1     131.782 134.624 136.200  1.00  0.00     0.039 C 
ATOM      2  C   UNL     1     132.454 135.940 135.922  1.00  0.00    -0.077 C 
ATOM      3  C   UNL     1     133.410 136.381 136.767  1.00  0.00    -0.027 C 
ATOM      4  C   UNL     1     134.178 137.660 136.545  1.00  0.00     0.035 C 
ATOM      5  C   UNL     1     133.420 138.643 135.636  1.00  0.00     0.018 C 
ATOM      6  C   UNL     1     132.918 137.912 134.382  1.00  0.00     0.013 C 
ATOM      7  C   UNL     1     131.945 136.793 134.775  1.00  0.00     0.031 C 
ENDROOT
BRANCH   5   8
ATOM      8  C   UNL     1     134.277 139.851 135.279  1.00  0.00    -0.077 C 
ATOM      9  C   UNL     1     134.656 140.090 134.012  1.00  0.00     0.008 C 
ATOM     10  C   UNL     1     134.714 140.812 136.355  1.00  0.00     0.039 C 
ENDBRANCH   5   8
TORSDOF 1
ENDMDL
MODEL 8
REMARK VINA RESULT:    -3.898      6.355      6.654
REMARK INTER + INTRA:          -4.252
REMARK INTER:                  -4.125
REMARK INTRA:                  -0.127
REMARK UNBOUND:                -0.126
REMARK SMILES C=C(C)[C@@H]1CC=C(C)CC1
REMARK SMILES IDX 8 1 7 2 6 3 5 4 4 5 10 6 9 7 2 8 1 9 3 10
REMARK H PARENT
REMARK Flexibility Score: inf
ROOT
ATOM      1  C   UNL     1     131.861 134.589 136.420  1.00  0.00     0.039 C 
ATOM      2  C   UNL     1     133.223 134.014 136.144  1.00  0.00    -0.077 C 
ATOM      3  C   UNL     1     134.196 134.158 137.070  1.00  0.00    -0.027 C 
ATOM      4  C   UNL     1     135.576 133.571 136.910  1.00  0.00     0.035 C 
ATOM      5  C   UNL     1     135.928 133.305 135.436  1.00  0.00     0.018 C 
ATOM      6  C   UNL     1     134.774 132.556 134.752  1.00  0.00     0.013 C 
ATOM      7  C   UNL     1     133.498 133.406 134.782  1.00  0.00     0.031 C 
ENDROOT
BRANCH   5   8
ATOM      8  C   UNL     1     137.247 132.555 135.301  1.00  0.00    -0.077 C 
ATOM      9  C   UNL     1     137.951 132.580 134.156  1.00  0.00     0.008 C 
ATOM     10  C   UNL     1     137.791 131.767 136.464  1.00  0.00     0.039 C 
ENDBRANCH   5   8
TORSDOF 1
ENDMDL
MODEL 9
REMARK VINA RESULT:    -3.880      1.269      4.564
REMARK INTER + INTRA:          -4.233
REMARK INTER:                  -4.105
REMARK INTRA:                  -0.128
REMARK UNBOUND:                -0.126
REMARK SMILES C=C(C)[C@@H]1CC=C(C)CC1
REMARK SMILES IDX 8 1 7 2 6 3 5 4 4 5 10 6 9 7 2 8 1 9 3 10
REMARK H PARENT
REMARK Flexibility Score: inf
ROOT
ATOM      1  C   UNL     1     140.887 137.881 136.260  1.00  0.00     0.039 C 
ATOM      2  C   UNL     1     139.501 138.414 136.503  1.00  0.00    -0.077 C 
ATOM      3  C   UNL     1     138.959 138.295 137.734  1.00  0.00    -0.027 C 
ATOM      4  C   UNL     1     137.600 138.845 138.090  1.00  0.00     0.035 C 
ATOM      5  C   UNL     1     136.706 139.031 136.852  1.00  0.00     0.018 C 
ATOM      6  C   UNL     1     137.484 139.770 135.753  1.00  0.00     0.013 C 
ATOM      7  C   UNL     1     138.707 138.949 135.327  1.00  0.00     0.031 C 
ENDROOT
BRANCH   5   8
ATOM      8  C   UNL     1     135.407 139.747 137.202  1.00  0.00    -0.077 C 
ATOM      9  C   UNL     1     134.699 139.417 138.296  1.00  0.00     0.008 C 
ATOM     10  C   UNL     1     134.891 140.852 136.316  1.00  0.00     0.039 C 
ENDBRANCH   5   8
TORSDOF 1
ENDMDL
