MODEL 1
REMARK VINA RESULT:    -3.676      0.000      0.000
REMARK INTER + INTRA:          -4.244
REMARK INTER:                  -4.105
REMARK INTRA:                  -0.139
REMARK UNBOUND:                -0.139
REMARK SMILES O=C([O-])C=Cc1ccccc1
REMARK SMILES IDX 4 1 5 2 2 3 1 4 3 5 6 6 7 7 11 8 8 9 10 10 9 11
REMARK H PARENT
REMARK Flexibility Score: inf
ROOT
ATOM      1  C   UNL     1      52.793  55.483  46.854  1.00  0.00     0.025 C 
ATOM      2  C   UNL     1      53.143  54.335  47.453  1.00  0.00     0.010 C 
ENDROOT
BRANCH   1   3
ATOM      3  C   UNL     1      53.137  55.771  45.451  1.00  0.00     0.064 C 
ATOM      4  O   UNL     1      54.298  55.561  45.006  1.00  0.00    -0.545 OA
ATOM      5  O   UNL     1      52.166  56.286  44.602  1.00  0.00    -0.545 OA
ENDBRANCH   1   3
BRANCH   2   6
ATOM      6  C   UNL     1      52.828  53.982  48.864  1.00  0.00    -0.026 A 
ATOM      7  C   UNL     1      53.014  54.967  49.853  1.00  0.00     0.008 A 
ATOM      8  C   UNL     1      52.354  52.711  49.259  1.00  0.00     0.008 A 
ATOM      9  C   UNL     1      52.736  54.693  51.195  1.00  0.00     0.001 A 
ATOM     10  C   UNL     1      52.077  52.445  50.604  1.00  0.00     0.001 A 
ATOM     11  C   UNL     1      52.267  53.434  51.570  1.00  0.00     0.000 A 
ENDBRANCH   2   6
TORSDOF 2
ENDMDL
MODEL 2
REMARK VINA RESULT:    -3.668      3.236      5.422
REMARK INTER + INTRA:          -4.236
REMARK INTER:                  -4.106
REMARK INTRA:                  -0.130
REMARK UNBOUND:                -0.139
REMARK SMILES O=C([O-])C=Cc1ccccc1
REMARK SMILES IDX 4 1 5 2 2 3 1 4 3 5 6 6 7 7 11 8 8 9 10 10 9 11
REMARK H PARENT
REMARK Flexibility Score: inf
ROOT
ATOM      1  C   UNL     1      52.627  53.594  49.310  1.00  0.00     0.025 C 
ATOM      2  C   UNL     1      53.050  53.241  48.087  1.00  0.00     0.010 C 
ENDROOT
BRANCH   1   3
ATOM      3  C   UNL     1      52.245  52.597  50.326  1.00  0.00     0.064 C 
ATOM      4  O   UNL     1      51.581  52.925  51.346  1.00  0.00    -0.545 OA
ATOM      5  O   UNL     1      52.623  51.272  50.156  1.00  0.00    -0.545 OA
ENDBRANCH   1   3
BRANCH   2   6
ATOM      6  C   UNL     1      53.450  54.196  47.018  1.00  0.00    -0.026 A 
ATOM      7  C   UNL     1      54.679  53.987  46.366  1.00  0.00     0.008 A 
ATOM      8  C   UNL     1      52.659  55.300  46.627  1.00  0.00     0.008 A 
ATOM      9  C   UNL     1      55.108  54.851  45.355  1.00  0.00     0.001 A 
ATOM     10  C   UNL     1      53.094  56.160  45.614  1.00  0.00     0.001 A 
ATOM     11  C   UNL     1      54.316  55.936  44.979  1.00  0.00     0.000 A 
ENDBRANCH   2   6
TORSDOF 2
ENDMDL
MODEL 3
REMARK VINA RESULT:    -3.664      0.138      1.464
REMARK INTER + INTRA:          -4.231
REMARK INTER:                  -4.101
REMARK INTRA:                  -0.130
REMARK UNBOUND:                -0.139
REMARK SMILES O=C([O-])C=Cc1ccccc1
REMARK SMILES IDX 4 1 5 2 2 3 1 4 3 5 6 6 7 7 11 8 8 9 10 10 9 11
REMARK H PARENT
REMARK Flexibility Score: inf
ROOT
ATOM      1  C   UNL     1      52.836  55.456  46.915  1.00  0.00     0.025 C 
ATOM      2  C   UNL     1      53.208  54.347  47.571  1.00  0.00     0.010 C 
ENDROOT
BRANCH   1   3
ATOM      3  C   UNL     1      53.213  55.701  45.512  1.00  0.00     0.064 C 
ATOM      4  O   UNL     1      54.363  55.413  45.086  1.00  0.00    -0.545 OA
ATOM      5  O   UNL     1      52.285  56.261  44.645  1.00  0.00    -0.545 OA
ENDBRANCH   1   3
BRANCH   2   6
ATOM      6  C   UNL     1      52.862  54.039  48.986  1.00  0.00    -0.026 A 
ATOM      7  C   UNL     1      52.401  52.744  49.290  1.00  0.00     0.008 A 
ATOM      8  C   UNL     1      52.972  54.979  50.034  1.00  0.00     0.008 A 
ATOM      9  C   UNL     1      52.059  52.397  50.600  1.00  0.00     0.001 A 
ATOM     10  C   UNL     1      52.629  54.624  51.343  1.00  0.00     0.001 A 
ATOM     11  C   UNL     1      52.174  53.335  51.625  1.00  0.00     0.000 A 
ENDBRANCH   2   6
TORSDOF 2
ENDMDL
MODEL 4
REMARK VINA RESULT:    -3.633      3.091      5.335
REMARK INTER + INTRA:          -4.197
REMARK INTER:                  -4.059
REMARK INTRA:                  -0.138
REMARK UNBOUND:                -0.139
REMARK SMILES O=C([O-])C=Cc1ccccc1
REMARK SMILES IDX 4 1 5 2 2 3 1 4 3 5 6 6 7 7 11 8 8 9 10 10 9 11
REMARK H PARENT
REMARK Flexibility Score: inf
ROOT
ATOM      1  C   UNL     1      52.727  53.736  48.950  1.00  0.00     0.025 C 
ATOM      2  C   UNL     1      53.153  53.475  47.705  1.00  0.00     0.010 C 
ENDROOT
BRANCH   1   3
ATOM      3  C   UNL     1      52.417  52.664  49.912  1.00  0.00     0.064 C 
ATOM      4  O   UNL     1      52.784  51.476  49.708  1.00  0.00    -0.545 OA
ATOM      5  O   UNL     1      51.706  52.968  51.065  1.00  0.00    -0.545 OA
ENDBRANCH   1   3
BRANCH   2   6
ATOM      6  C   UNL     1      53.482  54.509  46.685  1.00  0.00    -0.026 A 
ATOM      7  C   UNL     1      52.540  55.526  46.443  1.00  0.00     0.008 A 
ATOM      8  C   UNL     1      54.689  54.518  45.951  1.00  0.00     0.008 A 
ATOM      9  C   UNL     1      52.793  56.523  45.497  1.00  0.00     0.001 A 
ATOM     10  C   UNL     1      54.935  55.519  45.006  1.00  0.00     0.001 A 
ATOM     11  C   UNL     1      53.989  56.520  44.779  1.00  0.00     0.000 A 
ENDBRANCH   2   6
TORSDOF 2
ENDMDL
MODEL 5
REMARK VINA RESULT:    -3.480     13.274     13.936
REMARK INTER + INTRA:          -4.025
REMARK INTER:                  -3.883
REMARK INTRA:                  -0.142
REMARK UNBOUND:                -0.139
REMARK SMILES O=C([O-])C=Cc1ccccc1
REMARK SMILES IDX 4 1 5 2 2 3 1 4 3 5 6 6 7 7 11 8 8 9 10 10 9 11
REMARK H PARENT
REMARK Flexibility Score: inf
ROOT
ATOM      1  C   UNL     1      50.967  53.363  61.216  1.00  0.00     0.025 C 
ATOM      2  C   UNL     1      50.452  52.261  61.781  1.00  0.00     0.010 C 
ENDROOT
BRANCH   1   3
ATOM      3  C   UNL     1      50.496  54.715  61.562  1.00  0.00     0.064 C 
ATOM      4  O   UNL     1      50.592  55.160  62.737  1.00  0.00    -0.545 OA
ATOM      5  O   UNL     1      49.934  55.514  60.576  1.00  0.00    -0.545 OA
ENDBRANCH   1   3
BRANCH   2   6
ATOM      6  C   UNL     1      50.882  50.869  61.477  1.00  0.00    -0.026 A 
ATOM      7  C   UNL     1      52.206  50.662  61.047  1.00  0.00     0.008 A 
ATOM      8  C   UNL     1      50.029  49.749  61.596  1.00  0.00     0.008 A 
ATOM      9  C   UNL     1      52.666  49.377  60.745  1.00  0.00     0.001 A 
ATOM     10  C   UNL     1      50.497  48.466  61.294  1.00  0.00     0.001 A 
ATOM     11  C   UNL     1      51.814  48.281  60.869  1.00  0.00     0.000 A 
ENDBRANCH   2   6
TORSDOF 2
ENDMDL
MODEL 6
REMARK VINA RESULT:    -3.470     13.351     14.023
REMARK INTER + INTRA:          -4.015
REMARK INTER:                  -3.885
REMARK INTRA:                  -0.130
REMARK UNBOUND:                -0.139
REMARK SMILES O=C([O-])C=Cc1ccccc1
REMARK SMILES IDX 4 1 5 2 2 3 1 4 3 5 6 6 7 7 11 8 8 9 10 10 9 11
REMARK H PARENT
REMARK Flexibility Score: inf
ROOT
ATOM      1  C   UNL     1      50.916  53.539  61.251  1.00  0.00     0.025 C 
ATOM      2  C   UNL     1      50.479  52.404  61.816  1.00  0.00     0.010 C 
ENDROOT
BRANCH   1   3
ATOM      3  C   UNL     1      50.393  54.861  61.638  1.00  0.00     0.064 C 
ATOM      4  O   UNL     1      49.746  55.572  60.823  1.00  0.00    -0.545 OA
ATOM      5  O   UNL     1      50.618  55.333  62.925  1.00  0.00    -0.545 OA
ENDBRANCH   1   3
BRANCH   2   6
ATOM      6  C   UNL     1      50.963  51.040  61.471  1.00  0.00    -0.026 A 
ATOM      7  C   UNL     1      50.051  49.971  61.549  1.00  0.00     0.008 A 
ATOM      8  C   UNL     1      52.291  50.766  61.071  1.00  0.00     0.008 A 
ATOM      9  C   UNL     1      50.449  48.668  61.238  1.00  0.00     0.001 A 
ATOM     10  C   UNL     1      52.681  49.460  60.761  1.00  0.00     0.001 A 
ATOM     11  C   UNL     1      51.762  48.412  60.844  1.00  0.00     0.000 A 
ENDBRANCH   2   6
TORSDOF 2
ENDMDL
MODEL 7
REMARK VINA RESULT:    -3.406      5.185      6.465
REMARK INTER + INTRA:          -3.943
REMARK INTER:                  -3.799
REMARK INTRA:                  -0.144
REMARK UNBOUND:                -0.139
REMARK SMILES O=C([O-])C=Cc1ccccc1
REMARK SMILES IDX 4 1 5 2 2 3 1 4 3 5 6 6 7 7 11 8 8 9 10 10 9 11
REMARK H PARENT
REMARK Flexibility Score: inf
ROOT
ATOM      1  C   UNL     1      53.321  49.139  51.471  1.00  0.00     0.025 C 
ATOM      2  C   UNL     1      52.699  50.171  50.881  1.00  0.00     0.010 C 
ENDROOT
BRANCH   1   3
ATOM      3  C   UNL     1      53.141  47.750  51.014  1.00  0.00     0.064 C 
ATOM      4  O   UNL     1      52.318  46.978  51.576  1.00  0.00    -0.545 OA
ATOM      5  O   UNL     1      53.894  47.281  49.946  1.00  0.00    -0.545 OA
ENDBRANCH   1   3
BRANCH   2   6
ATOM      6  C   UNL     1      52.836  51.594  51.293  1.00  0.00    -0.026 A 
ATOM      7  C   UNL     1      53.875  51.932  52.181  1.00  0.00     0.008 A 
ATOM      8  C   UNL     1      51.977  52.620  50.838  1.00  0.00     0.008 A 
ATOM      9  C   UNL     1      54.052  53.252  52.604  1.00  0.00     0.001 A 
ATOM     10  C   UNL     1      52.161  53.939  51.265  1.00  0.00     0.001 A 
ATOM     11  C   UNL     1      53.197  54.254  52.146  1.00  0.00     0.000 A 
ENDBRANCH   2   6
TORSDOF 2
ENDMDL
MODEL 8
REMARK VINA RESULT:    -3.355      8.468     10.237
REMARK INTER + INTRA:          -3.887
REMARK INTER:                  -3.759
REMARK INTRA:                  -0.128
REMARK UNBOUND:                -0.139
REMARK SMILES O=C([O-])C=Cc1ccccc1
REMARK SMILES IDX 4 1 5 2 2 3 1 4 3 5 6 6 7 7 11 8 8 9 10 10 9 11
REMARK H PARENT
REMARK Flexibility Score: inf
ROOT
ATOM      1  C   UNL     1      53.154  46.958  51.969  1.00  0.00     0.025 C 
ATOM      2  C   UNL     1      52.381  45.887  51.733  1.00  0.00     0.010 C 
ENDROOT
BRANCH   1   3
ATOM      3  C   UNL     1      53.335  48.029  50.973  1.00  0.00     0.064 C 
ATOM      4  O   UNL     1      52.726  49.128  51.078  1.00  0.00    -0.545 OA
ATOM      5  O   UNL     1      54.190  47.824  49.899  1.00  0.00    -0.545 OA
ENDBRANCH   1   3
BRANCH   2   6
ATOM      6  C   UNL     1      52.158  44.772  52.693  1.00  0.00    -0.026 A 
ATOM      7  C   UNL     1      53.135  43.762  52.778  1.00  0.00     0.008 A 
ATOM      8  C   UNL     1      51.016  44.677  53.520  1.00  0.00     0.008 A 
ATOM      9  C   UNL     1      52.979  42.690  53.661  1.00  0.00     0.001 A 
ATOM     10  C   UNL     1      50.867  43.601  54.401  1.00  0.00     0.001 A 
ATOM     11  C   UNL     1      51.847  42.610  54.472  1.00  0.00     0.000 A 
ENDBRANCH   2   6
TORSDOF 2
ENDMDL
MODEL 9
REMARK VINA RESULT:    -3.353      4.967      6.480
REMARK INTER + INTRA:          -3.883
REMARK INTER:                  -3.744
REMARK INTRA:                  -0.139
REMARK UNBOUND:                -0.139
REMARK SMILES O=C([O-])C=Cc1ccccc1
REMARK SMILES IDX 4 1 5 2 2 3 1 4 3 5 6 6 7 7 11 8 8 9 10 10 9 11
REMARK H PARENT
REMARK Flexibility Score: inf
ROOT
ATOM      1  C   UNL     1      53.497  49.249  50.682  1.00  0.00     0.025 C 
ATOM      2  C   UNL     1      52.586  50.191  50.970  1.00  0.00     0.010 C 
ENDROOT
BRANCH   1   3
ATOM      3  C   UNL     1      53.380  47.867  51.179  1.00  0.00     0.064 C 
ATOM      4  O   UNL     1      53.512  46.881  50.405  1.00  0.00    -0.545 OA
ATOM      5  O   UNL     1      53.119  47.647  52.525  1.00  0.00    -0.545 OA
ENDBRANCH   1   3
BRANCH   2   6
ATOM      6  C   UNL     1      52.645  51.602  50.501  1.00  0.00    -0.026 A 
ATOM      7  C   UNL     1      53.106  51.850  49.194  1.00  0.00     0.008 A 
ATOM      8  C   UNL     1      52.265  52.703  51.301  1.00  0.00     0.008 A 
ATOM      9  C   UNL     1      53.184  53.154  48.699  1.00  0.00     0.001 A 
ATOM     10  C   UNL     1      52.345  54.006  50.799  1.00  0.00     0.001 A 
ATOM     11  C   UNL     1      52.804  54.231  49.500  1.00  0.00     0.000 A 
ENDBRANCH   2   6
TORSDOF 2
ENDMDL
