MODEL 1
REMARK VINA RESULT:    27.102      0.000      0.000
REMARK INTER + INTRA:          44.977
REMARK INTER:                  42.154
REMARK INTRA:                   2.823
REMARK UNBOUND:                 2.823
REMARK SMILES C[C@@]12C[C@@]3(O)O[C@@H](O1)[C@]1(COC(=O)c4ccccc4)[C@H]3C[C@@]12O[C@@H]1O[C@@H](CO)[C@@H](O)[C@H](O)[C@@H]1O
REMARK SMILES IDX 1 1 2 2 3 3 4 4 20 5 21 6 22 7 9 8 7 9 8 10 6 11 23 12 24 13
REMARK SMILES IDX 33 14 25 15 31 16 26 17 29 18 34 19 32 21 27 23 28 24 30 26
REMARK SMILES IDX 5 28 10 30 11 31 12 32 13 33 14 34 15 35 19 36 16 37 18 38
REMARK SMILES IDX 17 39
REMARK H PARENT 34 20 32 22 28 25 30 27 5 29
REMARK Flexibility Score: inf
ROOT
ATOM      1  C   UNL     1      10.803  -9.697  -0.411  1.00  0.00     0.046 C 
ATOM      2  C   UNL     1       9.930 -10.323   0.675  1.00  0.00     0.104 C 
ATOM      3  C   UNL     1       8.406 -10.015   0.433  1.00  0.00     0.104 C 
ATOM      4  C   UNL     1       7.701 -10.652   1.677  1.00  0.00     0.175 C 
ATOM      5  C   UNL     1       8.415 -10.204   2.994  1.00  0.00     0.070 C 
ATOM      6  C   UNL     1       9.308  -8.961   2.807  1.00  0.00     0.050 C 
ATOM      7  C   UNL     1      10.334  -9.923   2.146  1.00  0.00     0.115 C 
ATOM      8  C   UNL     1       9.656 -11.084   2.870  1.00  0.00     0.096 C 
ATOM      9  C   UNL     1       9.343 -12.138   1.820  1.00  0.00     0.267 C 
ATOM     10  O   UNL     1      10.038 -11.734   0.652  1.00  0.00    -0.342 OA
ATOM     11  O   UNL     1       7.946 -12.043   1.587  1.00  0.00    -0.320 OA
ENDROOT
BRANCH   7  12
ATOM     12  O   UNL     1      11.746  -9.848   2.358  1.00  0.00    -0.339 OA
BRANCH  12  13
ATOM     13  C   UNL     1      12.177  -8.749   3.147  1.00  0.00     0.282 C 
ATOM     14  C   UNL     1      12.192  -9.130   4.641  1.00  0.00     0.202 C 
ATOM     15  O   UNL     1      13.444  -8.256   2.726  1.00  0.00    -0.341 OA
ATOM     16  C   UNL     1      13.342 -10.108   4.964  1.00  0.00     0.179 C 
ATOM     17  C   UNL     1      14.468  -9.223   2.900  1.00  0.00     0.178 C 
ATOM     18  C   UNL     1      14.659  -9.560   4.398  1.00  0.00     0.177 C 
BRANCH  14  19
ATOM     19  O   UNL     1      10.953  -9.681   5.004  1.00  0.00    -0.385 OA
ATOM     20  H   UNL     1      10.830 -10.495   4.449  1.00  0.00     0.211 HD
ENDBRANCH  14  19
BRANCH  16  21
ATOM     21  O   UNL     1      13.088 -11.377   4.413  1.00  0.00    -0.387 OA
ATOM     22  H   UNL     1      12.304 -11.751   4.891  1.00  0.00     0.211 HD
ENDBRANCH  16  21
BRANCH  17  23
ATOM     23  C   UNL     1      15.754  -8.697   2.253  1.00  0.00     0.191 C 
BRANCH  23  24
ATOM     24  O   UNL     1      15.736  -7.296   2.181  1.00  0.00    -0.394 OA
ATOM     25  H   UNL     1      15.414  -6.964   3.058  1.00  0.00     0.210 HD
ENDBRANCH  23  24
ENDBRANCH  17  23
BRANCH  18  26
ATOM     26  O   UNL     1      15.030  -8.409   5.117  1.00  0.00    -0.387 OA
ATOM     27  H   UNL     1      14.195  -8.000   5.466  1.00  0.00     0.211 HD
ENDBRANCH  18  26
ENDBRANCH  12  13
ENDBRANCH   7  12
BRANCH   4  28
ATOM     28  O   UNL     1       6.328 -10.370   1.688  1.00  0.00    -0.365 OA
ATOM     29  H   UNL     1       6.032 -10.350   0.740  1.00  0.00     0.214 HD
ENDBRANCH   4  28
BRANCH   8  30
ATOM     30  C   UNL     1      10.257 -11.587   4.194  1.00  0.00     0.249 C 
BRANCH  30  31
ATOM     31  O   UNL     1      10.812 -12.885   4.006  1.00  0.00    -0.461 OA
BRANCH  31  32
ATOM     32  C   UNL     1      10.221 -14.043   4.516  1.00  0.00     0.338 C 
ATOM     33  O   UNL     1       9.117 -13.974   5.123  1.00  0.00    -0.246 OA
BRANCH  32  34
ATOM     34  C   UNL     1      10.901 -15.346   4.352  1.00  0.00     0.060 A 
ATOM     35  C   UNL     1      12.064 -15.446   3.565  1.00  0.00     0.015 A 
ATOM     36  C   UNL     1      10.405 -16.502   4.985  1.00  0.00     0.015 A 
ATOM     37  C   UNL     1      12.715 -16.674   3.418  1.00  0.00     0.001 A 
ATOM     38  C   UNL     1      11.061 -17.727   4.834  1.00  0.00     0.001 A 
ATOM     39  C   UNL     1      12.216 -17.812   4.052  1.00  0.00     0.000 A 
ENDBRANCH  32  34
ENDBRANCH  31  32
ENDBRANCH  30  31
ENDBRANCH   8  30
TORSDOF 12
ENDMDL
MODEL 2
REMARK VINA RESULT:    28.640      2.627      4.832
REMARK INTER + INTRA:          47.369
REMARK INTER:                  45.425
REMARK INTRA:                   1.943
REMARK UNBOUND:                 2.823
REMARK SMILES C[C@@]12C[C@@]3(O)O[C@@H](O1)[C@]1(COC(=O)c4ccccc4)[C@H]3C[C@@]12O[C@@H]1O[C@@H](CO)[C@@H](O)[C@H](O)[C@@H]1O
REMARK SMILES IDX 1 1 2 2 3 3 4 4 20 5 21 6 22 7 9 8 7 9 8 10 6 11 23 12 24 13
REMARK SMILES IDX 33 14 25 15 31 16 26 17 29 18 34 19 32 21 27 23 28 24 30 26
REMARK SMILES IDX 5 28 10 30 11 31 12 32 13 33 14 34 15 35 19 36 16 37 18 38
REMARK SMILES IDX 17 39
REMARK H PARENT 34 20 32 22 28 25 30 27 5 29
REMARK Flexibility Score: inf
ROOT
ATOM      1  C   UNL     1      10.585  -8.958   5.125  1.00  0.00     0.046 C 
ATOM      2  C   UNL     1       9.927  -9.422   3.827  1.00  0.00     0.104 C 
ATOM      3  C   UNL     1       8.439  -9.874   4.070  1.00  0.00     0.104 C 
ATOM      4  C   UNL     1       7.979 -10.390   2.665  1.00  0.00     0.175 C 
ATOM      5  C   UNL     1       9.038 -11.380   2.077  1.00  0.00     0.070 C 
ATOM      6  C   UNL     1      10.006 -11.934   3.141  1.00  0.00     0.050 C 
ATOM      7  C   UNL     1      10.717 -10.554   3.066  1.00  0.00     0.115 C 
ATOM      8  C   UNL     1      10.094 -10.350   1.686  1.00  0.00     0.096 C 
ATOM      9  C   UNL     1       9.411  -8.992   1.706  1.00  0.00     0.267 C 
ATOM     10  O   UNL     1       9.851  -8.359   2.896  1.00  0.00    -0.342 OA
ATOM     11  O   UNL     1       8.022  -9.264   1.809  1.00  0.00    -0.320 OA
ENDROOT
BRANCH   7  12
ATOM     12  O   UNL     1      12.137 -10.388   3.095  1.00  0.00    -0.339 OA
BRANCH  12  13
ATOM     13  C   UNL     1      12.651  -9.816   4.288  1.00  0.00     0.282 C 
ATOM     14  C   UNL     1      13.688 -10.757   4.934  1.00  0.00     0.202 C 
ATOM     15  O   UNL     1      13.196  -8.521   4.065  1.00  0.00    -0.341 OA
ATOM     16  C   UNL     1      14.998 -10.801   4.119  1.00  0.00     0.179 C 
ATOM     17  C   UNL     1      14.319  -8.565   3.198  1.00  0.00     0.178 C 
ATOM     18  C   UNL     1      15.476  -9.370   3.834  1.00  0.00     0.177 C 
BRANCH  14  19
ATOM     19  O   UNL     1      13.143 -12.043   5.071  1.00  0.00    -0.385 OA
ATOM     20  H   UNL     1      12.156 -11.937   5.061  1.00  0.00     0.211 HD
ENDBRANCH  14  19
BRANCH  16  21
ATOM     21  O   UNL     1      14.808 -11.481   2.903  1.00  0.00    -0.387 OA
ATOM     22  H   UNL     1      15.680 -11.484   2.431  1.00  0.00     0.211 HD
ENDBRANCH  16  21
BRANCH  17  23
ATOM     23  C   UNL     1      14.729  -7.128   2.854  1.00  0.00     0.191 C 
BRANCH  23  24
ATOM     24  O   UNL     1      16.125  -7.019   2.764  1.00  0.00    -0.394 OA
ATOM     25  H   UNL     1      16.489  -7.188   3.671  1.00  0.00     0.210 HD
ENDBRANCH  23  24
ENDBRANCH  17  23
BRANCH  18  26
ATOM     26  O   UNL     1      15.888  -8.770   5.038  1.00  0.00    -0.387 OA
ATOM     27  H   UNL     1      16.852  -8.977   5.154  1.00  0.00     0.211 HD
ENDBRANCH  18  26
ENDBRANCH  12  13
ENDBRANCH   7  12
BRANCH   4  28
ATOM     28  O   UNL     1       6.695 -10.948   2.720  1.00  0.00    -0.365 OA
ATOM     29  H   UNL     1       6.731 -11.801   2.213  1.00  0.00     0.214 HD
ENDBRANCH   4  28
BRANCH   8  30
ATOM     30  C   UNL     1      10.929 -10.685   0.437  1.00  0.00     0.249 C 
BRANCH  30  31
ATOM     31  O   UNL     1      10.065 -11.078  -0.624  1.00  0.00    -0.461 OA
BRANCH  31  32
ATOM     32  C   UNL     1       8.940 -10.340  -0.999  1.00  0.00     0.338 C 
ATOM     33  O   UNL     1       9.056  -9.119  -1.295  1.00  0.00    -0.246 OA
BRANCH  32  34
ATOM     34  C   UNL     1       7.614 -10.993  -1.037  1.00  0.00     0.060 A 
ATOM     35  C   UNL     1       7.474 -12.286  -1.575  1.00  0.00     0.015 A 
ATOM     36  C   UNL     1       6.475 -10.340  -0.527  1.00  0.00     0.015 A 
ATOM     37  C   UNL     1       6.224 -12.910  -1.600  1.00  0.00     0.001 A 
ATOM     38  C   UNL     1       5.227 -10.970  -0.555  1.00  0.00     0.001 A 
ATOM     39  C   UNL     1       5.102 -12.254  -1.090  1.00  0.00     0.000 A 
ENDBRANCH  32  34
ENDBRANCH  31  32
ENDBRANCH  30  31
ENDBRANCH   8  30
TORSDOF 12
ENDMDL
