MODEL 1
REMARK VINA RESULT:    -5.815      0.000      0.000
REMARK INTER + INTRA:          -7.893
REMARK INTER:                  -7.345
REMARK INTRA:                  -0.548
REMARK UNBOUND:                -0.548
REMARK SMILES Oc1ccc(CCc2cc(O)cc(O)c2)cc1
REMARK SMILES IDX 6 1 5 2 4 3 3 4 2 5 16 6 17 7 1 8 7 10 8 11 15 12 9 13 13 14
REMARK SMILES IDX 10 15 12 16 14 17 11 19
REMARK H PARENT 1 9 14 18 11 20
REMARK Flexibility Score: inf
ROOT
ATOM      1  C   UNL     1      27.916  -1.469  35.790  1.00  0.00     0.040 C 
ENDROOT
BRANCH   1   2
ATOM      2  C   UNL     1      26.437  -1.590  35.538  1.00  0.00    -0.047 A 
ATOM      3  C   UNL     1      25.515  -1.068  36.461  1.00  0.00     0.007 A 
ATOM      4  C   UNL     1      24.143  -1.153  36.210  1.00  0.00     0.046 A 
ATOM      5  C   UNL     1      23.677  -1.748  35.034  1.00  0.00     0.115 A 
ATOM      6  C   UNL     1      25.966  -2.175  34.351  1.00  0.00     0.007 A 
ATOM      7  C   UNL     1      24.593  -2.259  34.103  1.00  0.00     0.046 A 
BRANCH   5   8
ATOM      8  O   UNL     1      22.307  -1.826  34.797  1.00  0.00    -0.508 OA
ATOM      9  H   UNL     1      21.650  -1.223  35.280  1.00  0.00     0.293 HD
ENDBRANCH   5   8
ENDBRANCH   1   2
BRANCH   1  10
ATOM     10  C   UNL     1      28.472  -2.772  36.367  1.00  0.00     0.040 C 
BRANCH  10  11
ATOM     11  C   UNL     1      29.406  -3.429  35.386  1.00  0.00    -0.040 A 
ATOM     12  C   UNL     1      30.479  -2.708  34.839  1.00  0.00     0.050 A 
ATOM     13  C   UNL     1      29.246  -4.785  35.055  1.00  0.00     0.050 A 
ATOM     14  C   UNL     1      31.367  -3.325  33.952  1.00  0.00     0.119 A 
ATOM     15  C   UNL     1      30.136  -5.405  34.167  1.00  0.00     0.119 A 
ATOM     16  C   UNL     1      31.193  -4.674  33.616  1.00  0.00     0.092 A 
BRANCH  14  17
ATOM     17  O   UNL     1      32.422  -2.591  33.413  1.00  0.00    -0.508 OA
ATOM     18  H   UNL     1      32.545  -1.607  33.623  1.00  0.00     0.293 HD
ENDBRANCH  14  17
BRANCH  15  19
ATOM     19  O   UNL     1      29.980  -6.748  33.829  1.00  0.00    -0.508 OA
ATOM     20  H   UNL     1      30.179  -7.487  34.492  1.00  0.00     0.293 HD
ENDBRANCH  15  19
ENDBRANCH  10  11
ENDBRANCH   1  10
TORSDOF 6
ENDMDL
MODEL 2
REMARK VINA RESULT:    -5.807      0.095      2.352
REMARK INTER + INTRA:          -7.882
REMARK INTER:                  -7.321
REMARK INTRA:                  -0.561
REMARK UNBOUND:                -0.548
REMARK SMILES Oc1ccc(CCc2cc(O)cc(O)c2)cc1
REMARK SMILES IDX 6 1 5 2 4 3 3 4 2 5 16 6 17 7 1 8 7 10 8 11 15 12 9 13 13 14
REMARK SMILES IDX 10 15 12 16 14 17 11 19
REMARK H PARENT 1 9 14 18 11 20
REMARK Flexibility Score: inf
ROOT
ATOM      1  C   UNL     1      27.995  -1.496  35.783  1.00  0.00     0.040 C 
ENDROOT
BRANCH   1   2
ATOM      2  C   UNL     1      26.520  -1.589  35.497  1.00  0.00    -0.047 A 
ATOM      3  C   UNL     1      26.063  -2.204  34.319  1.00  0.00     0.007 A 
ATOM      4  C   UNL     1      24.692  -2.318  34.071  1.00  0.00     0.046 A 
ATOM      5  C   UNL     1      23.766  -1.831  34.997  1.00  0.00     0.115 A 
ATOM      6  C   UNL     1      25.586  -1.112  36.431  1.00  0.00     0.007 A 
ATOM      7  C   UNL     1      24.215  -1.228  36.180  1.00  0.00     0.046 A 
BRANCH   5   8
ATOM      8  O   UNL     1      22.403  -1.952  34.736  1.00  0.00    -0.508 OA
ATOM      9  H   UNL     1      22.059  -2.497  33.954  1.00  0.00     0.293 HD
ENDBRANCH   5   8
ENDBRANCH   1   2
BRANCH   1  10
ATOM     10  C   UNL     1      28.514  -2.814  36.361  1.00  0.00     0.040 C 
BRANCH  10  11
ATOM     11  C   UNL     1      29.485  -3.463  35.411  1.00  0.00    -0.040 A 
ATOM     12  C   UNL     1      29.334  -4.813  35.058  1.00  0.00     0.050 A 
ATOM     13  C   UNL     1      30.514  -2.708  34.825  1.00  0.00     0.050 A 
ATOM     14  C   UNL     1      30.216  -5.410  34.150  1.00  0.00     0.119 A 
ATOM     15  C   UNL     1      31.398  -3.304  33.914  1.00  0.00     0.119 A 
ATOM     16  C   UNL     1      31.248  -4.653  33.581  1.00  0.00     0.092 A 
BRANCH  14  17
ATOM     17  O   UNL     1      30.054  -6.754  33.818  1.00  0.00    -0.508 OA
ATOM     18  H   UNL     1      30.311  -7.108  32.904  1.00  0.00     0.293 HD
ENDBRANCH  14  17
BRANCH  15  19
ATOM     19  O   UNL     1      32.425  -2.562  33.334  1.00  0.00    -0.508 OA
ATOM     20  H   UNL     1      32.876  -2.863  32.478  1.00  0.00     0.293 HD
ENDBRANCH  15  19
ENDBRANCH  10  11
ENDBRANCH   1  10
TORSDOF 6
ENDMDL
MODEL 3
REMARK VINA RESULT:    -5.696      1.683      7.145
REMARK INTER + INTRA:          -7.742
REMARK INTER:                  -7.364
REMARK INTRA:                  -0.379
REMARK UNBOUND:                -0.548
REMARK SMILES Oc1ccc(CCc2cc(O)cc(O)c2)cc1
REMARK SMILES IDX 6 1 5 2 4 3 3 4 2 5 16 6 17 7 1 8 7 10 8 11 15 12 9 13 13 14
REMARK SMILES IDX 10 15 12 16 14 17 11 19
REMARK H PARENT 1 9 14 18 11 20
REMARK Flexibility Score: inf
ROOT
ATOM      1  C   UNL     1      27.447  -3.079  35.020  1.00  0.00     0.040 C 
ENDROOT
BRANCH   1   2
ATOM      2  C   UNL     1      28.750  -3.750  34.679  1.00  0.00    -0.047 A 
ATOM      3  C   UNL     1      29.949  -3.312  35.268  1.00  0.00     0.007 A 
ATOM      4  C   UNL     1      31.154  -3.956  34.975  1.00  0.00     0.046 A 
ATOM      5  C   UNL     1      31.175  -5.048  34.102  1.00  0.00     0.115 A 
ATOM      6  C   UNL     1      28.773  -4.855  33.813  1.00  0.00     0.007 A 
ATOM      7  C   UNL     1      29.980  -5.498  33.522  1.00  0.00     0.046 A 
BRANCH   5   8
ATOM      8  O   UNL     1      32.383  -5.681  33.819  1.00  0.00    -0.508 OA
ATOM      9  H   UNL     1      33.159  -5.658  34.471  1.00  0.00     0.293 HD
ENDBRANCH   5   8
ENDBRANCH   1   2
BRANCH   1  10
ATOM     10  C   UNL     1      26.489  -3.127  33.828  1.00  0.00     0.040 C 
BRANCH  10  11
ATOM     11  C   UNL     1      25.381  -2.122  33.998  1.00  0.00    -0.040 A 
ATOM     12  C   UNL     1      24.090  -2.546  34.350  1.00  0.00     0.050 A 
ATOM     13  C   UNL     1      25.644  -0.749  33.862  1.00  0.00     0.050 A 
ATOM     14  C   UNL     1      23.066  -1.612  34.541  1.00  0.00     0.119 A 
ATOM     15  C   UNL     1      24.619   0.188  34.053  1.00  0.00     0.119 A 
ATOM     16  C   UNL     1      23.333  -0.244  34.390  1.00  0.00     0.092 A 
BRANCH  14  17
ATOM     17  O   UNL     1      21.789  -2.052  34.884  1.00  0.00    -0.508 OA
ATOM     18  H   UNL     1      21.386  -1.852  35.791  1.00  0.00     0.293 HD
ENDBRANCH  14  17
BRANCH  15  19
ATOM     19  O   UNL     1      24.871   1.552  33.914  1.00  0.00    -0.508 OA
ATOM     20  H   UNL     1      24.159   2.244  34.114  1.00  0.00     0.293 HD
ENDBRANCH  15  19
ENDBRANCH  10  11
ENDBRANCH   1  10
TORSDOF 6
ENDMDL
MODEL 4
REMARK VINA RESULT:    -5.672      1.726      6.932
REMARK INTER + INTRA:          -7.711
REMARK INTER:                  -7.335
REMARK INTRA:                  -0.376
REMARK UNBOUND:                -0.548
REMARK SMILES Oc1ccc(CCc2cc(O)cc(O)c2)cc1
REMARK SMILES IDX 6 1 5 2 4 3 3 4 2 5 16 6 17 7 1 8 7 10 8 11 15 12 9 13 13 14
REMARK SMILES IDX 10 15 12 16 14 17 11 19
REMARK H PARENT 1 9 14 18 11 20
REMARK Flexibility Score: inf
ROOT
ATOM      1  C   UNL     1      27.411  -2.912  35.077  1.00  0.00     0.040 C 
ENDROOT
BRANCH   1   2
ATOM      2  C   UNL     1      28.685  -3.657  34.783  1.00  0.00    -0.047 A 
ATOM      3  C   UNL     1      28.685  -4.730  33.876  1.00  0.00     0.007 A 
ATOM      4  C   UNL     1      29.875  -5.401  33.578  1.00  0.00     0.046 A 
ATOM      5  C   UNL     1      31.076  -5.002  34.173  1.00  0.00     0.115 A 
ATOM      6  C   UNL     1      29.895  -3.251  35.368  1.00  0.00     0.007 A 
ATOM      7  C   UNL     1      31.084  -3.923  35.069  1.00  0.00     0.046 A 
BRANCH   5   8
ATOM      8  O   UNL     1      32.253  -5.680  33.868  1.00  0.00    -0.508 OA
ATOM      9  H   UNL     1      32.677  -5.620  32.949  1.00  0.00     0.293 HD
ENDBRANCH   5   8
ENDBRANCH   1   2
BRANCH   1  10
ATOM     10  C   UNL     1      26.430  -3.042  33.910  1.00  0.00     0.040 C 
BRANCH  10  11
ATOM     11  C   UNL     1      25.333  -2.017  34.024  1.00  0.00    -0.040 A 
ATOM     12  C   UNL     1      25.568  -0.684  33.651  1.00  0.00     0.050 A 
ATOM     13  C   UNL     1      24.049  -2.398  34.449  1.00  0.00     0.050 A 
ATOM     14  C   UNL     1      24.542   0.263  33.726  1.00  0.00     0.119 A 
ATOM     15  C   UNL     1      23.020  -1.451  34.524  1.00  0.00     0.119 A 
ATOM     16  C   UNL     1      23.268  -0.123  34.164  1.00  0.00     0.092 A 
BRANCH  14  17
ATOM     17  O   UNL     1      24.796   1.582  33.358  1.00  0.00    -0.508 OA
ATOM     18  H   UNL     1      24.160   2.098  32.761  1.00  0.00     0.293 HD
ENDBRANCH  14  17
BRANCH  15  19
ATOM     19  O   UNL     1      21.745  -1.820  34.951  1.00  0.00    -0.508 OA
ATOM     20  H   UNL     1      21.384  -2.753  34.792  1.00  0.00     0.293 HD
ENDBRANCH  15  19
ENDBRANCH  10  11
ENDBRANCH   1  10
TORSDOF 6
ENDMDL
MODEL 5
REMARK VINA RESULT:    -5.504      1.799      3.350
REMARK INTER + INTRA:          -7.499
REMARK INTER:                  -6.916
REMARK INTRA:                  -0.584
REMARK UNBOUND:                -0.548
REMARK SMILES Oc1ccc(CCc2cc(O)cc(O)c2)cc1
REMARK SMILES IDX 6 1 5 2 4 3 3 4 2 5 16 6 17 7 1 8 7 10 8 11 15 12 9 13 13 14
REMARK SMILES IDX 10 15 12 16 14 17 11 19
REMARK H PARENT 1 9 14 18 11 20
REMARK Flexibility Score: inf
ROOT
ATOM      1  C   UNL     1      28.645  -4.652  34.146  1.00  0.00     0.040 C 
ENDROOT
BRANCH   1   2
ATOM      2  C   UNL     1      27.783  -3.499  34.583  1.00  0.00    -0.047 A 
ATOM      3  C   UNL     1      26.586  -3.212  33.905  1.00  0.00     0.007 A 
ATOM      4  C   UNL     1      25.769  -2.160  34.332  1.00  0.00     0.046 A 
ATOM      5  C   UNL     1      26.133  -1.393  35.443  1.00  0.00     0.115 A 
ATOM      6  C   UNL     1      28.138  -2.735  35.706  1.00  0.00     0.007 A 
ATOM      7  C   UNL     1      27.319  -1.683  36.131  1.00  0.00     0.046 A 
BRANCH   5   8
ATOM      8  O   UNL     1      25.310  -0.349  35.857  1.00  0.00    -0.508 OA
ATOM      9  H   UNL     1      25.449   0.599  35.526  1.00  0.00     0.293 HD
ENDBRANCH   5   8
ENDBRANCH   1   2
BRANCH   1  10
ATOM     10  C   UNL     1      29.942  -4.693  34.958  1.00  0.00     0.040 C 
BRANCH  10  11
ATOM     11  C   UNL     1      31.087  -4.138  34.154  1.00  0.00    -0.040 A 
ATOM     12  C   UNL     1      31.644  -4.888  33.106  1.00  0.00     0.050 A 
ATOM     13  C   UNL     1      31.569  -2.843  34.409  1.00  0.00     0.050 A 
ATOM     14  C   UNL     1      32.687  -4.361  32.336  1.00  0.00     0.119 A 
ATOM     15  C   UNL     1      32.614  -2.314  33.639  1.00  0.00     0.119 A 
ATOM     16  C   UNL     1      33.172  -3.074  32.606  1.00  0.00     0.092 A 
BRANCH  14  17
ATOM     17  O   UNL     1      33.232  -5.123  31.305  1.00  0.00    -0.508 OA
ATOM     18  H   UNL     1      34.130  -4.895  30.895  1.00  0.00     0.293 HD
ENDBRANCH  14  17
BRANCH  15  19
ATOM     19  O   UNL     1      33.102  -1.033  33.889  1.00  0.00    -0.508 OA
ATOM     20  H   UNL     1      33.951  -0.696  33.452  1.00  0.00     0.293 HD
ENDBRANCH  15  19
ENDBRANCH  10  11
ENDBRANCH   1  10
TORSDOF 6
ENDMDL
MODEL 6
REMARK VINA RESULT:    -5.441      1.834      2.801
REMARK INTER + INTRA:          -7.420
REMARK INTER:                  -6.829
REMARK INTRA:                  -0.591
REMARK UNBOUND:                -0.548
REMARK SMILES Oc1ccc(CCc2cc(O)cc(O)c2)cc1
REMARK SMILES IDX 6 1 5 2 4 3 3 4 2 5 16 6 17 7 1 8 7 10 8 11 15 12 9 13 13 14
REMARK SMILES IDX 10 15 12 16 14 17 11 19
REMARK H PARENT 1 9 14 18 11 20
REMARK Flexibility Score: inf
ROOT
ATOM      1  C   UNL     1      28.698  -4.653  34.169  1.00  0.00     0.040 C 
ENDROOT
BRANCH   1   2
ATOM      2  C   UNL     1      27.805  -3.534  34.633  1.00  0.00    -0.047 A 
ATOM      3  C   UNL     1      28.172  -2.747  35.738  1.00  0.00     0.007 A 
ATOM      4  C   UNL     1      27.358  -1.687  36.149  1.00  0.00     0.046 A 
ATOM      5  C   UNL     1      26.178  -1.396  35.457  1.00  0.00     0.115 A 
ATOM      6  C   UNL     1      26.626  -3.231  33.933  1.00  0.00     0.007 A 
ATOM      7  C   UNL     1      25.814  -2.170  34.347  1.00  0.00     0.046 A 
BRANCH   5   8
ATOM      8  O   UNL     1      25.377  -0.338  35.878  1.00  0.00    -0.508 OA
ATOM      9  H   UNL     1      25.201   0.463  35.282  1.00  0.00     0.293 HD
ENDBRANCH   5   8
ENDBRANCH   1   2
BRANCH   1  10
ATOM     10  C   UNL     1      30.004  -4.665  34.966  1.00  0.00     0.040 C 
BRANCH  10  11
ATOM     11  C   UNL     1      31.133  -4.109  34.141  1.00  0.00    -0.040 A 
ATOM     12  C   UNL     1      31.699  -2.865  34.463  1.00  0.00     0.050 A 
ATOM     13  C   UNL     1      31.668  -4.855  33.077  1.00  0.00     0.050 A 
ATOM     14  C   UNL     1      32.770  -2.360  33.717  1.00  0.00     0.119 A 
ATOM     15  C   UNL     1      32.740  -4.351  32.329  1.00  0.00     0.119 A 
ATOM     16  C   UNL     1      33.288  -3.105  32.649  1.00  0.00     0.092 A 
BRANCH  14  17
ATOM     17  O   UNL     1      33.314  -1.121  34.048  1.00  0.00    -0.508 OA
ATOM     18  H   UNL     1      33.841  -0.577  33.375  1.00  0.00     0.293 HD
ENDBRANCH  14  17
BRANCH  15  19
ATOM     19  O   UNL     1      33.272  -5.083  31.269  1.00  0.00    -0.508 OA
ATOM     20  H   UNL     1      34.147  -5.585  31.359  1.00  0.00     0.293 HD
ENDBRANCH  15  19
ENDBRANCH  10  11
ENDBRANCH   1  10
TORSDOF 6
ENDMDL
MODEL 7
REMARK VINA RESULT:    -5.354      1.544      2.257
REMARK INTER + INTRA:          -7.310
REMARK INTER:                  -6.885
REMARK INTRA:                  -0.424
REMARK UNBOUND:                -0.548
REMARK SMILES Oc1ccc(CCc2cc(O)cc(O)c2)cc1
REMARK SMILES IDX 6 1 5 2 4 3 3 4 2 5 16 6 17 7 1 8 7 10 8 11 15 12 9 13 13 14
REMARK SMILES IDX 10 15 12 16 14 17 11 19
REMARK H PARENT 1 9 14 18 11 20
REMARK Flexibility Score: inf
ROOT
ATOM      1  C   UNL     1      28.433  -3.034  35.482  1.00  0.00     0.040 C 
ENDROOT
BRANCH   1   2
ATOM      2  C   UNL     1      27.064  -2.482  35.192  1.00  0.00    -0.047 A 
ATOM      3  C   UNL     1      26.304  -2.993  34.126  1.00  0.00     0.007 A 
ATOM      4  C   UNL     1      25.019  -2.502  33.877  1.00  0.00     0.046 A 
ATOM      5  C   UNL     1      24.476  -1.506  34.694  1.00  0.00     0.115 A 
ATOM      6  C   UNL     1      26.509  -1.490  36.018  1.00  0.00     0.007 A 
ATOM      7  C   UNL     1      25.224  -1.001  35.767  1.00  0.00     0.046 A 
BRANCH   5   8
ATOM      8  O   UNL     1      23.195  -1.026  34.434  1.00  0.00    -0.508 OA
ATOM      9  H   UNL     1      22.989  -0.033  34.439  1.00  0.00     0.293 HD
ENDBRANCH   5   8
ENDBRANCH   1   2
BRANCH   1  10
ATOM     10  C   UNL     1      28.808  -4.108  34.458  1.00  0.00     0.040 C 
BRANCH  10  11
ATOM     11  C   UNL     1      30.294  -4.114  34.218  1.00  0.00    -0.040 A 
ATOM     12  C   UNL     1      31.177  -3.723  35.237  1.00  0.00     0.050 A 
ATOM     13  C   UNL     1      30.811  -4.565  32.992  1.00  0.00     0.050 A 
ATOM     14  C   UNL     1      32.559  -3.758  35.027  1.00  0.00     0.119 A 
ATOM     15  C   UNL     1      32.196  -4.602  32.780  1.00  0.00     0.119 A 
ATOM     16  C   UNL     1      33.067  -4.197  33.797  1.00  0.00     0.092 A 
BRANCH  14  17
ATOM     17  O   UNL     1      33.420  -3.360  36.048  1.00  0.00    -0.508 OA
ATOM     18  H   UNL     1      34.278  -2.857  35.852  1.00  0.00     0.293 HD
ENDBRANCH  14  17
BRANCH  15  19
ATOM     19  O   UNL     1      32.717  -5.042  31.565  1.00  0.00    -0.508 OA
ATOM     20  H   UNL     1      33.296  -4.443  30.989  1.00  0.00     0.293 HD
ENDBRANCH  15  19
ENDBRANCH  10  11
ENDBRANCH   1  10
TORSDOF 6
ENDMDL
MODEL 8
REMARK VINA RESULT:    -5.243      3.200      5.493
REMARK INTER + INTRA:          -7.170
REMARK INTER:                  -6.567
REMARK INTRA:                  -0.604
REMARK UNBOUND:                -0.548
REMARK SMILES Oc1ccc(CCc2cc(O)cc(O)c2)cc1
REMARK SMILES IDX 6 1 5 2 4 3 3 4 2 5 16 6 17 7 1 8 7 10 8 11 15 12 9 13 13 14
REMARK SMILES IDX 10 15 12 16 14 17 11 19
REMARK H PARENT 1 9 14 18 11 20
REMARK Flexibility Score: inf
ROOT
ATOM      1  C   UNL     1      31.833  -5.346  33.445  1.00  0.00     0.040 C 
ENDROOT
BRANCH   1   2
ATOM      2  C   UNL     1      30.637  -4.692  34.082  1.00  0.00    -0.047 A 
ATOM      3  C   UNL     1      30.807  -3.778  35.136  1.00  0.00     0.007 A 
ATOM      4  C   UNL     1      29.698  -3.146  35.706  1.00  0.00     0.046 A 
ATOM      5  C   UNL     1      28.412  -3.411  35.225  1.00  0.00     0.115 A 
ATOM      6  C   UNL     1      29.345  -4.945  33.593  1.00  0.00     0.007 A 
ATOM      7  C   UNL     1      28.238  -4.312  34.165  1.00  0.00     0.046 A 
BRANCH   5   8
ATOM      8  O   UNL     1      27.316  -2.774  35.803  1.00  0.00    -0.508 OA
ATOM      9  H   UNL     1      27.133  -2.833  36.798  1.00  0.00     0.293 HD
ENDBRANCH   5   8
ENDBRANCH   1   2
BRANCH   1  10
ATOM     10  C   UNL     1      33.129  -4.726  33.971  1.00  0.00     0.040 C 
BRANCH  10  11
ATOM     11  C   UNL     1      33.789  -3.892  32.906  1.00  0.00    -0.040 A 
ATOM     12  C   UNL     1      34.722  -4.471  32.032  1.00  0.00     0.050 A 
ATOM     13  C   UNL     1      33.433  -2.543  32.741  1.00  0.00     0.050 A 
ATOM     14  C   UNL     1      35.312  -3.706  31.019  1.00  0.00     0.119 A 
ATOM     15  C   UNL     1      34.022  -1.776  31.727  1.00  0.00     0.119 A 
ATOM     16  C   UNL     1      34.962  -2.358  30.870  1.00  0.00     0.092 A 
BRANCH  14  17
ATOM     17  O   UNL     1      36.242  -4.296  30.165  1.00  0.00    -0.508 OA
ATOM     18  H   UNL     1      37.050  -4.793  30.523  1.00  0.00     0.293 HD
ENDBRANCH  14  17
BRANCH  15  19
ATOM     19  O   UNL     1      33.679  -0.435  31.562  1.00  0.00    -0.508 OA
ATOM     20  H   UNL     1      33.248   0.096  32.308  1.00  0.00     0.293 HD
ENDBRANCH  15  19
ENDBRANCH  10  11
ENDBRANCH   1  10
TORSDOF 6
ENDMDL
MODEL 9
REMARK VINA RESULT:    -5.226      3.171      5.396
REMARK INTER + INTRA:          -7.149
REMARK INTER:                  -6.555
REMARK INTRA:                  -0.594
REMARK UNBOUND:                -0.548
REMARK SMILES Oc1ccc(CCc2cc(O)cc(O)c2)cc1
REMARK SMILES IDX 6 1 5 2 4 3 3 4 2 5 16 6 17 7 1 8 7 10 8 11 15 12 9 13 13 14
REMARK SMILES IDX 10 15 12 16 14 17 11 19
REMARK H PARENT 1 9 14 18 11 20
REMARK Flexibility Score: inf
ROOT
ATOM      1  C   UNL     1      31.748  -5.354  33.426  1.00  0.00     0.040 C 
ENDROOT
BRANCH   1   2
ATOM      2  C   UNL     1      30.573  -4.639  34.035  1.00  0.00    -0.047 A 
ATOM      3  C   UNL     1      29.269  -4.905  33.584  1.00  0.00     0.007 A 
ATOM      4  C   UNL     1      28.175  -4.264  34.174  1.00  0.00     0.046 A 
ATOM      5  C   UNL     1      28.370  -3.361  35.222  1.00  0.00     0.115 A 
ATOM      6  C   UNL     1      30.763  -3.740  35.098  1.00  0.00     0.007 A 
ATOM      7  C   UNL     1      29.668  -3.100  35.685  1.00  0.00     0.046 A 
BRANCH   5   8
ATOM      8  O   UNL     1      27.271  -2.729  35.800  1.00  0.00    -0.508 OA
ATOM      9  H   UNL     1      26.350  -2.777  35.378  1.00  0.00     0.293 HD
ENDBRANCH   5   8
ENDBRANCH   1   2
BRANCH   1  10
ATOM     10  C   UNL     1      33.063  -4.745  33.919  1.00  0.00     0.040 C 
BRANCH  10  11
ATOM     11  C   UNL     1      33.706  -3.923  32.834  1.00  0.00    -0.040 A 
ATOM     12  C   UNL     1      33.378  -2.566  32.687  1.00  0.00     0.050 A 
ATOM     13  C   UNL     1      34.680  -4.492  31.997  1.00  0.00     0.050 A 
ATOM     14  C   UNL     1      33.998  -1.791  31.700  1.00  0.00     0.119 A 
ATOM     15  C   UNL     1      35.302  -3.718  31.008  1.00  0.00     0.119 A 
ATOM     16  C   UNL     1      34.958  -2.370  30.861  1.00  0.00     0.092 A 
BRANCH  14  17
ATOM     17  O   UNL     1      33.655  -0.448  31.565  1.00  0.00    -0.508 OA
ATOM     18  H   UNL     1      34.300   0.227  31.172  1.00  0.00     0.293 HD
ENDBRANCH  14  17
BRANCH  15  19
ATOM     19  O   UNL     1      36.265  -4.277  30.170  1.00  0.00    -0.508 OA
ATOM     20  H   UNL     1      36.491  -3.863  29.274  1.00  0.00     0.293 HD
ENDBRANCH  15  19
ENDBRANCH  10  11
ENDBRANCH   1  10
TORSDOF 6
ENDMDL
