MODEL 1
REMARK VINA RESULT:    -2.163      0.000      0.000
REMARK INTER + INTRA:          -2.353
REMARK INTER:                  -2.353
REMARK INTRA:                   0.000
REMARK UNBOUND:                 0.000
REMARK SMILES [NH3+]CC(=O)[O-]
REMARK SMILES IDX 2 1 1 2 3 6 4 7 5 8
REMARK H PARENT 1 3 1 4 1 5
REMARK Flexibility Score: inf
ROOT
ATOM      1  C   UNL     1     150.520 159.250 134.404  1.00  0.00     0.312 C 
ENDROOT
BRANCH   1   2
ATOM      2  N   UNL     1     151.251 160.250 133.629  1.00  0.00    -0.353 N 
ATOM      3  H   UNL     1     151.587 159.834 132.730  1.00  0.00     0.344 HD
ATOM      4  H   UNL     1     152.078 160.574 134.182  1.00  0.00     0.344 HD
ATOM      5  H   UNL     1     150.634 161.072 133.431  1.00  0.00     0.344 HD
ENDBRANCH   1   2
BRANCH   1   6
ATOM      6  C   UNL     1     150.341 157.994 133.609  1.00  0.00     0.096 C 
ATOM      7  O   UNL     1     151.272 157.570 132.875  1.00  0.00    -0.544 OA
ATOM      8  O   UNL     1     149.127 157.319 133.640  1.00  0.00    -0.544 OA
ENDBRANCH   1   6
TORSDOF 2
ENDMDL
MODEL 2
REMARK VINA RESULT:    -2.130     21.747     22.096
REMARK INTER + INTRA:          -2.317
REMARK INTER:                  -2.317
REMARK INTRA:                   0.000
REMARK UNBOUND:                 0.000
REMARK SMILES [NH3+]CC(=O)[O-]
REMARK SMILES IDX 2 1 1 2 3 6 4 7 5 8
REMARK H PARENT 1 3 1 4 1 5
REMARK Flexibility Score: inf
ROOT
ATOM      1  C   UNL     1     133.580 143.117 133.661  1.00  0.00     0.312 C 
ENDROOT
BRANCH   1   2
ATOM      2  N   UNL     1     133.058 142.473 134.864  1.00  0.00    -0.353 N 
ATOM      3  H   UNL     1     133.829 142.322 135.555  1.00  0.00     0.344 HD
ATOM      4  H   UNL     1     132.649 141.546 134.605  1.00  0.00     0.344 HD
ATOM      5  H   UNL     1     132.310 143.066 135.293  1.00  0.00     0.344 HD
ENDBRANCH   1   2
BRANCH   1   6
ATOM      6  C   UNL     1     134.966 143.632 133.897  1.00  0.00     0.096 C 
ATOM      7  O   UNL     1     135.695 143.959 132.924  1.00  0.00    -0.544 OA
ATOM      8  O   UNL     1     135.470 143.703 135.190  1.00  0.00    -0.544 OA
ENDBRANCH   1   6
TORSDOF 2
ENDMDL
MODEL 3
REMARK VINA RESULT:    -2.124     14.040     14.315
REMARK INTER + INTRA:          -2.311
REMARK INTER:                  -2.311
REMARK INTRA:                   0.000
REMARK UNBOUND:                 0.000
REMARK SMILES [NH3+]CC(=O)[O-]
REMARK SMILES IDX 2 1 1 2 3 6 4 7 5 8
REMARK H PARENT 1 3 1 4 1 5
REMARK Flexibility Score: inf
ROOT
ATOM      1  C   UNL     1     152.281 143.884 133.038  1.00  0.00     0.312 C 
ENDROOT
BRANCH   1   2
ATOM      2  N   UNL     1     152.309 142.824 134.043  1.00  0.00    -0.353 N 
ATOM      3  H   UNL     1     153.029 142.107 133.790  1.00  0.00     0.344 HD
ATOM      4  H   UNL     1     151.371 142.362 134.079  1.00  0.00     0.344 HD
ATOM      5  H   UNL     1     152.526 143.226 134.984  1.00  0.00     0.344 HD
ENDBRANCH   1   2
BRANCH   1   6
ATOM      6  C   UNL     1     151.114 144.795 133.265  1.00  0.00     0.096 C 
ATOM      7  O   UNL     1     151.176 146.003 132.915  1.00  0.00    -0.544 OA
ATOM      8  O   UNL     1     149.978 144.321 133.908  1.00  0.00    -0.544 OA
ENDBRANCH   1   6
TORSDOF 2
ENDMDL
MODEL 4
REMARK VINA RESULT:    -2.083     18.307     18.613
REMARK INTER + INTRA:          -2.265
REMARK INTER:                  -2.265
REMARK INTRA:                   0.000
REMARK UNBOUND:                 0.000
REMARK SMILES [NH3+]CC(=O)[O-]
REMARK SMILES IDX 2 1 1 2 3 6 4 7 5 8
REMARK H PARENT 1 3 1 4 1 5
REMARK Flexibility Score: inf
ROOT
ATOM      1  C   UNL     1     137.387 146.387 134.434  1.00  0.00     0.312 C 
ENDROOT
BRANCH   1   2
ATOM      2  N   UNL     1     138.202 147.215 133.549  1.00  0.00    -0.353 N 
ATOM      3  H   UNL     1     138.523 148.074 134.053  1.00  0.00     0.344 HD
ATOM      4  H   UNL     1     137.627 147.503 132.724  1.00  0.00     0.344 HD
ATOM      5  H   UNL     1     139.031 146.673 133.211  1.00  0.00     0.344 HD
ENDBRANCH   1   2
BRANCH   1   6
ATOM      6  C   UNL     1     136.447 145.533 133.640  1.00  0.00     0.096 C 
ATOM      7  O   UNL     1     136.585 144.282 133.626  1.00  0.00    -0.544 OA
ATOM      8  O   UNL     1     135.449 146.125 132.875  1.00  0.00    -0.544 OA
ENDBRANCH   1   6
TORSDOF 2
ENDMDL
MODEL 5
REMARK VINA RESULT:    -2.073     13.291     13.605
REMARK INTER + INTRA:          -2.255
REMARK INTER:                  -2.255
REMARK INTRA:                   0.000
REMARK UNBOUND:                 0.000
REMARK SMILES [NH3+]CC(=O)[O-]
REMARK SMILES IDX 2 1 1 2 3 6 4 7 5 8
REMARK H PARENT 1 3 1 4 1 5
REMARK Flexibility Score: inf
ROOT
ATOM      1  C   UNL     1     151.015 145.718 132.882  1.00  0.00     0.312 C 
ENDROOT
BRANCH   1   2
ATOM      2  N   UNL     1     151.340 146.926 133.636  1.00  0.00    -0.353 N 
ATOM      3  H   UNL     1     151.085 147.776 133.082  1.00  0.00     0.344 HD
ATOM      4  H   UNL     1     152.369 146.943 133.827  1.00  0.00     0.344 HD
ATOM      5  H   UNL     1     150.826 146.930 134.547  1.00  0.00     0.344 HD
ENDBRANCH   1   2
BRANCH   1   6
ATOM      6  C   UNL     1     151.443 144.495 133.634  1.00  0.00     0.096 C 
ATOM      7  O   UNL     1     150.990 144.270 134.786  1.00  0.00    -0.544 OA
ATOM      8  O   UNL     1     152.379 143.631 133.080  1.00  0.00    -0.544 OA
ENDBRANCH   1   6
TORSDOF 2
ENDMDL
MODEL 6
REMARK VINA RESULT:    -2.035     22.158     22.630
REMARK INTER + INTRA:          -2.214
REMARK INTER:                  -2.214
REMARK INTRA:                   0.000
REMARK UNBOUND:                 0.000
REMARK SMILES [NH3+]CC(=O)[O-]
REMARK SMILES IDX 2 1 1 2 3 6 4 7 5 8
REMARK H PARENT 1 3 1 4 1 5
REMARK Flexibility Score: inf
ROOT
ATOM      1  C   UNL     1     134.839 142.686 137.890  1.00  0.00     0.312 C 
ENDROOT
BRANCH   1   2
ATOM      2  N   UNL     1     133.444 142.685 138.325  1.00  0.00    -0.353 N 
ATOM      3  H   UNL     1     132.816 142.455 137.520  1.00  0.00     0.344 HD
ATOM      4  H   UNL     1     133.197 143.635 138.685  1.00  0.00     0.344 HD
ATOM      5  H   UNL     1     133.307 141.986 139.091  1.00  0.00     0.344 HD
ENDBRANCH   1   2
BRANCH   1   6
ATOM      6  C   UNL     1     134.928 142.835 136.402  1.00  0.00     0.096 C 
ATOM      7  O   UNL     1     135.801 143.583 135.892  1.00  0.00    -0.544 OA
ATOM      8  O   UNL     1     134.013 142.184 135.583  1.00  0.00    -0.544 OA
ENDBRANCH   1   6
TORSDOF 2
ENDMDL
MODEL 7
REMARK VINA RESULT:    -1.978     21.694     22.020
REMARK INTER + INTRA:          -2.151
REMARK INTER:                  -2.151
REMARK INTRA:                   0.000
REMARK UNBOUND:                 0.000
REMARK SMILES [NH3+]CC(=O)[O-]
REMARK SMILES IDX 2 1 1 2 3 6 4 7 5 8
REMARK H PARENT 1 3 1 4 1 5
REMARK Flexibility Score: inf
ROOT
ATOM      1  C   UNL     1     134.433 142.358 136.051  1.00  0.00     0.312 C 
ENDROOT
BRANCH   1   2
ATOM      2  N   UNL     1     133.312 142.388 135.115  1.00  0.00    -0.353 N 
ATOM      3  H   UNL     1     133.015 143.376 134.939  1.00  0.00     0.344 HD
ATOM      4  H   UNL     1     132.507 141.862 135.528  1.00  0.00     0.344 HD
ATOM      5  H   UNL     1     133.585 141.934 134.212  1.00  0.00     0.344 HD
ENDBRANCH   1   2
BRANCH   1   6
ATOM      6  C   UNL     1     135.371 143.496 135.787  1.00  0.00     0.096 C 
ATOM      7  O   UNL     1     135.897 144.118 136.746  1.00  0.00    -0.544 OA
ATOM      8  O   UNL     1     135.623 143.900 134.482  1.00  0.00    -0.544 OA
ENDBRANCH   1   6
TORSDOF 2
ENDMDL
MODEL 8
REMARK VINA RESULT:    -1.932     20.835     21.321
REMARK INTER + INTRA:          -2.101
REMARK INTER:                  -2.101
REMARK INTRA:                   0.000
REMARK UNBOUND:                 0.000
REMARK SMILES [NH3+]CC(=O)[O-]
REMARK SMILES IDX 2 1 1 2 3 6 4 7 5 8
REMARK H PARENT 1 3 1 4 1 5
REMARK Flexibility Score: inf
ROOT
ATOM      1  C   UNL     1     135.676 144.047 133.118  1.00  0.00     0.312 C 
ENDROOT
BRANCH   1   2
ATOM      2  N   UNL     1     137.052 144.213 133.583  1.00  0.00    -0.353 N 
ATOM      3  H   UNL     1     137.331 145.220 133.527  1.00  0.00     0.344 HD
ATOM      4  H   UNL     1     137.689 143.652 132.973  1.00  0.00     0.344 HD
ATOM      5  H   UNL     1     137.141 143.875 134.569  1.00  0.00     0.344 HD
ENDBRANCH   1   2
BRANCH   1   6
ATOM      6  C   UNL     1     134.816 143.483 134.208  1.00  0.00     0.096 C 
ATOM      7  O   UNL     1     133.661 143.059 133.947  1.00  0.00    -0.544 OA
ATOM      8  O   UNL     1     135.274 143.474 135.519  1.00  0.00    -0.544 OA
ENDBRANCH   1   6
TORSDOF 2
ENDMDL
MODEL 9
REMARK VINA RESULT:    -1.929     20.104     20.487
REMARK INTER + INTRA:          -2.098
REMARK INTER:                  -2.098
REMARK INTRA:                   0.000
REMARK UNBOUND:                 0.000
REMARK SMILES [NH3+]CC(=O)[O-]
REMARK SMILES IDX 2 1 1 2 3 6 4 7 5 8
REMARK H PARENT 1 3 1 4 1 5
REMARK Flexibility Score: inf
ROOT
ATOM      1  C   UNL     1     134.998 143.814 133.478  1.00  0.00     0.312 C 
ENDROOT
BRANCH   1   2
ATOM      2  N   UNL     1     134.397 143.437 134.755  1.00  0.00    -0.353 N 
ATOM      3  H   UNL     1     133.758 144.195 135.090  1.00  0.00     0.344 HD
ATOM      4  H   UNL     1     135.155 143.297 135.462  1.00  0.00     0.344 HD
ATOM      5  H   UNL     1     133.862 142.543 134.650  1.00  0.00     0.344 HD
ENDBRANCH   1   2
BRANCH   1   6
ATOM      6  C   UNL     1     136.192 144.691 133.695  1.00  0.00     0.096 C 
ATOM      7  O   UNL     1     137.211 144.241 134.280  1.00  0.00    -0.544 OA
ATOM      8  O   UNL     1     136.158 146.021 133.296  1.00  0.00    -0.544 OA
ENDBRANCH   1   6
TORSDOF 2
ENDMDL
