MODEL 1
REMARK VINA RESULT:    -5.387      0.000      0.000
REMARK INTER + INTRA:          -6.402
REMARK INTER:                  -6.174
REMARK INTRA:                  -0.228
REMARK UNBOUND:                -0.228
REMARK SMILES O=C([O-])C=Cc1ccc(O)cc1
REMARK SMILES IDX 6 1 7 2 12 3 8 4 11 5 9 6 5 7 4 8 2 9 1 10 3 11 10 12
REMARK H PARENT 10 13
REMARK Flexibility Score: inf
ROOT
ATOM      1  C   UNL     1     -15.174 -10.626 -15.222  1.00  0.00    -0.025 A 
ATOM      2  C   UNL     1     -15.760 -10.488 -13.954  1.00  0.00     0.012 A 
ATOM      3  C   UNL     1     -15.998 -10.849 -16.339  1.00  0.00     0.012 A 
ATOM      4  C   UNL     1     -17.143 -10.623 -13.798  1.00  0.00     0.047 A 
ATOM      5  C   UNL     1     -17.381 -10.983 -16.180  1.00  0.00     0.047 A 
ATOM      6  C   UNL     1     -17.957 -10.873 -14.907  1.00  0.00     0.115 A 
ENDROOT
BRANCH   1   7
ATOM      7  C   UNL     1     -13.718 -10.428 -15.371  1.00  0.00     0.010 C 
ATOM      8  C   UNL     1     -13.081  -9.251 -15.281  1.00  0.00     0.025 C 
BRANCH   8   9
ATOM      9  C   UNL     1     -13.732  -7.929 -15.211  1.00  0.00     0.064 C 
ATOM     10  O   UNL     1     -14.181  -7.407 -16.264  1.00  0.00    -0.545 OA
ATOM     11  O   UNL     1     -13.926  -7.279 -13.998  1.00  0.00    -0.545 OA
ENDBRANCH   8   9
ENDBRANCH   1   7
BRANCH   6  12
ATOM     12  O   UNL     1     -19.332 -11.006 -14.736  1.00  0.00    -0.508 OA
ATOM     13  H   UNL     1     -19.744 -11.104 -13.815  1.00  0.00     0.293 HD
ENDBRANCH   6  12
TORSDOF 3
ENDMDL
MODEL 2
REMARK VINA RESULT:    -5.161     13.189     13.710
REMARK INTER + INTRA:          -6.143
REMARK INTER:                  -5.998
REMARK INTRA:                  -0.146
REMARK UNBOUND:                -0.228
REMARK SMILES O=C([O-])C=Cc1ccc(O)cc1
REMARK SMILES IDX 6 1 7 2 12 3 8 4 11 5 9 6 5 7 4 8 2 9 1 10 3 11 10 12
REMARK H PARENT 10 13
REMARK Flexibility Score: inf
ROOT
ATOM      1  C   UNL     1     -11.175 -18.813  -7.280  1.00  0.00    -0.025 A 
ATOM      2  C   UNL     1     -11.500 -19.684  -8.331  1.00  0.00     0.012 A 
ATOM      3  C   UNL     1     -11.983 -18.795  -6.129  1.00  0.00     0.012 A 
ATOM      4  C   UNL     1     -12.642 -20.487  -8.256  1.00  0.00     0.047 A 
ATOM      5  C   UNL     1     -13.125 -19.600  -6.056  1.00  0.00     0.047 A 
ATOM      6  C   UNL     1     -13.459 -20.445  -7.122  1.00  0.00     0.115 A 
ENDROOT
BRANCH   1   7
ATOM      7  C   UNL     1      -9.936 -18.013  -7.359  1.00  0.00     0.010 C 
ATOM      8  C   UNL     1      -8.692 -18.512  -7.411  1.00  0.00     0.025 C 
BRANCH   8   9
ATOM      9  C   UNL     1      -8.328 -19.927  -7.206  1.00  0.00     0.064 C 
ATOM     10  O   UNL     1      -7.914 -20.603  -8.183  1.00  0.00    -0.545 OA
ATOM     11  O   UNL     1      -8.363 -20.510  -5.945  1.00  0.00    -0.545 OA
ENDBRANCH   8   9
ENDBRANCH   1   7
BRANCH   6  12
ATOM     12  O   UNL     1     -14.593 -21.250  -7.062  1.00  0.00    -0.508 OA
ATOM     13  H   UNL     1     -14.756 -21.988  -7.737  1.00  0.00     0.293 HD
ENDBRANCH   6  12
TORSDOF 3
ENDMDL
MODEL 3
REMARK VINA RESULT:    -5.110     12.582     13.966
REMARK INTER + INTRA:          -6.085
REMARK INTER:                  -5.922
REMARK INTRA:                  -0.163
REMARK UNBOUND:                -0.228
REMARK SMILES O=C([O-])C=Cc1ccc(O)cc1
REMARK SMILES IDX 6 1 7 2 12 3 8 4 11 5 9 6 5 7 4 8 2 9 1 10 3 11 10 12
REMARK H PARENT 10 13
REMARK Flexibility Score: inf
ROOT
ATOM      1  C   UNL     1     -11.719 -19.342  -6.455  1.00  0.00    -0.025 A 
ATOM      2  C   UNL     1     -10.658 -20.218  -6.179  1.00  0.00     0.012 A 
ATOM      3  C   UNL     1     -11.474 -18.183  -7.212  1.00  0.00     0.012 A 
ATOM      4  C   UNL     1      -9.362 -19.915  -6.609  1.00  0.00     0.047 A 
ATOM      5  C   UNL     1     -10.177 -17.882  -7.641  1.00  0.00     0.047 A 
ATOM      6  C   UNL     1      -9.117 -18.747  -7.337  1.00  0.00     0.115 A 
ENDROOT
BRANCH   1   7
ATOM      7  C   UNL     1     -13.088 -19.709  -6.036  1.00  0.00     0.010 C 
ATOM      8  C   UNL     1     -13.972 -20.387  -6.782  1.00  0.00     0.025 C 
BRANCH   8   9
ATOM      9  C   UNL     1     -13.811 -20.718  -8.210  1.00  0.00     0.064 C 
ATOM     10  O   UNL     1     -14.596 -20.210  -9.052  1.00  0.00    -0.545 OA
ATOM     11  O   UNL     1     -12.768 -21.521  -8.656  1.00  0.00    -0.545 OA
ENDBRANCH   8   9
ENDBRANCH   1   7
BRANCH   6  12
ATOM     12  O   UNL     1      -7.822 -18.458  -7.758  1.00  0.00    -0.508 OA
ATOM     13  H   UNL     1      -7.276 -19.126  -8.290  1.00  0.00     0.293 HD
ENDBRANCH   6  12
TORSDOF 3
ENDMDL
MODEL 4
REMARK VINA RESULT:    -4.927      2.591      3.173
REMARK INTER + INTRA:          -5.875
REMARK INTER:                  -5.691
REMARK INTRA:                  -0.184
REMARK UNBOUND:                -0.228
REMARK SMILES O=C([O-])C=Cc1ccc(O)cc1
REMARK SMILES IDX 6 1 7 2 12 3 8 4 11 5 9 6 5 7 4 8 2 9 1 10 3 11 10 12
REMARK H PARENT 10 13
REMARK Flexibility Score: inf
ROOT
ATOM      1  C   UNL     1     -14.083 -10.022 -15.829  1.00  0.00    -0.025 A 
ATOM      2  C   UNL     1     -14.199  -8.667 -15.483  1.00  0.00     0.012 A 
ATOM      3  C   UNL     1     -15.031 -10.939 -15.341  1.00  0.00     0.012 A 
ATOM      4  C   UNL     1     -15.217  -8.242 -14.623  1.00  0.00     0.047 A 
ATOM      5  C   UNL     1     -16.048 -10.512 -14.481  1.00  0.00     0.047 A 
ATOM      6  C   UNL     1     -16.141  -9.162 -14.117  1.00  0.00     0.115 A 
ENDROOT
BRANCH   1   7
ATOM      7  C   UNL     1     -13.032 -10.439 -16.780  1.00  0.00     0.010 C 
ATOM      8  C   UNL     1     -11.849 -10.974 -16.445  1.00  0.00     0.025 C 
BRANCH   8   9
ATOM      9  C   UNL     1     -11.309 -11.066 -15.075  1.00  0.00     0.064 C 
ATOM     10  O   UNL     1     -10.900 -12.176 -14.648  1.00  0.00    -0.545 OA
ATOM     11  O   UNL     1     -11.173  -9.940 -14.272  1.00  0.00    -0.545 OA
ENDBRANCH   8   9
ENDBRANCH   1   7
BRANCH   6  12
ATOM     12  O   UNL     1     -17.148  -8.725 -13.261  1.00  0.00    -0.508 OA
ATOM     13  H   UNL     1     -17.014  -8.696 -12.257  1.00  0.00     0.293 HD
ENDBRANCH   6  12
TORSDOF 3
ENDMDL
MODEL 5
REMARK VINA RESULT:    -4.837      2.062      2.238
REMARK INTER + INTRA:          -5.772
REMARK INTER:                  -5.540
REMARK INTRA:                  -0.233
REMARK UNBOUND:                -0.228
REMARK SMILES O=C([O-])C=Cc1ccc(O)cc1
REMARK SMILES IDX 6 1 7 2 12 3 8 4 11 5 9 6 5 7 4 8 2 9 1 10 3 11 10 12
REMARK H PARENT 10 13
REMARK Flexibility Score: inf
ROOT
ATOM      1  C   UNL     1     -14.815  -9.389 -15.749  1.00  0.00    -0.025 A 
ATOM      2  C   UNL     1     -15.397  -8.997 -14.534  1.00  0.00     0.012 A 
ATOM      3  C   UNL     1     -15.420 -10.410 -16.503  1.00  0.00     0.012 A 
ATOM      4  C   UNL     1     -16.537  -9.650 -14.054  1.00  0.00     0.047 A 
ATOM      5  C   UNL     1     -16.560 -11.061 -16.022  1.00  0.00     0.047 A 
ATOM      6  C   UNL     1     -17.119 -10.685 -14.793  1.00  0.00     0.115 A 
ENDROOT
BRANCH   1   7
ATOM      7  C   UNL     1     -13.642  -8.650 -16.261  1.00  0.00     0.010 C 
ATOM      8  C   UNL     1     -12.373  -9.082 -16.218  1.00  0.00     0.025 C 
BRANCH   8   9
ATOM      9  C   UNL     1     -11.898 -10.272 -15.487  1.00  0.00     0.064 C 
ATOM     10  O   UNL     1     -12.055 -11.411 -15.998  1.00  0.00    -0.545 OA
ATOM     11  O   UNL     1     -11.217 -10.159 -14.281  1.00  0.00    -0.545 OA
ENDBRANCH   8   9
ENDBRANCH   1   7
BRANCH   6  12
ATOM     12  O   UNL     1     -18.253 -11.326 -14.302  1.00  0.00    -0.508 OA
ATOM     13  H   UNL     1     -19.131 -10.834 -14.183  1.00  0.00     0.293 HD
ENDBRANCH   6  12
TORSDOF 3
ENDMDL
MODEL 6
REMARK VINA RESULT:    -4.701     13.922     14.682
REMARK INTER + INTRA:          -5.616
REMARK INTER:                  -5.337
REMARK INTRA:                  -0.279
REMARK UNBOUND:                -0.228
REMARK SMILES O=C([O-])C=Cc1ccc(O)cc1
REMARK SMILES IDX 6 1 7 2 12 3 8 4 11 5 9 6 5 7 4 8 2 9 1 10 3 11 10 12
REMARK H PARENT 10 13
REMARK Flexibility Score: inf
ROOT
ATOM      1  C   UNL     1      -8.654 -19.647  -7.300  1.00  0.00    -0.025 A 
ATOM      2  C   UNL     1      -8.920 -18.343  -7.747  1.00  0.00     0.012 A 
ATOM      3  C   UNL     1      -9.583 -20.290  -6.464  1.00  0.00     0.012 A 
ATOM      4  C   UNL     1     -10.071 -17.674  -7.322  1.00  0.00     0.047 A 
ATOM      5  C   UNL     1     -10.735 -19.618  -6.042  1.00  0.00     0.047 A 
ATOM      6  C   UNL     1     -10.980 -18.306  -6.467  1.00  0.00     0.115 A 
ENDROOT
BRANCH   1   7
ATOM      7  C   UNL     1      -7.458 -20.354  -7.803  1.00  0.00     0.010 C 
ATOM      8  C   UNL     1      -6.250 -20.351  -7.219  1.00  0.00     0.025 C 
BRANCH   8   9
ATOM      9  C   UNL     1      -5.851 -19.495  -6.086  1.00  0.00     0.064 C 
ATOM     10  O   UNL     1      -5.728 -20.005  -4.942  1.00  0.00    -0.545 OA
ATOM     11  O   UNL     1      -5.536 -18.153  -6.265  1.00  0.00    -0.545 OA
ENDBRANCH   8   9
ENDBRANCH   1   7
BRANCH   6  12
ATOM     12  O   UNL     1     -12.121 -17.626  -6.053  1.00  0.00    -0.508 OA
ATOM     13  H   UNL     1     -12.379 -17.571  -5.074  1.00  0.00     0.293 HD
ENDBRANCH   6  12
TORSDOF 3
ENDMDL
MODEL 7
REMARK VINA RESULT:    -4.675     16.258     16.839
REMARK INTER + INTRA:          -5.587
REMARK INTER:                  -5.297
REMARK INTRA:                  -0.290
REMARK UNBOUND:                -0.228
REMARK SMILES O=C([O-])C=Cc1ccc(O)cc1
REMARK SMILES IDX 6 1 7 2 12 3 8 4 11 5 9 6 5 7 4 8 2 9 1 10 3 11 10 12
REMARK H PARENT 10 13
REMARK Flexibility Score: inf
ROOT
ATOM      1  C   UNL     1     -10.018 -25.441 -12.455  1.00  0.00    -0.025 A 
ATOM      2  C   UNL     1     -10.802 -26.483 -12.974  1.00  0.00     0.012 A 
ATOM      3  C   UNL     1     -10.433 -24.111 -12.638  1.00  0.00     0.012 A 
ATOM      4  C   UNL     1     -11.957 -26.198 -13.708  1.00  0.00     0.047 A 
ATOM      5  C   UNL     1     -11.590 -23.829 -13.373  1.00  0.00     0.047 A 
ATOM      6  C   UNL     1     -12.353 -24.873 -13.914  1.00  0.00     0.115 A 
ENDROOT
BRANCH   1   7
ATOM      7  C   UNL     1      -8.831 -25.767 -11.638  1.00  0.00     0.010 C 
ATOM      8  C   UNL     1      -7.562 -25.763 -12.074  1.00  0.00     0.025 C 
BRANCH   8   9
ATOM      9  C   UNL     1      -7.142 -25.623 -13.481  1.00  0.00     0.064 C 
ATOM     10  O   UNL     1      -6.732 -24.506 -13.893  1.00  0.00    -0.545 OA
ATOM     11  O   UNL     1      -7.120 -26.712 -14.344  1.00  0.00    -0.545 OA
ENDBRANCH   8   9
ENDBRANCH   1   7
BRANCH   6  12
ATOM     12  O   UNL     1     -13.504 -24.604 -14.648  1.00  0.00    -0.508 OA
ATOM     13  H   UNL     1     -13.653 -25.006 -15.567  1.00  0.00     0.293 HD
ENDBRANCH   6  12
TORSDOF 3
ENDMDL
MODEL 8
REMARK VINA RESULT:    -4.616      2.403      3.268
REMARK INTER + INTRA:          -5.519
REMARK INTER:                  -5.241
REMARK INTRA:                  -0.278
REMARK UNBOUND:                -0.228
REMARK SMILES O=C([O-])C=Cc1ccc(O)cc1
REMARK SMILES IDX 6 1 7 2 12 3 8 4 11 5 9 6 5 7 4 8 2 9 1 10 3 11 10 12
REMARK H PARENT 10 13
REMARK Flexibility Score: inf
ROOT
ATOM      1  C   UNL     1     -13.925 -10.114 -15.568  1.00  0.00    -0.025 A 
ATOM      2  C   UNL     1     -14.919 -10.981 -15.090  1.00  0.00     0.012 A 
ATOM      3  C   UNL     1     -14.009  -8.742 -15.273  1.00  0.00     0.012 A 
ATOM      4  C   UNL     1     -16.008 -10.478 -14.372  1.00  0.00     0.047 A 
ATOM      5  C   UNL     1     -15.100  -8.241 -14.554  1.00  0.00     0.047 A 
ATOM      6  C   UNL     1     -16.104  -9.109 -14.105  1.00  0.00     0.115 A 
ENDROOT
BRANCH   1   7
ATOM      7  C   UNL     1     -12.757 -10.674 -16.279  1.00  0.00     0.010 C 
ATOM      8  C   UNL     1     -12.565 -10.640 -17.606  1.00  0.00     0.025 C 
BRANCH   8   9
ATOM      9  C   UNL     1     -13.565 -10.213 -18.604  1.00  0.00     0.064 C 
ATOM     10  O   UNL     1     -13.532  -9.034 -19.042  1.00  0.00    -0.545 OA
ATOM     11  O   UNL     1     -14.496 -11.103 -19.125  1.00  0.00    -0.545 OA
ENDBRANCH   8   9
ENDBRANCH   1   7
BRANCH   6  12
ATOM     12  O   UNL     1     -17.195  -8.622 -13.390  1.00  0.00    -0.508 OA
ATOM     13  H   UNL     1     -18.041  -8.316 -13.856  1.00  0.00     0.293 HD
ENDBRANCH   6  12
TORSDOF 3
ENDMDL
MODEL 9
REMARK VINA RESULT:    -4.442      2.625      5.180
REMARK INTER + INTRA:          -5.319
REMARK INTER:                  -5.060
REMARK INTRA:                  -0.259
REMARK UNBOUND:                -0.228
REMARK SMILES O=C([O-])C=Cc1ccc(O)cc1
REMARK SMILES IDX 6 1 7 2 12 3 8 4 11 5 9 6 5 7 4 8 2 9 1 10 3 11 10 12
REMARK H PARENT 10 13
REMARK Flexibility Score: inf
ROOT
ATOM      1  C   UNL     1     -13.469  -9.485 -15.287  1.00  0.00    -0.025 A 
ATOM      2  C   UNL     1     -13.357 -10.232 -16.469  1.00  0.00     0.012 A 
ATOM      3  C   UNL     1     -12.389  -9.456 -14.387  1.00  0.00     0.012 A 
ATOM      4  C   UNL     1     -12.204 -10.981 -16.725  1.00  0.00     0.047 A 
ATOM      5  C   UNL     1     -11.236 -10.205 -14.646  1.00  0.00     0.047 A 
ATOM      6  C   UNL     1     -11.143 -10.973 -15.815  1.00  0.00     0.115 A 
ENDROOT
BRANCH   1   7
ATOM      7  C   UNL     1     -14.675  -8.661 -15.063  1.00  0.00     0.010 C 
ATOM      8  C   UNL     1     -15.776  -9.058 -14.407  1.00  0.00     0.025 C 
BRANCH   8   9
ATOM      9  C   UNL     1     -16.057 -10.436 -13.963  1.00  0.00     0.064 C 
ATOM     10  O   UNL     1     -16.139 -10.682 -12.732  1.00  0.00    -0.545 OA
ATOM     11  O   UNL     1     -16.306 -11.456 -14.874  1.00  0.00    -0.545 OA
ENDBRANCH   8   9
ENDBRANCH   1   7
BRANCH   6  12
ATOM     12  O   UNL     1     -10.001 -11.723 -16.082  1.00  0.00    -0.508 OA
ATOM     13  H   UNL     1     -10.052 -12.609 -16.571  1.00  0.00     0.293 HD
ENDBRANCH   6  12
TORSDOF 3
ENDMDL
