MODEL 1
REMARK VINA RESULT:    -4.437      0.000      0.000
REMARK INTER + INTRA:          -5.227
REMARK INTER:                  -5.085
REMARK INTRA:                  -0.142
REMARK UNBOUND:                -0.142
REMARK SMILES O=C([O-])C=Cc1ccc(O)cc1
REMARK SMILES IDX 6 1 7 2 12 3 8 4 11 5 9 6 5 7 4 8 2 9 1 10 3 11 10 12
REMARK H PARENT 10 13
REMARK Flexibility Score: inf
ROOT
ATOM      1  C   UNL     1       8.474 -29.517  16.038  1.00  0.00    -0.025 A 
ATOM      2  C   UNL     1       9.588 -28.768  16.452  1.00  0.00     0.012 A 
ATOM      3  C   UNL     1       7.646 -30.103  17.018  1.00  0.00     0.012 A 
ATOM      4  C   UNL     1       9.885 -28.627  17.812  1.00  0.00     0.047 A 
ATOM      5  C   UNL     1       7.946 -29.959  18.376  1.00  0.00     0.047 A 
ATOM      6  C   UNL     1       9.066 -29.224  18.776  1.00  0.00     0.115 A 
ENDROOT
BRANCH   1   7
ATOM      7  C   UNL     1       8.195 -29.630  14.584  1.00  0.00     0.010 C 
ATOM      8  C   UNL     1       7.006 -29.987  14.079  1.00  0.00     0.025 C 
BRANCH   8   9
ATOM      9  C   UNL     1       6.778 -30.096  12.630  1.00  0.00     0.064 C 
ATOM     10  O   UNL     1       7.119 -29.149  11.875  1.00  0.00    -0.545 OA
ATOM     11  O   UNL     1       6.194 -31.231  12.078  1.00  0.00    -0.545 OA
ENDBRANCH   8   9
ENDBRANCH   1   7
BRANCH   6  12
ATOM     12  O   UNL     1       9.352 -29.091  20.133  1.00  0.00    -0.508 OA
ATOM     13  H   UNL     1       8.873 -29.645  20.833  1.00  0.00     0.293 HD
ENDBRANCH   6  12
TORSDOF 3
ENDMDL
MODEL 2
REMARK VINA RESULT:    -4.318      0.193      1.409
REMARK INTER + INTRA:          -5.091
REMARK INTER:                  -4.938
REMARK INTRA:                  -0.154
REMARK UNBOUND:                -0.142
REMARK SMILES O=C([O-])C=Cc1ccc(O)cc1
REMARK SMILES IDX 6 1 7 2 12 3 8 4 11 5 9 6 5 7 4 8 2 9 1 10 3 11 10 12
REMARK H PARENT 10 13
REMARK Flexibility Score: inf
ROOT
ATOM      1  C   UNL     1       8.395 -29.454  15.984  1.00  0.00    -0.025 A 
ATOM      2  C   UNL     1       7.525 -30.005  16.940  1.00  0.00     0.012 A 
ATOM      3  C   UNL     1       9.572 -28.813  16.425  1.00  0.00     0.012 A 
ATOM      4  C   UNL     1       7.807 -29.897  18.305  1.00  0.00     0.047 A 
ATOM      5  C   UNL     1       9.850 -28.707  17.791  1.00  0.00     0.047 A 
ATOM      6  C   UNL     1       8.969 -29.246  18.734  1.00  0.00     0.115 A 
ENDROOT
BRANCH   1   7
ATOM      7  C   UNL     1       8.057 -29.603  14.546  1.00  0.00     0.010 C 
ATOM      8  C   UNL     1       6.952 -30.215  14.100  1.00  0.00     0.025 C 
BRANCH   8   9
ATOM      9  C   UNL     1       6.664 -30.349  12.664  1.00  0.00     0.064 C 
ATOM     10  O   UNL     1       6.995 -29.425  11.875  1.00  0.00    -0.545 OA
ATOM     11  O   UNL     1       6.032 -31.480  12.160  1.00  0.00    -0.545 OA
ENDBRANCH   8   9
ENDBRANCH   1   7
BRANCH   6  12
ATOM     12  O   UNL     1       9.260 -29.132  20.091  1.00  0.00    -0.508 OA
ATOM     13  H   UNL     1       9.025 -28.297  20.616  1.00  0.00     0.293 HD
ENDBRANCH   6  12
TORSDOF 3
ENDMDL
MODEL 3
REMARK VINA RESULT:    -4.237      2.592      2.911
REMARK INTER + INTRA:          -4.998
REMARK INTER:                  -4.863
REMARK INTRA:                  -0.135
REMARK UNBOUND:                -0.142
REMARK SMILES O=C([O-])C=Cc1ccc(O)cc1
REMARK SMILES IDX 6 1 7 2 12 3 8 4 11 5 9 6 5 7 4 8 2 9 1 10 3 11 10 12
REMARK H PARENT 10 13
REMARK Flexibility Score: inf
ROOT
ATOM      1  C   UNL     1       8.604 -29.692  15.782  1.00  0.00    -0.025 A 
ATOM      2  C   UNL     1       9.143 -29.362  17.037  1.00  0.00     0.012 A 
ATOM      3  C   UNL     1       7.209 -29.867  15.664  1.00  0.00     0.012 A 
ATOM      4  C   UNL     1       8.313 -29.234  18.156  1.00  0.00     0.047 A 
ATOM      5  C   UNL     1       6.384 -29.738  16.786  1.00  0.00     0.047 A 
ATOM      6  C   UNL     1       6.932 -29.425  18.033  1.00  0.00     0.115 A 
ENDROOT
BRANCH   1   7
ATOM      7  C   UNL     1       9.524 -29.807  14.622  1.00  0.00     0.010 C 
ATOM      8  C   UNL     1       9.836 -30.968  14.030  1.00  0.00     0.025 C 
BRANCH   8   9
ATOM      9  C   UNL     1      10.762 -31.034  12.889  1.00  0.00     0.064 C 
ATOM     10  O   UNL     1      10.573 -30.289  11.892  1.00  0.00    -0.545 OA
ATOM     11  O   UNL     1      11.845 -31.906  12.893  1.00  0.00    -0.545 OA
ENDBRANCH   8   9
ENDBRANCH   1   7
BRANCH   6  12
ATOM     12  O   UNL     1       6.096 -29.301  19.140  1.00  0.00    -0.508 OA
ATOM     13  H   UNL     1       5.637 -28.425  19.362  1.00  0.00     0.293 HD
ENDBRANCH   6  12
TORSDOF 3
ENDMDL
MODEL 4
REMARK VINA RESULT:    -4.198      1.942      2.669
REMARK INTER + INTRA:          -4.954
REMARK INTER:                  -4.816
REMARK INTRA:                  -0.137
REMARK UNBOUND:                -0.142
REMARK SMILES O=C([O-])C=Cc1ccc(O)cc1
REMARK SMILES IDX 6 1 7 2 12 3 8 4 11 5 9 6 5 7 4 8 2 9 1 10 3 11 10 12
REMARK H PARENT 10 13
REMARK Flexibility Score: inf
ROOT
ATOM      1  C   UNL     1       8.578 -29.740  16.071  1.00  0.00    -0.025 A 
ATOM      2  C   UNL     1       7.577 -30.686  16.346  1.00  0.00     0.012 A 
ATOM      3  C   UNL     1       9.224 -29.101  17.150  1.00  0.00     0.012 A 
ATOM      4  C   UNL     1       7.210 -30.971  17.665  1.00  0.00     0.047 A 
ATOM      5  C   UNL     1       8.854 -29.389  18.467  1.00  0.00     0.047 A 
ATOM      6  C   UNL     1       7.846 -30.321  18.728  1.00  0.00     0.115 A 
ENDROOT
BRANCH   1   7
ATOM      7  C   UNL     1       8.939 -29.479  14.655  1.00  0.00     0.010 C 
ATOM      8  C   UNL     1       9.718 -30.288  13.923  1.00  0.00     0.025 C 
BRANCH   8   9
ATOM      9  C   UNL     1      10.059 -29.983  12.525  1.00  0.00     0.064 C 
ATOM     10  O   UNL     1      10.862 -30.729  11.905  1.00  0.00    -0.545 OA
ATOM     11  O   UNL     1       9.509 -28.884  11.875  1.00  0.00    -0.545 OA
ENDBRANCH   8   9
ENDBRANCH   1   7
BRANCH   6  12
ATOM     12  O   UNL     1       7.488 -30.596  20.046  1.00  0.00    -0.508 OA
ATOM     13  H   UNL     1       7.919 -31.352  20.565  1.00  0.00     0.293 HD
ENDBRANCH   6  12
TORSDOF 3
ENDMDL
MODEL 5
REMARK VINA RESULT:    -4.172      1.827      1.942
REMARK INTER + INTRA:          -4.924
REMARK INTER:                  -4.782
REMARK INTRA:                  -0.142
REMARK UNBOUND:                -0.142
REMARK SMILES O=C([O-])C=Cc1ccc(O)cc1
REMARK SMILES IDX 6 1 7 2 12 3 8 4 11 5 9 6 5 7 4 8 2 9 1 10 3 11 10 12
REMARK H PARENT 10 13
REMARK Flexibility Score: inf
ROOT
ATOM      1  C   UNL     1       9.039 -29.408  16.270  1.00  0.00    -0.025 A 
ATOM      2  C   UNL     1       9.968 -28.528  16.850  1.00  0.00     0.012 A 
ATOM      3  C   UNL     1       8.170 -30.132  17.113  1.00  0.00     0.012 A 
ATOM      4  C   UNL     1      10.047 -28.391  18.240  1.00  0.00     0.047 A 
ATOM      5  C   UNL     1       8.252 -29.991  18.502  1.00  0.00     0.047 A 
ATOM      6  C   UNL     1       9.191 -29.125  19.069  1.00  0.00     0.115 A 
ENDROOT
BRANCH   1   7
ATOM      7  C   UNL     1       8.986 -29.511  14.790  1.00  0.00     0.010 C 
ATOM      8  C   UNL     1      10.067 -29.684  14.016  1.00  0.00     0.025 C 
BRANCH   8   9
ATOM      9  C   UNL     1       9.967 -29.770  12.551  1.00  0.00     0.064 C 
ATOM     10  O   UNL     1       9.572 -28.770  11.896  1.00  0.00    -0.545 OA
ATOM     11  O   UNL     1      10.304 -30.938  11.875  1.00  0.00    -0.545 OA
ENDBRANCH   8   9
ENDBRANCH   1   7
BRANCH   6  12
ATOM     12  O   UNL     1       9.261 -28.997  20.454  1.00  0.00    -0.508 OA
ATOM     13  H   UNL     1      10.140 -29.083  20.950  1.00  0.00     0.293 HD
ENDBRANCH   6  12
TORSDOF 3
ENDMDL
MODEL 6
REMARK VINA RESULT:    -4.079      2.994      3.763
REMARK INTER + INTRA:          -4.817
REMARK INTER:                  -4.671
REMARK INTRA:                  -0.147
REMARK UNBOUND:                -0.142
REMARK SMILES O=C([O-])C=Cc1ccc(O)cc1
REMARK SMILES IDX 6 1 7 2 12 3 8 4 11 5 9 6 5 7 4 8 2 9 1 10 3 11 10 12
REMARK H PARENT 10 13
REMARK Flexibility Score: inf
ROOT
ATOM      1  C   UNL     1       7.930 -30.717  17.227  1.00  0.00    -0.025 A 
ATOM      2  C   UNL     1       8.509 -30.241  16.039  1.00  0.00     0.012 A 
ATOM      3  C   UNL     1       8.138 -29.995  18.422  1.00  0.00     0.012 A 
ATOM      4  C   UNL     1       9.299 -29.086  16.045  1.00  0.00     0.047 A 
ATOM      5  C   UNL     1       8.928 -28.842  18.423  1.00  0.00     0.047 A 
ATOM      6  C   UNL     1       9.512 -28.386  17.238  1.00  0.00     0.115 A 
ENDROOT
BRANCH   1   7
ATOM      7  C   UNL     1       7.092 -31.941  17.168  1.00  0.00     0.010 C 
ATOM      8  C   UNL     1       7.291 -32.939  16.296  1.00  0.00     0.025 C 
BRANCH   8   9
ATOM      9  C   UNL     1       6.427 -34.129  16.267  1.00  0.00     0.064 C 
ATOM     10  O   UNL     1       5.939 -34.515  15.173  1.00  0.00    -0.545 OA
ATOM     11  O   UNL     1       6.140 -34.837  17.429  1.00  0.00    -0.545 OA
ENDBRANCH   8   9
ENDBRANCH   1   7
BRANCH   6  12
ATOM     12  O   UNL     1      10.297 -27.235  17.256  1.00  0.00    -0.508 OA
ATOM     13  H   UNL     1      10.622 -26.802  16.400  1.00  0.00     0.293 HD
ENDBRANCH   6  12
TORSDOF 3
ENDMDL
MODEL 7
REMARK VINA RESULT:    -3.729      3.486      4.722
REMARK INTER + INTRA:          -4.416
REMARK INTER:                  -4.264
REMARK INTRA:                  -0.152
REMARK UNBOUND:                -0.142
REMARK SMILES O=C([O-])C=Cc1ccc(O)cc1
REMARK SMILES IDX 6 1 7 2 12 3 8 4 11 5 9 6 5 7 4 8 2 9 1 10 3 11 10 12
REMARK H PARENT 10 13
REMARK Flexibility Score: inf
ROOT
ATOM      1  C   UNL     1       9.189 -31.388  14.558  1.00  0.00    -0.025 A 
ATOM      2  C   UNL     1       9.035 -30.214  15.313  1.00  0.00     0.012 A 
ATOM      3  C   UNL     1      10.160 -31.417  13.535  1.00  0.00     0.012 A 
ATOM      4  C   UNL     1       9.812 -29.084  15.038  1.00  0.00     0.047 A 
ATOM      5  C   UNL     1      10.935 -30.284  13.264  1.00  0.00     0.047 A 
ATOM      6  C   UNL     1      10.762 -29.116  14.011  1.00  0.00     0.115 A 
ENDROOT
BRANCH   1   7
ATOM      7  C   UNL     1       8.348 -32.565  14.894  1.00  0.00     0.010 C 
ATOM      8  C   UNL     1       7.402 -32.557  15.843  1.00  0.00     0.025 C 
BRANCH   8   9
ATOM      9  C   UNL     1       6.600 -33.751  16.150  1.00  0.00     0.064 C 
ATOM     10  O   UNL     1       5.974 -34.333  15.225  1.00  0.00    -0.545 OA
ATOM     11  O   UNL     1       6.520 -34.251  17.445  1.00  0.00    -0.545 OA
ENDBRANCH   8   9
ENDBRANCH   1   7
BRANCH   6  12
ATOM     12  O   UNL     1      11.541 -27.997  13.728  1.00  0.00    -0.508 OA
ATOM     13  H   UNL     1      12.544 -27.999  13.872  1.00  0.00     0.293 HD
ENDBRANCH   6  12
TORSDOF 3
ENDMDL
MODEL 8
REMARK VINA RESULT:    -3.698      2.874      5.446
REMARK INTER + INTRA:          -4.381
REMARK INTER:                  -4.236
REMARK INTRA:                  -0.145
REMARK UNBOUND:                -0.142
REMARK SMILES O=C([O-])C=Cc1ccc(O)cc1
REMARK SMILES IDX 6 1 7 2 12 3 8 4 11 5 9 6 5 7 4 8 2 9 1 10 3 11 10 12
REMARK H PARENT 10 13
REMARK Flexibility Score: inf
ROOT
ATOM      1  C   UNL     1       9.165 -30.371  14.896  1.00  0.00    -0.025 A 
ATOM      2  C   UNL     1       9.214 -31.749  14.624  1.00  0.00     0.012 A 
ATOM      3  C   UNL     1       9.960 -29.497  14.125  1.00  0.00     0.012 A 
ATOM      4  C   UNL     1      10.054 -32.248  13.624  1.00  0.00     0.047 A 
ATOM      5  C   UNL     1      10.799 -30.001  13.125  1.00  0.00     0.047 A 
ATOM      6  C   UNL     1      10.850 -31.375  12.874  1.00  0.00     0.115 A 
ENDROOT
BRANCH   1   7
ATOM      7  C   UNL     1       8.250 -29.889  15.961  1.00  0.00     0.010 C 
ATOM      8  C   UNL     1       8.050 -30.533  17.120  1.00  0.00     0.025 C 
BRANCH   8   9
ATOM      9  C   UNL     1       7.125 -30.023  18.142  1.00  0.00     0.064 C 
ATOM     10  O   UNL     1       7.375 -30.219  19.360  1.00  0.00    -0.545 OA
ATOM     11  O   UNL     1       5.976 -29.325  17.787  1.00  0.00    -0.545 OA
ENDBRANCH   8   9
ENDBRANCH   1   7
BRANCH   6  12
ATOM     12  O   UNL     1      11.691 -31.860  11.875  1.00  0.00    -0.508 OA
ATOM     13  H   UNL     1      11.589 -32.798  11.506  1.00  0.00     0.293 HD
ENDBRANCH   6  12
TORSDOF 3
ENDMDL
MODEL 9
REMARK VINA RESULT:    -3.666      2.928      3.356
REMARK INTER + INTRA:          -4.344
REMARK INTER:                  -4.203
REMARK INTRA:                  -0.142
REMARK UNBOUND:                -0.142
REMARK SMILES O=C([O-])C=Cc1ccc(O)cc1
REMARK SMILES IDX 6 1 7 2 12 3 8 4 11 5 9 6 5 7 4 8 2 9 1 10 3 11 10 12
REMARK H PARENT 10 13
REMARK Flexibility Score: inf
ROOT
ATOM      1  C   UNL     1       7.695 -31.072  16.455  1.00  0.00    -0.025 A 
ATOM      2  C   UNL     1       8.498 -30.510  17.462  1.00  0.00     0.012 A 
ATOM      3  C   UNL     1       6.377 -30.595  16.291  1.00  0.00     0.012 A 
ATOM      4  C   UNL     1       7.991 -29.513  18.303  1.00  0.00     0.047 A 
ATOM      5  C   UNL     1       5.875 -29.599  17.134  1.00  0.00     0.047 A 
ATOM      6  C   UNL     1       6.678 -29.058  18.142  1.00  0.00     0.115 A 
ENDROOT
BRANCH   1   7
ATOM      7  C   UNL     1       8.281 -32.119  15.581  1.00  0.00     0.010 C 
ATOM      8  C   UNL     1       9.305 -31.904  14.744  1.00  0.00     0.025 C 
BRANCH   8   9
ATOM      9  C   UNL     1       9.845 -32.971  13.888  1.00  0.00     0.064 C 
ATOM     10  O   UNL     1       9.144 -33.988  13.645  1.00  0.00    -0.545 OA
ATOM     11  O   UNL     1      11.119 -32.876  13.339  1.00  0.00    -0.545 OA
ENDBRANCH   8   9
ENDBRANCH   1   7
BRANCH   6  12
ATOM     12  O   UNL     1       6.163 -28.067  18.974  1.00  0.00    -0.508 OA
ATOM     13  H   UNL     1       5.642 -28.296  19.813  1.00  0.00     0.293 HD
ENDBRANCH   6  12
TORSDOF 3
ENDMDL
