MODEL 1
REMARK VINA RESULT:    -3.245      0.000      0.000
REMARK INTER + INTRA:          -4.073
REMARK INTER:                  -4.004
REMARK INTRA:                  -0.068
REMARK UNBOUND:                -0.068
REMARK SMILES CCCCCC(=O)[O-]
REMARK SMILES IDX 4 1 5 2 6 3 7 4 8 5 3 6 2 7 1 8
REMARK H PARENT
REMARK Flexibility Score: inf
ROOT
ATOM      1  C   UNL     1     -23.655  28.894   8.316  1.00  0.00     0.006 C 
ENDROOT
BRANCH   1   2
ATOM      2  C   UNL     1     -24.111  27.606   7.618  1.00  0.00     0.053 C 
BRANCH   2   3
ATOM      3  C   UNL     1     -23.803  26.389   8.437  1.00  0.00     0.041 C 
ATOM      4  O   UNL     1     -24.071  25.242   7.993  1.00  0.00    -0.550 OA
ATOM      5  O   UNL     1     -23.251  26.525   9.705  1.00  0.00    -0.550 OA
ENDBRANCH   2   3
ENDBRANCH   1   2
BRANCH   1   6
ATOM      6  C   UNL     1     -24.054  30.154   7.533  1.00  0.00     0.000 C 
BRANCH   6   7
ATOM      7  C   UNL     1     -23.530  31.418   8.223  1.00  0.00    -0.003 C 
ATOM      8  C   UNL     1     -22.008  31.498   8.146  1.00  0.00     0.004 C 
ENDBRANCH   6   7
ENDBRANCH   1   6
TORSDOF 4
ENDMDL
MODEL 2
REMARK VINA RESULT:    -3.136      2.844      4.681
REMARK INTER + INTRA:          -3.937
REMARK INTER:                  -3.879
REMARK INTRA:                  -0.059
REMARK UNBOUND:                -0.068
REMARK SMILES CCCCCC(=O)[O-]
REMARK SMILES IDX 4 1 5 2 6 3 7 4 8 5 3 6 2 7 1 8
REMARK H PARENT
REMARK Flexibility Score: inf
ROOT
ATOM      1  C   UNL     1     -23.751  28.695   8.328  1.00  0.00     0.006 C 
ENDROOT
BRANCH   1   2
ATOM      2  C   UNL     1     -24.125  29.977   7.572  1.00  0.00     0.053 C 
BRANCH   2   3
ATOM      3  C   UNL     1     -23.419  31.177   8.128  1.00  0.00     0.041 C 
ATOM      4  O   UNL     1     -22.191  31.119   8.399  1.00  0.00    -0.550 OA
ATOM      5  O   UNL     1     -24.125  32.347   8.377  1.00  0.00    -0.550 OA
ENDBRANCH   2   3
ENDBRANCH   1   2
BRANCH   1   6
ATOM      6  C   UNL     1     -23.822  27.449   7.433  1.00  0.00     0.000 C 
BRANCH   6   7
ATOM      7  C   UNL     1     -24.035  26.183   8.270  1.00  0.00    -0.003 C 
ATOM      8  C   UNL     1     -22.709  25.490   8.570  1.00  0.00     0.004 C 
ENDBRANCH   6   7
ENDBRANCH   1   6
TORSDOF 4
ENDMDL
MODEL 3
REMARK VINA RESULT:    -3.017      2.894      4.367
REMARK INTER + INTRA:          -3.791
REMARK INTER:                  -3.693
REMARK INTRA:                  -0.099
REMARK UNBOUND:                -0.068
REMARK SMILES CCCCCC(=O)[O-]
REMARK SMILES IDX 4 1 5 2 6 3 7 4 8 5 3 6 2 7 1 8
REMARK H PARENT
REMARK Flexibility Score: inf
ROOT
ATOM      1  C   UNL     1     -22.832  25.896   9.831  1.00  0.00     0.006 C 
ENDROOT
BRANCH   1   2
ATOM      2  C   UNL     1     -21.874  24.772  10.246  1.00  0.00     0.053 C 
BRANCH   2   3
ATOM      3  C   UNL     1     -22.140  24.301  11.643  1.00  0.00     0.041 C 
ATOM      4  O   UNL     1     -23.292  24.410  12.139  1.00  0.00    -0.550 OA
ATOM      5  O   UNL     1     -21.109  23.772  12.408  1.00  0.00    -0.550 OA
ENDBRANCH   2   3
ENDBRANCH   1   2
BRANCH   1   6
ATOM      6  C   UNL     1     -23.751  25.481   8.672  1.00  0.00     0.000 C 
BRANCH   6   7
ATOM      7  C   UNL     1     -23.700  26.509   7.536  1.00  0.00    -0.003 C 
ATOM      8  C   UNL     1     -24.124  27.891   8.024  1.00  0.00     0.004 C 
ENDBRANCH   6   7
ENDBRANCH   1   6
TORSDOF 4
ENDMDL
MODEL 4
REMARK VINA RESULT:    -2.999      5.235      6.995
REMARK INTER + INTRA:          -3.768
REMARK INTER:                  -3.713
REMARK INTRA:                  -0.055
REMARK UNBOUND:                -0.068
REMARK SMILES CCCCCC(=O)[O-]
REMARK SMILES IDX 4 1 5 2 6 3 7 4 8 5 3 6 2 7 1 8
REMARK H PARENT
REMARK Flexibility Score: inf
ROOT
ATOM      1  C   UNL     1     -21.815  24.145  12.490  1.00  0.00     0.006 C 
ENDROOT
BRANCH   1   2
ATOM      2  C   UNL     1     -22.102  23.820  11.019  1.00  0.00     0.053 C 
BRANCH   2   3
ATOM      3  C   UNL     1     -22.084  25.050  10.163  1.00  0.00     0.041 C 
ATOM      4  O   UNL     1     -21.529  25.027   9.033  1.00  0.00    -0.550 OA
ATOM      5  O   UNL     1     -22.650  26.230  10.628  1.00  0.00    -0.550 OA
ENDBRANCH   2   3
ENDBRANCH   1   2
BRANCH   1   6
ATOM      6  C   UNL     1     -20.503  23.514  12.981  1.00  0.00     0.000 C 
BRANCH   6   7
ATOM      7  C   UNL     1     -19.826  24.402  14.031  1.00  0.00    -0.003 C 
ATOM      8  C   UNL     1     -19.721  23.686  15.374  1.00  0.00     0.004 C 
ENDBRANCH   6   7
ENDBRANCH   1   6
TORSDOF 4
ENDMDL
MODEL 5
REMARK VINA RESULT:    -2.856      3.815      5.481
REMARK INTER + INTRA:          -3.592
REMARK INTER:                  -3.452
REMARK INTRA:                  -0.140
REMARK UNBOUND:                -0.068
REMARK SMILES CCCCCC(=O)[O-]
REMARK SMILES IDX 4 1 5 2 6 3 7 4 8 5 3 6 2 7 1 8
REMARK H PARENT
REMARK Flexibility Score: inf
ROOT
ATOM      1  C   UNL     1     -22.909  25.928  10.924  1.00  0.00     0.006 C 
ENDROOT
BRANCH   1   2
ATOM      2  C   UNL     1     -23.641  25.619   9.611  1.00  0.00     0.053 C 
BRANCH   2   3
ATOM      3  C   UNL     1     -22.724  25.710   8.428  1.00  0.00     0.041 C 
ATOM      4  O   UNL     1     -23.050  26.402   7.428  1.00  0.00    -0.550 OA
ATOM      5  O   UNL     1     -21.528  25.005   8.418  1.00  0.00    -0.550 OA
ENDBRANCH   2   3
ENDBRANCH   1   2
BRANCH   1   6
ATOM      6  C   UNL     1     -22.990  24.766  11.925  1.00  0.00     0.000 C 
BRANCH   6   7
ATOM      7  C   UNL     1     -21.802  23.813  11.757  1.00  0.00    -0.003 C 
ATOM      8  C   UNL     1     -20.849  23.905  12.946  1.00  0.00     0.004 C 
ENDBRANCH   6   7
ENDBRANCH   1   6
TORSDOF 4
ENDMDL
MODEL 6
REMARK VINA RESULT:    -2.815     14.113     14.839
REMARK INTER + INTRA:          -3.541
REMARK INTER:                  -3.427
REMARK INTRA:                  -0.114
REMARK UNBOUND:                -0.068
REMARK SMILES CCCCCC(=O)[O-]
REMARK SMILES IDX 4 1 5 2 6 3 7 4 8 5 3 6 2 7 1 8
REMARK H PARENT
REMARK Flexibility Score: inf
ROOT
ATOM      1  C   UNL     1     -19.429  28.952  21.693  1.00  0.00     0.006 C 
ENDROOT
BRANCH   1   2
ATOM      2  C   UNL     1     -17.954  28.810  22.094  1.00  0.00     0.053 C 
BRANCH   2   3
ATOM      3  C   UNL     1     -17.636  29.594  23.331  1.00  0.00     0.041 C 
ATOM      4  O   UNL     1     -16.703  29.225  24.091  1.00  0.00    -0.550 OA
ATOM      5  O   UNL     1     -18.391  30.712  23.660  1.00  0.00    -0.550 OA
ENDBRANCH   2   3
ENDBRANCH   1   2
BRANCH   1   6
ATOM      6  C   UNL     1     -19.602  29.682  20.353  1.00  0.00     0.000 C 
BRANCH   6   7
ATOM      7  C   UNL     1     -20.383  28.821  19.355  1.00  0.00    -0.003 C 
ATOM      8  C   UNL     1     -20.434  27.364  19.805  1.00  0.00     0.004 C 
ENDBRANCH   6   7
ENDBRANCH   1   6
TORSDOF 4
ENDMDL
MODEL 7
REMARK VINA RESULT:    -2.744     12.633     13.148
REMARK INTER + INTRA:          -3.454
REMARK INTER:                  -3.341
REMARK INTRA:                  -0.113
REMARK UNBOUND:                -0.068
REMARK SMILES CCCCCC(=O)[O-]
REMARK SMILES IDX 4 1 5 2 6 3 7 4 8 5 3 6 2 7 1 8
REMARK H PARENT
REMARK Flexibility Score: inf
ROOT
ATOM      1  C   UNL     1     -19.751  29.714  20.273  1.00  0.00     0.006 C 
ENDROOT
BRANCH   1   2
ATOM      2  C   UNL     1     -20.387  28.795  19.221  1.00  0.00     0.053 C 
BRANCH   2   3
ATOM      3  C   UNL     1     -21.830  28.522  19.521  1.00  0.00     0.041 C 
ATOM      4  O   UNL     1     -22.276  27.346  19.465  1.00  0.00    -0.550 OA
ATOM      5  O   UNL     1     -22.688  29.570  19.828  1.00  0.00    -0.550 OA
ENDBRANCH   2   3
ENDBRANCH   1   2
BRANCH   1   6
ATOM      6  C   UNL     1     -19.579  29.016  21.630  1.00  0.00     0.000 C 
BRANCH   6   7
ATOM      7  C   UNL     1     -18.116  28.626  21.866  1.00  0.00    -0.003 C 
ATOM      8  C   UNL     1     -17.552  29.321  23.102  1.00  0.00     0.004 C 
ENDBRANCH   6   7
ENDBRANCH   1   6
TORSDOF 4
ENDMDL
MODEL 8
REMARK VINA RESULT:    -2.703     12.405     13.050
REMARK INTER + INTRA:          -3.403
REMARK INTER:                  -3.201
REMARK INTRA:                  -0.202
REMARK UNBOUND:                -0.068
REMARK SMILES CCCCCC(=O)[O-]
REMARK SMILES IDX 4 1 5 2 6 3 7 4 8 5 3 6 2 7 1 8
REMARK H PARENT
REMARK Flexibility Score: inf
ROOT
ATOM      1  C   UNL     1     -21.298  31.119  21.455  1.00  0.00     0.006 C 
ENDROOT
BRANCH   1   2
ATOM      2  C   UNL     1     -22.781  30.777  21.656  1.00  0.00     0.053 C 
BRANCH   2   3
ATOM      3  C   UNL     1     -23.573  30.971  20.399  1.00  0.00     0.041 C 
ATOM      4  O   UNL     1     -23.736  30.012  19.600  1.00  0.00    -0.550 OA
ATOM      5  O   UNL     1     -24.100  32.219  20.093  1.00  0.00    -0.550 OA
ENDBRANCH   2   3
ENDBRANCH   1   2
BRANCH   1   6
ATOM      6  C   UNL     1     -20.395  29.882  21.564  1.00  0.00     0.000 C 
BRANCH   6   7
ATOM      7  C   UNL     1     -19.610  29.658  20.266  1.00  0.00    -0.003 C 
ATOM      8  C   UNL     1     -20.406  28.808  19.280  1.00  0.00     0.004 C 
ENDBRANCH   6   7
ENDBRANCH   1   6
TORSDOF 4
ENDMDL
MODEL 9
REMARK VINA RESULT:    -2.654      4.911      6.487
REMARK INTER + INTRA:          -3.343
REMARK INTER:                  -3.297
REMARK INTRA:                  -0.045
REMARK UNBOUND:                -0.068
REMARK SMILES CCCCCC(=O)[O-]
REMARK SMILES IDX 4 1 5 2 6 3 7 4 8 5 3 6 2 7 1 8
REMARK H PARENT
REMARK Flexibility Score: inf
ROOT
ATOM      1  C   UNL     1     -21.881  24.351  11.762  1.00  0.00     0.006 C 
ENDROOT
BRANCH   1   2
ATOM      2  C   UNL     1     -22.033  23.624  13.105  1.00  0.00     0.053 C 
BRANCH   2   3
ATOM      3  C   UNL     1     -20.750  23.608  13.879  1.00  0.00     0.041 C 
ATOM      4  O   UNL     1     -20.768  23.664  15.136  1.00  0.00    -0.550 OA
ATOM      5  O   UNL     1     -19.534  23.565  13.209  1.00  0.00    -0.550 OA
ENDBRANCH   2   3
ENDBRANCH   1   2
BRANCH   1   6
ATOM      6  C   UNL     1     -23.160  25.096  11.354  1.00  0.00     0.000 C 
BRANCH   6   7
ATOM      7  C   UNL     1     -22.838  26.277  10.433  1.00  0.00    -0.003 C 
ATOM      8  C   UNL     1     -23.555  26.143   9.092  1.00  0.00     0.004 C 
ENDBRANCH   6   7
ENDBRANCH   1   6
TORSDOF 4
ENDMDL
