MODEL 1
REMARK VINA RESULT:    -4.569      0.000      0.000
REMARK INTER + INTRA:          -7.310
REMARK INTER:                  -6.572
REMARK INTRA:                  -0.737
REMARK UNBOUND:                -0.737
REMARK SMILES O=C(CO)[C@@H](O)[C@@H](O)[C@H](O)CO
REMARK SMILES IDX 7 1 9 2 11 3 12 4 10 6 5 8 2 9 1 10 3 11 4 12 6 14 8 16
REMARK H PARENT 12 5 10 7 4 13 6 15 8 17
REMARK Flexibility Score: inf
ROOT
ATOM      1  C   UNL     1      42.091  42.190  16.719  1.00  0.00     0.181 C 
ENDROOT
BRANCH   1   2
ATOM      2  C   UNL     1      42.007  41.785  15.219  1.00  0.00     0.171 C 
BRANCH   2   3
ATOM      3  C   UNL     1      42.978  40.664  14.800  1.00  0.00     0.190 C 
BRANCH   3   4
ATOM      4  O   UNL     1      44.189  41.202  14.348  1.00  0.00    -0.394 OA
ATOM      5  H   UNL     1      44.765  40.427  14.113  1.00  0.00     0.210 HD
ENDBRANCH   3   4
ENDBRANCH   2   3
BRANCH   2   6
ATOM      6  O   UNL     1      40.691  41.397  14.917  1.00  0.00    -0.388 OA
ATOM      7  H   UNL     1      40.505  41.692  13.987  1.00  0.00     0.211 HD
ENDBRANCH   2   6
ENDBRANCH   1   2
BRANCH   1   8
ATOM      8  C   UNL     1      40.971  41.589  17.625  1.00  0.00     0.214 C 
BRANCH   8   9
ATOM      9  C   UNL     1      41.503  41.259  19.009  1.00  0.00     0.189 C 
ATOM     10  O   UNL     1      41.802  42.173  19.762  1.00  0.00    -0.294 OA
BRANCH   9  11
ATOM     11  C   UNL     1      41.718  39.841  19.473  1.00  0.00     0.234 C 
BRANCH  11  12
ATOM     12  O   UNL     1      41.788  39.790  20.872  1.00  0.00    -0.388 OA
ATOM     13  H   UNL     1      42.701  39.469  21.098  1.00  0.00     0.211 HD
ENDBRANCH  11  12
ENDBRANCH   9  11
ENDBRANCH   8   9
BRANCH   8  14
ATOM     14  O   UNL     1      39.855  42.444  17.698  1.00  0.00    -0.382 OA
ATOM     15  H   UNL     1      39.398  42.424  16.817  1.00  0.00     0.211 HD
ENDBRANCH   8  14
ENDBRANCH   1   8
BRANCH   1  16
ATOM     16  O   UNL     1      43.374  41.915  17.228  1.00  0.00    -0.387 OA
ATOM     17  H   UNL     1      44.035  42.430  16.699  1.00  0.00     0.211 HD
ENDBRANCH   1  16
TORSDOF 10
ENDMDL
MODEL 2
REMARK VINA RESULT:    -4.546      1.446      2.919
REMARK INTER + INTRA:          -7.276
REMARK INTER:                  -6.274
REMARK INTRA:                  -1.002
REMARK UNBOUND:                -0.737
REMARK SMILES O=C(CO)[C@@H](O)[C@@H](O)[C@H](O)CO
REMARK SMILES IDX 7 1 9 2 11 3 12 4 10 6 5 8 2 9 1 10 3 11 4 12 6 14 8 16
REMARK H PARENT 12 5 10 7 4 13 6 15 8 17
REMARK Flexibility Score: inf
ROOT
ATOM      1  C   UNL     1      41.163  40.874  18.156  1.00  0.00     0.181 C 
ENDROOT
BRANCH   1   2
ATOM      2  C   UNL     1      41.836  40.566  16.789  1.00  0.00     0.171 C 
BRANCH   2   3
ATOM      3  C   UNL     1      40.881  40.596  15.579  1.00  0.00     0.190 C 
BRANCH   3   4
ATOM      4  O   UNL     1      40.635  41.914  15.176  1.00  0.00    -0.394 OA
ATOM      5  H   UNL     1      40.572  41.892  14.185  1.00  0.00     0.210 HD
ENDBRANCH   3   4
ENDBRANCH   2   3
BRANCH   2   6
ATOM      6  O   UNL     1      42.886  41.475  16.574  1.00  0.00    -0.388 OA
ATOM      7  H   UNL     1      43.598  40.989  16.081  1.00  0.00     0.211 HD
ENDBRANCH   2   6
ENDBRANCH   1   2
BRANCH   1   8
ATOM      8  C   UNL     1      42.076  40.655  19.403  1.00  0.00     0.214 C 
BRANCH   8   9
ATOM      9  C   UNL     1      42.219  41.933  20.210  1.00  0.00     0.189 C 
ATOM     10  O   UNL     1      41.307  42.272  20.949  1.00  0.00    -0.294 OA
BRANCH   9  11
ATOM     11  C   UNL     1      43.429  42.825  20.101  1.00  0.00     0.234 C 
BRANCH  11  12
ATOM     12  O   UNL     1      43.620  43.229  18.772  1.00  0.00    -0.388 OA
ATOM     13  H   UNL     1      44.560  43.543  18.704  1.00  0.00     0.211 HD
ENDBRANCH  11  12
ENDBRANCH   9  11
ENDBRANCH   8   9
BRANCH   8  14
ATOM     14  O   UNL     1      41.608  39.595  20.203  1.00  0.00    -0.382 OA
ATOM     15  H   UNL     1      41.557  38.784  19.634  1.00  0.00     0.211 HD
ENDBRANCH   8  14
ENDBRANCH   1   8
BRANCH   1  16
ATOM     16  O   UNL     1      40.602  42.165  18.145  1.00  0.00    -0.387 OA
ATOM     17  H   UNL     1      40.164  42.320  19.021  1.00  0.00     0.211 HD
ENDBRANCH   1  16
TORSDOF 10
ENDMDL
MODEL 3
REMARK VINA RESULT:    -4.487      1.132      2.078
REMARK INTER + INTRA:          -7.192
REMARK INTER:                  -6.229
REMARK INTRA:                  -0.963
REMARK UNBOUND:                -0.737
REMARK SMILES O=C(CO)[C@@H](O)[C@@H](O)[C@H](O)CO
REMARK SMILES IDX 7 1 9 2 11 3 12 4 10 6 5 8 2 9 1 10 3 11 4 12 6 14 8 16
REMARK H PARENT 12 5 10 7 4 13 6 15 8 17
REMARK Flexibility Score: inf
ROOT
ATOM      1  C   UNL     1      40.735  41.144  17.142  1.00  0.00     0.181 C 
ENDROOT
BRANCH   1   2
ATOM      2  C   UNL     1      41.297  41.287  15.698  1.00  0.00     0.171 C 
BRANCH   2   3
ATOM      3  C   UNL     1      42.494  40.369  15.380  1.00  0.00     0.190 C 
BRANCH   3   4
ATOM      4  O   UNL     1      43.690  41.097  15.382  1.00  0.00    -0.394 OA
ATOM      5  H   UNL     1      44.392  40.474  15.706  1.00  0.00     0.210 HD
ENDBRANCH   3   4
ENDBRANCH   2   3
BRANCH   2   6
ATOM      6  O   UNL     1      40.266  41.044  14.774  1.00  0.00    -0.388 OA
ATOM      7  H   UNL     1      40.387  41.686  14.026  1.00  0.00     0.211 HD
ENDBRANCH   2   6
ENDBRANCH   1   2
BRANCH   1   8
ATOM      8  C   UNL     1      41.775  40.680  18.209  1.00  0.00     0.214 C 
BRANCH   8   9
ATOM      9  C   UNL     1      42.512  41.865  18.809  1.00  0.00     0.189 C 
ATOM     10  O   UNL     1      43.301  42.486  18.114  1.00  0.00    -0.294 OA
BRANCH   9  11
ATOM     11  C   UNL     1      42.339  42.276  20.249  1.00  0.00     0.234 C 
BRANCH  11  12
ATOM     12  O   UNL     1      40.998  42.591  20.509  1.00  0.00    -0.388 OA
ATOM     13  H   UNL     1      40.498  42.419  19.668  1.00  0.00     0.211 HD
ENDBRANCH  11  12
ENDBRANCH   9  11
ENDBRANCH   8   9
BRANCH   8  14
ATOM     14  O   UNL     1      41.170  39.895  19.209  1.00  0.00    -0.382 OA
ATOM     15  H   UNL     1      41.039  38.982  18.842  1.00  0.00     0.211 HD
ENDBRANCH   8  14
ENDBRANCH   1   8
BRANCH   1  16
ATOM     16  O   UNL     1      40.085  42.329  17.533  1.00  0.00    -0.387 OA
ATOM     17  H   UNL     1      39.119  42.236  17.328  1.00  0.00     0.211 HD
ENDBRANCH   1  16
TORSDOF 10
ENDMDL
MODEL 4
REMARK VINA RESULT:    -4.485      2.029      4.429
REMARK INTER + INTRA:          -7.189
REMARK INTER:                  -5.782
REMARK INTRA:                  -1.407
REMARK UNBOUND:                -0.737
REMARK SMILES O=C(CO)[C@@H](O)[C@@H](O)[C@H](O)CO
REMARK SMILES IDX 7 1 9 2 11 3 12 4 10 6 5 8 2 9 1 10 3 11 4 12 6 14 8 16
REMARK H PARENT 12 5 10 7 4 13 6 15 8 17
REMARK Flexibility Score: inf
ROOT
ATOM      1  C   UNL     1      42.674  41.620  15.753  1.00  0.00     0.181 C 
ENDROOT
BRANCH   1   2
ATOM      2  C   UNL     1      41.308  40.896  15.919  1.00  0.00     0.171 C 
BRANCH   2   3
ATOM      3  C   UNL     1      40.639  41.091  17.294  1.00  0.00     0.190 C 
BRANCH   3   4
ATOM      4  O   UNL     1      40.059  42.362  17.386  1.00  0.00    -0.394 OA
ATOM      5  H   UNL     1      39.692  42.564  16.485  1.00  0.00     0.210 HD
ENDBRANCH   3   4
ENDBRANCH   2   3
BRANCH   2   6
ATOM      6  O   UNL     1      40.430  41.327  14.909  1.00  0.00    -0.388 OA
ATOM      7  H   UNL     1      39.802  40.578  14.729  1.00  0.00     0.211 HD
ENDBRANCH   2   6
ENDBRANCH   1   2
BRANCH   1   8
ATOM      8  C   UNL     1      42.704  42.723  14.649  1.00  0.00     0.214 C 
BRANCH   8   9
ATOM      9  C   UNL     1      42.346  44.083  15.222  1.00  0.00     0.189 C 
ATOM     10  O   UNL     1      41.195  44.294  15.574  1.00  0.00    -0.294 OA
BRANCH   9  11
ATOM     11  C   UNL     1      43.350  45.202  15.332  1.00  0.00     0.234 C 
BRANCH  11  12
ATOM     12  O   UNL     1      44.423  44.818  16.149  1.00  0.00    -0.388 OA
ATOM     13  H   UNL     1      44.698  45.627  16.654  1.00  0.00     0.211 HD
ENDBRANCH  11  12
ENDBRANCH   9  11
ENDBRANCH   8   9
BRANCH   8  14
ATOM     14  O   UNL     1      43.948  42.758  13.991  1.00  0.00    -0.382 OA
ATOM     15  H   UNL     1      44.642  42.464  14.636  1.00  0.00     0.211 HD
ENDBRANCH   8  14
ENDBRANCH   1   8
BRANCH   1  16
ATOM     16  O   UNL     1      43.119  42.116  16.993  1.00  0.00    -0.387 OA
ATOM     17  H   UNL     1      42.406  42.692  17.371  1.00  0.00     0.211 HD
ENDBRANCH   1  16
TORSDOF 10
ENDMDL
MODEL 5
REMARK VINA RESULT:    -4.482      0.909      4.820
REMARK INTER + INTRA:          -7.185
REMARK INTER:                  -6.414
REMARK INTRA:                  -0.771
REMARK UNBOUND:                -0.737
REMARK SMILES O=C(CO)[C@@H](O)[C@@H](O)[C@H](O)CO
REMARK SMILES IDX 7 1 9 2 11 3 12 4 10 6 5 8 2 9 1 10 3 11 4 12 6 14 8 16
REMARK H PARENT 12 5 10 7 4 13 6 15 8 17
REMARK Flexibility Score: inf
ROOT
ATOM      1  C   UNL     1      41.334  42.346  18.044  1.00  0.00     0.181 C 
ENDROOT
BRANCH   1   2
ATOM      2  C   UNL     1      41.497  41.684  19.442  1.00  0.00     0.171 C 
BRANCH   2   3
ATOM      3  C   UNL     1      41.627  40.148  19.416  1.00  0.00     0.190 C 
BRANCH   3   4
ATOM      4  O   UNL     1      41.801  39.644  20.711  1.00  0.00    -0.394 OA
ATOM      5  H   UNL     1      40.914  39.300  20.995  1.00  0.00     0.210 HD
ENDBRANCH   3   4
ENDBRANCH   2   3
BRANCH   2   6
ATOM      6  O   UNL     1      42.619  42.234  20.087  1.00  0.00    -0.388 OA
ATOM      7  H   UNL     1      42.887  41.597  20.800  1.00  0.00     0.211 HD
ENDBRANCH   2   6
ENDBRANCH   1   2
BRANCH   1   8
ATOM      8  C   UNL     1      42.304  41.809  16.946  1.00  0.00     0.214 C 
BRANCH   8   9
ATOM      9  C   UNL     1      41.824  42.189  15.556  1.00  0.00     0.189 C 
ATOM     10  O   UNL     1      40.863  41.604  15.080  1.00  0.00    -0.294 OA
BRANCH   9  11
ATOM     11  C   UNL     1      42.519  43.233  14.720  1.00  0.00     0.234 C 
BRANCH  11  12
ATOM     12  O   UNL     1      43.777  42.772  14.309  1.00  0.00    -0.388 OA
ATOM     13  H   UNL     1      44.421  43.506  14.490  1.00  0.00     0.211 HD
ENDBRANCH  11  12
ENDBRANCH   9  11
ENDBRANCH   8   9
BRANCH   8  14
ATOM     14  O   UNL     1      43.624  42.248  17.167  1.00  0.00    -0.382 OA
ATOM     15  H   UNL     1      44.186  41.448  17.337  1.00  0.00     0.211 HD
ENDBRANCH   8  14
ENDBRANCH   1   8
BRANCH   1  16
ATOM     16  O   UNL     1      39.991  42.281  17.626  1.00  0.00    -0.387 OA
ATOM     17  H   UNL     1      39.861  42.940  16.897  1.00  0.00     0.211 HD
ENDBRANCH   1  16
TORSDOF 10
ENDMDL
MODEL 6
REMARK VINA RESULT:    -4.427      1.322      2.156
REMARK INTER + INTRA:          -7.106
REMARK INTER:                  -5.969
REMARK INTRA:                  -1.137
REMARK UNBOUND:                -0.737
REMARK SMILES O=C(CO)[C@@H](O)[C@@H](O)[C@H](O)CO
REMARK SMILES IDX 7 1 9 2 11 3 12 4 10 6 5 8 2 9 1 10 3 11 4 12 6 14 8 16
REMARK H PARENT 12 5 10 7 4 13 6 15 8 17
REMARK Flexibility Score: inf
ROOT
ATOM      1  C   UNL     1      42.511  42.822  17.466  1.00  0.00     0.181 C 
ENDROOT
BRANCH   1   2
ATOM      2  C   UNL     1      41.535  43.382  16.392  1.00  0.00     0.171 C 
BRANCH   2   3
ATOM      3  C   UNL     1      41.592  42.660  15.031  1.00  0.00     0.190 C 
BRANCH   3   4
ATOM      4  O   UNL     1      40.721  41.564  15.017  1.00  0.00    -0.394 OA
ATOM      5  H   UNL     1      39.923  41.852  14.501  1.00  0.00     0.210 HD
ENDBRANCH   3   4
ENDBRANCH   2   3
BRANCH   2   6
ATOM      6  O   UNL     1      40.221  43.334  16.889  1.00  0.00    -0.388 OA
ATOM      7  H   UNL     1      39.614  43.277  16.106  1.00  0.00     0.211 HD
ENDBRANCH   2   6
ENDBRANCH   1   2
BRANCH   1   8
ATOM      8  C   UNL     1      41.827  42.312  18.773  1.00  0.00     0.214 C 
BRANCH   8   9
ATOM      9  C   UNL     1      41.489  40.834  18.675  1.00  0.00     0.189 C 
ATOM     10  O   UNL     1      40.819  40.440  17.732  1.00  0.00    -0.294 OA
BRANCH   9  11
ATOM     11  C   UNL     1      41.912  39.839  19.725  1.00  0.00     0.234 C 
BRANCH  11  12
ATOM     12  O   UNL     1      41.369  40.182  20.971  1.00  0.00    -0.388 OA
ATOM     13  H   UNL     1      40.460  39.782  21.002  1.00  0.00     0.211 HD
ENDBRANCH  11  12
ENDBRANCH   9  11
ENDBRANCH   8   9
BRANCH   8  14
ATOM     14  O   UNL     1      42.619  42.580  19.906  1.00  0.00    -0.382 OA
ATOM     15  H   UNL     1      42.054  43.060  20.565  1.00  0.00     0.211 HD
ENDBRANCH   8  14
ENDBRANCH   1   8
BRANCH   1  16
ATOM     16  O   UNL     1      43.348  41.841  16.901  1.00  0.00    -0.387 OA
ATOM     17  H   UNL     1      44.216  42.264  16.678  1.00  0.00     0.211 HD
ENDBRANCH   1  16
TORSDOF 10
ENDMDL
MODEL 7
REMARK VINA RESULT:    -4.391      1.333      4.373
REMARK INTER + INTRA:          -7.053
REMARK INTER:                  -6.357
REMARK INTRA:                  -0.696
REMARK UNBOUND:                -0.737
REMARK SMILES O=C(CO)[C@@H](O)[C@@H](O)[C@H](O)CO
REMARK SMILES IDX 7 1 9 2 11 3 12 4 10 6 5 8 2 9 1 10 3 11 4 12 6 14 8 16
REMARK H PARENT 12 5 10 7 4 13 6 15 8 17
REMARK Flexibility Score: inf
ROOT
ATOM      1  C   UNL     1      42.183  40.961  17.306  1.00  0.00     0.181 C 
ENDROOT
BRANCH   1   2
ATOM      2  C   UNL     1      41.405  41.005  18.652  1.00  0.00     0.171 C 
BRANCH   2   3
ATOM      3  C   UNL     1      42.212  40.532  19.877  1.00  0.00     0.190 C 
BRANCH   3   4
ATOM      4  O   UNL     1      41.749  39.288  20.324  1.00  0.00    -0.394 OA
ATOM      5  H   UNL     1      40.797  39.232  20.045  1.00  0.00     0.210 HD
ENDBRANCH   3   4
ENDBRANCH   2   3
BRANCH   2   6
ATOM      6  O   UNL     1      40.943  42.313  18.877  1.00  0.00    -0.388 OA
ATOM      7  H   UNL     1      40.486  42.314  19.759  1.00  0.00     0.211 HD
ENDBRANCH   2   6
ENDBRANCH   1   2
BRANCH   1   8
ATOM      8  C   UNL     1      41.325  41.277  16.041  1.00  0.00     0.214 C 
BRANCH   8   9
ATOM      9  C   UNL     1      41.727  42.605  15.423  1.00  0.00     0.189 C 
ATOM     10  O   UNL     1      42.656  42.633  14.629  1.00  0.00    -0.294 OA
BRANCH   9  11
ATOM     11  C   UNL     1      41.051  43.902  15.787  1.00  0.00     0.234 C 
BRANCH  11  12
ATOM     12  O   UNL     1      39.897  43.655  16.545  1.00  0.00    -0.388 OA
ATOM     13  H   UNL     1      39.738  44.470  17.091  1.00  0.00     0.211 HD
ENDBRANCH  11  12
ENDBRANCH   9  11
ENDBRANCH   8   9
BRANCH   8  14
ATOM     14  O   UNL     1      41.395  40.234  15.098  1.00  0.00    -0.382 OA
ATOM     15  H   UNL     1      41.772  39.437  15.553  1.00  0.00     0.211 HD
ENDBRANCH   8  14
ENDBRANCH   1   8
BRANCH   1  16
ATOM     16  O   UNL     1      43.327  41.778  17.374  1.00  0.00    -0.387 OA
ATOM     17  H   UNL     1      44.127  41.201  17.278  1.00  0.00     0.211 HD
ENDBRANCH   1  16
TORSDOF 10
ENDMDL
MODEL 8
REMARK VINA RESULT:    -4.354      1.163      2.083
REMARK INTER + INTRA:          -7.001
REMARK INTER:                  -6.131
REMARK INTRA:                  -0.870
REMARK UNBOUND:                -0.737
REMARK SMILES O=C(CO)[C@@H](O)[C@@H](O)[C@H](O)CO
REMARK SMILES IDX 7 1 9 2 11 3 12 4 10 6 5 8 2 9 1 10 3 11 4 12 6 14 8 16
REMARK H PARENT 12 5 10 7 4 13 6 15 8 17
REMARK Flexibility Score: inf
ROOT
ATOM      1  C   UNL     1      41.235  41.016  16.260  1.00  0.00     0.181 C 
ENDROOT
BRANCH   1   2
ATOM      2  C   UNL     1      42.781  41.074  16.100  1.00  0.00     0.171 C 
BRANCH   2   3
ATOM      3  C   UNL     1      43.326  40.357  14.849  1.00  0.00     0.190 C 
BRANCH   3   4
ATOM      4  O   UNL     1      44.338  41.114  14.247  1.00  0.00    -0.394 OA
ATOM      5  H   UNL     1      44.334  41.995  14.705  1.00  0.00     0.210 HD
ENDBRANCH   3   4
ENDBRANCH   2   3
BRANCH   2   6
ATOM      6  O   UNL     1      43.196  42.416  16.084  1.00  0.00    -0.388 OA
ATOM      7  H   UNL     1      44.072  42.457  16.549  1.00  0.00     0.211 HD
ENDBRANCH   2   6
ENDBRANCH   1   2
BRANCH   1   8
ATOM      8  C   UNL     1      40.681  41.715  17.540  1.00  0.00     0.214 C 
BRANCH   8   9
ATOM      9  C   UNL     1      41.392  41.221  18.788  1.00  0.00     0.189 C 
ATOM     10  O   UNL     1      41.323  40.037  19.081  1.00  0.00    -0.294 OA
BRANCH   9  11
ATOM     11  C   UNL     1      42.147  42.148  19.706  1.00  0.00     0.234 C 
BRANCH  11  12
ATOM     12  O   UNL     1      43.210  42.755  19.023  1.00  0.00    -0.388 OA
ATOM     13  H   UNL     1      42.995  42.694  18.055  1.00  0.00     0.211 HD
ENDBRANCH  11  12
ENDBRANCH   9  11
ENDBRANCH   8   9
BRANCH   8  14
ATOM     14  O   UNL     1      40.753  43.117  17.433  1.00  0.00    -0.382 OA
ATOM     15  H   UNL     1      39.839  43.456  17.249  1.00  0.00     0.211 HD
ENDBRANCH   8  14
ENDBRANCH   1   8
BRANCH   1  16
ATOM     16  O   UNL     1      40.605  41.492  15.095  1.00  0.00    -0.387 OA
ATOM     17  H   UNL     1      40.882  42.433  14.955  1.00  0.00     0.211 HD
ENDBRANCH   1  16
TORSDOF 10
ENDMDL
MODEL 9
REMARK VINA RESULT:    -4.344      1.059      4.456
REMARK INTER + INTRA:          -6.986
REMARK INTER:                  -6.583
REMARK INTRA:                  -0.403
REMARK UNBOUND:                -0.737
REMARK SMILES O=C(CO)[C@@H](O)[C@@H](O)[C@H](O)CO
REMARK SMILES IDX 7 1 9 2 11 3 12 4 10 6 5 8 2 9 1 10 3 11 4 12 6 14 8 16
REMARK H PARENT 12 5 10 7 4 13 6 15 8 17
REMARK Flexibility Score: inf
ROOT
ATOM      1  C   UNL     1      42.547  41.215  17.460  1.00  0.00     0.181 C 
ENDROOT
BRANCH   1   2
ATOM      2  C   UNL     1      41.550  41.157  18.651  1.00  0.00     0.171 C 
BRANCH   2   3
ATOM      3  C   UNL     1      42.167  40.694  19.986  1.00  0.00     0.190 C 
BRANCH   3   4
ATOM      4  O   UNL     1      41.809  39.369  20.263  1.00  0.00    -0.394 OA
ATOM      5  H   UNL     1      40.939  39.412  20.741  1.00  0.00     0.210 HD
ENDBRANCH   3   4
ENDBRANCH   2   3
BRANCH   2   6
ATOM      6  O   UNL     1      40.961  42.421  18.826  1.00  0.00    -0.388 OA
ATOM      7  H   UNL     1      41.055  42.658  19.785  1.00  0.00     0.211 HD
ENDBRANCH   2   6
ENDBRANCH   1   2
BRANCH   1   8
ATOM      8  C   UNL     1      41.889  41.437  16.062  1.00  0.00     0.214 C 
BRANCH   8   9
ATOM      9  C   UNL     1      42.288  40.342  15.088  1.00  0.00     0.189 C 
ATOM     10  O   UNL     1      41.426  39.590  14.657  1.00  0.00    -0.294 OA
BRANCH   9  11
ATOM     11  C   UNL     1      43.717  40.119  14.666  1.00  0.00     0.234 C 
BRANCH  11  12
ATOM     12  O   UNL     1      44.308  41.331  14.282  1.00  0.00    -0.388 OA
ATOM     13  H   UNL     1      44.738  41.170  13.401  1.00  0.00     0.211 HD
ENDBRANCH  11  12
ENDBRANCH   9  11
ENDBRANCH   8   9
BRANCH   8  14
ATOM     14  O   UNL     1      40.489  41.545  16.164  1.00  0.00    -0.382 OA
ATOM     15  H   UNL     1      40.087  40.938  15.490  1.00  0.00     0.211 HD
ENDBRANCH   8  14
ENDBRANCH   1   8
BRANCH   1  16
ATOM     16  O   UNL     1      43.557  42.162  17.714  1.00  0.00    -0.387 OA
ATOM     17  H   UNL     1      44.417  41.680  17.815  1.00  0.00     0.211 HD
ENDBRANCH   1  16
TORSDOF 10
ENDMDL
