MODEL 1
REMARK VINA RESULT:    -4.501      0.000      0.000
REMARK INTER + INTRA:          -9.059
REMARK INTER:                  -7.921
REMARK INTRA:                  -1.138
REMARK UNBOUND:                -1.138
REMARK SMILES CCCCCCC=CCCCCCCCC(=O)[O-]
REMARK SMILES IDX 10 1 11 2 12 3 13 4 14 5 15 6 16 7 17 8 18 9 9 10 8 11 7 12
REMARK SMILES IDX 6 13 5 14 4 15 3 16 2 17 1 18
REMARK H PARENT
REMARK Flexibility Score: inf
ROOT
ATOM      1  C   UNL     1     -42.711  27.817   0.403  1.00  0.00     0.004 C 
ENDROOT
BRANCH   1   2
ATOM      2  C   UNL     1     -42.824  29.356   0.378  1.00  0.00     0.000 C 
BRANCH   2   3
ATOM      3  C   UNL     1     -42.984  30.026   1.757  1.00  0.00     0.000 C 
BRANCH   3   4
ATOM      4  C   UNL     1     -44.344  29.793   2.437  1.00  0.00     0.000 C 
BRANCH   4   5
ATOM      5  C   UNL     1     -44.231  29.650   3.964  1.00  0.00     0.006 C 
BRANCH   5   6
ATOM      6  C   UNL     1     -43.746  28.255   4.380  1.00  0.00     0.053 C 
BRANCH   6   7
ATOM      7  C   UNL     1     -44.659  27.179   3.876  1.00  0.00     0.041 C 
ATOM      8  O   UNL     1     -44.216  26.270   3.125  1.00  0.00    -0.550 OA
ATOM      9  O   UNL     1     -46.008  27.202   4.206  1.00  0.00    -0.550 OA
ENDBRANCH   6   7
ENDBRANCH   5   6
ENDBRANCH   4   5
ENDBRANCH   3   4
ENDBRANCH   2   3
ENDBRANCH   1   2
BRANCH   1  10
ATOM     10  C   UNL     1     -43.870  27.072  -0.281  1.00  0.00     0.027 C 
BRANCH  10  11
ATOM     11  C   UNL     1     -44.854  28.024  -0.923  1.00  0.00    -0.031 C 
ATOM     12  C   UNL     1     -45.769  27.690  -1.853  1.00  0.00    -0.031 C 
BRANCH  12  13
ATOM     13  C   UNL     1     -45.962  26.308  -2.428  1.00  0.00     0.027 C 
BRANCH  13  14
ATOM     14  C   UNL     1     -46.901  26.330  -3.643  1.00  0.00     0.004 C 
BRANCH  14  15
ATOM     15  C   UNL     1     -46.353  27.178  -4.804  1.00  0.00     0.000 C 
BRANCH  15  16
ATOM     16  C   UNL     1     -46.100  26.405  -6.114  1.00  0.00    -0.000 C 
BRANCH  16  17
ATOM     17  C   UNL     1     -45.464  27.234  -7.245  1.00  0.00    -0.003 C 
ATOM     18  C   UNL     1     -45.352  28.719  -6.904  1.00  0.00     0.004 C 
ENDBRANCH  16  17
ENDBRANCH  15  16
ENDBRANCH  14  15
ENDBRANCH  13  14
ENDBRANCH  12  13
ENDBRANCH  10  11
ENDBRANCH   1  10
TORSDOF 13
ENDMDL
MODEL 2
REMARK VINA RESULT:    -4.463      0.746      1.277
REMARK INTER + INTRA:          -8.992
REMARK INTER:                  -8.220
REMARK INTRA:                  -0.772
REMARK UNBOUND:                -1.138
REMARK SMILES CCCCCCC=CCCCCCCCC(=O)[O-]
REMARK SMILES IDX 10 1 11 2 12 3 13 4 14 5 15 6 16 7 17 8 18 9 9 10 8 11 7 12
REMARK SMILES IDX 6 13 5 14 4 15 3 16 2 17 1 18
REMARK H PARENT
REMARK Flexibility Score: inf
ROOT
ATOM      1  C   UNL     1     -43.514  27.139   0.337  1.00  0.00     0.004 C 
ENDROOT
BRANCH   1   2
ATOM      2  C   UNL     1     -42.439  28.234   0.502  1.00  0.00     0.000 C 
BRANCH   2   3
ATOM      3  C   UNL     1     -42.963  29.605   0.971  1.00  0.00     0.000 C 
BRANCH   3   4
ATOM      4  C   UNL     1     -43.784  29.575   2.273  1.00  0.00     0.000 C 
BRANCH   4   5
ATOM      5  C   UNL     1     -43.049  28.871   3.425  1.00  0.00     0.006 C 
BRANCH   5   6
ATOM      6  C   UNL     1     -44.015  28.358   4.500  1.00  0.00     0.053 C 
BRANCH   6   7
ATOM      7  C   UNL     1     -44.832  27.204   4.004  1.00  0.00     0.041 C 
ATOM      8  O   UNL     1     -46.081  27.194   4.165  1.00  0.00    -0.550 OA
ATOM      9  O   UNL     1     -44.209  26.122   3.395  1.00  0.00    -0.550 OA
ENDBRANCH   6   7
ENDBRANCH   5   6
ENDBRANCH   4   5
ENDBRANCH   3   4
ENDBRANCH   2   3
ENDBRANCH   1   2
BRANCH   1  10
ATOM     10  C   UNL     1     -44.522  27.388  -0.798  1.00  0.00     0.027 C 
BRANCH  10  11
ATOM     11  C   UNL     1     -45.017  26.096  -1.408  1.00  0.00    -0.031 C 
ATOM     12  C   UNL     1     -46.075  25.979  -2.233  1.00  0.00    -0.031 C 
BRANCH  12  13
ATOM     13  C   UNL     1     -46.960  27.115  -2.682  1.00  0.00     0.027 C 
BRANCH  13  14
ATOM     14  C   UNL     1     -46.439  27.757  -3.975  1.00  0.00     0.004 C 
BRANCH  14  15
ATOM     15  C   UNL     1     -46.978  27.070  -5.242  1.00  0.00     0.000 C 
BRANCH  15  16
ATOM     16  C   UNL     1     -45.911  26.377  -6.113  1.00  0.00    -0.000 C 
BRANCH  16  17
ATOM     17  C   UNL     1     -45.514  27.145  -7.386  1.00  0.00    -0.003 C 
ATOM     18  C   UNL     1     -45.337  28.643  -7.147  1.00  0.00     0.004 C 
ENDBRANCH  16  17
ENDBRANCH  15  16
ENDBRANCH  14  15
ENDBRANCH  13  14
ENDBRANCH  12  13
ENDBRANCH  10  11
ENDBRANCH   1  10
TORSDOF 13
ENDMDL
MODEL 3
REMARK VINA RESULT:    -4.341      1.912      2.301
REMARK INTER + INTRA:          -8.778
REMARK INTER:                  -7.858
REMARK INTRA:                  -0.921
REMARK UNBOUND:                -1.138
REMARK SMILES CCCCCCC=CCCCCCCCC(=O)[O-]
REMARK SMILES IDX 10 1 11 2 12 3 13 4 14 5 15 6 16 7 17 8 18 9 9 10 8 11 7 12
REMARK SMILES IDX 6 13 5 14 4 15 3 16 2 17 1 18
REMARK H PARENT
REMARK Flexibility Score: inf
ROOT
ATOM      1  C   UNL     1     -42.926  27.498   0.928  1.00  0.00     0.004 C 
ENDROOT
BRANCH   1   2
ATOM      2  C   UNL     1     -43.054  28.775   1.784  1.00  0.00     0.000 C 
BRANCH   2   3
ATOM      3  C   UNL     1     -43.399  28.540   3.268  1.00  0.00     0.000 C 
BRANCH   3   4
ATOM      4  C   UNL     1     -44.429  27.427   3.526  1.00  0.00     0.000 C 
BRANCH   4   5
ATOM      5  C   UNL     1     -44.421  26.931   4.982  1.00  0.00     0.006 C 
BRANCH   5   6
ATOM      6  C   UNL     1     -44.371  28.089   5.986  1.00  0.00     0.053 C 
BRANCH   6   7
ATOM      7  C   UNL     1     -43.307  27.878   7.021  1.00  0.00     0.041 C 
ATOM      8  O   UNL     1     -42.100  28.111   6.747  1.00  0.00    -0.550 OA
ATOM      9  O   UNL     1     -43.646  27.388   8.275  1.00  0.00    -0.550 OA
ENDBRANCH   6   7
ENDBRANCH   5   6
ENDBRANCH   4   5
ENDBRANCH   3   4
ENDBRANCH   2   3
ENDBRANCH   1   2
BRANCH   1  10
ATOM     10  C   UNL     1     -43.683  27.538  -0.411  1.00  0.00     0.027 C 
BRANCH  10  11
ATOM     11  C   UNL     1     -45.154  27.236  -0.237  1.00  0.00    -0.031 C 
ATOM     12  C   UNL     1     -45.917  26.544  -1.106  1.00  0.00    -0.031 C 
BRANCH  12  13
ATOM     13  C   UNL     1     -45.437  25.962  -2.413  1.00  0.00     0.027 C 
BRANCH  13  14
ATOM     14  C   UNL     1     -46.387  26.313  -3.567  1.00  0.00     0.004 C 
BRANCH  14  15
ATOM     15  C   UNL     1     -46.321  27.798  -3.963  1.00  0.00     0.000 C 
BRANCH  15  16
ATOM     16  C   UNL     1     -46.748  28.107  -5.413  1.00  0.00    -0.000 C 
BRANCH  16  17
ATOM     17  C   UNL     1     -45.608  28.072  -6.446  1.00  0.00    -0.003 C 
ATOM     18  C   UNL     1     -45.530  26.747  -7.203  1.00  0.00     0.004 C 
ENDBRANCH  16  17
ENDBRANCH  15  16
ENDBRANCH  14  15
ENDBRANCH  13  14
ENDBRANCH  12  13
ENDBRANCH  10  11
ENDBRANCH   1  10
TORSDOF 13
ENDMDL
MODEL 4
REMARK VINA RESULT:    -4.335      1.541      2.507
REMARK INTER + INTRA:          -8.767
REMARK INTER:                  -6.694
REMARK INTRA:                  -2.073
REMARK UNBOUND:                -1.138
REMARK SMILES CCCCCCC=CCCCCCCCC(=O)[O-]
REMARK SMILES IDX 10 1 11 2 12 3 13 4 14 5 15 6 16 7 17 8 18 9 9 10 8 11 7 12
REMARK SMILES IDX 6 13 5 14 4 15 3 16 2 17 1 18
REMARK H PARENT
REMARK Flexibility Score: inf
ROOT
ATOM      1  C   UNL     1     -42.562  27.913   0.537  1.00  0.00     0.004 C 
ENDROOT
BRANCH   1   2
ATOM      2  C   UNL     1     -42.463  29.443   0.704  1.00  0.00     0.000 C 
BRANCH   2   3
ATOM      3  C   UNL     1     -43.212  30.021   1.922  1.00  0.00     0.000 C 
BRANCH   3   4
ATOM      4  C   UNL     1     -42.508  29.814   3.274  1.00  0.00     0.000 C 
BRANCH   4   5
ATOM      5  C   UNL     1     -43.407  29.125   4.315  1.00  0.00     0.006 C 
BRANCH   5   6
ATOM      6  C   UNL     1     -44.824  28.876   3.782  1.00  0.00     0.053 C 
BRANCH   6   7
ATOM      7  C   UNL     1     -45.218  27.436   3.914  1.00  0.00     0.041 C 
ATOM      8  O   UNL     1     -46.294  27.123   4.487  1.00  0.00    -0.550 OA
ATOM      9  O   UNL     1     -44.378  26.439   3.436  1.00  0.00    -0.550 OA
ENDBRANCH   6   7
ENDBRANCH   5   6
ENDBRANCH   4   5
ENDBRANCH   3   4
ENDBRANCH   2   3
ENDBRANCH   1   2
BRANCH   1  10
ATOM     10  C   UNL     1     -43.683  27.435  -0.402  1.00  0.00     0.027 C 
BRANCH  10  11
ATOM     11  C   UNL     1     -45.047  27.557   0.237  1.00  0.00    -0.031 C 
ATOM     12  C   UNL     1     -46.018  28.405  -0.153  1.00  0.00    -0.031 C 
BRANCH  12  13
ATOM     13  C   UNL     1     -45.908  29.392  -1.288  1.00  0.00     0.027 C 
BRANCH  13  14
ATOM     14  C   UNL     1     -46.897  29.064  -2.416  1.00  0.00     0.004 C 
BRANCH  14  15
ATOM     15  C   UNL     1     -46.232  28.344  -3.602  1.00  0.00     0.000 C 
BRANCH  15  16
ATOM     16  C   UNL     1     -46.662  26.876  -3.798  1.00  0.00    -0.000 C 
BRANCH  16  17
ATOM     17  C   UNL     1     -45.927  25.858  -2.907  1.00  0.00    -0.003 C 
ATOM     18  C   UNL     1     -46.848  25.176  -1.897  1.00  0.00     0.004 C 
ENDBRANCH  16  17
ENDBRANCH  15  16
ENDBRANCH  14  15
ENDBRANCH  13  14
ENDBRANCH  12  13
ENDBRANCH  10  11
ENDBRANCH   1  10
TORSDOF 13
ENDMDL
MODEL 5
REMARK VINA RESULT:    -4.300      2.530      3.581
REMARK INTER + INTRA:          -8.707
REMARK INTER:                  -6.932
REMARK INTRA:                  -1.774
REMARK UNBOUND:                -1.138
REMARK SMILES CCCCCCC=CCCCCCCCC(=O)[O-]
REMARK SMILES IDX 10 1 11 2 12 3 13 4 14 5 15 6 16 7 17 8 18 9 9 10 8 11 7 12
REMARK SMILES IDX 6 13 5 14 4 15 3 16 2 17 1 18
REMARK H PARENT
REMARK Flexibility Score: inf
ROOT
ATOM      1  C   UNL     1     -42.741  27.409   1.091  1.00  0.00     0.004 C 
ENDROOT
BRANCH   1   2
ATOM      2  C   UNL     1     -43.282  28.063   2.380  1.00  0.00     0.000 C 
BRANCH   2   3
ATOM      3  C   UNL     1     -44.366  27.256   3.122  1.00  0.00     0.000 C 
BRANCH   3   4
ATOM      4  C   UNL     1     -45.258  28.082   4.065  1.00  0.00     0.000 C 
BRANCH   4   5
ATOM      5  C   UNL     1     -45.367  27.469   5.471  1.00  0.00     0.006 C 
BRANCH   5   6
ATOM      6  C   UNL     1     -44.073  26.766   5.898  1.00  0.00     0.053 C 
BRANCH   6   7
ATOM      7  C   UNL     1     -43.289  27.592   6.872  1.00  0.00     0.041 C 
ATOM      8  O   UNL     1     -43.570  27.563   8.099  1.00  0.00    -0.550 OA
ATOM      9  O   UNL     1     -42.274  28.424   6.419  1.00  0.00    -0.550 OA
ENDBRANCH   6   7
ENDBRANCH   5   6
ENDBRANCH   4   5
ENDBRANCH   3   4
ENDBRANCH   2   3
ENDBRANCH   1   2
BRANCH   1  10
ATOM     10  C   UNL     1     -42.356  28.397  -0.024  1.00  0.00     0.027 C 
BRANCH  10  11
ATOM     11  C   UNL     1     -43.030  29.739   0.152  1.00  0.00    -0.031 C 
ATOM     12  C   UNL     1     -44.252  30.066  -0.311  1.00  0.00    -0.031 C 
BRANCH  12  13
ATOM     13  C   UNL     1     -45.156  29.152  -1.101  1.00  0.00     0.027 C 
BRANCH  13  14
ATOM     14  C   UNL     1     -46.152  28.422  -0.190  1.00  0.00     0.004 C 
BRANCH  14  15
ATOM     15  C   UNL     1     -46.302  26.932  -0.544  1.00  0.00     0.000 C 
BRANCH  15  16
ATOM     16  C   UNL     1     -45.135  26.332  -1.355  1.00  0.00    -0.000 C 
BRANCH  16  17
ATOM     17  C   UNL     1     -45.522  25.780  -2.739  1.00  0.00    -0.003 C 
ATOM     18  C   UNL     1     -46.880  26.284  -3.223  1.00  0.00     0.004 C 
ENDBRANCH  16  17
ENDBRANCH  15  16
ENDBRANCH  14  15
ENDBRANCH  13  14
ENDBRANCH  12  13
ENDBRANCH  10  11
ENDBRANCH   1  10
TORSDOF 13
ENDMDL
MODEL 6
REMARK VINA RESULT:    -4.159      4.253      9.162
REMARK INTER + INTRA:          -8.457
REMARK INTER:                  -7.743
REMARK INTRA:                  -0.714
REMARK UNBOUND:                -1.138
REMARK SMILES CCCCCCC=CCCCCCCCC(=O)[O-]
REMARK SMILES IDX 10 1 11 2 12 3 13 4 14 5 15 6 16 7 17 8 18 9 9 10 8 11 7 12
REMARK SMILES IDX 6 13 5 14 4 15 3 16 2 17 1 18
REMARK H PARENT
REMARK Flexibility Score: inf
ROOT
ATOM      1  C   UNL     1     -44.852  26.385  -1.407  1.00  0.00     0.004 C 
ENDROOT
BRANCH   1   2
ATOM      2  C   UNL     1     -46.346  25.998  -1.422  1.00  0.00     0.000 C 
BRANCH   2   3
ATOM      3  C   UNL     1     -47.034  26.086  -2.799  1.00  0.00     0.000 C 
BRANCH   3   4
ATOM      4  C   UNL     1     -46.133  26.583  -3.943  1.00  0.00     0.000 C 
BRANCH   4   5
ATOM      5  C   UNL     1     -46.778  26.409  -5.328  1.00  0.00     0.006 C 
BRANCH   5   6
ATOM      6  C   UNL     1     -45.745  26.472  -6.460  1.00  0.00     0.053 C 
BRANCH   6   7
ATOM      7  C   UNL     1     -46.400  26.481  -7.807  1.00  0.00     0.041 C 
ATOM      8  O   UNL     1     -46.715  27.571  -8.354  1.00  0.00    -0.550 OA
ATOM      9  O   UNL     1     -46.697  25.282  -8.443  1.00  0.00    -0.550 OA
ENDBRANCH   6   7
ENDBRANCH   5   6
ENDBRANCH   4   5
ENDBRANCH   3   4
ENDBRANCH   2   3
ENDBRANCH   1   2
BRANCH   1  10
ATOM     10  C   UNL     1     -44.547  27.765  -0.799  1.00  0.00     0.027 C 
BRANCH  10  11
ATOM     11  C   UNL     1     -43.127  27.857  -0.289  1.00  0.00    -0.031 C 
ATOM     12  C   UNL     1     -42.734  27.602   0.974  1.00  0.00    -0.031 C 
BRANCH  12  13
ATOM     13  C   UNL     1     -43.646  27.194   2.104  1.00  0.00     0.027 C 
BRANCH  13  14
ATOM     14  C   UNL     1     -44.317  28.413   2.753  1.00  0.00     0.004 C 
BRANCH  14  15
ATOM     15  C   UNL     1     -44.113  28.467   4.277  1.00  0.00     0.000 C 
BRANCH  15  16
ATOM     16  C   UNL     1     -44.581  27.212   5.042  1.00  0.00    -0.000 C 
BRANCH  16  17
ATOM     17  C   UNL     1     -43.815  26.924   6.346  1.00  0.00    -0.003 C 
ATOM     18  C   UNL     1     -42.736  27.962   6.645  1.00  0.00     0.004 C 
ENDBRANCH  16  17
ENDBRANCH  15  16
ENDBRANCH  14  15
ENDBRANCH  13  14
ENDBRANCH  12  13
ENDBRANCH  10  11
ENDBRANCH   1  10
TORSDOF 13
ENDMDL
MODEL 7
REMARK VINA RESULT:    -4.054      3.580      8.373
REMARK INTER + INTRA:          -8.272
REMARK INTER:                  -7.095
REMARK INTRA:                  -1.178
REMARK UNBOUND:                -1.138
REMARK SMILES CCCCCCC=CCCCCCCCC(=O)[O-]
REMARK SMILES IDX 10 1 11 2 12 3 13 4 14 5 15 6 16 7 17 8 18 9 9 10 8 11 7 12
REMARK SMILES IDX 6 13 5 14 4 15 3 16 2 17 1 18
REMARK H PARENT
REMARK Flexibility Score: inf
ROOT
ATOM      1  C   UNL     1     -44.081  27.122   0.306  1.00  0.00     0.004 C 
ENDROOT
BRANCH   1   2
ATOM      2  C   UNL     1     -44.852  27.392  -1.003  1.00  0.00     0.000 C 
BRANCH   2   3
ATOM      3  C   UNL     1     -45.288  26.134  -1.781  1.00  0.00     0.000 C 
BRANCH   3   4
ATOM      4  C   UNL     1     -46.514  26.327  -2.690  1.00  0.00     0.000 C 
BRANCH   4   5
ATOM      5  C   UNL     1     -46.201  27.160  -3.944  1.00  0.00     0.006 C 
BRANCH   5   6
ATOM      6  C   UNL     1     -46.541  26.409  -5.238  1.00  0.00     0.053 C 
BRANCH   6   7
ATOM      7  C   UNL     1     -45.725  26.902  -6.394  1.00  0.00     0.041 C 
ATOM      8  O   UNL     1     -45.191  26.084  -7.189  1.00  0.00    -0.550 OA
ATOM      9  O   UNL     1     -45.523  28.265  -6.571  1.00  0.00    -0.550 OA
ENDBRANCH   6   7
ENDBRANCH   5   6
ENDBRANCH   4   5
ENDBRANCH   3   4
ENDBRANCH   2   3
ENDBRANCH   1   2
BRANCH   1  10
ATOM     10  C   UNL     1     -42.640  27.658   0.331  1.00  0.00     0.027 C 
BRANCH  10  11
ATOM     11  C   UNL     1     -42.583  29.140   0.038  1.00  0.00    -0.031 C 
ATOM     12  C   UNL     1     -42.703  30.121   0.953  1.00  0.00    -0.031 C 
BRANCH  12  13
ATOM     13  C   UNL     1     -42.930  29.911   2.430  1.00  0.00     0.027 C 
BRANCH  13  14
ATOM     14  C   UNL     1     -44.413  30.065   2.797  1.00  0.00     0.004 C 
BRANCH  14  15
ATOM     15  C   UNL     1     -44.993  28.811   3.475  1.00  0.00     0.000 C 
BRANCH  15  16
ATOM     16  C   UNL     1     -43.945  27.816   4.012  1.00  0.00    -0.000 C 
BRANCH  16  17
ATOM     17  C   UNL     1     -44.348  27.082   5.304  1.00  0.00    -0.003 C 
ATOM     18  C   UNL     1     -43.469  27.450   6.498  1.00  0.00     0.004 C 
ENDBRANCH  16  17
ENDBRANCH  15  16
ENDBRANCH  14  15
ENDBRANCH  13  14
ENDBRANCH  12  13
ENDBRANCH  10  11
ENDBRANCH   1  10
TORSDOF 13
ENDMDL
MODEL 8
REMARK VINA RESULT:    -4.033      3.082      8.175
REMARK INTER + INTRA:          -8.236
REMARK INTER:                  -6.573
REMARK INTRA:                  -1.663
REMARK UNBOUND:                -1.138
REMARK SMILES CCCCCCC=CCCCCCCCC(=O)[O-]
REMARK SMILES IDX 10 1 11 2 12 3 13 4 14 5 15 6 16 7 17 8 18 9 9 10 8 11 7 12
REMARK SMILES IDX 6 13 5 14 4 15 3 16 2 17 1 18
REMARK H PARENT
REMARK Flexibility Score: inf
ROOT
ATOM      1  C   UNL     1     -43.344  27.232   1.611  1.00  0.00     0.004 C 
ENDROOT
BRANCH   1   2
ATOM      2  C   UNL     1     -43.015  27.833   0.229  1.00  0.00     0.000 C 
BRANCH   2   3
ATOM      3  C   UNL     1     -44.224  28.032  -0.706  1.00  0.00     0.000 C 
BRANCH   3   4
ATOM      4  C   UNL     1     -45.305  26.941  -0.610  1.00  0.00     0.000 C 
BRANCH   4   5
ATOM      5  C   UNL     1     -45.246  25.939  -1.776  1.00  0.00     0.006 C 
BRANCH   5   6
ATOM      6  C   UNL     1     -46.524  25.962  -2.624  1.00  0.00     0.053 C 
BRANCH   6   7
ATOM      7  C   UNL     1     -46.372  26.841  -3.828  1.00  0.00     0.041 C 
ATOM      8  O   UNL     1     -46.129  26.337  -4.956  1.00  0.00    -0.550 OA
ATOM      9  O   UNL     1     -46.463  28.221  -3.697  1.00  0.00    -0.550 OA
ENDBRANCH   6   7
ENDBRANCH   5   6
ENDBRANCH   4   5
ENDBRANCH   3   4
ENDBRANCH   2   3
ENDBRANCH   1   2
BRANCH   1  10
ATOM     10  C   UNL     1     -43.246  28.220   2.786  1.00  0.00     0.027 C 
BRANCH  10  11
ATOM     11  C   UNL     1     -44.458  29.120   2.871  1.00  0.00    -0.031 C 
ATOM     12  C   UNL     1     -45.615  28.814   3.489  1.00  0.00    -0.031 C 
BRANCH  12  13
ATOM     13  C   UNL     1     -45.909  27.511   4.191  1.00  0.00     0.027 C 
BRANCH  13  14
ATOM     14  C   UNL     1     -46.430  27.746   5.616  1.00  0.00     0.004 C 
BRANCH  14  15
ATOM     15  C   UNL     1     -45.462  27.233   6.697  1.00  0.00     0.000 C 
BRANCH  15  16
ATOM     16  C   UNL     1     -44.028  26.947   6.206  1.00  0.00    -0.000 C 
BRANCH  16  17
ATOM     17  C   UNL     1     -42.949  27.889   6.769  1.00  0.00    -0.003 C 
ATOM     18  C   UNL     1     -43.157  29.346   6.360  1.00  0.00     0.004 C 
ENDBRANCH  16  17
ENDBRANCH  15  16
ENDBRANCH  14  15
ENDBRANCH  13  14
ENDBRANCH  12  13
ENDBRANCH  10  11
ENDBRANCH   1  10
TORSDOF 13
ENDMDL
MODEL 9
REMARK VINA RESULT:    -3.990      3.091      8.404
REMARK INTER + INTRA:          -8.160
REMARK INTER:                  -6.475
REMARK INTRA:                  -1.685
REMARK UNBOUND:                -1.138
REMARK SMILES CCCCCCC=CCCCCCCCC(=O)[O-]
REMARK SMILES IDX 10 1 11 2 12 3 13 4 14 5 15 6 16 7 17 8 18 9 9 10 8 11 7 12
REMARK SMILES IDX 6 13 5 14 4 15 3 16 2 17 1 18
REMARK H PARENT
REMARK Flexibility Score: inf
ROOT
ATOM      1  C   UNL     1     -42.970  28.847   2.382  1.00  0.00     0.004 C 
ENDROOT
BRANCH   1   2
ATOM      2  C   UNL     1     -42.987  27.568   1.518  1.00  0.00     0.000 C 
BRANCH   2   3
ATOM      3  C   UNL     1     -43.035  27.804  -0.005  1.00  0.00     0.000 C 
BRANCH   3   4
ATOM      4  C   UNL     1     -44.418  28.188  -0.558  1.00  0.00     0.000 C 
BRANCH   4   5
ATOM      5  C   UNL     1     -45.568  27.441   0.138  1.00  0.00     0.006 C 
BRANCH   5   6
ATOM      6  C   UNL     1     -46.654  26.999  -0.851  1.00  0.00     0.053 C 
BRANCH   6   7
ATOM      7  C   UNL     1     -46.107  26.073  -1.895  1.00  0.00     0.041 C 
ATOM      8  O   UNL     1     -45.625  24.958  -1.565  1.00  0.00    -0.550 OA
ATOM      9  O   UNL     1     -46.096  26.460  -3.230  1.00  0.00    -0.550 OA
ENDBRANCH   6   7
ENDBRANCH   5   6
ENDBRANCH   4   5
ENDBRANCH   3   4
ENDBRANCH   2   3
ENDBRANCH   1   2
BRANCH   1  10
ATOM     10  C   UNL     1     -43.957  28.844   3.562  1.00  0.00     0.027 C 
BRANCH  10  11
ATOM     11  C   UNL     1     -44.506  27.462   3.837  1.00  0.00    -0.031 C 
ATOM     12  C   UNL     1     -45.448  27.165   4.753  1.00  0.00    -0.031 C 
BRANCH  12  13
ATOM     13  C   UNL     1     -46.108  28.159   5.677  1.00  0.00     0.027 C 
BRANCH  13  14
ATOM     14  C   UNL     1     -46.213  27.612   7.108  1.00  0.00     0.004 C 
BRANCH  14  15
ATOM     15  C   UNL     1     -45.118  28.161   8.039  1.00  0.00     0.000 C 
BRANCH  15  16
ATOM     16  C   UNL     1     -43.753  27.450   7.932  1.00  0.00    -0.000 C 
BRANCH  16  17
ATOM     17  C   UNL     1     -42.634  28.288   7.288  1.00  0.00    -0.003 C 
ATOM     18  C   UNL     1     -43.029  29.748   7.076  1.00  0.00     0.004 C 
ENDBRANCH  16  17
ENDBRANCH  15  16
ENDBRANCH  14  15
ENDBRANCH  13  14
ENDBRANCH  12  13
ENDBRANCH  10  11
ENDBRANCH   1  10
TORSDOF 13
ENDMDL
