MODEL 1
REMARK VINA RESULT:    -4.041      0.000      0.000
REMARK INTER + INTRA:          -6.743
REMARK INTER:                  -5.813
REMARK INTRA:                  -0.929
REMARK UNBOUND:                -0.929
REMARK SMILES O=C(CO)[C@H](O)[C@H](O)[C@@H](O)CO
REMARK SMILES IDX 7 1 9 2 11 3 12 4 10 6 5 8 2 9 1 10 3 11 4 12 6 14 8 16
REMARK H PARENT 12 5 10 7 4 13 6 15 8 17
REMARK Flexibility Score: inf
ROOT
ATOM      1  C   UNL     1      -5.329  12.020 -18.562  1.00  0.00     0.181 C 
ENDROOT
BRANCH   1   2
ATOM      2  C   UNL     1      -6.311  11.869 -17.376  1.00  0.00     0.171 C 
BRANCH   2   3
ATOM      3  C   UNL     1      -7.599  11.135 -17.795  1.00  0.00     0.190 C 
BRANCH   3   4
ATOM      4  O   UNL     1      -8.560  12.038 -18.273  1.00  0.00    -0.394 OA
ATOM      5  H   UNL     1      -9.424  11.778 -17.859  1.00  0.00     0.210 HD
ENDBRANCH   3   4
ENDBRANCH   2   3
BRANCH   2   6
ATOM      6  O   UNL     1      -6.641  13.140 -16.875  1.00  0.00    -0.388 OA
ATOM      7  H   UNL     1      -6.361  13.802 -17.560  1.00  0.00     0.211 HD
ENDBRANCH   2   6
ENDBRANCH   1   2
BRANCH   1   8
ATOM      8  C   UNL     1      -4.396  13.239 -18.376  1.00  0.00     0.214 C 
BRANCH   8   9
ATOM      9  C   UNL     1      -3.323  13.256 -19.450  1.00  0.00     0.189 C 
ATOM     10  O   UNL     1      -3.341  12.392 -20.314  1.00  0.00    -0.294 OA
BRANCH   9  11
ATOM     11  C   UNL     1      -2.225  14.288 -19.495  1.00  0.00     0.234 C 
BRANCH  11  12
ATOM     12  O   UNL     1      -2.090  14.954 -18.270  1.00  0.00    -0.388 OA
ATOM     13  H   UNL     1      -1.913  14.251 -17.593  1.00  0.00     0.211 HD
ENDBRANCH  11  12
ENDBRANCH   9  11
ENDBRANCH   8   9
BRANCH   8  14
ATOM     14  O   UNL     1      -3.782  13.177 -17.114  1.00  0.00    -0.382 OA
ATOM     15  H   UNL     1      -2.969  13.744 -17.162  1.00  0.00     0.211 HD
ENDBRANCH   8  14
ENDBRANCH   1   8
BRANCH   1  16
ATOM     16  O   UNL     1      -6.064  12.162 -19.754  1.00  0.00    -0.387 OA
ATOM     17  H   UNL     1      -5.439  11.995 -20.507  1.00  0.00     0.211 HD
ENDBRANCH   1  16
TORSDOF 10
ENDMDL
MODEL 2
REMARK VINA RESULT:    -4.019      1.439      4.355
REMARK INTER + INTRA:          -6.711
REMARK INTER:                  -5.983
REMARK INTRA:                  -0.728
REMARK UNBOUND:                -0.929
REMARK SMILES O=C(CO)[C@H](O)[C@H](O)[C@@H](O)CO
REMARK SMILES IDX 7 1 9 2 11 3 12 4 10 6 5 8 2 9 1 10 3 11 4 12 6 14 8 16
REMARK H PARENT 12 5 10 7 4 13 6 15 8 17
REMARK Flexibility Score: inf
ROOT
ATOM      1  C   UNL     1      -4.381  13.200 -18.611  1.00  0.00     0.181 C 
ENDROOT
BRANCH   1   2
ATOM      2  C   UNL     1      -3.645  14.334 -17.859  1.00  0.00     0.171 C 
BRANCH   2   3
ATOM      3  C   UNL     1      -4.124  15.724 -18.317  1.00  0.00     0.190 C 
BRANCH   3   4
ATOM      4  O   UNL     1      -5.266  16.122 -17.606  1.00  0.00    -0.394 OA
ATOM      5  H   UNL     1      -5.672  15.296 -17.235  1.00  0.00     0.210 HD
ENDBRANCH   3   4
ENDBRANCH   2   3
BRANCH   2   6
ATOM      6  O   UNL     1      -2.261  14.222 -18.079  1.00  0.00    -0.388 OA
ATOM      7  H   UNL     1      -2.024  14.892 -18.773  1.00  0.00     0.211 HD
ENDBRANCH   2   6
ENDBRANCH   1   2
BRANCH   1   8
ATOM      8  C   UNL     1      -5.347  12.434 -17.678  1.00  0.00     0.214 C 
BRANCH   8   9
ATOM      9  C   UNL     1      -6.298  11.572 -18.490  1.00  0.00     0.189 C 
ATOM     10  O   UNL     1      -5.959  11.213 -19.607  1.00  0.00    -0.294 OA
BRANCH   9  11
ATOM     11  C   UNL     1      -7.653  11.145 -17.983  1.00  0.00     0.234 C 
BRANCH  11  12
ATOM     12  O   UNL     1      -8.635  12.105 -18.259  1.00  0.00    -0.388 OA
ATOM     13  H   UNL     1      -8.184  12.815 -18.787  1.00  0.00     0.211 HD
ENDBRANCH  11  12
ENDBRANCH   9  11
ENDBRANCH   8   9
BRANCH   8  14
ATOM     14  O   UNL     1      -6.093  13.346 -16.914  1.00  0.00    -0.382 OA
ATOM     15  H   UNL     1      -5.959  14.241 -17.323  1.00  0.00     0.211 HD
ENDBRANCH   8  14
ENDBRANCH   1   8
BRANCH   1  16
ATOM     16  O   UNL     1      -3.432  12.310 -19.147  1.00  0.00    -0.387 OA
ATOM     17  H   UNL     1      -3.867  11.839 -19.905  1.00  0.00     0.211 HD
ENDBRANCH   1  16
TORSDOF 10
ENDMDL
MODEL 3
REMARK VINA RESULT:    -3.962      2.134      5.205
REMARK INTER + INTRA:          -6.629
REMARK INTER:                  -5.519
REMARK INTRA:                  -1.110
REMARK UNBOUND:                -0.929
REMARK SMILES O=C(CO)[C@H](O)[C@H](O)[C@@H](O)CO
REMARK SMILES IDX 7 1 9 2 11 3 12 4 10 6 5 8 2 9 1 10 3 11 4 12 6 14 8 16
REMARK H PARENT 12 5 10 7 4 13 6 15 8 17
REMARK Flexibility Score: inf
ROOT
ATOM      1  C   UNL     1      -6.773  11.317 -17.580  1.00  0.00     0.181 C 
ENDROOT
BRANCH   1   2
ATOM      2  C   UNL     1      -5.547  11.938 -18.290  1.00  0.00     0.171 C 
BRANCH   2   3
ATOM      3  C   UNL     1      -4.971  13.124 -17.493  1.00  0.00     0.190 C 
BRANCH   3   4
ATOM      4  O   UNL     1      -5.993  13.859 -16.875  1.00  0.00    -0.394 OA
ATOM      5  H   UNL     1      -5.576  14.342 -16.115  1.00  0.00     0.210 HD
ENDBRANCH   3   4
ENDBRANCH   2   3
BRANCH   2   6
ATOM      6  O   UNL     1      -5.918  12.375 -19.573  1.00  0.00    -0.388 OA
ATOM      7  H   UNL     1      -5.171  12.143 -20.185  1.00  0.00     0.211 HD
ENDBRANCH   2   6
ENDBRANCH   1   2
BRANCH   1   8
ATOM      8  C   UNL     1      -7.024   9.864 -18.047  1.00  0.00     0.214 C 
BRANCH   8   9
ATOM      9  C   UNL     1      -8.228   9.803 -18.970  1.00  0.00     0.189 C 
ATOM     10  O   UNL     1      -8.122  10.239 -20.106  1.00  0.00    -0.294 OA
BRANCH   9  11
ATOM     11  C   UNL     1      -9.559   9.234 -18.545  1.00  0.00     0.234 C 
BRANCH  11  12
ATOM     12  O   UNL     1      -9.899   9.631 -17.245  1.00  0.00    -0.388 OA
ATOM     13  H   UNL     1     -10.500   8.925 -16.891  1.00  0.00     0.211 HD
ENDBRANCH  11  12
ENDBRANCH   9  11
ENDBRANCH   8   9
BRANCH   8  14
ATOM     14  O   UNL     1      -7.258   9.042 -16.932  1.00  0.00    -0.382 OA
ATOM     15  H   UNL     1      -8.203   9.185 -16.663  1.00  0.00     0.211 HD
ENDBRANCH   8  14
ENDBRANCH   1   8
BRANCH   1  16
ATOM     16  O   UNL     1      -7.909  12.104 -17.848  1.00  0.00    -0.387 OA
ATOM     17  H   UNL     1      -7.715  12.632 -18.666  1.00  0.00     0.211 HD
ENDBRANCH   1  16
TORSDOF 10
ENDMDL
MODEL 4
REMARK VINA RESULT:    -3.788     16.938     18.241
REMARK INTER + INTRA:          -6.379
REMARK INTER:                  -4.934
REMARK INTRA:                  -1.445
REMARK UNBOUND:                -0.929
REMARK SMILES O=C(CO)[C@H](O)[C@H](O)[C@@H](O)CO
REMARK SMILES IDX 7 1 9 2 11 3 12 4 10 6 5 8 2 9 1 10 3 11 4 12 6 14 8 16
REMARK H PARENT 12 5 10 7 4 13 6 15 8 17
REMARK Flexibility Score: inf
ROOT
ATOM      1  C   UNL     1      -0.635  13.903 -37.042  1.00  0.00     0.181 C 
ENDROOT
BRANCH   1   2
ATOM      2  C   UNL     1      -2.014  14.580 -36.859  1.00  0.00     0.171 C 
BRANCH   2   3
ATOM      3  C   UNL     1      -1.874  16.012 -36.309  1.00  0.00     0.190 C 
BRANCH   3   4
ATOM      4  O   UNL     1      -1.744  16.005 -34.913  1.00  0.00    -0.394 OA
ATOM      5  H   UNL     1      -1.262  15.169 -34.677  1.00  0.00     0.210 HD
ENDBRANCH   3   4
ENDBRANCH   2   3
BRANCH   2   6
ATOM      6  O   UNL     1      -2.799  13.817 -35.978  1.00  0.00    -0.388 OA
ATOM      7  H   UNL     1      -2.693  12.867 -36.246  1.00  0.00     0.211 HD
ENDBRANCH   2   6
ENDBRANCH   1   2
BRANCH   1   8
ATOM      8  C   UNL     1      -0.491  12.656 -36.139  1.00  0.00     0.214 C 
BRANCH   8   9
ATOM      9  C   UNL     1       0.276  13.002 -34.875  1.00  0.00     0.189 C 
ATOM     10  O   UNL     1      -0.264  13.702 -34.032  1.00  0.00    -0.294 OA
BRANCH   9  11
ATOM     11  C   UNL     1       1.683  12.527 -34.614  1.00  0.00     0.234 C 
BRANCH  11  12
ATOM     12  O   UNL     1       2.534  12.815 -35.689  1.00  0.00    -0.388 OA
ATOM     13  H   UNL     1       3.259  13.385 -35.321  1.00  0.00     0.211 HD
ENDBRANCH  11  12
ENDBRANCH   9  11
ENDBRANCH   8   9
BRANCH   8  14
ATOM     14  O   UNL     1       0.198  11.647 -36.832  1.00  0.00    -0.382 OA
ATOM     15  H   UNL     1      -0.418  11.308 -37.533  1.00  0.00     0.211 HD
ENDBRANCH   8  14
ENDBRANCH   1   8
BRANCH   1  16
ATOM     16  O   UNL     1       0.379  14.831 -36.738  1.00  0.00    -0.387 OA
ATOM     17  H   UNL     1       0.468  14.854 -35.750  1.00  0.00     0.211 HD
ENDBRANCH   1  16
TORSDOF 10
ENDMDL
MODEL 5
REMARK VINA RESULT:    -3.787     18.943     20.299
REMARK INTER + INTRA:          -6.377
REMARK INTER:                  -5.220
REMARK INTRA:                  -1.157
REMARK UNBOUND:                -0.929
REMARK SMILES O=C(CO)[C@H](O)[C@H](O)[C@@H](O)CO
REMARK SMILES IDX 7 1 9 2 11 3 12 4 10 6 5 8 2 9 1 10 3 11 4 12 6 14 8 16
REMARK H PARENT 12 5 10 7 4 13 6 15 8 17
REMARK Flexibility Score: inf
ROOT
ATOM      1  C   UNL     1      -5.443   2.337 -36.144  1.00  0.00     0.181 C 
ENDROOT
BRANCH   1   2
ATOM      2  C   UNL     1      -4.055   2.254 -36.822  1.00  0.00     0.171 C 
BRANCH   2   3
ATOM      3  C   UNL     1      -3.475   0.828 -36.754  1.00  0.00     0.190 C 
BRANCH   3   4
ATOM      4  O   UNL     1      -4.358  -0.044 -36.101  1.00  0.00    -0.394 OA
ATOM      5  H   UNL     1      -4.208  -0.945 -36.489  1.00  0.00     0.210 HD
ENDBRANCH   3   4
ENDBRANCH   2   3
BRANCH   2   6
ATOM      6  O   UNL     1      -3.171   3.147 -36.192  1.00  0.00    -0.388 OA
ATOM      7  H   UNL     1      -2.254   2.900 -36.483  1.00  0.00     0.211 HD
ENDBRANCH   2   6
ENDBRANCH   1   2
BRANCH   1   8
ATOM      8  C   UNL     1      -6.185   3.639 -36.525  1.00  0.00     0.214 C 
BRANCH   8   9
ATOM      9  C   UNL     1      -6.239   4.586 -35.340  1.00  0.00     0.189 C 
ATOM     10  O   UNL     1      -5.204   5.111 -34.957  1.00  0.00    -0.294 OA
BRANCH   9  11
ATOM     11  C   UNL     1      -7.515   4.905 -34.603  1.00  0.00     0.234 C 
BRANCH  11  12
ATOM     12  O   UNL     1      -8.151   3.744 -34.143  1.00  0.00    -0.388 OA
ATOM     13  H   UNL     1      -7.439   3.058 -34.054  1.00  0.00     0.211 HD
ENDBRANCH  11  12
ENDBRANCH   9  11
ENDBRANCH   8   9
BRANCH   8  14
ATOM     14  O   UNL     1      -7.495   3.337 -36.932  1.00  0.00    -0.382 OA
ATOM     15  H   UNL     1      -7.990   3.054 -36.119  1.00  0.00     0.211 HD
ENDBRANCH   8  14
ENDBRANCH   1   8
BRANCH   1  16
ATOM     16  O   UNL     1      -5.279   2.275 -34.747  1.00  0.00    -0.387 OA
ATOM     17  H   UNL     1      -5.368   3.200 -34.399  1.00  0.00     0.211 HD
ENDBRANCH   1  16
TORSDOF 10
ENDMDL
MODEL 6
REMARK VINA RESULT:    -3.771      3.468      6.160
REMARK INTER + INTRA:          -6.354
REMARK INTER:                  -5.579
REMARK INTRA:                  -0.775
REMARK UNBOUND:                -0.929
REMARK SMILES O=C(CO)[C@H](O)[C@H](O)[C@@H](O)CO
REMARK SMILES IDX 7 1 9 2 11 3 12 4 10 6 5 8 2 9 1 10 3 11 4 12 6 14 8 16
REMARK H PARENT 12 5 10 7 4 13 6 15 8 17
REMARK Flexibility Score: inf
ROOT
ATOM      1  C   UNL     1      -8.184   9.538 -17.513  1.00  0.00     0.181 C 
ENDROOT
BRANCH   1   2
ATOM      2  C   UNL     1      -8.109  10.933 -18.178  1.00  0.00     0.171 C 
BRANCH   2   3
ATOM      3  C   UNL     1      -6.734  11.593 -17.958  1.00  0.00     0.190 C 
BRANCH   3   4
ATOM      4  O   UNL     1      -6.835  12.688 -17.087  1.00  0.00    -0.394 OA
ATOM      5  H   UNL     1      -7.478  12.428 -16.376  1.00  0.00     0.210 HD
ENDBRANCH   3   4
ENDBRANCH   2   3
BRANCH   2   6
ATOM      6  O   UNL     1      -9.113  11.761 -17.647  1.00  0.00    -0.388 OA
ATOM      7  H   UNL     1      -9.977  11.289 -17.781  1.00  0.00     0.211 HD
ENDBRANCH   2   6
ENDBRANCH   1   2
BRANCH   1   8
ATOM      8  C   UNL     1      -7.193   8.545 -18.162  1.00  0.00     0.214 C 
BRANCH   8   9
ATOM      9  C   UNL     1      -7.930   7.575 -19.067  1.00  0.00     0.189 C 
ATOM     10  O   UNL     1      -8.445   7.999 -20.091  1.00  0.00    -0.294 OA
BRANCH   9  11
ATOM     11  C   UNL     1      -8.065   6.105 -18.757  1.00  0.00     0.234 C 
BRANCH  11  12
ATOM     12  O   UNL     1      -8.827   5.888 -17.602  1.00  0.00    -0.388 OA
ATOM     13  H   UNL     1      -8.501   5.036 -17.213  1.00  0.00     0.211 HD
ENDBRANCH  11  12
ENDBRANCH   9  11
ENDBRANCH   8   9
BRANCH   8  14
ATOM     14  O   UNL     1      -6.523   7.821 -17.162  1.00  0.00    -0.382 OA
ATOM     15  H   UNL     1      -7.082   7.878 -16.343  1.00  0.00     0.211 HD
ENDBRANCH   8  14
ENDBRANCH   1   8
BRANCH   1  16
ATOM     16  O   UNL     1      -9.496   9.043 -17.628  1.00  0.00    -0.387 OA
ATOM     17  H   UNL     1      -9.667   8.473 -16.833  1.00  0.00     0.211 HD
ENDBRANCH   1  16
TORSDOF 10
ENDMDL
MODEL 7
REMARK VINA RESULT:    -3.758      3.790      5.145
REMARK INTER + INTRA:          -6.335
REMARK INTER:                  -5.530
REMARK INTRA:                  -0.804
REMARK UNBOUND:                -0.929
REMARK SMILES O=C(CO)[C@H](O)[C@H](O)[C@@H](O)CO
REMARK SMILES IDX 7 1 9 2 11 3 12 4 10 6 5 8 2 9 1 10 3 11 4 12 6 14 8 16
REMARK H PARENT 12 5 10 7 4 13 6 15 8 17
REMARK Flexibility Score: inf
ROOT
ATOM      1  C   UNL     1      -7.777  11.222 -18.266  1.00  0.00     0.181 C 
ENDROOT
BRANCH   1   2
ATOM      2  C   UNL     1      -9.303  11.273 -18.511  1.00  0.00     0.171 C 
BRANCH   2   3
ATOM      3  C   UNL     1      -9.641  11.984 -19.835  1.00  0.00     0.190 C 
BRANCH   3   4
ATOM      4  O   UNL     1      -8.475  12.382 -20.505  1.00  0.00    -0.394 OA
ATOM      5  H   UNL     1      -8.194  11.614 -21.068  1.00  0.00     0.210 HD
ENDBRANCH   3   4
ENDBRANCH   2   3
BRANCH   2   6
ATOM      6  O   UNL     1      -9.927  11.948 -17.448  1.00  0.00    -0.388 OA
ATOM      7  H   UNL     1      -9.209  12.398 -16.930  1.00  0.00     0.211 HD
ENDBRANCH   2   6
ENDBRANCH   1   2
BRANCH   1   8
ATOM      8  C   UNL     1      -7.371   9.955 -17.477  1.00  0.00     0.214 C 
BRANCH   8   9
ATOM      9  C   UNL     1      -6.700   8.950 -18.396  1.00  0.00     0.189 C 
ATOM     10  O   UNL     1      -6.498   9.260 -19.561  1.00  0.00    -0.294 OA
BRANCH   9  11
ATOM     11  C   UNL     1      -6.277   7.576 -17.940  1.00  0.00     0.234 C 
BRANCH  11  12
ATOM     12  O   UNL     1      -7.362   6.837 -17.451  1.00  0.00    -0.388 OA
ATOM     13  H   UNL     1      -8.075   6.907 -18.138  1.00  0.00     0.211 HD
ENDBRANCH  11  12
ENDBRANCH   9  11
ENDBRANCH   8   9
BRANCH   8  14
ATOM     14  O   UNL     1      -8.511   9.366 -16.907  1.00  0.00    -0.382 OA
ATOM     15  H   UNL     1      -8.371   8.383 -16.934  1.00  0.00     0.211 HD
ENDBRANCH   8  14
ENDBRANCH   1   8
BRANCH   1  16
ATOM     16  O   UNL     1      -7.385  12.370 -17.553  1.00  0.00    -0.387 OA
ATOM     17  H   UNL     1      -7.610  12.216 -16.599  1.00  0.00     0.211 HD
ENDBRANCH   1  16
TORSDOF 10
ENDMDL
MODEL 8
REMARK VINA RESULT:    -3.723     16.660     17.796
REMARK INTER + INTRA:          -6.284
REMARK INTER:                  -4.812
REMARK INTRA:                  -1.472
REMARK UNBOUND:                -0.929
REMARK SMILES O=C(CO)[C@H](O)[C@H](O)[C@@H](O)CO
REMARK SMILES IDX 7 1 9 2 11 3 12 4 10 6 5 8 2 9 1 10 3 11 4 12 6 14 8 16
REMARK H PARENT 12 5 10 7 4 13 6 15 8 17
REMARK Flexibility Score: inf
ROOT
ATOM      1  C   UNL     1      -0.594  14.197 -36.090  1.00  0.00     0.181 C 
ENDROOT
BRANCH   1   2
ATOM      2  C   UNL     1      -1.697  15.206 -36.489  1.00  0.00     0.171 C 
BRANCH   2   3
ATOM      3  C   UNL     1      -2.244  15.961 -35.263  1.00  0.00     0.190 C 
BRANCH   3   4
ATOM      4  O   UNL     1      -3.124  15.155 -34.526  1.00  0.00    -0.394 OA
ATOM      5  H   UNL     1      -3.924  15.013 -35.096  1.00  0.00     0.210 HD
ENDBRANCH   3   4
ENDBRANCH   2   3
BRANCH   2   6
ATOM      6  O   UNL     1      -2.749  14.524 -37.124  1.00  0.00    -0.388 OA
ATOM      7  H   UNL     1      -3.482  15.180 -37.254  1.00  0.00     0.211 HD
ENDBRANCH   2   6
ENDBRANCH   1   2
BRANCH   1   8
ATOM      8  C   UNL     1      -0.991  12.747 -36.453  1.00  0.00     0.214 C 
BRANCH   8   9
ATOM      9  C   UNL     1      -1.524  12.021 -35.231  1.00  0.00     0.189 C 
ATOM     10  O   UNL     1      -2.625  12.327 -34.797  1.00  0.00    -0.294 OA
BRANCH   9  11
ATOM     11  C   UNL     1      -0.752  10.940 -34.517  1.00  0.00     0.234 C 
BRANCH  11  12
ATOM     12  O   UNL     1       0.486  11.408 -34.057  1.00  0.00    -0.388 OA
ATOM     13  H   UNL     1       0.299  12.259 -33.583  1.00  0.00     0.211 HD
ENDBRANCH  11  12
ENDBRANCH   9  11
ENDBRANCH   8   9
BRANCH   8  14
ATOM     14  O   UNL     1       0.129  12.057 -36.944  1.00  0.00    -0.382 OA
ATOM     15  H   UNL     1       0.733  12.737 -37.343  1.00  0.00     0.211 HD
ENDBRANCH   8  14
ENDBRANCH   1   8
BRANCH   1  16
ATOM     16  O   UNL     1      -0.359  14.293 -34.705  1.00  0.00    -0.387 OA
ATOM     17  H   UNL     1       0.610  14.468 -34.582  1.00  0.00     0.211 HD
ENDBRANCH   1  16
TORSDOF 10
ENDMDL
MODEL 9
REMARK VINA RESULT:    -3.601     16.752     18.274
REMARK INTER + INTRA:          -6.109
REMARK INTER:                  -5.254
REMARK INTRA:                  -0.855
REMARK UNBOUND:                -0.929
REMARK SMILES O=C(CO)[C@H](O)[C@H](O)[C@@H](O)CO
REMARK SMILES IDX 7 1 9 2 11 3 12 4 10 6 5 8 2 9 1 10 3 11 4 12 6 14 8 16
REMARK H PARENT 12 5 10 7 4 13 6 15 8 17
REMARK Flexibility Score: inf
ROOT
ATOM      1  C   UNL     1       0.758  13.240 -35.156  1.00  0.00     0.181 C 
ENDROOT
BRANCH   1   2
ATOM      2  C   UNL     1      -0.215  12.189 -35.740  1.00  0.00     0.171 C 
BRANCH   2   3
ATOM      3  C   UNL     1      -0.027  10.811 -35.077  1.00  0.00     0.190 C 
BRANCH   3   4
ATOM      4  O   UNL     1       1.078  10.138 -35.618  1.00  0.00    -0.394 OA
ATOM      5  H   UNL     1       1.880  10.478 -35.142  1.00  0.00     0.210 HD
ENDBRANCH   3   4
ENDBRANCH   2   3
BRANCH   2   6
ATOM      6  O   UNL     1      -0.003  12.072 -37.125  1.00  0.00    -0.388 OA
ATOM      7  H   UNL     1       0.903  12.435 -37.310  1.00  0.00     0.211 HD
ENDBRANCH   2   6
ENDBRANCH   1   2
BRANCH   1   8
ATOM      8  C   UNL     1       0.361  14.675 -35.574  1.00  0.00     0.214 C 
BRANCH   8   9
ATOM      9  C   UNL     1      -1.009  15.029 -35.024  1.00  0.00     0.189 C 
ATOM     10  O   UNL     1      -1.237  14.832 -33.840  1.00  0.00    -0.294 OA
BRANCH   9  11
ATOM     11  C   UNL     1      -2.110  15.606 -35.877  1.00  0.00     0.234 C 
BRANCH  11  12
ATOM     12  O   UNL     1      -2.595  14.669 -36.800  1.00  0.00    -0.388 OA
ATOM     13  H   UNL     1      -3.011  15.194 -37.532  1.00  0.00     0.211 HD
ENDBRANCH  11  12
ENDBRANCH   9  11
ENDBRANCH   8   9
BRANCH   8  14
ATOM     14  O   UNL     1       0.333  14.770 -36.975  1.00  0.00    -0.382 OA
ATOM     15  H   UNL     1      -0.290  14.067 -37.297  1.00  0.00     0.211 HD
ENDBRANCH   8  14
ENDBRANCH   1   8
BRANCH   1  16
ATOM     16  O   UNL     1       2.063  12.959 -35.601  1.00  0.00    -0.387 OA
ATOM     17  H   UNL     1       1.981  12.429 -36.436  1.00  0.00     0.211 HD
ENDBRANCH   1  16
TORSDOF 10
ENDMDL
