MODEL 1
REMARK VINA RESULT:    -2.275      0.000      0.000
REMARK INTER + INTRA:          -2.475
REMARK INTER:                  -2.475
REMARK INTRA:                   0.000
REMARK UNBOUND:                 0.000
REMARK SMILES [NH3+]CC(=O)[O-]
REMARK SMILES IDX 2 1 1 2 3 6 4 7 5 8
REMARK H PARENT 1 3 1 4 1 5
REMARK Flexibility Score: inf
ROOT
ATOM      1  C   UNL     1      87.977 134.480  58.824  1.00  0.00     0.312 C 
ENDROOT
BRANCH   1   2
ATOM      2  N   UNL     1      89.125 134.498  57.919  1.00  0.00    -0.353 N 
ATOM      3  H   UNL     1      88.828 134.216  56.957  1.00  0.00     0.344 HD
ATOM      4  H   UNL     1      89.843 133.821  58.264  1.00  0.00     0.344 HD
ATOM      5  H   UNL     1      89.546 135.455  57.894  1.00  0.00     0.344 HD
ENDBRANCH   1   2
BRANCH   1   6
ATOM      6  C   UNL     1      88.018 133.270  59.706  1.00  0.00     0.096 C 
ATOM      7  O   UNL     1      89.122 132.817  60.109  1.00  0.00    -0.544 OA
ATOM      8  O   UNL     1      86.835 132.674  60.125  1.00  0.00    -0.544 OA
ENDBRANCH   1   6
TORSDOF 2
ENDMDL
MODEL 2
REMARK VINA RESULT:    -2.217      1.574      2.138
REMARK INTER + INTRA:          -2.412
REMARK INTER:                  -2.412
REMARK INTRA:                   0.000
REMARK UNBOUND:                 0.000
REMARK SMILES [NH3+]CC(=O)[O-]
REMARK SMILES IDX 2 1 1 2 3 6 4 7 5 8
REMARK H PARENT 1 3 1 4 1 5
REMARK Flexibility Score: inf
ROOT
ATOM      1  C   UNL     1      87.571 134.443  59.313  1.00  0.00     0.312 C 
ENDROOT
BRANCH   1   2
ATOM      2  N   UNL     1      86.273 134.952  59.751  1.00  0.00    -0.353 N 
ATOM      3  H   UNL     1      86.400 135.833  60.302  1.00  0.00     0.344 HD
ATOM      4  H   UNL     1      85.812 134.237  60.358  1.00  0.00     0.344 HD
ATOM      5  H   UNL     1      85.663 135.138  58.922  1.00  0.00     0.344 HD
ENDBRANCH   1   2
BRANCH   1   6
ATOM      6  C   UNL     1      87.812 133.070  59.861  1.00  0.00     0.096 C 
ATOM      7  O   UNL     1      86.841 132.313  60.125  1.00  0.00    -0.544 OA
ATOM      8  O   UNL     1      89.112 132.608  60.031  1.00  0.00    -0.544 OA
ENDBRANCH   1   6
TORSDOF 2
ENDMDL
MODEL 3
REMARK VINA RESULT:    -2.208      0.609      1.565
REMARK INTER + INTRA:          -2.402
REMARK INTER:                  -2.402
REMARK INTRA:                   0.000
REMARK UNBOUND:                 0.000
REMARK SMILES [NH3+]CC(=O)[O-]
REMARK SMILES IDX 2 1 1 2 3 6 4 7 5 8
REMARK H PARENT 1 3 1 4 1 5
REMARK Flexibility Score: inf
ROOT
ATOM      1  C   UNL     1      88.062 133.496  58.016  1.00  0.00     0.312 C 
ENDROOT
BRANCH   1   2
ATOM      2  N   UNL     1      89.125 134.492  57.899  1.00  0.00    -0.353 N 
ATOM      3  H   UNL     1      90.025 134.102  58.265  1.00  0.00     0.344 HD
ATOM      4  H   UNL     1      88.868 135.335  58.461  1.00  0.00     0.344 HD
ATOM      5  H   UNL     1      89.243 134.774  56.898  1.00  0.00     0.344 HD
ENDBRANCH   1   2
BRANCH   1   6
ATOM      6  C   UNL     1      87.970 132.984  59.420  1.00  0.00     0.096 C 
ATOM      7  O   UNL     1      86.845 132.789  59.951  1.00  0.00    -0.544 OA
ATOM      8  O   UNL     1      89.126 132.673  60.125  1.00  0.00    -0.544 OA
ENDBRANCH   1   6
TORSDOF 2
ENDMDL
MODEL 4
REMARK VINA RESULT:    -2.194      1.621      1.717
REMARK INTER + INTRA:          -2.386
REMARK INTER:                  -2.386
REMARK INTRA:                   0.000
REMARK UNBOUND:                 0.000
REMARK SMILES [NH3+]CC(=O)[O-]
REMARK SMILES IDX 2 1 1 2 3 6 4 7 5 8
REMARK H PARENT 1 3 1 4 1 5
REMARK Flexibility Score: inf
ROOT
ATOM      1  C   UNL     1      86.436 134.337  59.639  1.00  0.00     0.312 C 
ENDROOT
BRANCH   1   2
ATOM      2  N   UNL     1      87.764 134.920  59.461  1.00  0.00    -0.353 N 
ATOM      3  H   UNL     1      88.301 134.380  58.744  1.00  0.00     0.344 HD
ATOM      4  H   UNL     1      88.279 134.883  60.370  1.00  0.00     0.344 HD
ATOM      5  H   UNL     1      87.679 135.919  59.160  1.00  0.00     0.344 HD
ENDBRANCH   1   2
BRANCH   1   6
ATOM      6  C   UNL     1      86.535 132.864  59.891  1.00  0.00     0.096 C 
ATOM      7  O   UNL     1      87.653 132.335  60.125  1.00  0.00    -0.544 OA
ATOM      8  O   UNL     1      85.386 132.084  59.919  1.00  0.00    -0.544 OA
ENDBRANCH   1   6
TORSDOF 2
ENDMDL
MODEL 5
REMARK VINA RESULT:    -2.143      1.781      2.304
REMARK INTER + INTRA:          -2.331
REMARK INTER:                  -2.331
REMARK INTRA:                   0.000
REMARK UNBOUND:                 0.000
REMARK SMILES [NH3+]CC(=O)[O-]
REMARK SMILES IDX 2 1 1 2 3 6 4 7 5 8
REMARK H PARENT 1 3 1 4 1 5
REMARK Flexibility Score: inf
ROOT
ATOM      1  C   UNL     1      87.857 132.744  57.957  1.00  0.00     0.312 C 
ENDROOT
BRANCH   1   2
ATOM      2  N   UNL     1      86.603 132.181  57.459  1.00  0.00    -0.353 N 
ATOM      3  H   UNL     1      86.018 131.844  58.258  1.00  0.00     0.344 HD
ATOM      4  H   UNL     1      86.817 131.374  56.830  1.00  0.00     0.344 HD
ATOM      5  H   UNL     1      86.077 132.904  56.915  1.00  0.00     0.344 HD
ENDBRANCH   1   2
BRANCH   1   6
ATOM      6  C   UNL     1      87.887 132.724  59.454  1.00  0.00     0.096 C 
ATOM      7  O   UNL     1      86.814 132.777  60.111  1.00  0.00    -0.544 OA
ATOM      8  O   UNL     1      89.097 132.593  60.124  1.00  0.00    -0.544 OA
ENDBRANCH   1   6
TORSDOF 2
ENDMDL
MODEL 6
REMARK VINA RESULT:    -2.139     18.968     19.491
REMARK INTER + INTRA:          -2.327
REMARK INTER:                  -2.327
REMARK INTRA:                   0.000
REMARK UNBOUND:                 0.000
REMARK SMILES [NH3+]CC(=O)[O-]
REMARK SMILES IDX 2 1 1 2 3 6 4 7 5 8
REMARK H PARENT 1 3 1 4 1 5
REMARK Flexibility Score: inf
ROOT
ATOM      1  C   UNL     1      73.777 146.337  57.397  1.00  0.00     0.312 C 
ENDROOT
BRANCH   1   2
ATOM      2  N   UNL     1      75.101 146.882  57.685  1.00  0.00    -0.353 N 
ATOM      3  H   UNL     1      75.180 147.118  58.701  1.00  0.00     0.344 HD
ATOM      4  H   UNL     1      75.243 147.752  57.124  1.00  0.00     0.344 HD
ATOM      5  H   UNL     1      75.839 146.187  57.425  1.00  0.00     0.344 HD
ENDBRANCH   1   2
BRANCH   1   6
ATOM      6  C   UNL     1      73.043 146.031  58.667  1.00  0.00     0.096 C 
ATOM      7  O   UNL     1      72.034 146.708  58.995  1.00  0.00    -0.544 OA
ATOM      8  O   UNL     1      73.444 144.964  59.462  1.00  0.00    -0.544 OA
ENDBRANCH   1   6
TORSDOF 2
ENDMDL
MODEL 7
REMARK VINA RESULT:    -2.118      2.155      2.251
REMARK INTER + INTRA:          -2.303
REMARK INTER:                  -2.303
REMARK INTRA:                   0.000
REMARK UNBOUND:                 0.000
REMARK SMILES [NH3+]CC(=O)[O-]
REMARK SMILES IDX 2 1 1 2 3 6 4 7 5 8
REMARK H PARENT 1 3 1 4 1 5
REMARK Flexibility Score: inf
ROOT
ATOM      1  C   UNL     1      86.144 132.878  58.334  1.00  0.00     0.312 C 
ENDROOT
BRANCH   1   2
ATOM      2  N   UNL     1      86.761 132.119  57.249  1.00  0.00    -0.353 N 
ATOM      3  H   UNL     1      86.168 131.292  57.006  1.00  0.00     0.344 HD
ATOM      4  H   UNL     1      87.701 131.781  57.559  1.00  0.00     0.344 HD
ATOM      5  H   UNL     1      86.881 132.729  56.408  1.00  0.00     0.344 HD
ENDBRANCH   1   2
BRANCH   1   6
ATOM      6  C   UNL     1      87.155 133.212  59.388  1.00  0.00     0.096 C 
ATOM      7  O   UNL     1      87.678 132.297  60.077  1.00  0.00    -0.544 OA
ATOM      8  O   UNL     1      87.557 134.529  59.574  1.00  0.00    -0.544 OA
ENDBRANCH   1   6
TORSDOF 2
ENDMDL
MODEL 8
REMARK VINA RESULT:    -2.111     24.203     24.677
REMARK INTER + INTRA:          -2.297
REMARK INTER:                  -2.297
REMARK INTRA:                   0.000
REMARK UNBOUND:                 0.000
REMARK SMILES [NH3+]CC(=O)[O-]
REMARK SMILES IDX 2 1 1 2 3 6 4 7 5 8
REMARK H PARENT 1 3 1 4 1 5
REMARK Flexibility Score: inf
ROOT
ATOM      1  C   UNL     1      72.570 139.486  42.053  1.00  0.00     0.312 C 
ENDROOT
BRANCH   1   2
ATOM      2  N   UNL     1      72.251 140.880  41.752  1.00  0.00    -0.353 N 
ATOM      3  H   UNL     1      71.737 140.942  40.843  1.00  0.00     0.344 HD
ATOM      4  H   UNL     1      73.139 141.426  41.679  1.00  0.00     0.344 HD
ATOM      5  H   UNL     1      71.665 141.286  42.518  1.00  0.00     0.344 HD
ENDBRANCH   1   2
BRANCH   1   6
ATOM      6  C   UNL     1      72.961 138.752  40.808  1.00  0.00     0.096 C 
ATOM      7  O   UNL     1      72.129 138.598  39.875  1.00  0.00    -0.544 OA
ATOM      8  O   UNL     1      74.260 138.283  40.655  1.00  0.00    -0.544 OA
ENDBRANCH   1   6
TORSDOF 2
ENDMDL
MODEL 9
REMARK VINA RESULT:    -2.033      2.648      2.799
REMARK INTER + INTRA:          -2.211
REMARK INTER:                  -2.211
REMARK INTRA:                   0.000
REMARK UNBOUND:                 0.000
REMARK SMILES [NH3+]CC(=O)[O-]
REMARK SMILES IDX 2 1 1 2 3 6 4 7 5 8
REMARK H PARENT 1 3 1 4 1 5
REMARK Flexibility Score: inf
ROOT
ATOM      1  C   UNL     1      88.526 132.683  59.831  1.00  0.00     0.312 C 
ENDROOT
BRANCH   1   2
ATOM      2  N   UNL     1      87.207 132.080  60.012  1.00  0.00    -0.353 N 
ATOM      3  H   UNL     1      87.132 131.661  60.967  1.00  0.00     0.344 HD
ATOM      4  H   UNL     1      87.076 131.326  59.300  1.00  0.00     0.344 HD
ATOM      5  H   UNL     1      86.462 132.803  59.882  1.00  0.00     0.344 HD
ENDBRANCH   1   2
BRANCH   1   6
ATOM      6  C   UNL     1      88.732 133.086  58.403  1.00  0.00     0.096 C 
ATOM      7  O   UNL     1      88.798 132.210  57.501  1.00  0.00    -0.544 OA
ATOM      8  O   UNL     1      88.800 134.431  58.062  1.00  0.00    -0.544 OA
ENDBRANCH   1   6
TORSDOF 2
ENDMDL
