MODEL 1
REMARK VINA RESULT:    -5.725      0.000      0.000
REMARK INTER + INTRA:          -6.098
REMARK INTER:                  -6.059
REMARK INTRA:                  -0.039
REMARK UNBOUND:                -0.039
REMARK SMILES COc1ccc2ccc(=O)oc2c1
REMARK SMILES IDX 3 1 13 2 12 3 6 4 5 5 4 6 7 7 8 8 9 9 10 10 11 11 2 12 1 13
REMARK H PARENT
REMARK Flexibility Score: inf
ROOT
ATOM      1  C   UNL     1     -22.127  -0.623  22.422  1.00  0.00     0.122 A 
ATOM      2  C   UNL     1     -21.751  -0.608  21.064  1.00  0.00     0.094 A 
ATOM      3  C   UNL     1     -21.372  -1.795  20.424  1.00  0.00     0.142 A 
ATOM      4  C   UNL     1     -21.364  -3.009  21.143  1.00  0.00     0.018 A 
ATOM      5  C   UNL     1     -21.738  -3.023  22.494  1.00  0.00     0.016 A 
ATOM      6  C   UNL     1     -22.116  -1.835  23.125  1.00  0.00     0.047 A 
ATOM      7  C   UNL     1     -20.981  -4.176  20.477  1.00  0.00     0.019 A 
ATOM      8  C   UNL     1     -20.618  -4.110  19.132  1.00  0.00     0.094 A 
ATOM      9  C   UNL     1     -20.648  -2.870  18.483  1.00  0.00     0.336 A 
ATOM     10  O   UNL     1     -20.325  -2.789  17.270  1.00  0.00    -0.246 OA
ATOM     11  O   UNL     1     -21.018  -1.775  19.141  1.00  0.00    -0.423 OA
ENDROOT
BRANCH   1  12
ATOM     12  O   UNL     1     -22.514   0.540  23.106  1.00  0.00    -0.497 OA
ATOM     13  C   UNL     1     -22.891   1.757  22.473  1.00  0.00     0.278 C 
ENDBRANCH   1  12
TORSDOF 1
ENDMDL
MODEL 2
REMARK VINA RESULT:    -5.655      1.051      1.348
REMARK INTER + INTRA:          -6.024
REMARK INTER:                  -5.986
REMARK INTRA:                  -0.038
REMARK UNBOUND:                -0.039
REMARK SMILES COc1ccc2ccc(=O)oc2c1
REMARK SMILES IDX 3 1 13 2 12 3 6 4 5 5 4 6 7 7 8 8 9 9 10 10 11 11 2 12 1 13
REMARK H PARENT
REMARK Flexibility Score: inf
ROOT
ATOM      1  C   UNL     1     -21.847  -1.929  22.118  1.00  0.00     0.122 A 
ATOM      2  C   UNL     1     -21.716  -1.471  20.792  1.00  0.00     0.094 A 
ATOM      3  C   UNL     1     -21.115  -2.283  19.822  1.00  0.00     0.142 A 
ATOM      4  C   UNL     1     -20.638  -3.563  20.174  1.00  0.00     0.018 A 
ATOM      5  C   UNL     1     -20.769  -4.018  21.493  1.00  0.00     0.016 A 
ATOM      6  C   UNL     1     -21.370  -3.203  22.456  1.00  0.00     0.047 A 
ATOM      7  C   UNL     1     -20.044  -4.350  19.184  1.00  0.00     0.019 A 
ATOM      8  C   UNL     1     -19.937  -3.851  17.885  1.00  0.00     0.094 A 
ATOM      9  C   UNL     1     -20.432  -2.571  17.609  1.00  0.00     0.336 A 
ATOM     10  O   UNL     1     -20.346  -2.103  16.444  1.00  0.00    -0.246 OA
ATOM     11  O   UNL     1     -20.994  -1.844  18.571  1.00  0.00    -0.423 OA
ENDROOT
BRANCH   1  12
ATOM     12  O   UNL     1     -22.441  -1.153  23.125  1.00  0.00    -0.497 OA
ATOM     13  C   UNL     1     -22.507   0.268  23.112  1.00  0.00     0.278 C 
ENDBRANCH   1  12
TORSDOF 1
ENDMDL
MODEL 3
REMARK VINA RESULT:    -5.532      1.029      4.734
REMARK INTER + INTRA:          -5.894
REMARK INTER:                  -5.863
REMARK INTRA:                  -0.031
REMARK UNBOUND:                -0.039
REMARK SMILES COc1ccc2ccc(=O)oc2c1
REMARK SMILES IDX 3 1 13 2 12 3 6 4 5 5 4 6 7 7 8 8 9 9 10 10 11 11 2 12 1 13
REMARK H PARENT
REMARK Flexibility Score: inf
ROOT
ATOM      1  C   UNL     1     -20.650  -3.168  18.534  1.00  0.00     0.122 A 
ATOM      2  C   UNL     1     -21.041  -1.946  19.117  1.00  0.00     0.094 A 
ATOM      3  C   UNL     1     -21.403  -1.893  20.468  1.00  0.00     0.142 A 
ATOM      4  C   UNL     1     -21.377  -3.069  21.249  1.00  0.00     0.018 A 
ATOM      5  C   UNL     1     -20.988  -4.283  20.668  1.00  0.00     0.016 A 
ATOM      6  C   UNL     1     -20.628  -4.328  19.319  1.00  0.00     0.047 A 
ATOM      7  C   UNL     1     -21.743  -2.984  22.595  1.00  0.00     0.019 A 
ATOM      8  C   UNL     1     -22.123  -1.751  23.125  1.00  0.00     0.094 A 
ATOM      9  C   UNL     1     -22.126  -0.627  22.291  1.00  0.00     0.336 A 
ATOM     10  O   UNL     1     -22.465   0.495  22.750  1.00  0.00    -0.246 OA
ATOM     11  O   UNL     1     -21.772  -0.736  21.013  1.00  0.00    -0.423 OA
ENDROOT
BRANCH   1  12
ATOM     12  O   UNL     1     -20.279  -3.270  17.184  1.00  0.00    -0.497 OA
ATOM     13  C   UNL     1     -18.946  -3.477  16.730  1.00  0.00     0.278 C 
ENDBRANCH   1  12
TORSDOF 1
ENDMDL
MODEL 4
REMARK VINA RESULT:    -5.458      1.750      4.718
REMARK INTER + INTRA:          -5.815
REMARK INTER:                  -5.779
REMARK INTRA:                  -0.036
REMARK UNBOUND:                -0.039
REMARK SMILES COc1ccc2ccc(=O)oc2c1
REMARK SMILES IDX 3 1 13 2 12 3 6 4 5 5 4 6 7 7 8 8 9 9 10 10 11 11 2 12 1 13
REMARK H PARENT
REMARK Flexibility Score: inf
ROOT
ATOM      1  C   UNL     1     -20.844  -2.337  17.609  1.00  0.00     0.122 A 
ATOM      2  C   UNL     1     -21.541  -1.742  18.680  1.00  0.00     0.094 A 
ATOM      3  C   UNL     1     -21.461  -2.290  19.965  1.00  0.00     0.142 A 
ATOM      4  C   UNL     1     -20.680  -3.444  20.190  1.00  0.00     0.018 A 
ATOM      5  C   UNL     1     -19.988  -4.036  19.125  1.00  0.00     0.016 A 
ATOM      6  C   UNL     1     -20.072  -3.482  17.845  1.00  0.00     0.047 A 
ATOM      7  C   UNL     1     -20.620  -3.968  21.484  1.00  0.00     0.019 A 
ATOM      8  C   UNL     1     -21.329  -3.342  22.510  1.00  0.00     0.094 A 
ATOM      9  C   UNL     1     -22.083  -2.201  22.213  1.00  0.00     0.336 A 
ATOM     10  O   UNL     1     -22.729  -1.621  23.125  1.00  0.00    -0.246 OA
ATOM     11  O   UNL     1     -22.122  -1.724  20.972  1.00  0.00    -0.423 OA
ENDROOT
BRANCH   1  12
ATOM     12  O   UNL     1     -20.893  -1.824  16.304  1.00  0.00    -0.497 OA
ATOM     13  C   UNL     1     -19.778  -1.759  15.423  1.00  0.00     0.278 C 
ENDBRANCH   1  12
TORSDOF 1
ENDMDL
MODEL 5
REMARK VINA RESULT:    -5.231      2.035      3.003
REMARK INTER + INTRA:          -5.575
REMARK INTER:                  -5.540
REMARK INTRA:                  -0.035
REMARK UNBOUND:                -0.039
REMARK SMILES COc1ccc2ccc(=O)oc2c1
REMARK SMILES IDX 3 1 13 2 12 3 6 4 5 5 4 6 7 7 8 8 9 9 10 10 11 11 2 12 1 13
REMARK H PARENT
REMARK Flexibility Score: inf
ROOT
ATOM      1  C   UNL     1     -21.382  -2.446  20.911  1.00  0.00     0.122 A 
ATOM      2  C   UNL     1     -21.703  -1.917  19.645  1.00  0.00     0.094 A 
ATOM      3  C   UNL     1     -20.912  -2.223  18.531  1.00  0.00     0.142 A 
ATOM      4  C   UNL     1     -19.787  -3.064  18.678  1.00  0.00     0.018 A 
ATOM      5  C   UNL     1     -19.469  -3.589  19.937  1.00  0.00     0.016 A 
ATOM      6  C   UNL     1     -20.263  -3.279  21.044  1.00  0.00     0.047 A 
ATOM      7  C   UNL     1     -19.017  -3.351  17.548  1.00  0.00     0.019 A 
ATOM      8  C   UNL     1     -19.377  -2.803  16.317  1.00  0.00     0.094 A 
ATOM      9  C   UNL     1     -20.505  -1.977  16.247  1.00  0.00     0.336 A 
ATOM     10  O   UNL     1     -20.846  -1.473  15.145  1.00  0.00    -0.246 OA
ATOM     11  O   UNL     1     -21.220  -1.720  17.338  1.00  0.00    -0.423 OA
ENDROOT
BRANCH   1  12
ATOM     12  O   UNL     1     -22.144  -2.168  22.056  1.00  0.00    -0.497 OA
ATOM     13  C   UNL     1     -22.530  -3.140  23.021  1.00  0.00     0.278 C 
ENDBRANCH   1  12
TORSDOF 1
ENDMDL
MODEL 6
REMARK VINA RESULT:    -5.202      2.174      5.589
REMARK INTER + INTRA:          -5.545
REMARK INTER:                  -5.505
REMARK INTRA:                  -0.040
REMARK UNBOUND:                -0.039
REMARK SMILES COc1ccc2ccc(=O)oc2c1
REMARK SMILES IDX 3 1 13 2 12 3 6 4 5 5 4 6 7 7 8 8 9 9 10 10 11 11 2 12 1 13
REMARK H PARENT
REMARK Flexibility Score: inf
ROOT
ATOM      1  C   UNL     1     -19.392  -4.028  17.669  1.00  0.00     0.122 A 
ATOM      2  C   UNL     1     -19.602  -4.343  19.026  1.00  0.00     0.094 A 
ATOM      3  C   UNL     1     -20.395  -3.513  19.828  1.00  0.00     0.142 A 
ATOM      4  C   UNL     1     -20.985  -2.356  19.275  1.00  0.00     0.018 A 
ATOM      5  C   UNL     1     -20.775  -2.043  17.925  1.00  0.00     0.016 A 
ATOM      6  C   UNL     1     -19.984  -2.876  17.131  1.00  0.00     0.047 A 
ATOM      7  C   UNL     1     -21.770  -1.548  20.101  1.00  0.00     0.019 A 
ATOM      8  C   UNL     1     -21.948  -1.903  21.438  1.00  0.00     0.094 A 
ATOM      9  C   UNL     1     -21.332  -3.065  21.918  1.00  0.00     0.336 A 
ATOM     10  O   UNL     1     -21.480  -3.402  23.121  1.00  0.00    -0.246 OA
ATOM     11  O   UNL     1     -20.589  -3.816  21.110  1.00  0.00    -0.423 OA
ENDROOT
BRANCH   1  12
ATOM     12  O   UNL     1     -18.607  -4.828  16.825  1.00  0.00    -0.497 OA
ATOM     13  C   UNL     1     -18.304  -4.514  15.471  1.00  0.00     0.278 C 
ENDBRANCH   1  12
TORSDOF 1
ENDMDL
MODEL 7
REMARK VINA RESULT:    -5.027      2.351      3.612
REMARK INTER + INTRA:          -5.360
REMARK INTER:                  -5.320
REMARK INTRA:                  -0.040
REMARK UNBOUND:                -0.039
REMARK SMILES COc1ccc2ccc(=O)oc2c1
REMARK SMILES IDX 3 1 13 2 12 3 6 4 5 5 4 6 7 7 8 8 9 9 10 10 11 11 2 12 1 13
REMARK H PARENT
REMARK Flexibility Score: inf
ROOT
ATOM      1  C   UNL     1     -20.867  -3.102  20.801  1.00  0.00     0.122 A 
ATOM      2  C   UNL     1     -19.804  -3.587  20.014  1.00  0.00     0.094 A 
ATOM      3  C   UNL     1     -19.712  -3.238  18.661  1.00  0.00     0.142 A 
ATOM      4  C   UNL     1     -20.689  -2.399  18.084  1.00  0.00     0.018 A 
ATOM      5  C   UNL     1     -21.746  -1.917  18.867  1.00  0.00     0.016 A 
ATOM      6  C   UNL     1     -21.830  -2.269  20.217  1.00  0.00     0.047 A 
ATOM      7  C   UNL     1     -20.570  -2.069  16.731  1.00  0.00     0.019 A 
ATOM      8  C   UNL     1     -19.499  -2.574  15.994  1.00  0.00     0.094 A 
ATOM      9  C   UNL     1     -18.568  -3.402  16.633  1.00  0.00     0.336 A 
ATOM     10  O   UNL     1     -17.594  -3.868  15.986  1.00  0.00    -0.246 OA
ATOM     11  O   UNL     1     -18.705  -3.700  17.922  1.00  0.00    -0.423 OA
ENDROOT
BRANCH   1  12
ATOM     12  O   UNL     1     -21.001  -3.423  22.160  1.00  0.00    -0.497 OA
ATOM     13  C   UNL     1     -22.137  -3.100  22.955  1.00  0.00     0.278 C 
ENDBRANCH   1  12
TORSDOF 1
ENDMDL
MODEL 8
REMARK VINA RESULT:    -4.974      2.538      4.733
REMARK INTER + INTRA:          -5.303
REMARK INTER:                  -5.271
REMARK INTRA:                  -0.032
REMARK UNBOUND:                -0.039
REMARK SMILES COc1ccc2ccc(=O)oc2c1
REMARK SMILES IDX 3 1 13 2 12 3 6 4 5 5 4 6 7 7 8 8 9 9 10 10 11 11 2 12 1 13
REMARK H PARENT
REMARK Flexibility Score: inf
ROOT
ATOM      1  C   UNL     1     -22.381  -1.139  16.858  1.00  0.00     0.122 A 
ATOM      2  C   UNL     1     -22.651  -1.149  18.241  1.00  0.00     0.094 A 
ATOM      3  C   UNL     1     -21.836  -1.880  19.113  1.00  0.00     0.142 A 
ATOM      4  C   UNL     1     -20.741  -2.611  18.605  1.00  0.00     0.018 A 
ATOM      5  C   UNL     1     -20.473  -2.601  17.230  1.00  0.00     0.016 A 
ATOM      6  C   UNL     1     -21.291  -1.868  16.366  1.00  0.00     0.047 A 
ATOM      7  C   UNL     1     -19.946  -3.331  19.501  1.00  0.00     0.019 A 
ATOM      8  C   UNL     1     -20.255  -3.310  20.861  1.00  0.00     0.094 A 
ATOM      9  C   UNL     1     -21.357  -2.563  21.293  1.00  0.00     0.336 A 
ATOM     10  O   UNL     1     -21.652  -2.530  22.516  1.00  0.00    -0.246 OA
ATOM     11  O   UNL     1     -22.097  -1.887  20.419  1.00  0.00    -0.423 OA
ENDROOT
BRANCH   1  12
ATOM     12  O   UNL     1     -23.169  -0.421  15.945  1.00  0.00    -0.497 OA
ATOM     13  C   UNL     1     -23.912  -1.013  14.885  1.00  0.00     0.278 C 
ENDBRANCH   1  12
TORSDOF 1
ENDMDL
MODEL 9
REMARK VINA RESULT:    -4.414      1.293      4.684
REMARK INTER + INTRA:          -4.711
REMARK INTER:                  -4.679
REMARK INTRA:                  -0.032
REMARK UNBOUND:                -0.039
REMARK SMILES COc1ccc2ccc(=O)oc2c1
REMARK SMILES IDX 3 1 13 2 12 3 6 4 5 5 4 6 7 7 8 8 9 9 10 10 11 11 2 12 1 13
REMARK H PARENT
REMARK Flexibility Score: inf
ROOT
ATOM      1  C   UNL     1     -20.856  -3.248  19.516  1.00  0.00     0.122 A 
ATOM      2  C   UNL     1     -21.272  -1.902  19.551  1.00  0.00     0.094 A 
ATOM      3  C   UNL     1     -21.691  -1.325  20.755  1.00  0.00     0.142 A 
ATOM      4  C   UNL     1     -21.698  -2.094  21.939  1.00  0.00     0.018 A 
ATOM      5  C   UNL     1     -21.284  -3.432  21.903  1.00  0.00     0.016 A 
ATOM      6  C   UNL     1     -20.866  -4.001  20.698  1.00  0.00     0.047 A 
ATOM      7  C   UNL     1     -22.121  -1.489  23.125  1.00  0.00     0.019 A 
ATOM      8  C   UNL     1     -22.524  -0.153  23.107  1.00  0.00     0.094 A 
ATOM      9  C   UNL     1     -22.491   0.548  21.896  1.00  0.00     0.336 A 
ATOM     10  O   UNL     1     -22.850   1.754  21.859  1.00  0.00    -0.246 OA
ATOM     11  O   UNL     1     -22.083  -0.053  20.782  1.00  0.00    -0.423 OA
ENDROOT
BRANCH   1  12
ATOM     12  O   UNL     1     -20.427  -3.871  18.334  1.00  0.00    -0.497 OA
ATOM     13  C   UNL     1     -19.095  -4.310  18.093  1.00  0.00     0.278 C 
ENDBRANCH   1  12
TORSDOF 1
ENDMDL
