MODEL 1
REMARK VINA RESULT:    -5.352      0.000      0.000
REMARK INTER + INTRA:          -6.271
REMARK INTER:                  -6.134
REMARK INTRA:                  -0.137
REMARK UNBOUND:                -0.137
REMARK SMILES O=C([O-])C=Cc1ccc(O)cc1
REMARK SMILES IDX 6 1 7 2 12 3 8 4 11 5 9 6 5 7 4 8 2 9 1 10 3 11 10 12
REMARK H PARENT 10 13
REMARK Flexibility Score: inf
ROOT
ATOM      1  C   UNL     1       8.690  46.073  21.525  1.00  0.00    -0.025 A 
ATOM      2  C   UNL     1       9.555  46.974  22.180  1.00  0.00     0.012 A 
ATOM      3  C   UNL     1       7.920  45.189  22.302  1.00  0.00     0.012 A 
ATOM      4  C   UNL     1       9.624  47.001  23.577  1.00  0.00     0.047 A 
ATOM      5  C   UNL     1       7.993  45.220  23.697  1.00  0.00     0.047 A 
ATOM      6  C   UNL     1       8.841  46.126  24.338  1.00  0.00     0.115 A 
ENDROOT
BRANCH   1   7
ATOM      7  C   UNL     1       8.587  45.994  20.048  1.00  0.00     0.010 C 
ATOM      8  C   UNL     1       8.933  46.993  19.222  1.00  0.00     0.025 C 
BRANCH   8   9
ATOM      9  C   UNL     1       8.806  46.883  17.759  1.00  0.00     0.064 C 
ATOM     10  O   UNL     1       9.791  47.087  17.001  1.00  0.00    -0.545 OA
ATOM     11  O   UNL     1       7.577  46.550  17.204  1.00  0.00    -0.545 OA
ENDBRANCH   8   9
ENDBRANCH   1   7
BRANCH   6  12
ATOM     12  O   UNL     1       8.901  46.147  25.730  1.00  0.00    -0.508 OA
ATOM     13  H   UNL     1       9.519  45.529  26.243  1.00  0.00     0.293 HD
ENDBRANCH   6  12
TORSDOF 3
ENDMDL
MODEL 2
REMARK VINA RESULT:    -5.296      4.387      5.735
REMARK INTER + INTRA:          -6.207
REMARK INTER:                  -6.067
REMARK INTRA:                  -0.139
REMARK UNBOUND:                -0.137
REMARK SMILES O=C([O-])C=Cc1ccc(O)cc1
REMARK SMILES IDX 6 1 7 2 12 3 8 4 11 5 9 6 5 7 4 8 2 9 1 10 3 11 10 12
REMARK H PARENT 10 13
REMARK Flexibility Score: inf
ROOT
ATOM      1  C   UNL     1       6.468  48.425  22.912  1.00  0.00    -0.025 A 
ATOM      2  C   UNL     1       7.027  48.857  21.691  1.00  0.00     0.012 A 
ATOM      3  C   UNL     1       6.747  49.156  24.080  1.00  0.00     0.012 A 
ATOM      4  C   UNL     1       7.823  50.006  21.644  1.00  0.00     0.047 A 
ATOM      5  C   UNL     1       7.542  50.304  24.028  1.00  0.00     0.047 A 
ATOM      6  C   UNL     1       8.080  50.734  22.812  1.00  0.00     0.115 A 
ENDROOT
BRANCH   1   7
ATOM      7  C   UNL     1       5.628  47.208  23.020  1.00  0.00     0.010 C 
ATOM      8  C   UNL     1       5.946  46.147  23.777  1.00  0.00     0.025 C 
BRANCH   8   9
ATOM      9  C   UNL     1       5.094  44.949  23.851  1.00  0.00     0.064 C 
ATOM     10  O   UNL     1       5.208  44.014  23.013  1.00  0.00    -0.545 OA
ATOM     11  O   UNL     1       4.145  44.848  24.860  1.00  0.00    -0.545 OA
ENDBRANCH   8   9
ENDBRANCH   1   7
BRANCH   6  12
ATOM     12  O   UNL     1       8.870  51.881  22.775  1.00  0.00    -0.508 OA
ATOM     13  H   UNL     1       9.084  52.404  23.617  1.00  0.00     0.293 HD
ENDBRANCH   6  12
TORSDOF 3
ENDMDL
MODEL 3
REMARK VINA RESULT:    -5.292      4.664      6.204
REMARK INTER + INTRA:          -6.203
REMARK INTER:                  -6.059
REMARK INTRA:                  -0.143
REMARK UNBOUND:                -0.137
REMARK SMILES O=C([O-])C=Cc1ccc(O)cc1
REMARK SMILES IDX 6 1 7 2 12 3 8 4 11 5 9 6 5 7 4 8 2 9 1 10 3 11 10 12
REMARK H PARENT 10 13
REMARK Flexibility Score: inf
ROOT
ATOM      1  C   UNL     1      10.879  48.379  23.808  1.00  0.00    -0.025 A 
ATOM      2  C   UNL     1      11.230  47.990  22.498  1.00  0.00     0.012 A 
ATOM      3  C   UNL     1      11.869  48.366  24.806  1.00  0.00     0.012 A 
ATOM      4  C   UNL     1      12.546  47.625  22.197  1.00  0.00     0.047 A 
ATOM      5  C   UNL     1      13.183  48.000  24.500  1.00  0.00     0.047 A 
ATOM      6  C   UNL     1      13.526  47.631  23.197  1.00  0.00     0.115 A 
ENDROOT
BRANCH   1   7
ATOM      7  C   UNL     1       9.497  48.763  24.184  1.00  0.00     0.010 C 
ATOM      8  C   UNL     1       8.836  48.243  25.229  1.00  0.00     0.025 C 
BRANCH   8   9
ATOM      9  C   UNL     1       7.459  48.640  25.565  1.00  0.00     0.064 C 
ATOM     10  O   UNL     1       7.157  49.848  25.761  1.00  0.00    -0.545 OA
ATOM     11  O   UNL     1       6.474  47.666  25.669  1.00  0.00    -0.545 OA
ENDBRANCH   8   9
ENDBRANCH   1   7
BRANCH   6  12
ATOM     12  O   UNL     1      14.841  47.270  22.907  1.00  0.00    -0.508 OA
ATOM     13  H   UNL     1      15.054  46.548  22.229  1.00  0.00     0.293 HD
ENDBRANCH   6  12
TORSDOF 3
ENDMDL
MODEL 4
REMARK VINA RESULT:    -5.268      0.952      1.998
REMARK INTER + INTRA:          -6.175
REMARK INTER:                  -6.024
REMARK INTRA:                  -0.150
REMARK UNBOUND:                -0.137
REMARK SMILES O=C([O-])C=Cc1ccc(O)cc1
REMARK SMILES IDX 6 1 7 2 12 3 8 4 11 5 9 6 5 7 4 8 2 9 1 10 3 11 10 12
REMARK H PARENT 10 13
REMARK Flexibility Score: inf
ROOT
ATOM      1  C   UNL     1       9.106  46.507  22.391  1.00  0.00    -0.025 A 
ATOM      2  C   UNL     1       8.389  45.703  23.301  1.00  0.00     0.012 A 
ATOM      3  C   UNL     1       9.930  47.529  22.895  1.00  0.00     0.012 A 
ATOM      4  C   UNL     1       8.519  45.905  24.679  1.00  0.00     0.047 A 
ATOM      5  C   UNL     1      10.057  47.727  24.272  1.00  0.00     0.047 A 
ATOM      6  C   UNL     1       9.355  46.916  25.167  1.00  0.00     0.115 A 
ENDROOT
BRANCH   1   7
ATOM      7  C   UNL     1       8.996  46.343  20.921  1.00  0.00     0.010 C 
ATOM      8  C   UNL     1       9.229  47.329  20.041  1.00  0.00     0.025 C 
BRANCH   8   9
ATOM      9  C   UNL     1       9.097  47.133  18.588  1.00  0.00     0.064 C 
ATOM     10  O   UNL     1       8.165  46.436  18.105  1.00  0.00    -0.545 OA
ATOM     11  O   UNL     1      10.018  47.726  17.734  1.00  0.00    -0.545 OA
ENDBRANCH   8   9
ENDBRANCH   1   7
BRANCH   6  12
ATOM     12  O   UNL     1       9.493  47.124  26.539  1.00  0.00    -0.508 OA
ATOM     13  H   UNL     1       9.630  46.352  27.180  1.00  0.00     0.293 HD
ENDBRANCH   6  12
TORSDOF 3
ENDMDL
MODEL 5
REMARK VINA RESULT:    -5.256      3.239      6.488
REMARK INTER + INTRA:          -6.161
REMARK INTER:                  -6.008
REMARK INTRA:                  -0.153
REMARK UNBOUND:                -0.137
REMARK SMILES O=C([O-])C=Cc1ccc(O)cc1
REMARK SMILES IDX 6 1 7 2 12 3 8 4 11 5 9 6 5 7 4 8 2 9 1 10 3 11 10 12
REMARK H PARENT 10 13
REMARK Flexibility Score: inf
ROOT
ATOM      1  C   UNL     1       9.179  49.728  21.945  1.00  0.00    -0.025 A 
ATOM      2  C   UNL     1       9.068  50.553  20.807  1.00  0.00     0.012 A 
ATOM      3  C   UNL     1      10.020  48.603  21.887  1.00  0.00     0.012 A 
ATOM      4  C   UNL     1       9.804  50.268  19.652  1.00  0.00     0.047 A 
ATOM      5  C   UNL     1      10.754  48.323  20.731  1.00  0.00     0.047 A 
ATOM      6  C   UNL     1      10.651  49.153  19.613  1.00  0.00     0.115 A 
ENDROOT
BRANCH   1   7
ATOM      7  C   UNL     1       8.412  49.977  23.190  1.00  0.00     0.010 C 
ATOM      8  C   UNL     1       8.366  49.120  24.222  1.00  0.00     0.025 C 
BRANCH   8   9
ATOM      9  C   UNL     1       7.583  49.396  25.438  1.00  0.00     0.064 C 
ATOM     10  O   UNL     1       6.592  50.173  25.414  1.00  0.00    -0.545 OA
ATOM     11  O   UNL     1       7.945  48.790  26.634  1.00  0.00    -0.545 OA
ENDBRANCH   8   9
ENDBRANCH   1   7
BRANCH   6  12
ATOM     12  O   UNL     1      11.390  48.862  18.467  1.00  0.00    -0.508 OA
ATOM     13  H   UNL     1      11.344  49.451  17.644  1.00  0.00     0.293 HD
ENDBRANCH   6  12
TORSDOF 3
ENDMDL
MODEL 6
REMARK VINA RESULT:    -5.233      3.157      3.853
REMARK INTER + INTRA:          -6.135
REMARK INTER:                  -6.001
REMARK INTRA:                  -0.134
REMARK UNBOUND:                -0.137
REMARK SMILES O=C([O-])C=Cc1ccc(O)cc1
REMARK SMILES IDX 6 1 7 2 12 3 8 4 11 5 9 6 5 7 4 8 2 9 1 10 3 11 10 12
REMARK H PARENT 10 13
REMARK Flexibility Score: inf
ROOT
ATOM      1  C   UNL     1      11.347  47.572  21.624  1.00  0.00    -0.025 A 
ATOM      2  C   UNL     1      12.619  47.385  21.043  1.00  0.00     0.012 A 
ATOM      3  C   UNL     1      11.270  47.958  22.973  1.00  0.00     0.012 A 
ATOM      4  C   UNL     1      13.779  47.606  21.793  1.00  0.00     0.047 A 
ATOM      5  C   UNL     1      12.432  48.178  23.718  1.00  0.00     0.047 A 
ATOM      6  C   UNL     1      13.688  48.005  23.131  1.00  0.00     0.115 A 
ENDROOT
BRANCH   1   7
ATOM      7  C   UNL     1      10.086  47.340  20.878  1.00  0.00     0.010 C 
ATOM      8  C   UNL     1       9.900  47.697  19.598  1.00  0.00     0.025 C 
BRANCH   8   9
ATOM      9  C   UNL     1       8.629  47.462  18.894  1.00  0.00     0.064 C 
ATOM     10  O   UNL     1       8.510  46.527  18.057  1.00  0.00    -0.545 OA
ATOM     11  O   UNL     1       7.542  48.286  19.153  1.00  0.00    -0.545 OA
ENDBRANCH   8   9
ENDBRANCH   1   7
BRANCH   6  12
ATOM     12  O   UNL     1      14.838  48.229  23.886  1.00  0.00    -0.508 OA
ATOM     13  H   UNL     1      15.561  48.866  23.573  1.00  0.00     0.293 HD
ENDBRANCH   6  12
TORSDOF 3
ENDMDL
MODEL 7
REMARK VINA RESULT:    -5.186      4.543      5.003
REMARK INTER + INTRA:          -6.081
REMARK INTER:                  -5.943
REMARK INTRA:                  -0.138
REMARK UNBOUND:                -0.137
REMARK SMILES O=C([O-])C=Cc1ccc(O)cc1
REMARK SMILES IDX 6 1 7 2 12 3 8 4 11 5 9 6 5 7 4 8 2 9 1 10 3 11 10 12
REMARK H PARENT 10 13
REMARK Flexibility Score: inf
ROOT
ATOM      1  C   UNL     1       7.892  50.242  18.569  1.00  0.00    -0.025 A 
ATOM      2  C   UNL     1       9.097  49.862  19.197  1.00  0.00     0.012 A 
ATOM      3  C   UNL     1       7.014  51.100  19.254  1.00  0.00     0.012 A 
ATOM      4  C   UNL     1       9.419  50.352  20.466  1.00  0.00     0.047 A 
ATOM      5  C   UNL     1       7.341  51.587  20.522  1.00  0.00     0.047 A 
ATOM      6  C   UNL     1       8.543  51.218  21.131  1.00  0.00     0.115 A 
ENDROOT
BRANCH   1   7
ATOM      7  C   UNL     1       7.496  49.743  17.230  1.00  0.00     0.010 C 
ATOM      8  C   UNL     1       7.997  48.631  16.671  1.00  0.00     0.025 C 
BRANCH   8   9
ATOM      9  C   UNL     1       7.589  48.171  15.333  1.00  0.00     0.064 C 
ATOM     10  O   UNL     1       7.941  48.792  14.294  1.00  0.00    -0.545 OA
ATOM     11  O   UNL     1       6.801  47.034  15.213  1.00  0.00    -0.545 OA
ENDBRANCH   8   9
ENDBRANCH   1   7
BRANCH   6  12
ATOM     12  O   UNL     1       8.856  51.713  22.396  1.00  0.00    -0.508 OA
ATOM     13  H   UNL     1       8.626  51.198  23.237  1.00  0.00     0.293 HD
ENDBRANCH   6  12
TORSDOF 3
ENDMDL
MODEL 8
REMARK VINA RESULT:    -5.159      3.689      7.033
REMARK INTER + INTRA:          -6.050
REMARK INTER:                  -5.904
REMARK INTRA:                  -0.145
REMARK UNBOUND:                -0.137
REMARK SMILES O=C([O-])C=Cc1ccc(O)cc1
REMARK SMILES IDX 6 1 7 2 12 3 8 4 11 5 9 6 5 7 4 8 2 9 1 10 3 11 10 12
REMARK H PARENT 10 13
REMARK Flexibility Score: inf
ROOT
ATOM      1  C   UNL     1       6.203  46.059  24.752  1.00  0.00    -0.025 A 
ATOM      2  C   UNL     1       5.688  45.316  23.669  1.00  0.00     0.012 A 
ATOM      3  C   UNL     1       7.589  46.284  24.820  1.00  0.00     0.012 A 
ATOM      4  C   UNL     1       6.541  44.837  22.670  1.00  0.00     0.047 A 
ATOM      5  C   UNL     1       8.437  45.804  23.819  1.00  0.00     0.047 A 
ATOM      6  C   UNL     1       7.918  45.082  22.741  1.00  0.00     0.115 A 
ENDROOT
BRANCH   1   7
ATOM      7  C   UNL     1       5.345  46.579  25.845  1.00  0.00     0.010 C 
ATOM      8  C   UNL     1       5.527  47.770  26.433  1.00  0.00     0.025 C 
BRANCH   8   9
ATOM      9  C   UNL     1       4.662  48.248  27.524  1.00  0.00     0.064 C 
ATOM     10  O   UNL     1       4.176  49.411  27.510  1.00  0.00    -0.545 OA
ATOM     11  O   UNL     1       4.377  47.404  28.589  1.00  0.00    -0.545 OA
ENDBRANCH   8   9
ENDBRANCH   1   7
BRANCH   6  12
ATOM     12  O   UNL     1       8.776  44.611  21.750  1.00  0.00    -0.508 OA
ATOM     13  H   UNL     1       9.780  44.586  21.886  1.00  0.00     0.293 HD
ENDBRANCH   6  12
TORSDOF 3
ENDMDL
MODEL 9
REMARK VINA RESULT:    -5.125      3.808      4.930
REMARK INTER + INTRA:          -6.011
REMARK INTER:                  -5.876
REMARK INTRA:                  -0.135
REMARK UNBOUND:                -0.137
REMARK SMILES O=C([O-])C=Cc1ccc(O)cc1
REMARK SMILES IDX 6 1 7 2 12 3 8 4 11 5 9 6 5 7 4 8 2 9 1 10 3 11 10 12
REMARK H PARENT 10 13
REMARK Flexibility Score: inf
ROOT
ATOM      1  C   UNL     1       7.898  45.999  24.036  1.00  0.00    -0.025 A 
ATOM      2  C   UNL     1       7.502  45.051  23.069  1.00  0.00     0.012 A 
ATOM      3  C   UNL     1       6.923  46.543  24.889  1.00  0.00     0.012 A 
ATOM      4  C   UNL     1       6.166  44.645  22.982  1.00  0.00     0.047 A 
ATOM      5  C   UNL     1       5.590  46.134  24.799  1.00  0.00     0.047 A 
ATOM      6  C   UNL     1       5.208  45.184  23.849  1.00  0.00     0.115 A 
ENDROOT
BRANCH   1   7
ATOM      7  C   UNL     1       9.298  46.473  24.162  1.00  0.00     0.010 C 
ATOM      8  C   UNL     1       9.774  47.564  23.544  1.00  0.00     0.025 C 
BRANCH   8   9
ATOM      9  C   UNL     1      11.174  47.999  23.683  1.00  0.00     0.064 C 
ATOM     10  O   UNL     1      11.628  48.391  24.791  1.00  0.00    -0.545 OA
ATOM     11  O   UNL     1      12.009  47.978  22.573  1.00  0.00    -0.545 OA
ENDBRANCH   8   9
ENDBRANCH   1   7
BRANCH   6  12
ATOM     12  O   UNL     1       3.875  44.784  23.771  1.00  0.00    -0.508 OA
ATOM     13  H   UNL     1       3.539  43.966  24.266  1.00  0.00     0.293 HD
ENDBRANCH   6  12
TORSDOF 3
ENDMDL
