MODEL 1
REMARK VINA RESULT:    13.976      0.000      0.000
REMARK INTER + INTRA:          22.064
REMARK INTER:                  19.696
REMARK INTRA:                   2.368
REMARK UNBOUND:                 2.368
REMARK SMILES CC1=CCC(=C(C)C)C(=O)CC(C)=CCC1
REMARK SMILES IDX 12 1 14 2 13 3 15 4 16 5 2 6 1 7 3 8 11 10 9 11 10 12 5 13
REMARK SMILES IDX 6 14 7 15 8 16 4 17
REMARK H PARENT
REMARK Flexibility Score: 60.00
ROOT
ATOM      1  C   UNL     1     -28.259  42.068 -26.391  1.00  0.00    -0.070 C 
ATOM      2  C   UNL     1     -29.157  43.062 -26.563  1.00  0.00    -0.027 C 
ATOM      3  C   UNL     1     -26.838  42.448 -26.059  1.00  0.00     0.039 C 
ENDROOT
BRANCH   2   4
ATOM      4  C   UNL     1     -30.598  42.887 -26.992  1.00  0.00     0.032 C 
BRANCH   4   5
ATOM      5  C   UNL     1     -31.247  41.558 -26.553  1.00  0.00     0.034 C 
BRANCH   5   6
ATOM      6  C   UNL     1     -31.663  41.551 -25.092  1.00  0.00    -0.077 C 
ATOM      7  C   UNL     1     -32.103  42.858 -24.482  1.00  0.00     0.039 C 
ATOM      8  C   UNL     1     -31.599  40.464 -24.285  1.00  0.00    -0.023 CG0
ATOM      9  G   UNL     1     -31.210  39.053 -24.680  1.00  0.00     0.000 G0
ENDBRANCH   5   6
ENDBRANCH   4   5
ENDBRANCH   2   4
BRANCH   1  10
ATOM     10  C   UNL     1     -28.587  40.604 -26.606  1.00  0.00     0.111 C 
BRANCH  10  11
ATOM     11  C   UNL     1     -28.961  39.922 -25.317  1.00  0.00     0.163 C 
ATOM     12  O   UNL     1     -28.412  40.319 -24.254  1.00  0.00    -0.294 OA
BRANCH  11  13
ATOM     13  C   UNL     1     -29.904  38.765 -25.266  1.00  0.00    -0.002 C 
ATOM     14  C   UNL     1     -29.574  37.569 -25.839  1.00  0.00    -0.069 C 
ATOM     15  C   UNL     1     -30.566  36.430 -25.944  1.00  0.00     0.039 C 
ATOM     16  C   UNL     1     -28.191  37.323 -26.400  1.00  0.00     0.039 C 
BRANCH  13  17
ATOM     17  C   UNL     1     -31.270  39.007 -24.642  1.00  0.00     0.066 CG0
ATOM     18  G   UNL     1     -31.511  40.472 -24.335  1.00  0.00     0.000 G0
ENDBRANCH  13  17
ENDBRANCH  11  13
ENDBRANCH  10  11
ENDBRANCH   1  10
TORSDOF 0
ENDMDL
MODEL 2
REMARK VINA RESULT:    15.534     14.516     15.889
REMARK INTER + INTRA:          24.259
REMARK INTER:                  22.567
REMARK INTRA:                   1.692
REMARK UNBOUND:                 2.368
REMARK SMILES CC1=CCC(=C(C)C)C(=O)CC(C)=CCC1
REMARK SMILES IDX 12 1 14 2 13 3 15 4 16 5 2 6 1 7 3 8 11 10 9 11 10 12 5 13
REMARK SMILES IDX 6 14 7 15 8 16 4 17
REMARK H PARENT
REMARK Flexibility Score: 60.00
ROOT
ATOM      1  C   UNL     1     -28.771  33.764 -13.208  1.00  0.00    -0.070 C 
ATOM      2  C   UNL     1     -27.590  33.485 -13.802  1.00  0.00    -0.027 C 
ATOM      3  C   UNL     1     -30.013  33.752 -14.065  1.00  0.00     0.039 C 
ENDROOT
BRANCH   2   4
ATOM      4  C   UNL     1     -26.232  33.543 -13.136  1.00  0.00     0.032 C 
BRANCH   4   5
ATOM      5  C   UNL     1     -25.229  34.514 -13.792  1.00  0.00     0.034 C 
BRANCH   5   6
ATOM      6  C   UNL     1     -24.484  35.374 -12.786  1.00  0.00    -0.077 C 
ATOM      7  C   UNL     1     -23.408  36.292 -13.310  1.00  0.00     0.039 C 
ATOM      8  C   UNL     1     -24.674  35.320 -11.446  1.00  0.00    -0.023 CG0
ATOM      9  G   UNL     1     -25.704  34.493 -10.701  1.00  0.00     0.000 G0
ENDBRANCH   5   6
ENDBRANCH   4   5
ENDBRANCH   2   4
BRANCH   1  10
ATOM     10  C   UNL     1     -28.896  34.177 -11.755  1.00  0.00     0.111 C 
BRANCH  10  11
ATOM     11  C   UNL     1     -28.003  35.345 -11.430  1.00  0.00     0.163 C 
ATOM     12  O   UNL     1     -28.125  36.395 -12.117  1.00  0.00    -0.294 OA
BRANCH  11  13
ATOM     13  C   UNL     1     -26.950  35.280 -10.373  1.00  0.00    -0.002 C 
ATOM     14  C   UNL     1     -27.084  35.981  -9.208  1.00  0.00    -0.069 C 
ATOM     15  C   UNL     1     -25.969  36.063  -8.189  1.00  0.00     0.039 C 
ATOM     16  C   UNL     1     -28.364  36.718  -8.879  1.00  0.00     0.039 C 
BRANCH  13  17
ATOM     17  C   UNL     1     -25.694  34.483 -10.691  1.00  0.00     0.066 CG0
ATOM     18  G   UNL     1     -24.665  35.307 -11.440  1.00  0.00     0.000 G0
ENDBRANCH  13  17
ENDBRANCH  11  13
ENDBRANCH  10  11
ENDBRANCH   1  10
TORSDOF 0
ENDMDL
MODEL 3
REMARK VINA RESULT:    16.018     14.380     15.561
REMARK INTER + INTRA:          24.941
REMARK INTER:                  23.607
REMARK INTRA:                   1.334
REMARK UNBOUND:                 2.368
REMARK SMILES CC1=CCC(=C(C)C)C(=O)CC(C)=CCC1
REMARK SMILES IDX 12 1 14 2 13 3 15 4 16 5 2 6 1 7 3 8 11 10 9 11 10 12 5 13
REMARK SMILES IDX 6 14 7 15 8 16 4 17
REMARK H PARENT
REMARK Flexibility Score: 60.00
ROOT
ATOM      1  C   UNL     1     -25.240  34.695 -12.766  1.00  0.00    -0.070 C 
ATOM      2  C   UNL     1     -25.738  34.508 -14.007  1.00  0.00    -0.027 C 
ATOM      3  C   UNL     1     -24.052  35.612 -12.612  1.00  0.00     0.039 C 
ENDROOT
BRANCH   2   4
ATOM      4  C   UNL     1     -26.857  33.557 -14.375  1.00  0.00     0.032 C 
BRANCH   4   5
ATOM      5  C   UNL     1     -28.272  34.168 -14.313  1.00  0.00     0.034 C 
BRANCH   5   6
ATOM      6  C   UNL     1     -29.003  33.853 -13.020  1.00  0.00    -0.077 C 
ATOM      7  C   UNL     1     -29.912  32.649 -13.004  1.00  0.00     0.039 C 
ATOM      8  C   UNL     1     -28.946  34.619 -11.904  1.00  0.00    -0.023 CG0
ATOM      9  G   UNL     1     -28.093  35.853 -11.684  1.00  0.00     0.000 G0
ENDBRANCH   5   6
ENDBRANCH   4   5
ENDBRANCH   2   4
BRANCH   1  10
ATOM     10  C   UNL     1     -25.754  33.963 -11.543  1.00  0.00     0.111 C 
BRANCH  10  11
ATOM     11  C   UNL     1     -26.056  34.911 -10.412  1.00  0.00     0.163 C 
ATOM     12  O   UNL     1     -25.267  34.935  -9.430  1.00  0.00    -0.294 OA
BRANCH  11  13
ATOM     13  C   UNL     1     -27.279  35.768 -10.391  1.00  0.00    -0.002 C 
ATOM     14  C   UNL     1     -27.686  36.376  -9.236  1.00  0.00    -0.069 C 
ATOM     15  C   UNL     1     -29.001  37.118  -9.142  1.00  0.00     0.039 C 
ATOM     16  C   UNL     1     -26.835  36.334  -7.986  1.00  0.00     0.039 C 
BRANCH  13  17
ATOM     17  C   UNL     1     -28.092  35.853 -11.673  1.00  0.00     0.066 CG0
ATOM     18  G   UNL     1     -28.947  34.620 -11.894  1.00  0.00     0.000 G0
ENDBRANCH  13  17
ENDBRANCH  11  13
ENDBRANCH  10  11
ENDBRANCH   1  10
TORSDOF 0
ENDMDL
MODEL 4
REMARK VINA RESULT:    16.180     15.462     16.559
REMARK INTER + INTRA:          25.169
REMARK INTER:                  23.580
REMARK INTRA:                   1.589
REMARK UNBOUND:                 2.368
REMARK SMILES CC1=CCC(=C(C)C)C(=O)CC(C)=CCC1
REMARK SMILES IDX 12 1 14 2 13 3 15 4 16 5 2 6 1 7 3 8 11 10 9 11 10 12 5 13
REMARK SMILES IDX 6 14 7 15 8 16 4 17
REMARK H PARENT
REMARK Flexibility Score: 60.00
ROOT
ATOM      1  C   UNL     1     -28.051  36.982 -10.577  1.00  0.00    -0.070 C 
ATOM      2  C   UNL     1     -27.506  37.443  -9.429  1.00  0.00    -0.027 C 
ATOM      3  C   UNL     1     -27.937  37.845 -11.809  1.00  0.00     0.039 C 
ENDROOT
BRANCH   2   4
ATOM      4  C   UNL     1     -27.599  36.772  -8.076  1.00  0.00     0.032 C 
BRANCH   4   5
ATOM      5  C   UNL     1     -26.360  35.946  -7.676  1.00  0.00     0.034 C 
BRANCH   5   6
ATOM      6  C   UNL     1     -26.423  34.505  -8.153  1.00  0.00    -0.077 C 
ATOM      7  C   UNL     1     -26.745  33.442  -7.133  1.00  0.00     0.039 C 
ATOM      8  C   UNL     1     -26.140  34.106  -9.417  1.00  0.00    -0.023 CG0
ATOM      9  G   UNL     1     -25.813  34.991 -10.604  1.00  0.00     0.000 G0
ENDBRANCH   5   6
ENDBRANCH   4   5
ENDBRANCH   2   4
BRANCH   1  10
ATOM     10  C   UNL     1     -28.844  35.694 -10.663  1.00  0.00     0.111 C 
BRANCH  10  11
ATOM     11  C   UNL     1     -28.193  34.700 -11.589  1.00  0.00     0.163 C 
ATOM     12  O   UNL     1     -28.926  33.840 -12.147  1.00  0.00    -0.294 OA
BRANCH  11  13
ATOM     13  C   UNL     1     -26.718  34.664 -11.817  1.00  0.00    -0.002 C 
ATOM     14  C   UNL     1     -26.207  34.292 -13.029  1.00  0.00    -0.069 C 
ATOM     15  C   UNL     1     -24.722  34.093 -13.245  1.00  0.00     0.039 C 
ATOM     16  C   UNL     1     -27.107  34.059 -14.222  1.00  0.00     0.039 C 
BRANCH  13  17
ATOM     17  C   UNL     1     -25.822  34.963 -10.625  1.00  0.00     0.066 CG0
ATOM     18  G   UNL     1     -26.145  34.087  -9.429  1.00  0.00     0.000 G0
ENDBRANCH  13  17
ENDBRANCH  11  13
ENDBRANCH  10  11
ENDBRANCH   1  10
TORSDOF 0
ENDMDL
