MODEL 1
REMARK VINA RESULT:    -4.321      0.000      0.000
REMARK INTER + INTRA:          -5.903
REMARK INTER:                  -5.584
REMARK INTRA:                  -0.319
REMARK UNBOUND:                -0.319
REMARK SMILES CCCCCCC(=O)[O-]
REMARK SMILES IDX 5 1 6 2 7 3 8 4 9 5 4 6 3 7 2 8 1 9
REMARK H PARENT
REMARK Flexibility Score: inf
ROOT
ATOM      1  C   UNL     1      15.371  74.386  69.643  1.00  0.00     0.006 C 
ENDROOT
BRANCH   1   2
ATOM      2  C   UNL     1      13.850  74.563  69.696  1.00  0.00     0.053 C 
BRANCH   2   3
ATOM      3  C   UNL     1      13.443  75.808  68.974  1.00  0.00     0.041 C 
ATOM      4  O   UNL     1      12.891  75.734  67.845  1.00  0.00    -0.550 OA
ATOM      5  O   UNL     1      13.627  77.050  69.569  1.00  0.00    -0.550 OA
ENDBRANCH   2   3
ENDBRANCH   1   2
BRANCH   1   6
ATOM      6  C   UNL     1      15.987  74.517  71.044  1.00  0.00     0.000 C 
BRANCH   6   7
ATOM      7  C   UNL     1      14.941  74.821  72.132  1.00  0.00    -0.000 C 
BRANCH   7   8
ATOM      8  C   UNL     1      15.157  76.147  72.883  1.00  0.00    -0.003 C 
ATOM      9  C   UNL     1      16.536  76.759  72.634  1.00  0.00     0.004 C 
ENDBRANCH   7   8
ENDBRANCH   6   7
ENDBRANCH   1   6
TORSDOF 5
ENDMDL
MODEL 2
REMARK VINA RESULT:    -4.318      2.229      2.877
REMARK INTER + INTRA:          -5.899
REMARK INTER:                  -5.597
REMARK INTRA:                  -0.302
REMARK UNBOUND:                -0.319
REMARK SMILES CCCCCCC(=O)[O-]
REMARK SMILES IDX 5 1 6 2 7 3 8 4 9 5 4 6 3 7 2 8 1 9
REMARK H PARENT
REMARK Flexibility Score: inf
ROOT
ATOM      1  C   UNL     1      13.507  74.832  69.409  1.00  0.00     0.006 C 
ENDROOT
BRANCH   1   2
ATOM      2  C   UNL     1      14.286  73.540  69.671  1.00  0.00     0.053 C 
BRANCH   2   3
ATOM      3  C   UNL     1      15.028  73.117  68.442  1.00  0.00     0.041 C 
ATOM      4  O   UNL     1      15.348  73.968  67.571  1.00  0.00    -0.550 OA
ATOM      5  O   UNL     1      15.411  71.792  68.282  1.00  0.00    -0.550 OA
ENDBRANCH   2   3
ENDBRANCH   1   2
BRANCH   1   6
ATOM      6  C   UNL     1      13.606  75.785  70.609  1.00  0.00     0.000 C 
BRANCH   6   7
ATOM      7  C   UNL     1      14.977  76.481  70.708  1.00  0.00    -0.000 C 
BRANCH   7   8
ATOM      8  C   UNL     1      15.696  76.302  72.057  1.00  0.00    -0.003 C 
ATOM      9  C   UNL     1      14.894  75.470  73.058  1.00  0.00     0.004 C 
ENDBRANCH   7   8
ENDBRANCH   6   7
ENDBRANCH   1   6
TORSDOF 5
ENDMDL
MODEL 3
REMARK VINA RESULT:    -4.278      2.418      4.263
REMARK INTER + INTRA:          -5.847
REMARK INTER:                  -5.557
REMARK INTRA:                  -0.290
REMARK UNBOUND:                -0.319
REMARK SMILES CCCCCCC(=O)[O-]
REMARK SMILES IDX 5 1 6 2 7 3 8 4 9 5 4 6 3 7 2 8 1 9
REMARK H PARENT
REMARK Flexibility Score: inf
ROOT
ATOM      1  C   UNL     1      13.165  75.443  70.355  1.00  0.00     0.006 C 
ENDROOT
BRANCH   1   2
ATOM      2  C   UNL     1      14.237  76.349  70.970  1.00  0.00     0.053 C 
BRANCH   2   3
ATOM      3  C   UNL     1      15.080  75.581  71.938  1.00  0.00     0.041 C 
ATOM      4  O   UNL     1      14.781  75.562  73.161  1.00  0.00    -0.550 OA
ATOM      5  O   UNL     1      16.167  74.846  71.484  1.00  0.00    -0.550 OA
ENDBRANCH   2   3
ENDBRANCH   1   2
BRANCH   1   6
ATOM      6  C   UNL     1      13.320  75.368  68.830  1.00  0.00     0.000 C 
BRANCH   6   7
ATOM      7  C   UNL     1      14.485  74.461  68.390  1.00  0.00    -0.000 C 
BRANCH   7   8
ATOM      8  C   UNL     1      14.456  73.040  68.981  1.00  0.00    -0.003 C 
ATOM      9  C   UNL     1      15.477  72.102  68.336  1.00  0.00     0.004 C 
ENDBRANCH   7   8
ENDBRANCH   6   7
ENDBRANCH   1   6
TORSDOF 5
ENDMDL
MODEL 4
REMARK VINA RESULT:    -4.178      2.301      3.754
REMARK INTER + INTRA:          -5.718
REMARK INTER:                  -5.387
REMARK INTRA:                  -0.330
REMARK UNBOUND:                -0.319
REMARK SMILES CCCCCCC(=O)[O-]
REMARK SMILES IDX 5 1 6 2 7 3 8 4 9 5 4 6 3 7 2 8 1 9
REMARK H PARENT
REMARK Flexibility Score: inf
ROOT
ATOM      1  C   UNL     1      15.601  74.690  70.042  1.00  0.00     0.006 C 
ENDROOT
BRANCH   1   2
ATOM      2  C   UNL     1      15.644  73.176  69.811  1.00  0.00     0.053 C 
BRANCH   2   3
ATOM      3  C   UNL     1      15.426  72.859  68.366  1.00  0.00     0.041 C 
ATOM      4  O   UNL     1      15.406  73.783  67.510  1.00  0.00    -0.550 OA
ATOM      5  O   UNL     1      15.294  71.539  67.955  1.00  0.00    -0.550 OA
ENDBRANCH   2   3
ENDBRANCH   1   2
BRANCH   1   6
ATOM      6  C   UNL     1      14.548  75.054  71.098  1.00  0.00     0.000 C 
BRANCH   6   7
ATOM      7  C   UNL     1      13.283  75.689  70.489  1.00  0.00    -0.000 C 
BRANCH   7   8
ATOM      8  C   UNL     1      13.504  76.408  69.146  1.00  0.00    -0.003 C 
ATOM      9  C   UNL     1      12.726  75.773  67.993  1.00  0.00     0.004 C 
ENDBRANCH   7   8
ENDBRANCH   6   7
ENDBRANCH   1   6
TORSDOF 5
ENDMDL
MODEL 5
REMARK VINA RESULT:    -4.141      1.405      1.945
REMARK INTER + INTRA:          -5.670
REMARK INTER:                  -5.557
REMARK INTRA:                  -0.113
REMARK UNBOUND:                -0.319
REMARK SMILES CCCCCCC(=O)[O-]
REMARK SMILES IDX 5 1 6 2 7 3 8 4 9 5 4 6 3 7 2 8 1 9
REMARK H PARENT
REMARK Flexibility Score: inf
ROOT
ATOM      1  C   UNL     1      14.401  76.264  70.959  1.00  0.00     0.006 C 
ENDROOT
BRANCH   1   2
ATOM      2  C   UNL     1      13.151  75.539  70.449  1.00  0.00     0.053 C 
BRANCH   2   3
ATOM      3  C   UNL     1      13.364  75.047  69.052  1.00  0.00     0.041 C 
ATOM      4  O   UNL     1      13.887  73.919  68.850  1.00  0.00    -0.550 OA
ATOM      5  O   UNL     1      12.938  75.810  67.973  1.00  0.00    -0.550 OA
ENDBRANCH   2   3
ENDBRANCH   1   2
BRANCH   1   6
ATOM      6  C   UNL     1      14.887  75.655  72.281  1.00  0.00     0.000 C 
BRANCH   6   7
ATOM      7  C   UNL     1      16.413  75.753  72.460  1.00  0.00    -0.000 C 
BRANCH   7   8
ATOM      8  C   UNL     1      16.936  77.162  72.794  1.00  0.00    -0.003 C 
ATOM      9  C   UNL     1      18.389  77.165  73.269  1.00  0.00     0.004 C 
ENDBRANCH   7   8
ENDBRANCH   6   7
ENDBRANCH   1   6
TORSDOF 5
ENDMDL
MODEL 6
REMARK VINA RESULT:    -4.086      1.512      3.278
REMARK INTER + INTRA:          -5.600
REMARK INTER:                  -5.397
REMARK INTRA:                  -0.203
REMARK UNBOUND:                -0.319
REMARK SMILES CCCCCCC(=O)[O-]
REMARK SMILES IDX 5 1 6 2 7 3 8 4 9 5 4 6 3 7 2 8 1 9
REMARK H PARENT
REMARK Flexibility Score: inf
ROOT
ATOM      1  C   UNL     1      14.928  76.013  70.945  1.00  0.00     0.006 C 
ENDROOT
BRANCH   1   2
ATOM      2  C   UNL     1      13.494  76.384  70.553  1.00  0.00     0.053 C 
BRANCH   2   3
ATOM      3  C   UNL     1      13.481  77.126  69.254  1.00  0.00     0.041 C 
ATOM      4  O   UNL     1      13.861  78.325  69.206  1.00  0.00    -0.550 OA
ATOM      5  O   UNL     1      13.096  76.479  68.087  1.00  0.00    -0.550 OA
ENDBRANCH   2   3
ENDBRANCH   1   2
BRANCH   1   6
ATOM      6  C   UNL     1      15.100  74.489  71.015  1.00  0.00     0.000 C 
BRANCH   6   7
ATOM      7  C   UNL     1      14.299  73.745  69.930  1.00  0.00    -0.000 C 
BRANCH   7   8
ATOM      8  C   UNL     1      15.050  73.534  68.603  1.00  0.00    -0.003 C 
ATOM      9  C   UNL     1      15.428  72.073  68.355  1.00  0.00     0.004 C 
ENDBRANCH   7   8
ENDBRANCH   6   7
ENDBRANCH   1   6
TORSDOF 5
ENDMDL
MODEL 7
REMARK VINA RESULT:    -4.081      2.448      3.832
REMARK INTER + INTRA:          -5.593
REMARK INTER:                  -5.224
REMARK INTRA:                  -0.369
REMARK UNBOUND:                -0.319
REMARK SMILES CCCCCCC(=O)[O-]
REMARK SMILES IDX 5 1 6 2 7 3 8 4 9 5 4 6 3 7 2 8 1 9
REMARK H PARENT
REMARK Flexibility Score: inf
ROOT
ATOM      1  C   UNL     1      15.771  74.258  71.460  1.00  0.00     0.006 C 
ENDROOT
BRANCH   1   2
ATOM      2  C   UNL     1      16.832  75.106  72.167  1.00  0.00     0.053 C 
BRANCH   2   3
ATOM      3  C   UNL     1      16.244  76.400  72.634  1.00  0.00     0.041 C 
ATOM      4  O   UNL     1      15.105  76.421  73.171  1.00  0.00    -0.550 OA
ATOM      5  O   UNL     1      16.973  77.576  72.522  1.00  0.00    -0.550 OA
ENDBRANCH   2   3
ENDBRANCH   1   2
BRANCH   1   6
ATOM      6  C   UNL     1      15.513  74.775  70.037  1.00  0.00     0.000 C 
BRANCH   6   7
ATOM      7  C   UNL     1      14.062  74.551  69.572  1.00  0.00    -0.000 C 
BRANCH   7   8
ATOM      8  C   UNL     1      13.094  75.702  69.898  1.00  0.00    -0.003 C 
ATOM      9  C   UNL     1      13.751  77.080  69.814  1.00  0.00     0.004 C 
ENDBRANCH   7   8
ENDBRANCH   6   7
ENDBRANCH   1   6
TORSDOF 5
ENDMDL
MODEL 8
REMARK VINA RESULT:    -4.012      2.009      2.604
REMARK INTER + INTRA:          -5.504
REMARK INTER:                  -5.393
REMARK INTRA:                  -0.112
REMARK UNBOUND:                -0.319
REMARK SMILES CCCCCCC(=O)[O-]
REMARK SMILES IDX 5 1 6 2 7 3 8 4 9 5 4 6 3 7 2 8 1 9
REMARK H PARENT
REMARK Flexibility Score: inf
ROOT
ATOM      1  C   UNL     1      15.780  74.602  70.752  1.00  0.00     0.006 C 
ENDROOT
BRANCH   1   2
ATOM      2  C   UNL     1      14.662  73.998  69.897  1.00  0.00     0.053 C 
BRANCH   2   3
ATOM      3  C   UNL     1      15.218  73.437  68.626  1.00  0.00     0.041 C 
ATOM      4  O   UNL     1      15.693  72.271  68.603  1.00  0.00    -0.550 OA
ATOM      5  O   UNL     1      15.166  74.182  67.455  1.00  0.00    -0.550 OA
ENDBRANCH   2   3
ENDBRANCH   1   2
BRANCH   1   6
ATOM      6  C   UNL     1      15.248  75.035  72.125  1.00  0.00     0.000 C 
BRANCH   6   7
ATOM      7  C   UNL     1      15.935  76.305  72.660  1.00  0.00    -0.000 C 
BRANCH   7   8
ATOM      8  C   UNL     1      17.460  76.190  72.835  1.00  0.00    -0.003 C 
ATOM      9  C   UNL     1      18.118  77.511  73.233  1.00  0.00     0.004 C 
ENDBRANCH   7   8
ENDBRANCH   6   7
ENDBRANCH   1   6
TORSDOF 5
ENDMDL
MODEL 9
REMARK VINA RESULT:    -3.962      3.240      4.611
REMARK INTER + INTRA:          -5.440
REMARK INTER:                  -5.166
REMARK INTRA:                  -0.274
REMARK UNBOUND:                -0.319
REMARK SMILES CCCCCCC(=O)[O-]
REMARK SMILES IDX 5 1 6 2 7 3 8 4 9 5 4 6 3 7 2 8 1 9
REMARK H PARENT
REMARK Flexibility Score: inf
ROOT
ATOM      1  C   UNL     1      15.119  75.665  72.516  1.00  0.00     0.006 C 
ENDROOT
BRANCH   1   2
ATOM      2  C   UNL     1      16.100  76.785  72.156  1.00  0.00     0.053 C 
BRANCH   2   3
ATOM      3  C   UNL     1      17.416  76.566  72.832  1.00  0.00     0.041 C 
ATOM      4  O   UNL     1      18.079  77.548  73.260  1.00  0.00    -0.550 OA
ATOM      5  O   UNL     1      17.889  75.276  73.034  1.00  0.00    -0.550 OA
ENDBRANCH   2   3
ENDBRANCH   1   2
BRANCH   1   6
ATOM      6  C   UNL     1      14.677  74.898  71.261  1.00  0.00     0.000 C 
BRANCH   6   7
ATOM      7  C   UNL     1      13.380  75.455  70.645  1.00  0.00    -0.000 C 
BRANCH   7   8
ATOM      8  C   UNL     1      13.561  76.169  69.294  1.00  0.00    -0.003 C 
ATOM      9  C   UNL     1      13.740  77.681  69.436  1.00  0.00     0.004 C 
ENDBRANCH   7   8
ENDBRANCH   6   7
ENDBRANCH   1   6
TORSDOF 5
ENDMDL
