MODEL 1
REMARK VINA RESULT:    -5.583      0.000      0.000
REMARK INTER + INTRA:          -6.146
REMARK INTER:                  -6.073
REMARK INTRA:                  -0.073
REMARK UNBOUND:                -0.073
REMARK SMILES CCc1cccc(O)c1
REMARK SMILES IDX 3 1 9 2 7 3 6 4 5 5 4 6 2 7 1 8 8 9
REMARK H PARENT 8 10
REMARK Flexibility Score: inf
ROOT
ATOM      1  C   UNL     1     -13.034   1.920  -9.362  1.00  0.00    -0.045 A 
ATOM      2  C   UNL     1     -12.124   0.879  -9.610  1.00  0.00     0.049 A 
ATOM      3  C   UNL     1     -12.574  -0.349 -10.116  1.00  0.00     0.115 A 
ATOM      4  C   UNL     1     -13.935  -0.536 -10.382  1.00  0.00     0.046 A 
ATOM      5  C   UNL     1     -14.843   0.501 -10.149  1.00  0.00     0.004 A 
ATOM      6  C   UNL     1     -14.396   1.726  -9.646  1.00  0.00     0.004 A 
ENDROOT
BRANCH   1   7
ATOM      7  C   UNL     1     -12.547   3.249  -8.851  1.00  0.00     0.032 C 
ATOM      8  C   UNL     1     -13.670   4.001  -8.144  1.00  0.00     0.009 C 
ENDBRANCH   1   7
BRANCH   3   9
ATOM      9  O   UNL     1     -11.679  -1.388 -10.359  1.00  0.00    -0.508 OA
ATOM     10  H   UNL     1     -11.914  -2.156 -10.977  1.00  0.00     0.293 HD
ENDBRANCH   3   9
TORSDOF 2
ENDMDL
MODEL 2
REMARK VINA RESULT:    -5.377      2.461      4.253
REMARK INTER + INTRA:          -5.921
REMARK INTER:                  -5.846
REMARK INTRA:                  -0.076
REMARK UNBOUND:                -0.073
REMARK SMILES CCc1cccc(O)c1
REMARK SMILES IDX 3 1 9 2 7 3 6 4 5 5 4 6 2 7 1 8 8 9
REMARK H PARENT 8 10
REMARK Flexibility Score: inf
ROOT
ATOM      1  C   UNL     1     -14.196   1.283  -9.492  1.00  0.00    -0.045 A 
ATOM      2  C   UNL     1     -14.712   2.453  -8.912  1.00  0.00     0.049 A 
ATOM      3  C   UNL     1     -13.848   3.471  -8.481  1.00  0.00     0.115 A 
ATOM      4  C   UNL     1     -12.465   3.321  -8.638  1.00  0.00     0.046 A 
ATOM      5  C   UNL     1     -11.947   2.165  -9.227  1.00  0.00     0.004 A 
ATOM      6  C   UNL     1     -12.807   1.150  -9.657  1.00  0.00     0.004 A 
ENDROOT
BRANCH   1   7
ATOM      7  C   UNL     1     -15.125   0.206  -9.985  1.00  0.00     0.032 C 
ATOM      8  C   UNL     1     -14.337  -0.978 -10.534  1.00  0.00     0.009 C 
ENDBRANCH   1   7
BRANCH   3   9
ATOM      9  O   UNL     1     -14.351   4.631  -7.900  1.00  0.00    -0.508 OA
ATOM     10  H   UNL     1     -13.754   5.266  -7.381  1.00  0.00     0.293 HD
ENDBRANCH   3   9
TORSDOF 2
ENDMDL
MODEL 3
REMARK VINA RESULT:    -4.634      6.620      7.916
REMARK INTER + INTRA:          -5.113
REMARK INTER:                  -5.041
REMARK INTRA:                  -0.072
REMARK UNBOUND:                -0.073
REMARK SMILES CCc1cccc(O)c1
REMARK SMILES IDX 3 1 9 2 7 3 6 4 5 5 4 6 2 7 1 8 8 9
REMARK H PARENT 8 10
REMARK Flexibility Score: inf
ROOT
ATOM      1  C   UNL     1     -11.285  -5.596  -6.614  1.00  0.00    -0.045 A 
ATOM      2  C   UNL     1     -10.630  -4.364  -6.773  1.00  0.00     0.049 A 
ATOM      3  C   UNL     1      -9.980  -4.058  -7.978  1.00  0.00     0.115 A 
ATOM      4  C   UNL     1      -9.992  -4.982  -9.029  1.00  0.00     0.046 A 
ATOM      5  C   UNL     1     -10.654  -6.203  -8.881  1.00  0.00     0.004 A 
ATOM      6  C   UNL     1     -11.303  -6.510  -7.681  1.00  0.00     0.004 A 
ENDROOT
BRANCH   1   7
ATOM      7  C   UNL     1     -12.012  -5.911  -5.334  1.00  0.00     0.032 C 
ATOM      8  C   UNL     1     -12.039  -7.414  -5.083  1.00  0.00     0.009 C 
ENDBRANCH   1   7
BRANCH   3   9
ATOM      9  O   UNL     1      -9.322  -2.842  -8.141  1.00  0.00    -0.508 OA
ATOM     10  H   UNL     1      -8.840  -2.612  -9.002  1.00  0.00     0.293 HD
ENDBRANCH   3   9
TORSDOF 2
ENDMDL
MODEL 4
REMARK VINA RESULT:    -4.449      5.374      6.750
REMARK INTER + INTRA:          -4.912
REMARK INTER:                  -4.861
REMARK INTRA:                  -0.051
REMARK UNBOUND:                -0.073
REMARK SMILES CCc1cccc(O)c1
REMARK SMILES IDX 3 1 9 2 7 3 6 4 5 5 4 6 2 7 1 8 8 9
REMARK H PARENT 8 10
REMARK Flexibility Score: inf
ROOT
ATOM      1  C   UNL     1     -10.642  -3.919  -7.881  1.00  0.00    -0.045 A 
ATOM      2  C   UNL     1     -10.890  -4.783  -8.960  1.00  0.00     0.049 A 
ATOM      3  C   UNL     1     -11.232  -6.123  -8.729  1.00  0.00     0.115 A 
ATOM      4  C   UNL     1     -11.334  -6.600  -7.417  1.00  0.00     0.046 A 
ATOM      5  C   UNL     1     -11.101  -5.741  -6.340  1.00  0.00     0.004 A 
ATOM      6  C   UNL     1     -10.761  -4.404  -6.568  1.00  0.00     0.004 A 
ENDROOT
BRANCH   1   7
ATOM      7  C   UNL     1     -10.309  -2.472  -8.128  1.00  0.00     0.032 C 
ATOM      8  C   UNL     1     -10.749  -2.045  -9.524  1.00  0.00     0.009 C 
ENDBRANCH   1   7
BRANCH   3   9
ATOM      9  O   UNL     1     -11.474  -6.988  -9.794  1.00  0.00    -0.508 OA
ATOM     10  H   UNL     1     -11.013  -6.868 -10.689  1.00  0.00     0.293 HD
ENDBRANCH   3   9
TORSDOF 2
ENDMDL
MODEL 5
REMARK VINA RESULT:    -4.425     16.309     17.435
REMARK INTER + INTRA:          -4.886
REMARK INTER:                  -4.817
REMARK INTRA:                  -0.069
REMARK UNBOUND:                -0.073
REMARK SMILES CCc1cccc(O)c1
REMARK SMILES IDX 3 1 9 2 7 3 6 4 5 5 4 6 2 7 1 8 8 9
REMARK H PARENT 8 10
REMARK Flexibility Score: inf
ROOT
ATOM      1  C   UNL     1     -10.321   5.780   6.707  1.00  0.00    -0.045 A 
ATOM      2  C   UNL     1     -10.817   4.643   6.050  1.00  0.00     0.049 A 
ATOM      3  C   UNL     1     -11.201   3.512   6.786  1.00  0.00     0.115 A 
ATOM      4  C   UNL     1     -11.096   3.521   8.181  1.00  0.00     0.046 A 
ATOM      5  C   UNL     1     -10.615   4.655   8.840  1.00  0.00     0.004 A 
ATOM      6  C   UNL     1     -10.233   5.784   8.109  1.00  0.00     0.004 A 
ENDROOT
BRANCH   1   7
ATOM      7  C   UNL     1      -9.941   7.006   5.920  1.00  0.00     0.032 C 
ATOM      8  C   UNL     1      -8.684   7.650   6.495  1.00  0.00     0.009 C 
ENDBRANCH   1   7
BRANCH   3   9
ATOM      9  O   UNL     1     -11.688   2.377   6.142  1.00  0.00    -0.508 OA
ATOM     10  H   UNL     1     -11.692   2.302   5.131  1.00  0.00     0.293 HD
ENDBRANCH   3   9
TORSDOF 2
ENDMDL
MODEL 6
REMARK VINA RESULT:    -4.387     14.900     16.519
REMARK INTER + INTRA:          -4.845
REMARK INTER:                  -4.794
REMARK INTRA:                  -0.050
REMARK UNBOUND:                -0.073
REMARK SMILES CCc1cccc(O)c1
REMARK SMILES IDX 3 1 9 2 7 3 6 4 5 5 4 6 2 7 1 8 8 9
REMARK H PARENT 8 10
REMARK Flexibility Score: inf
ROOT
ATOM      1  C   UNL     1     -12.635   5.606   6.026  1.00  0.00    -0.045 A 
ATOM      2  C   UNL     1     -12.447   4.247   5.727  1.00  0.00     0.049 A 
ATOM      3  C   UNL     1     -11.566   3.468   6.492  1.00  0.00     0.115 A 
ATOM      4  C   UNL     1     -10.879   4.047   7.565  1.00  0.00     0.046 A 
ATOM      5  C   UNL     1     -11.073   5.396   7.876  1.00  0.00     0.004 A 
ATOM      6  C   UNL     1     -11.951   6.173   7.114  1.00  0.00     0.004 A 
ENDROOT
BRANCH   1   7
ATOM      7  C   UNL     1     -13.606   6.433   5.226  1.00  0.00     0.032 C 
ATOM      8  C   UNL     1     -14.014   5.705   3.950  1.00  0.00     0.009 C 
ENDBRANCH   1   7
BRANCH   3   9
ATOM      9  O   UNL     1     -11.369   2.122   6.197  1.00  0.00    -0.508 OA
ATOM     10  H   UNL     1     -11.745   1.389   6.789  1.00  0.00     0.293 HD
ENDBRANCH   3   9
TORSDOF 2
ENDMDL
MODEL 7
REMARK VINA RESULT:    -4.345     15.912     17.464
REMARK INTER + INTRA:          -4.799
REMARK INTER:                  -4.750
REMARK INTRA:                  -0.048
REMARK UNBOUND:                -0.073
REMARK SMILES CCc1cccc(O)c1
REMARK SMILES IDX 3 1 9 2 7 3 6 4 5 5 4 6 2 7 1 8 8 9
REMARK H PARENT 8 10
REMARK Flexibility Score: inf
ROOT
ATOM      1  C   UNL     1     -11.809   4.729   6.270  1.00  0.00    -0.045 A 
ATOM      2  C   UNL     1     -10.763   5.625   6.543  1.00  0.00     0.049 A 
ATOM      3  C   UNL     1     -10.144   5.628   7.802  1.00  0.00     0.115 A 
ATOM      4  C   UNL     1     -10.567   4.729   8.788  1.00  0.00     0.046 A 
ATOM      5  C   UNL     1     -11.599   3.826   8.516  1.00  0.00     0.004 A 
ATOM      6  C   UNL     1     -12.216   3.821   7.262  1.00  0.00     0.004 A 
ENDROOT
BRANCH   1   7
ATOM      7  C   UNL     1     -12.450   4.701   4.908  1.00  0.00     0.032 C 
ATOM      8  C   UNL     1     -13.578   5.723   4.820  1.00  0.00     0.009 C 
ENDBRANCH   1   7
BRANCH   3   9
ATOM      9  O   UNL     1      -9.111   6.517   8.083  1.00  0.00    -0.508 OA
ATOM     10  H   UNL     1      -8.383   6.290   8.752  1.00  0.00     0.293 HD
ENDBRANCH   3   9
TORSDOF 2
ENDMDL
MODEL 8
REMARK VINA RESULT:    -4.319     15.910     17.189
REMARK INTER + INTRA:          -4.770
REMARK INTER:                  -4.698
REMARK INTRA:                  -0.073
REMARK UNBOUND:                -0.073
REMARK SMILES CCc1cccc(O)c1
REMARK SMILES IDX 3 1 9 2 7 3 6 4 5 5 4 6 2 7 1 8 8 9
REMARK H PARENT 8 10
REMARK Flexibility Score: inf
ROOT
ATOM      1  C   UNL     1      -9.866   5.653   6.733  1.00  0.00    -0.045 A 
ATOM      2  C   UNL     1     -10.227   4.855   7.831  1.00  0.00     0.049 A 
ATOM      3  C   UNL     1     -11.143   3.805   7.671  1.00  0.00     0.115 A 
ATOM      4  C   UNL     1     -11.693   3.546   6.410  1.00  0.00     0.046 A 
ATOM      5  C   UNL     1     -11.326   4.328   5.312  1.00  0.00     0.004 A 
ATOM      6  C   UNL     1     -10.412   5.375   5.469  1.00  0.00     0.004 A 
ENDROOT
BRANCH   1   7
ATOM      7  C   UNL     1      -8.857   6.759   6.896  1.00  0.00     0.032 C 
ATOM      8  C   UNL     1      -9.028   7.812   5.808  1.00  0.00     0.009 C 
ENDBRANCH   1   7
BRANCH   3   9
ATOM      9  O   UNL     1     -11.512   3.014   8.756  1.00  0.00    -0.508 OA
ATOM     10  H   UNL     1     -12.305   2.385   8.707  1.00  0.00     0.293 HD
ENDBRANCH   3   9
TORSDOF 2
ENDMDL
MODEL 9
REMARK VINA RESULT:    -4.235      7.121      8.182
REMARK INTER + INTRA:          -4.679
REMARK INTER:                  -4.604
REMARK INTRA:                  -0.075
REMARK UNBOUND:                -0.073
REMARK SMILES CCc1cccc(O)c1
REMARK SMILES IDX 3 1 9 2 7 3 6 4 5 5 4 6 2 7 1 8 8 9
REMARK H PARENT 8 10
REMARK Flexibility Score: inf
ROOT
ATOM      1  C   UNL     1     -12.903  -6.289  -7.115  1.00  0.00    -0.045 A 
ATOM      2  C   UNL     1     -12.394  -6.005  -8.393  1.00  0.00     0.049 A 
ATOM      3  C   UNL     1     -11.158  -5.359  -8.535  1.00  0.00     0.115 A 
ATOM      4  C   UNL     1     -10.423  -5.003  -7.398  1.00  0.00     0.046 A 
ATOM      5  C   UNL     1     -10.919  -5.294  -6.125  1.00  0.00     0.004 A 
ATOM      6  C   UNL     1     -12.151  -5.939  -5.981  1.00  0.00     0.004 A 
ENDROOT
BRANCH   1   7
ATOM      7  C   UNL     1     -14.213  -7.013  -6.962  1.00  0.00     0.032 C 
ATOM      8  C   UNL     1     -14.355  -7.584  -5.555  1.00  0.00     0.009 C 
ENDBRANCH   1   7
BRANCH   3   9
ATOM      9  O   UNL     1     -10.649  -5.068  -9.798  1.00  0.00    -0.508 OA
ATOM     10  H   UNL     1      -9.695  -4.750  -9.926  1.00  0.00     0.293 HD
ENDBRANCH   3   9
TORSDOF 2
ENDMDL
