MODEL 1
REMARK VINA RESULT:    -3.756      0.000      0.000
REMARK INTER + INTRA:          -6.725
REMARK INTER:                  -5.733
REMARK INTRA:                  -0.993
REMARK UNBOUND:                -0.993
REMARK SMILES CCCCCCCCCC=CC(=O)[O-]
REMARK SMILES IDX 7 1 8 2 9 3 10 4 11 5 12 6 13 7 14 8 6 9 5 10 4 11 3 12 2 13
REMARK SMILES IDX 1 14
REMARK H PARENT
REMARK Flexibility Score: inf
ROOT
ATOM      1  C   UNL     1     147.711 144.862 143.552  1.00  0.00     0.000 C 
ENDROOT
BRANCH   1   2
ATOM      2  C   UNL     1     148.630 145.703 144.463  1.00  0.00     0.004 C 
BRANCH   2   3
ATOM      3  C   UNL     1     148.333 145.485 145.953  1.00  0.00     0.027 C 
BRANCH   3   4
ATOM      4  C   UNL     1     149.066 146.480 146.807  1.00  0.00    -0.025 C 
ATOM      5  C   UNL     1     148.431 147.545 147.306  1.00  0.00     0.020 C 
BRANCH   5   6
ATOM      6  C   UNL     1     149.115 148.540 148.145  1.00  0.00     0.064 C 
ATOM      7  O   UNL     1     150.373 148.594 148.145  1.00  0.00    -0.545 OA
ATOM      8  O   UNL     1     148.394 149.424 148.940  1.00  0.00    -0.545 OA
ENDBRANCH   5   6
ENDBRANCH   3   4
ENDBRANCH   2   3
ENDBRANCH   1   2
BRANCH   1   9
ATOM      9  C   UNL     1     146.474 145.627 143.043  1.00  0.00     0.000 C 
BRANCH   9  10
ATOM     10  C   UNL     1     146.546 147.156 143.206  1.00  0.00     0.000 C 
BRANCH  10  11
ATOM     11  C   UNL     1     145.617 147.738 144.290  1.00  0.00    -0.000 C 
BRANCH  11  12
ATOM     12  C   UNL     1     144.977 146.668 145.199  1.00  0.00    -0.000 C 
BRANCH  12  13
ATOM     13  C   UNL     1     143.959 147.268 146.180  1.00  0.00    -0.003 C 
ATOM     14  C   UNL     1     143.684 148.734 145.859  1.00  0.00     0.004 C 
ENDBRANCH  12  13
ENDBRANCH  11  12
ENDBRANCH  10  11
ENDBRANCH   9  10
ENDBRANCH   1   9
TORSDOF 9
ENDMDL
MODEL 2
REMARK VINA RESULT:    -3.733      2.457      4.662
REMARK INTER + INTRA:          -6.690
REMARK INTER:                  -5.987
REMARK INTRA:                  -0.703
REMARK UNBOUND:                -0.993
REMARK SMILES CCCCCCCCCC=CC(=O)[O-]
REMARK SMILES IDX 7 1 8 2 9 3 10 4 11 5 12 6 13 7 14 8 6 9 5 10 4 11 3 12 2 13
REMARK SMILES IDX 1 14
REMARK H PARENT
REMARK Flexibility Score: inf
ROOT
ATOM      1  C   UNL     1     147.663 144.605 143.375  1.00  0.00     0.000 C 
ENDROOT
BRANCH   1   2
ATOM      2  C   UNL     1     146.472 145.488 142.949  1.00  0.00     0.004 C 
BRANCH   2   3
ATOM      3  C   UNL     1     146.824 146.983 142.950  1.00  0.00     0.027 C 
BRANCH   3   4
ATOM      4  C   UNL     1     145.811 147.781 143.719  1.00  0.00    -0.025 C 
ATOM      5  C   UNL     1     145.189 147.252 144.776  1.00  0.00     0.020 C 
BRANCH   5   6
ATOM      6  C   UNL     1     144.192 148.002 145.554  1.00  0.00     0.064 C 
ATOM      7  O   UNL     1     143.812 149.133 145.150  1.00  0.00    -0.545 OA
ATOM      8  O   UNL     1     143.661 147.483 146.729  1.00  0.00    -0.545 OA
ENDBRANCH   5   6
ENDBRANCH   3   4
ENDBRANCH   2   3
ENDBRANCH   1   2
BRANCH   1   9
ATOM      9  C   UNL     1     148.749 145.365 144.161  1.00  0.00     0.000 C 
BRANCH   9  10
ATOM     10  C   UNL     1     148.539 145.402 145.684  1.00  0.00     0.000 C 
BRANCH  10  11
ATOM     11  C   UNL     1     148.225 146.796 146.263  1.00  0.00    -0.000 C 
BRANCH  11  12
ATOM     12  C   UNL     1     149.157 147.212 147.420  1.00  0.00    -0.000 C 
BRANCH  12  13
ATOM     13  C   UNL     1     148.783 148.581 148.008  1.00  0.00    -0.003 C 
ATOM     14  C   UNL     1     149.864 149.087 148.958  1.00  0.00     0.004 C 
ENDBRANCH  12  13
ENDBRANCH  11  12
ENDBRANCH  10  11
ENDBRANCH   9  10
ENDBRANCH   1   9
TORSDOF 9
ENDMDL
MODEL 3
REMARK VINA RESULT:    -3.538      8.507      9.918
REMARK INTER + INTRA:          -6.393
REMARK INTER:                  -5.608
REMARK INTRA:                  -0.785
REMARK UNBOUND:                -0.993
REMARK SMILES CCCCCCCCCC=CC(=O)[O-]
REMARK SMILES IDX 7 1 8 2 9 3 10 4 11 5 12 6 13 7 14 8 6 9 5 10 4 11 3 12 2 13
REMARK SMILES IDX 1 14
REMARK H PARENT
REMARK Flexibility Score: inf
ROOT
ATOM      1  C   UNL     1     154.134 141.210 148.182  1.00  0.00     0.000 C 
ENDROOT
BRANCH   1   2
ATOM      2  C   UNL     1     155.204 142.323 148.175  1.00  0.00     0.004 C 
BRANCH   2   3
ATOM      3  C   UNL     1     156.605 141.784 147.849  1.00  0.00     0.027 C 
BRANCH   3   4
ATOM      4  C   UNL     1     157.104 142.320 146.538  1.00  0.00    -0.025 C 
ATOM      5  C   UNL     1     156.246 142.755 145.611  1.00  0.00     0.020 C 
BRANCH   5   6
ATOM      6  C   UNL     1     156.697 143.287 144.316  1.00  0.00     0.064 C 
ATOM      7  O   UNL     1     157.158 144.456 144.251  1.00  0.00    -0.545 OA
ATOM      8  O   UNL     1     156.623 142.517 143.161  1.00  0.00    -0.545 OA
ENDBRANCH   5   6
ENDBRANCH   3   4
ENDBRANCH   2   3
ENDBRANCH   1   2
BRANCH   1   9
ATOM      9  C   UNL     1     152.868 141.563 147.378  1.00  0.00     0.000 C 
BRANCH   9  10
ATOM     10  C   UNL     1     151.541 141.266 148.097  1.00  0.00     0.000 C 
BRANCH  10  11
ATOM     11  C   UNL     1     151.683 140.532 149.445  1.00  0.00    -0.000 C 
BRANCH  11  12
ATOM     12  C   UNL     1     150.955 141.232 150.612  1.00  0.00    -0.000 C 
BRANCH  12  13
ATOM     13  C   UNL     1     151.904 141.579 151.769  1.00  0.00    -0.003 C 
ATOM     14  C   UNL     1     152.996 142.544 151.315  1.00  0.00     0.004 C 
ENDBRANCH  12  13
ENDBRANCH  11  12
ENDBRANCH  10  11
ENDBRANCH   9  10
ENDBRANCH   1   9
TORSDOF 9
ENDMDL
MODEL 4
REMARK VINA RESULT:    -3.502      2.492      4.806
REMARK INTER + INTRA:          -6.338
REMARK INTER:                  -5.606
REMARK INTRA:                  -0.732
REMARK UNBOUND:                -0.993
REMARK SMILES CCCCCCCCCC=CC(=O)[O-]
REMARK SMILES IDX 7 1 8 2 9 3 10 4 11 5 12 6 13 7 14 8 6 9 5 10 4 11 3 12 2 13
REMARK SMILES IDX 1 14
REMARK H PARENT
REMARK Flexibility Score: inf
ROOT
ATOM      1  C   UNL     1     148.412 145.300 144.920  1.00  0.00     0.000 C 
ENDROOT
BRANCH   1   2
ATOM      2  C   UNL     1     148.081 146.431 143.924  1.00  0.00     0.004 C 
BRANCH   2   3
ATOM      3  C   UNL     1     146.658 146.312 143.357  1.00  0.00     0.027 C 
BRANCH   3   4
ATOM      4  C   UNL     1     145.736 147.319 143.983  1.00  0.00    -0.025 C 
ATOM      5  C   UNL     1     145.037 147.012 145.079  1.00  0.00     0.020 C 
BRANCH   5   6
ATOM      6  C   UNL     1     144.126 147.972 145.720  1.00  0.00     0.064 C 
ATOM      7  O   UNL     1     143.843 149.048 145.131  1.00  0.00    -0.545 OA
ATOM      8  O   UNL     1     143.569 147.709 146.966  1.00  0.00    -0.545 OA
ENDBRANCH   5   6
ENDBRANCH   3   4
ENDBRANCH   2   3
ENDBRANCH   1   2
BRANCH   1   9
ATOM      9  C   UNL     1     148.850 145.805 146.308  1.00  0.00     0.000 C 
BRANCH   9  10
ATOM     10  C   UNL     1     148.348 147.213 146.673  1.00  0.00     0.000 C 
BRANCH  10  11
ATOM     11  C   UNL     1     148.630 147.648 148.124  1.00  0.00    -0.000 C 
BRANCH  11  12
ATOM     12  C   UNL     1     149.536 148.892 148.234  1.00  0.00    -0.000 C 
BRANCH  12  13
ATOM     13  C   UNL     1     149.010 149.909 149.258  1.00  0.00    -0.003 C 
ATOM     14  C   UNL     1     147.485 149.947 149.263  1.00  0.00     0.004 C 
ENDBRANCH  12  13
ENDBRANCH  11  12
ENDBRANCH  10  11
ENDBRANCH   9  10
ENDBRANCH   1   9
TORSDOF 9
ENDMDL
MODEL 5
REMARK VINA RESULT:    -3.468      8.532      9.871
REMARK INTER + INTRA:          -6.285
REMARK INTER:                  -5.542
REMARK INTRA:                  -0.743
REMARK UNBOUND:                -0.993
REMARK SMILES CCCCCCCCCC=CC(=O)[O-]
REMARK SMILES IDX 7 1 8 2 9 3 10 4 11 5 12 6 13 7 14 8 6 9 5 10 4 11 3 12 2 13
REMARK SMILES IDX 1 14
REMARK H PARENT
REMARK Flexibility Score: inf
ROOT
ATOM      1  C   UNL     1     153.862 141.958 147.743  1.00  0.00     0.000 C 
ENDROOT
BRANCH   1   2
ATOM      2  C   UNL     1     155.155 142.073 148.577  1.00  0.00     0.004 C 
BRANCH   2   3
ATOM      3  C   UNL     1     156.416 142.088 147.699  1.00  0.00     0.027 C 
BRANCH   3   4
ATOM      4  C   UNL     1     156.081 142.401 146.269  1.00  0.00    -0.025 C 
ATOM      5  C   UNL     1     157.015 142.875 145.440  1.00  0.00     0.020 C 
BRANCH   5   6
ATOM      6  C   UNL     1     156.725 143.192 144.034  1.00  0.00     0.064 C 
ATOM      7  O   UNL     1     156.000 142.416 143.359  1.00  0.00    -0.545 OA
ATOM      8  O   UNL     1     157.238 144.338 143.438  1.00  0.00    -0.545 OA
ENDBRANCH   5   6
ENDBRANCH   3   4
ENDBRANCH   2   3
ENDBRANCH   1   2
BRANCH   1   9
ATOM      9  C   UNL     1     152.899 140.861 148.240  1.00  0.00     0.000 C 
BRANCH   9  10
ATOM     10  C   UNL     1     151.406 141.216 148.136  1.00  0.00     0.000 C 
BRANCH  10  11
ATOM     11  C   UNL     1     150.647 141.225 149.477  1.00  0.00    -0.000 C 
BRANCH  11  12
ATOM     12  C   UNL     1     151.462 140.654 150.657  1.00  0.00    -0.000 C 
BRANCH  12  13
ATOM     13  C   UNL     1     151.711 141.699 151.755  1.00  0.00    -0.003 C 
ATOM     14  C   UNL     1     152.888 142.603 151.399  1.00  0.00     0.004 C 
ENDBRANCH  12  13
ENDBRANCH  11  12
ENDBRANCH  10  11
ENDBRANCH   9  10
ENDBRANCH   1   9
TORSDOF 9
ENDMDL
MODEL 6
REMARK VINA RESULT:    -3.258      8.747     10.393
REMARK INTER + INTRA:          -5.965
REMARK INTER:                  -5.194
REMARK INTRA:                  -0.771
REMARK UNBOUND:                -0.993
REMARK SMILES CCCCCCCCCC=CC(=O)[O-]
REMARK SMILES IDX 7 1 8 2 9 3 10 4 11 5 12 6 13 7 14 8 6 9 5 10 4 11 3 12 2 13
REMARK SMILES IDX 1 14
REMARK H PARENT
REMARK Flexibility Score: inf
ROOT
ATOM      1  C   UNL     1     156.307 142.329 149.244  1.00  0.00     0.000 C 
ENDROOT
BRANCH   1   2
ATOM      2  C   UNL     1     156.769 141.292 148.198  1.00  0.00     0.004 C 
BRANCH   2   3
ATOM      3  C   UNL     1     158.018 141.751 147.432  1.00  0.00     0.027 C 
BRANCH   3   4
ATOM      4  C   UNL     1     157.737 141.886 145.962  1.00  0.00    -0.025 C 
ATOM      5  C   UNL     1     156.836 142.768 145.521  1.00  0.00     0.020 C 
BRANCH   5   6
ATOM      6  C   UNL     1     156.534 142.930 144.091  1.00  0.00     0.064 C 
ATOM      7  O   UNL     1     157.090 143.853 143.439  1.00  0.00    -0.545 OA
ATOM      8  O   UNL     1     155.646 142.077 143.445  1.00  0.00    -0.545 OA
ENDBRANCH   5   6
ENDBRANCH   3   4
ENDBRANCH   2   3
ENDBRANCH   1   2
BRANCH   1   9
ATOM      9  C   UNL     1     154.793 142.613 149.208  1.00  0.00     0.000 C 
BRANCH   9  10
ATOM     10  C   UNL     1     154.018 141.860 148.113  1.00  0.00     0.000 C 
BRANCH  10  11
ATOM     11  C   UNL     1     153.037 140.791 148.631  1.00  0.00    -0.000 C 
BRANCH  11  12
ATOM     12  C   UNL     1     151.553 141.146 148.399  1.00  0.00    -0.000 C 
BRANCH  12  13
ATOM     13  C   UNL     1     150.714 141.016 149.679  1.00  0.00    -0.003 C 
ATOM     14  C   UNL     1     151.507 141.460 150.905  1.00  0.00     0.004 C 
ENDBRANCH  12  13
ENDBRANCH  11  12
ENDBRANCH  10  11
ENDBRANCH   9  10
ENDBRANCH   1   9
TORSDOF 9
ENDMDL
MODEL 7
REMARK VINA RESULT:    -2.655      8.902     10.858
REMARK INTER + INTRA:          -5.044
REMARK INTER:                  -4.547
REMARK INTRA:                  -0.497
REMARK UNBOUND:                -0.993
REMARK SMILES CCCCCCCCCC=CC(=O)[O-]
REMARK SMILES IDX 7 1 8 2 9 3 10 4 11 5 12 6 13 7 14 8 6 9 5 10 4 11 3 12 2 13
REMARK SMILES IDX 1 14
REMARK H PARENT
REMARK Flexibility Score: inf
ROOT
ATOM      1  C   UNL     1     156.126 141.286 148.425  1.00  0.00     0.000 C 
ENDROOT
BRANCH   1   2
ATOM      2  C   UNL     1     154.889 142.183 148.212  1.00  0.00     0.004 C 
BRANCH   2   3
ATOM      3  C   UNL     1     153.746 141.444 147.502  1.00  0.00     0.027 C 
BRANCH   3   4
ATOM      4  C   UNL     1     152.618 141.146 148.448  1.00  0.00    -0.025 C 
ATOM      5  C   UNL     1     152.609 141.665 149.678  1.00  0.00     0.020 C 
BRANCH   5   6
ATOM      6  C   UNL     1     151.522 141.397 150.632  1.00  0.00     0.064 C 
ATOM      7  O   UNL     1     150.462 140.850 150.228  1.00  0.00    -0.545 OA
ATOM      8  O   UNL     1     151.646 141.737 151.974  1.00  0.00    -0.545 OA
ENDBRANCH   5   6
ENDBRANCH   3   4
ENDBRANCH   2   3
ENDBRANCH   1   2
BRANCH   1   9
ATOM      9  C   UNL     1     157.452 141.943 147.992  1.00  0.00     0.000 C 
BRANCH   9  10
ATOM     10  C   UNL     1     157.938 141.553 146.586  1.00  0.00     0.000 C 
BRANCH  10  11
ATOM     11  C   UNL     1     157.426 142.457 145.448  1.00  0.00    -0.000 C 
BRANCH  11  12
ATOM     12  C   UNL     1     157.965 142.068 144.055  1.00  0.00    -0.000 C 
BRANCH  12  13
ATOM     13  C   UNL     1     157.923 143.240 143.064  1.00  0.00    -0.003 C 
ATOM     14  C   UNL     1     157.383 144.504 143.727  1.00  0.00     0.004 C 
ENDBRANCH  12  13
ENDBRANCH  11  12
ENDBRANCH  10  11
ENDBRANCH   9  10
ENDBRANCH   1   9
TORSDOF 9
ENDMDL
MODEL 8
REMARK VINA RESULT:    -2.542      1.242      2.223
REMARK INTER + INTRA:          -4.873
REMARK INTER:                  -4.128
REMARK INTRA:                  -0.744
REMARK UNBOUND:                -0.993
REMARK SMILES CCCCCCCCCC=CC(=O)[O-]
REMARK SMILES IDX 7 1 8 2 9 3 10 4 11 5 12 6 13 7 14 8 6 9 5 10 4 11 3 12 2 13
REMARK SMILES IDX 1 14
REMARK H PARENT
REMARK Flexibility Score: inf
ROOT
ATOM      1  C   UNL     1     148.531 145.563 145.666  1.00  0.00     0.000 C 
ENDROOT
BRANCH   1   2
ATOM      2  C   UNL     1     148.259 146.884 146.417  1.00  0.00     0.004 C 
BRANCH   2   3
ATOM      3  C   UNL     1     149.368 147.221 147.426  1.00  0.00     0.027 C 
BRANCH   3   4
ATOM      4  C   UNL     1     149.092 148.521 148.125  1.00  0.00    -0.025 C 
ATOM      5  C   UNL     1     147.912 148.740 148.712  1.00  0.00     0.020 C 
BRANCH   5   6
ATOM      6  C   UNL     1     147.605 150.000 149.406  1.00  0.00     0.064 C 
ATOM      7  O   UNL     1     146.452 150.186 149.876  1.00  0.00    -0.545 OA
ATOM      8  O   UNL     1     148.570 150.990 149.553  1.00  0.00    -0.545 OA
ENDBRANCH   5   6
ENDBRANCH   3   4
ENDBRANCH   2   3
ENDBRANCH   1   2
BRANCH   1   9
ATOM      9  C   UNL     1     148.044 145.570 144.204  1.00  0.00     0.000 C 
BRANCH   9  10
ATOM     10  C   UNL     1     147.718 146.963 143.638  1.00  0.00     0.000 C 
BRANCH  10  11
ATOM     11  C   UNL     1     146.245 147.169 143.230  1.00  0.00    -0.000 C 
BRANCH  11  12
ATOM     12  C   UNL     1     145.409 147.921 144.286  1.00  0.00    -0.000 C 
BRANCH  12  13
ATOM     13  C   UNL     1     144.839 146.980 145.359  1.00  0.00    -0.003 C 
ATOM     14  C   UNL     1     143.755 147.672 146.179  1.00  0.00     0.004 C 
ENDBRANCH  12  13
ENDBRANCH  11  12
ENDBRANCH  10  11
ENDBRANCH   9  10
ENDBRANCH   1   9
TORSDOF 9
ENDMDL
MODEL 9
REMARK VINA RESULT:    -2.249      8.382     10.210
REMARK INTER + INTRA:          -4.426
REMARK INTER:                  -3.973
REMARK INTRA:                  -0.453
REMARK UNBOUND:                -0.993
REMARK SMILES CCCCCCCCCC=CC(=O)[O-]
REMARK SMILES IDX 7 1 8 2 9 3 10 4 11 5 12 6 13 7 14 8 6 9 5 10 4 11 3 12 2 13
REMARK SMILES IDX 1 14
REMARK H PARENT
REMARK Flexibility Score: inf
ROOT
ATOM      1  C   UNL     1     154.152 142.741 149.732  1.00  0.00     0.000 C 
ENDROOT
BRANCH   1   2
ATOM      2  C   UNL     1     155.689 142.816 149.626  1.00  0.00     0.004 C 
BRANCH   2   3
ATOM      3  C   UNL     1     156.291 141.573 148.953  1.00  0.00     0.027 C 
BRANCH   3   4
ATOM      4  C   UNL     1     157.027 141.937 147.696  1.00  0.00    -0.025 C 
ATOM      5  C   UNL     1     156.360 142.328 146.607  1.00  0.00     0.020 C 
BRANCH   5   6
ATOM      6  C   UNL     1     157.047 142.692 145.358  1.00  0.00     0.064 C 
ATOM      7  O   UNL     1     157.879 141.894 144.851  1.00  0.00    -0.545 OA
ATOM      8  O   UNL     1     156.791 143.904 144.726  1.00  0.00    -0.545 OA
ENDBRANCH   5   6
ENDBRANCH   3   4
ENDBRANCH   2   3
ENDBRANCH   1   2
BRANCH   1   9
ATOM      9  C   UNL     1     153.624 142.832 151.177  1.00  0.00     0.000 C 
BRANCH   9  10
ATOM     10  C   UNL     1     152.584 141.763 151.555  1.00  0.00     0.000 C 
BRANCH  10  11
ATOM     11  C   UNL     1     151.252 141.854 150.786  1.00  0.00    -0.000 C 
BRANCH  11  12
ATOM     12  C   UNL     1     151.002 140.665 149.835  1.00  0.00    -0.000 C 
BRANCH  12  13
ATOM     13  C   UNL     1     150.966 141.094 148.360  1.00  0.00    -0.003 C 
ATOM     14  C   UNL     1     152.368 141.120 147.760  1.00  0.00     0.004 C 
ENDBRANCH  12  13
ENDBRANCH  11  12
ENDBRANCH  10  11
ENDBRANCH   9  10
ENDBRANCH   1   9
TORSDOF 9
ENDMDL
