MODEL 1
REMARK VINA RESULT:    -4.607      0.000      0.000
REMARK INTER + INTRA:         -14.438
REMARK INTER:                 -12.148
REMARK INTRA:                  -2.290
REMARK UNBOUND:                -2.290
REMARK SMILES CCCCCCCCCCCCCCCCCCCCCCCCCCCCCC(=O)[O-]
REMARK SMILES IDX 16 1 17 2 18 3 19 4 20 5 21 6 22 7 23 8 24 9 25 10 26 11
REMARK SMILES IDX 27 12 28 13 29 14 30 15 31 16 32 17 15 18 14 19 13 20 12 21
REMARK SMILES IDX 11 22 10 23 9 24 8 25 7 26 6 27 5 28 4 29 3 30 2 31 1 32
REMARK H PARENT
REMARK Flexibility Score: inf
ROOT
ATOM      1  C   UNL     1      60.464 152.772   9.116  1.00  0.00     0.000 C 
ENDROOT
BRANCH   1   2
ATOM      2  C   UNL     1      61.249 151.624   8.467  1.00  0.00     0.000 C 
BRANCH   2   3
ATOM      3  C   UNL     1      61.604 151.894   6.995  1.00  0.00     0.000 C 
BRANCH   3   4
ATOM      4  C   UNL     1      61.705 153.394   6.642  1.00  0.00     0.000 C 
BRANCH   4   5
ATOM      5  C   UNL     1      63.116 153.791   6.180  1.00  0.00     0.000 C 
BRANCH   5   6
ATOM      6  C   UNL     1      63.931 152.556   5.774  1.00  0.00     0.000 C 
BRANCH   6   7
ATOM      7  C   UNL     1      63.227 151.784   4.647  1.00  0.00     0.000 C 
BRANCH   7   8
ATOM      8  C   UNL     1      64.212 151.222   3.610  1.00  0.00     0.000 C 
BRANCH   8   9
ATOM      9  C   UNL     1      64.837 149.889   4.052  1.00  0.00     0.000 C 
BRANCH   9  10
ATOM     10  C   UNL     1      64.889 149.784   5.584  1.00  0.00     0.000 C 
BRANCH  10  11
ATOM     11  C   UNL     1      63.738 148.940   6.154  1.00  0.00     0.000 C 
BRANCH  11  12
ATOM     12  C   UNL     1      63.312 147.804   5.213  1.00  0.00     0.000 C 
BRANCH  12  13
ATOM     13  C   UNL     1      61.791 147.606   5.250  1.00  0.00     0.006 C 
BRANCH  13  14
ATOM     14  C   UNL     1      61.141 148.489   6.318  1.00  0.00     0.053 C 
BRANCH  14  15
ATOM     15  C   UNL     1      60.519 147.646   7.387  1.00  0.00     0.041 C 
ATOM     16  O   UNL     1      60.229 146.441   7.156  1.00  0.00    -0.550 OA
ATOM     17  O   UNL     1      60.303 148.176   8.653  1.00  0.00    -0.550 OA
ENDBRANCH  14  15
ENDBRANCH  13  14
ENDBRANCH  12  13
ENDBRANCH  11  12
ENDBRANCH  10  11
ENDBRANCH   9  10
ENDBRANCH   8   9
ENDBRANCH   7   8
ENDBRANCH   6   7
ENDBRANCH   5   6
ENDBRANCH   4   5
ENDBRANCH   3   4
ENDBRANCH   2   3
ENDBRANCH   1   2
BRANCH   1  18
ATOM     18  C   UNL     1      58.957 152.486   9.115  1.00  0.00     0.000 C 
BRANCH  18  19
ATOM     19  C   UNL     1      58.156 153.764   8.833  1.00  0.00     0.000 C 
BRANCH  19  20
ATOM     20  C   UNL     1      59.037 155.023   8.774  1.00  0.00     0.000 C 
BRANCH  20  21
ATOM     21  C   UNL     1      58.240 156.340   8.882  1.00  0.00     0.000 C 
BRANCH  21  22
ATOM     22  C   UNL     1      58.143 157.073   7.532  1.00  0.00     0.000 C 
BRANCH  22  23
ATOM     23  C   UNL     1      59.146 156.545   6.494  1.00  0.00     0.000 C 
BRANCH  23  24
ATOM     24  C   UNL     1      58.690 156.801   5.047  1.00  0.00    -0.000 C 
BRANCH  24  25
ATOM     25  C   UNL     1      58.173 155.532   4.350  1.00  0.00    -0.000 C 
BRANCH  25  26
ATOM     26  C   UNL     1      58.195 154.298   5.270  1.00  0.00    -0.000 C 
BRANCH  26  27
ATOM     27  C   UNL     1      58.857 153.080   4.606  1.00  0.00    -0.000 C 
BRANCH  27  28
ATOM     28  C   UNL     1      59.495 153.421   3.246  1.00  0.00    -0.000 C 
BRANCH  28  29
ATOM     29  C   UNL     1      60.201 152.214   2.607  1.00  0.00    -0.000 C 
BRANCH  29  30
ATOM     30  C   UNL     1      61.249 152.631   1.560  1.00  0.00    -0.000 C 
BRANCH  30  31
ATOM     31  C   UNL     1      60.843 153.901   0.796  1.00  0.00    -0.003 C 
ATOM     32  C   UNL     1      59.332 154.024   0.606  1.00  0.00     0.004 C 
ENDBRANCH  30  31
ENDBRANCH  29  30
ENDBRANCH  28  29
ENDBRANCH  27  28
ENDBRANCH  26  27
ENDBRANCH  25  26
ENDBRANCH  24  25
ENDBRANCH  23  24
ENDBRANCH  22  23
ENDBRANCH  21  22
ENDBRANCH  20  21
ENDBRANCH  19  20
ENDBRANCH  18  19
ENDBRANCH   1  18
TORSDOF 28
ENDMDL
MODEL 2
REMARK VINA RESULT:    -4.540      2.561      5.253
REMARK INTER + INTRA:         -14.262
REMARK INTER:                  -9.923
REMARK INTRA:                  -4.339
REMARK UNBOUND:                -2.290
REMARK SMILES CCCCCCCCCCCCCCCCCCCCCCCCCCCCCC(=O)[O-]
REMARK SMILES IDX 16 1 17 2 18 3 19 4 20 5 21 6 22 7 23 8 24 9 25 10 26 11
REMARK SMILES IDX 27 12 28 13 29 14 30 15 31 16 32 17 15 18 14 19 13 20 12 21
REMARK SMILES IDX 11 22 10 23 9 24 8 25 7 26 6 27 5 28 4 29 3 30 2 31 1 32
REMARK H PARENT
REMARK Flexibility Score: inf
ROOT
ATOM      1  C   UNL     1      61.583 148.355   5.496  1.00  0.00     0.000 C 
ENDROOT
BRANCH   1   2
ATOM      2  C   UNL     1      63.041 147.903   5.654  1.00  0.00     0.000 C 
BRANCH   2   3
ATOM      3  C   UNL     1      64.019 149.077   5.834  1.00  0.00     0.000 C 
BRANCH   3   4
ATOM      4  C   UNL     1      65.268 148.995   4.930  1.00  0.00     0.000 C 
BRANCH   4   5
ATOM      5  C   UNL     1      65.306 150.120   3.883  1.00  0.00     0.000 C 
BRANCH   5   6
ATOM      6  C   UNL     1      63.890 150.581   3.518  1.00  0.00     0.000 C 
BRANCH   6   7
ATOM      7  C   UNL     1      63.686 152.060   3.881  1.00  0.00     0.000 C 
BRANCH   7   8
ATOM      8  C   UNL     1      64.570 152.508   5.057  1.00  0.00     0.000 C 
BRANCH   8   9
ATOM      9  C   UNL     1      63.764 153.192   6.173  1.00  0.00     0.000 C 
BRANCH   9  10
ATOM     10  C   UNL     1      62.328 152.648   6.231  1.00  0.00     0.000 C 
BRANCH  10  11
ATOM     11  C   UNL     1      62.120 151.664   7.393  1.00  0.00     0.000 C 
BRANCH  11  12
ATOM     12  C   UNL     1      61.047 152.136   8.385  1.00  0.00     0.000 C 
BRANCH  12  13
ATOM     13  C   UNL     1      61.221 153.625   8.708  1.00  0.00     0.006 C 
BRANCH  13  14
ATOM     14  C   UNL     1      59.904 154.388   8.547  1.00  0.00     0.053 C 
BRANCH  14  15
ATOM     15  C   UNL     1      60.085 155.559   7.632  1.00  0.00     0.041 C 
ATOM     16  O   UNL     1      59.110 156.314   7.366  1.00  0.00    -0.550 OA
ATOM     17  O   UNL     1      61.340 155.845   7.110  1.00  0.00    -0.550 OA
ENDBRANCH  14  15
ENDBRANCH  13  14
ENDBRANCH  12  13
ENDBRANCH  11  12
ENDBRANCH  10  11
ENDBRANCH   9  10
ENDBRANCH   8   9
ENDBRANCH   7   8
ENDBRANCH   6   7
ENDBRANCH   5   6
ENDBRANCH   4   5
ENDBRANCH   3   4
ENDBRANCH   2   3
ENDBRANCH   1   2
BRANCH   1  18
ATOM     18  C   UNL     1      60.608 147.235   5.880  1.00  0.00     0.000 C 
BRANCH  18  19
ATOM     19  C   UNL     1      60.516 147.087   7.405  1.00  0.00     0.000 C 
BRANCH  19  20
ATOM     20  C   UNL     1      59.891 148.314   8.090  1.00  0.00     0.000 C 
BRANCH  20  21
ATOM     21  C   UNL     1      58.717 148.929   7.301  1.00  0.00     0.000 C 
BRANCH  21  22
ATOM     22  C   UNL     1      57.875 149.886   8.164  1.00  0.00     0.000 C 
BRANCH  22  23
ATOM     23  C   UNL     1      57.931 151.340   7.669  1.00  0.00     0.000 C 
BRANCH  23  24
ATOM     24  C   UNL     1      58.055 151.442   6.140  1.00  0.00    -0.000 C 
BRANCH  24  25
ATOM     25  C   UNL     1      58.732 152.743   5.680  1.00  0.00    -0.000 C 
BRANCH  25  26
ATOM     26  C   UNL     1      58.788 152.874   4.147  1.00  0.00    -0.000 C 
BRANCH  26  27
ATOM     27  C   UNL     1      60.199 152.634   3.586  1.00  0.00    -0.000 C 
BRANCH  27  28
ATOM     28  C   UNL     1      60.179 152.114   2.136  1.00  0.00    -0.000 C 
BRANCH  28  29
ATOM     29  C   UNL     1      60.950 153.031   1.171  1.00  0.00    -0.000 C 
BRANCH  29  30
ATOM     30  C   UNL     1      60.016 153.874   0.287  1.00  0.00    -0.000 C 
BRANCH  30  31
ATOM     31  C   UNL     1      58.561 153.854   0.781  1.00  0.00    -0.003 C 
ATOM     32  C   UNL     1      57.973 155.253   0.959  1.00  0.00     0.004 C 
ENDBRANCH  30  31
ENDBRANCH  29  30
ENDBRANCH  28  29
ENDBRANCH  27  28
ENDBRANCH  26  27
ENDBRANCH  25  26
ENDBRANCH  24  25
ENDBRANCH  23  24
ENDBRANCH  22  23
ENDBRANCH  21  22
ENDBRANCH  20  21
ENDBRANCH  19  20
ENDBRANCH  18  19
ENDBRANCH   1  18
TORSDOF 28
ENDMDL
MODEL 3
REMARK VINA RESULT:    -4.513      2.721      6.629
REMARK INTER + INTRA:         -14.190
REMARK INTER:                  -8.743
REMARK INTRA:                  -5.447
REMARK UNBOUND:                -2.290
REMARK SMILES CCCCCCCCCCCCCCCCCCCCCCCCCCCCCC(=O)[O-]
REMARK SMILES IDX 16 1 17 2 18 3 19 4 20 5 21 6 22 7 23 8 24 9 25 10 26 11
REMARK SMILES IDX 27 12 28 13 29 14 30 15 31 16 32 17 15 18 14 19 13 20 12 21
REMARK SMILES IDX 11 22 10 23 9 24 8 25 7 26 6 27 5 28 4 29 3 30 2 31 1 32
REMARK H PARENT
REMARK Flexibility Score: inf
ROOT
ATOM      1  C   UNL     1      59.011 150.433   6.705  1.00  0.00     0.000 C 
ENDROOT
BRANCH   1   2
ATOM      2  C   UNL     1      57.890 151.465   6.525  1.00  0.00     0.000 C 
BRANCH   2   3
ATOM      3  C   UNL     1      58.084 152.353   5.283  1.00  0.00     0.000 C 
BRANCH   3   4
ATOM      4  C   UNL     1      58.457 153.815   5.612  1.00  0.00     0.000 C 
BRANCH   4   5
ATOM      5  C   UNL     1      58.745 154.642   4.349  1.00  0.00     0.000 C 
BRANCH   5   6
ATOM      6  C   UNL     1      58.358 153.867   3.083  1.00  0.00     0.000 C 
BRANCH   6   7
ATOM      7  C   UNL     1      59.571 153.699   2.154  1.00  0.00     0.000 C 
BRANCH   7   8
ATOM      8  C   UNL     1      60.080 152.249   2.102  1.00  0.00     0.000 C 
BRANCH   8   9
ATOM      9  C   UNL     1      61.565 152.131   2.480  1.00  0.00     0.000 C 
BRANCH   9  10
ATOM     10  C   UNL     1      61.734 151.489   3.866  1.00  0.00     0.000 C 
BRANCH  10  11
ATOM     11  C   UNL     1      61.707 152.527   5.000  1.00  0.00     0.000 C 
BRANCH  11  12
ATOM     12  C   UNL     1      61.975 151.907   6.378  1.00  0.00     0.000 C 
BRANCH  12  13
ATOM     13  C   UNL     1      61.528 152.855   7.499  1.00  0.00     0.006 C 
BRANCH  13  14
ATOM     14  C   UNL     1      62.203 154.224   7.373  1.00  0.00     0.053 C 
BRANCH  14  15
ATOM     15  C   UNL     1      61.209 155.320   7.599  1.00  0.00     0.041 C 
ATOM     16  O   UNL     1      60.802 156.018   6.631  1.00  0.00    -0.550 OA
ATOM     17  O   UNL     1      60.695 155.542   8.871  1.00  0.00    -0.550 OA
ENDBRANCH  14  15
ENDBRANCH  13  14
ENDBRANCH  12  13
ENDBRANCH  11  12
ENDBRANCH  10  11
ENDBRANCH   9  10
ENDBRANCH   8   9
ENDBRANCH   7   8
ENDBRANCH   6   7
ENDBRANCH   5   6
ENDBRANCH   4   5
ENDBRANCH   3   4
ENDBRANCH   2   3
ENDBRANCH   1   2
BRANCH   1  18
ATOM     18  C   UNL     1      59.201 150.070   8.183  1.00  0.00     0.000 C 
BRANCH  18  19
ATOM     19  C   UNL     1      58.514 148.737   8.513  1.00  0.00     0.000 C 
BRANCH  19  20
ATOM     20  C   UNL     1      59.474 147.703   9.125  1.00  0.00     0.000 C 
BRANCH  20  21
ATOM     21  C   UNL     1      59.121 146.245   8.766  1.00  0.00     0.000 C 
BRANCH  21  22
ATOM     22  C   UNL     1      59.732 145.813   7.421  1.00  0.00     0.000 C 
BRANCH  22  23
ATOM     23  C   UNL     1      61.072 146.506   7.125  1.00  0.00     0.000 C 
BRANCH  23  24
ATOM     24  C   UNL     1      61.271 146.796   5.628  1.00  0.00    -0.000 C 
BRANCH  24  25
ATOM     25  C   UNL     1      61.666 148.255   5.349  1.00  0.00    -0.000 C 
BRANCH  25  26
ATOM     26  C   UNL     1      62.596 148.835   6.430  1.00  0.00    -0.000 C 
BRANCH  26  27
ATOM     27  C   UNL     1      64.084 148.650   6.088  1.00  0.00    -0.000 C 
BRANCH  27  28
ATOM     28  C   UNL     1      64.382 148.890   4.596  1.00  0.00    -0.000 C 
BRANCH  28  29
ATOM     29  C   UNL     1      64.915 150.306   4.322  1.00  0.00    -0.000 C 
BRANCH  29  30
ATOM     30  C   UNL     1      65.387 151.016   5.602  1.00  0.00    -0.000 C 
BRANCH  30  31
ATOM     31  C   UNL     1      65.427 152.545   5.446  1.00  0.00    -0.003 C 
ATOM     32  C   UNL     1      65.051 153.010   4.040  1.00  0.00     0.004 C 
ENDBRANCH  30  31
ENDBRANCH  29  30
ENDBRANCH  28  29
ENDBRANCH  27  28
ENDBRANCH  26  27
ENDBRANCH  25  26
ENDBRANCH  24  25
ENDBRANCH  23  24
ENDBRANCH  22  23
ENDBRANCH  21  22
ENDBRANCH  20  21
ENDBRANCH  19  20
ENDBRANCH  18  19
ENDBRANCH   1  18
TORSDOF 28
ENDMDL
MODEL 4
REMARK VINA RESULT:    -4.406      2.847      7.826
REMARK INTER + INTRA:         -13.907
REMARK INTER:                 -10.830
REMARK INTRA:                  -3.077
REMARK UNBOUND:                -2.290
REMARK SMILES CCCCCCCCCCCCCCCCCCCCCCCCCCCCCC(=O)[O-]
REMARK SMILES IDX 16 1 17 2 18 3 19 4 20 5 21 6 22 7 23 8 24 9 25 10 26 11
REMARK SMILES IDX 27 12 28 13 29 14 30 15 31 16 32 17 15 18 14 19 13 20 12 21
REMARK SMILES IDX 11 22 10 23 9 24 8 25 7 26 6 27 5 28 4 29 3 30 2 31 1 32
REMARK H PARENT
REMARK Flexibility Score: inf
ROOT
ATOM      1  C   UNL     1      65.105 152.494   5.027  1.00  0.00     0.000 C 
ENDROOT
BRANCH   1   2
ATOM      2  C   UNL     1      63.993 153.257   5.758  1.00  0.00     0.000 C 
BRANCH   2   3
ATOM      3  C   UNL     1      62.822 152.353   6.181  1.00  0.00     0.000 C 
BRANCH   3   4
ATOM      4  C   UNL     1      62.143 152.786   7.499  1.00  0.00     0.000 C 
BRANCH   4   5
ATOM      5  C   UNL     1      60.870 153.613   7.255  1.00  0.00     0.000 C 
BRANCH   5   6
ATOM      6  C   UNL     1      60.933 154.953   7.999  1.00  0.00     0.000 C 
BRANCH   6   7
ATOM      7  C   UNL     1      60.292 156.072   7.163  1.00  0.00     0.000 C 
BRANCH   7   8
ATOM      8  C   UNL     1      58.820 156.317   7.531  1.00  0.00     0.000 C 
BRANCH   8   9
ATOM      9  C   UNL     1      57.875 156.142   6.331  1.00  0.00     0.000 C 
BRANCH   9  10
ATOM     10  C   UNL     1      58.486 156.741   5.054  1.00  0.00     0.000 C 
BRANCH  10  11
ATOM     11  C   UNL     1      58.404 155.779   3.858  1.00  0.00     0.000 C 
BRANCH  11  12
ATOM     12  C   UNL     1      58.540 154.306   4.270  1.00  0.00     0.000 C 
BRANCH  12  13
ATOM     13  C   UNL     1      59.196 153.486   3.152  1.00  0.00     0.006 C 
BRANCH  13  14
ATOM     14  C   UNL     1      58.976 154.134   1.782  1.00  0.00     0.053 C 
BRANCH  14  15
ATOM     15  C   UNL     1      60.068 153.743   0.837  1.00  0.00     0.041 C 
ATOM     16  O   UNL     1      59.976 154.022  -0.390  1.00  0.00    -0.550 OA
ATOM     17  O   UNL     1      61.210 153.113   1.316  1.00  0.00    -0.550 OA
ENDBRANCH  14  15
ENDBRANCH  13  14
ENDBRANCH  12  13
ENDBRANCH  11  12
ENDBRANCH  10  11
ENDBRANCH   9  10
ENDBRANCH   8   9
ENDBRANCH   7   8
ENDBRANCH   6   7
ENDBRANCH   5   6
ENDBRANCH   4   5
ENDBRANCH   3   4
ENDBRANCH   2   3
ENDBRANCH   1   2
BRANCH   1  18
ATOM     18  C   UNL     1      64.542 151.665   3.866  1.00  0.00     0.000 C 
BRANCH  18  19
ATOM     19  C   UNL     1      64.947 150.190   3.997  1.00  0.00     0.000 C 
BRANCH  19  20
ATOM     20  C   UNL     1      65.036 149.721   5.459  1.00  0.00     0.000 C 
BRANCH  20  21
ATOM     21  C   UNL     1      64.234 148.434   5.744  1.00  0.00     0.000 C 
BRANCH  21  22
ATOM     22  C   UNL     1      62.971 148.332   4.870  1.00  0.00     0.000 C 
BRANCH  22  23
ATOM     23  C   UNL     1      62.247 146.985   5.026  1.00  0.00     0.000 C 
BRANCH  23  24
ATOM     24  C   UNL     1      61.298 146.959   6.236  1.00  0.00    -0.000 C 
BRANCH  24  25
ATOM     25  C   UNL     1      60.569 148.296   6.453  1.00  0.00    -0.000 C 
BRANCH  25  26
ATOM     26  C   UNL     1      61.285 149.203   7.470  1.00  0.00    -0.000 C 
BRANCH  26  27
ATOM     27  C   UNL     1      60.628 149.163   8.859  1.00  0.00    -0.000 C 
BRANCH  27  28
ATOM     28  C   UNL     1      59.578 148.042   8.985  1.00  0.00    -0.000 C 
BRANCH  28  29
ATOM     29  C   UNL     1      58.138 148.567   8.863  1.00  0.00    -0.000 C 
BRANCH  29  30
ATOM     30  C   UNL     1      58.084 150.060   8.496  1.00  0.00    -0.000 C 
BRANCH  30  31
ATOM     31  C   UNL     1      57.875 150.287   6.990  1.00  0.00    -0.003 C 
ATOM     32  C   UNL     1      58.141 151.730   6.563  1.00  0.00     0.004 C 
ENDBRANCH  30  31
ENDBRANCH  29  30
ENDBRANCH  28  29
ENDBRANCH  27  28
ENDBRANCH  26  27
ENDBRANCH  25  26
ENDBRANCH  24  25
ENDBRANCH  23  24
ENDBRANCH  22  23
ENDBRANCH  21  22
ENDBRANCH  20  21
ENDBRANCH  19  20
ENDBRANCH  18  19
ENDBRANCH   1  18
TORSDOF 28
ENDMDL
MODEL 5
REMARK VINA RESULT:    -4.404      2.066      5.952
REMARK INTER + INTRA:         -13.902
REMARK INTER:                 -11.146
REMARK INTRA:                  -2.756
REMARK UNBOUND:                -2.290
REMARK SMILES CCCCCCCCCCCCCCCCCCCCCCCCCCCCCC(=O)[O-]
REMARK SMILES IDX 16 1 17 2 18 3 19 4 20 5 21 6 22 7 23 8 24 9 25 10 26 11
REMARK SMILES IDX 27 12 28 13 29 14 30 15 31 16 32 17 15 18 14 19 13 20 12 21
REMARK SMILES IDX 11 22 10 23 9 24 8 25 7 26 6 27 5 28 4 29 3 30 2 31 1 32
REMARK H PARENT
REMARK Flexibility Score: inf
ROOT
ATOM      1  C   UNL     1      59.232 152.903   5.052  1.00  0.00     0.000 C 
ENDROOT
BRANCH   1   2
ATOM      2  C   UNL     1      59.366 154.338   4.526  1.00  0.00     0.000 C 
BRANCH   2   3
ATOM      3  C   UNL     1      58.019 154.956   4.114  1.00  0.00     0.000 C 
BRANCH   3   4
ATOM      4  C   UNL     1      58.146 156.341   3.444  1.00  0.00     0.000 C 
BRANCH   4   5
ATOM      5  C   UNL     1      57.875 156.285   1.932  1.00  0.00     0.000 C 
BRANCH   5   6
ATOM      6  C   UNL     1      58.206 154.899   1.365  1.00  0.00     0.000 C 
BRANCH   6   7
ATOM      7  C   UNL     1      59.278 154.999   0.268  1.00  0.00     0.000 C 
BRANCH   7   8
ATOM      8  C   UNL     1      60.549 154.205   0.608  1.00  0.00     0.000 C 
BRANCH   8   9
ATOM      9  C   UNL     1      60.255 152.955   1.453  1.00  0.00     0.000 C 
BRANCH   9  10
ATOM     10  C   UNL     1      61.555 152.324   1.977  1.00  0.00     0.000 C 
BRANCH  10  11
ATOM     11  C   UNL     1      61.316 151.414   3.192  1.00  0.00     0.000 C 
BRANCH  11  12
ATOM     12  C   UNL     1      62.429 151.523   4.244  1.00  0.00     0.000 C 
BRANCH  12  13
ATOM     13  C   UNL     1      63.810 151.358   3.596  1.00  0.00     0.006 C 
BRANCH  13  14
ATOM     14  C   UNL     1      64.875 151.002   4.636  1.00  0.00     0.053 C 
BRANCH  14  15
ATOM     15  C   UNL     1      64.896 149.525   4.880  1.00  0.00     0.041 C 
ATOM     16  O   UNL     1      65.421 148.750   4.035  1.00  0.00    -0.550 OA
ATOM     17  O   UNL     1      64.378 149.007   6.061  1.00  0.00    -0.550 OA
ENDBRANCH  14  15
ENDBRANCH  13  14
ENDBRANCH  12  13
ENDBRANCH  11  12
ENDBRANCH  10  11
ENDBRANCH   9  10
ENDBRANCH   8   9
ENDBRANCH   7   8
ENDBRANCH   6   7
ENDBRANCH   5   6
ENDBRANCH   4   5
ENDBRANCH   3   4
ENDBRANCH   2   3
ENDBRANCH   1   2
BRANCH   1  18
ATOM     18  C   UNL     1      57.875 152.684   5.734  1.00  0.00     0.000 C 
BRANCH  18  19
ATOM     19  C   UNL     1      57.982 152.900   7.250  1.00  0.00     0.000 C 
BRANCH  19  20
ATOM     20  C   UNL     1      58.647 154.236   7.620  1.00  0.00     0.000 C 
BRANCH  20  21
ATOM     21  C   UNL     1      59.394 154.200   8.970  1.00  0.00     0.000 C 
BRANCH  21  22
ATOM     22  C   UNL     1      60.822 154.763   8.859  1.00  0.00     0.000 C 
BRANCH  22  23
ATOM     23  C   UNL     1      61.859 153.689   8.495  1.00  0.00     0.000 C 
BRANCH  23  24
ATOM     24  C   UNL     1      61.433 152.839   7.286  1.00  0.00    -0.000 C 
BRANCH  24  25
ATOM     25  C   UNL     1      61.471 151.330   7.574  1.00  0.00    -0.000 C 
BRANCH  25  26
ATOM     26  C   UNL     1      61.085 150.992   9.025  1.00  0.00    -0.000 C 
BRANCH  26  27
ATOM     27  C   UNL     1      59.712 150.307   9.125  1.00  0.00    -0.000 C 
BRANCH  27  28
ATOM     28  C   UNL     1      59.110 149.984   7.744  1.00  0.00    -0.000 C 
BRANCH  28  29
ATOM     29  C   UNL     1      59.252 148.499   7.372  1.00  0.00    -0.000 C 
BRANCH  29  30
ATOM     30  C   UNL     1      58.540 147.571   8.370  1.00  0.00    -0.000 C 
BRANCH  30  31
ATOM     31  C   UNL     1      59.515 146.631   9.097  1.00  0.00    -0.003 C 
ATOM     32  C   UNL     1      59.600 145.248   8.455  1.00  0.00     0.004 C 
ENDBRANCH  30  31
ENDBRANCH  29  30
ENDBRANCH  28  29
ENDBRANCH  27  28
ENDBRANCH  26  27
ENDBRANCH  25  26
ENDBRANCH  24  25
ENDBRANCH  23  24
ENDBRANCH  22  23
ENDBRANCH  21  22
ENDBRANCH  20  21
ENDBRANCH  19  20
ENDBRANCH  18  19
ENDBRANCH   1  18
TORSDOF 28
ENDMDL
MODEL 6
REMARK VINA RESULT:    -4.378      2.866      7.185
REMARK INTER + INTRA:         -13.833
REMARK INTER:                 -10.882
REMARK INTRA:                  -2.951
REMARK UNBOUND:                -2.290
REMARK SMILES CCCCCCCCCCCCCCCCCCCCCCCCCCCCCC(=O)[O-]
REMARK SMILES IDX 16 1 17 2 18 3 19 4 20 5 21 6 22 7 23 8 24 9 25 10 26 11
REMARK SMILES IDX 27 12 28 13 29 14 30 15 31 16 32 17 15 18 14 19 13 20 12 21
REMARK SMILES IDX 11 22 10 23 9 24 8 25 7 26 6 27 5 28 4 29 3 30 2 31 1 32
REMARK H PARENT
REMARK Flexibility Score: inf
ROOT
ATOM      1  C   UNL     1      59.158 149.742   6.611  1.00  0.00     0.000 C 
ENDROOT
BRANCH   1   2
ATOM      2  C   UNL     1      59.711 151.170   6.719  1.00  0.00     0.000 C 
BRANCH   2   3
ATOM      3  C   UNL     1      60.231 151.509   8.127  1.00  0.00     0.000 C 
BRANCH   3   4
ATOM      4  C   UNL     1      61.281 152.640   8.149  1.00  0.00     0.000 C 
BRANCH   4   5
ATOM      5  C   UNL     1      61.374 153.377   6.803  1.00  0.00     0.000 C 
BRANCH   5   6
ATOM      6  C   UNL     1      62.244 154.635   6.922  1.00  0.00     0.000 C 
BRANCH   6   7
ATOM      7  C   UNL     1      61.415 155.825   7.430  1.00  0.00     0.000 C 
BRANCH   7   8
ATOM      8  C   UNL     1      59.915 155.675   7.124  1.00  0.00     0.000 C 
BRANCH   8   9
ATOM      9  C   UNL     1      59.383 156.798   6.219  1.00  0.00     0.000 C 
BRANCH   9  10
ATOM     10  C   UNL     1      58.371 156.252   5.200  1.00  0.00     0.000 C 
BRANCH  10  11
ATOM     11  C   UNL     1      58.432 154.721   5.075  1.00  0.00     0.000 C 
BRANCH  11  12
ATOM     12  C   UNL     1      59.259 154.256   3.867  1.00  0.00     0.000 C 
BRANCH  12  13
ATOM     13  C   UNL     1      58.892 152.819   3.475  1.00  0.00     0.006 C 
BRANCH  13  14
ATOM     14  C   UNL     1      59.776 152.309   2.335  1.00  0.00     0.053 C 
BRANCH  14  15
ATOM     15  C   UNL     1      60.068 153.412   1.366  1.00  0.00     0.041 C 
ATOM     16  O   UNL     1      61.254 153.643   1.006  1.00  0.00    -0.550 OA
ATOM     17  O   UNL     1      59.026 154.154   0.822  1.00  0.00    -0.550 OA
ENDBRANCH  14  15
ENDBRANCH  13  14
ENDBRANCH  12  13
ENDBRANCH  11  12
ENDBRANCH  10  11
ENDBRANCH   9  10
ENDBRANCH   8   9
ENDBRANCH   7   8
ENDBRANCH   6   7
ENDBRANCH   5   6
ENDBRANCH   4   5
ENDBRANCH   3   4
ENDBRANCH   2   3
ENDBRANCH   1   2
BRANCH   1  18
ATOM     18  C   UNL     1      57.903 149.565   7.475  1.00  0.00     0.000 C 
BRANCH  18  19
ATOM     19  C   UNL     1      58.157 148.566   8.613  1.00  0.00     0.000 C 
BRANCH  19  20
ATOM     20  C   UNL     1      59.541 147.902   8.530  1.00  0.00     0.000 C 
BRANCH  20  21
ATOM     21  C   UNL     1      59.579 146.478   9.123  1.00  0.00     0.000 C 
BRANCH  21  22
ATOM     22  C   UNL     1      59.245 145.403   8.073  1.00  0.00     0.000 C 
BRANCH  22  23
ATOM     23  C   UNL     1      60.307 145.300   6.966  1.00  0.00     0.000 C 
BRANCH  23  24
ATOM     24  C   UNL     1      60.986 146.648   6.670  1.00  0.00    -0.000 C 
BRANCH  24  25
ATOM     25  C   UNL     1      61.634 146.698   5.277  1.00  0.00    -0.000 C 
BRANCH  25  26
ATOM     26  C   UNL     1      62.931 147.525   5.254  1.00  0.00    -0.000 C 
BRANCH  26  27
ATOM     27  C   UNL     1      62.714 148.974   5.718  1.00  0.00    -0.000 C 
BRANCH  27  28
ATOM     28  C   UNL     1      64.027 149.665   6.133  1.00  0.00    -0.000 C 
BRANCH  28  29
ATOM     29  C   UNL     1      64.952 149.941   4.936  1.00  0.00    -0.000 C 
BRANCH  29  30
ATOM     30  C   UNL     1      65.178 151.445   4.700  1.00  0.00    -0.000 C 
BRANCH  30  31
ATOM     31  C   UNL     1      63.875 152.190   4.369  1.00  0.00    -0.003 C 
ATOM     32  C   UNL     1      63.109 151.561   3.206  1.00  0.00     0.004 C 
ENDBRANCH  30  31
ENDBRANCH  29  30
ENDBRANCH  28  29
ENDBRANCH  27  28
ENDBRANCH  26  27
ENDBRANCH  25  26
ENDBRANCH  24  25
ENDBRANCH  23  24
ENDBRANCH  22  23
ENDBRANCH  21  22
ENDBRANCH  20  21
ENDBRANCH  19  20
ENDBRANCH  18  19
ENDBRANCH   1  18
TORSDOF 28
ENDMDL
MODEL 7
REMARK VINA RESULT:    -4.359      1.577      4.792
REMARK INTER + INTRA:         -13.783
REMARK INTER:                  -9.928
REMARK INTRA:                  -3.856
REMARK UNBOUND:                -2.290
REMARK SMILES CCCCCCCCCCCCCCCCCCCCCCCCCCCCCC(=O)[O-]
REMARK SMILES IDX 16 1 17 2 18 3 19 4 20 5 21 6 22 7 23 8 24 9 25 10 26 11
REMARK SMILES IDX 27 12 28 13 29 14 30 15 31 16 32 17 15 18 14 19 13 20 12 21
REMARK SMILES IDX 11 22 10 23 9 24 8 25 7 26 6 27 5 28 4 29 3 30 2 31 1 32
REMARK H PARENT
REMARK Flexibility Score: inf
ROOT
ATOM      1  C   UNL     1      64.715 150.049   4.935  1.00  0.00     0.000 C 
ENDROOT
BRANCH   1   2
ATOM      2  C   UNL     1      64.063 148.660   4.954  1.00  0.00     0.000 C 
BRANCH   2   3
ATOM      3  C   UNL     1      62.803 148.599   5.835  1.00  0.00     0.000 C 
BRANCH   3   4
ATOM      4  C   UNL     1      62.781 149.647   6.968  1.00  0.00     0.000 C 
BRANCH   4   5
ATOM      5  C   UNL     1      61.879 149.222   8.138  1.00  0.00     0.000 C 
BRANCH   5   6
ATOM      6  C   UNL     1      61.492 150.430   9.001  1.00  0.00     0.000 C 
BRANCH   6   7
ATOM      7  C   UNL     1      61.276 151.678   8.129  1.00  0.00     0.000 C 
BRANCH   7   8
ATOM      8  C   UNL     1      59.789 151.986   7.895  1.00  0.00     0.000 C 
BRANCH   8   9
ATOM      9  C   UNL     1      58.921 151.676   9.125  1.00  0.00     0.000 C 
BRANCH   9  10
ATOM     10  C   UNL     1      57.879 150.592   8.806  1.00  0.00     0.000 C 
BRANCH  10  11
ATOM     11  C   UNL     1      58.097 149.956   7.424  1.00  0.00     0.000 C 
BRANCH  11  12
ATOM     12  C   UNL     1      58.112 148.422   7.472  1.00  0.00     0.000 C 
BRANCH  12  13
ATOM     13  C   UNL     1      58.350 147.923   8.903  1.00  0.00     0.006 C 
BRANCH  13  14
ATOM     14  C   UNL     1      59.641 147.106   9.001  1.00  0.00     0.053 C 
BRANCH  14  15
ATOM     15  C   UNL     1      59.596 145.942   8.061  1.00  0.00     0.041 C 
ATOM     16  O   UNL     1      60.297 145.946   7.012  1.00  0.00    -0.550 OA
ATOM     17  O   UNL     1      58.818 144.832   8.366  1.00  0.00    -0.550 OA
ENDBRANCH  14  15
ENDBRANCH  13  14
ENDBRANCH  12  13
ENDBRANCH  11  12
ENDBRANCH  10  11
ENDBRANCH   9  10
ENDBRANCH   8   9
ENDBRANCH   7   8
ENDBRANCH   6   7
ENDBRANCH   5   6
ENDBRANCH   4   5
ENDBRANCH   3   4
ENDBRANCH   2   3
ENDBRANCH   1   2
BRANCH   1  18
ATOM     18  C   UNL     1      64.110 150.933   3.837  1.00  0.00     0.000 C 
BRANCH  18  19
ATOM     19  C   UNL     1      63.812 152.342   4.369  1.00  0.00     0.000 C 
BRANCH  19  20
ATOM     20  C   UNL     1      64.268 152.543   5.824  1.00  0.00     0.000 C 
BRANCH  20  21
ATOM     21  C   UNL     1      63.957 153.948   6.379  1.00  0.00     0.000 C 
BRANCH  21  22
ATOM     22  C   UNL     1      62.465 154.123   6.714  1.00  0.00     0.000 C 
BRANCH  22  23
ATOM     23  C   UNL     1      62.218 155.172   7.810  1.00  0.00     0.000 C 
BRANCH  23  24
ATOM     24  C   UNL     1      60.827 155.820   7.707  1.00  0.00    -0.000 C 
BRANCH  24  25
ATOM     25  C   UNL     1      60.107 155.484   6.392  1.00  0.00    -0.000 C 
BRANCH  25  26
ATOM     26  C   UNL     1      58.759 154.777   6.618  1.00  0.00    -0.000 C 
BRANCH  26  27
ATOM     27  C   UNL     1      58.088 154.353   5.301  1.00  0.00    -0.000 C 
BRANCH  27  28
ATOM     28  C   UNL     1      59.034 154.468   4.090  1.00  0.00    -0.000 C 
BRANCH  28  29
ATOM     29  C   UNL     1      59.176 153.142   3.325  1.00  0.00    -0.000 C 
BRANCH  29  30
ATOM     30  C   UNL     1      59.607 153.349   1.863  1.00  0.00    -0.000 C 
BRANCH  30  31
ATOM     31  C   UNL     1      61.013 152.795   1.581  1.00  0.00    -0.003 C 
ATOM     32  C   UNL     1      61.176 151.337   2.010  1.00  0.00     0.004 C 
ENDBRANCH  30  31
ENDBRANCH  29  30
ENDBRANCH  28  29
ENDBRANCH  27  28
ENDBRANCH  26  27
ENDBRANCH  25  26
ENDBRANCH  24  25
ENDBRANCH  23  24
ENDBRANCH  22  23
ENDBRANCH  21  22
ENDBRANCH  20  21
ENDBRANCH  19  20
ENDBRANCH  18  19
ENDBRANCH   1  18
TORSDOF 28
ENDMDL
MODEL 8
REMARK VINA RESULT:    -4.332      1.698      7.779
REMARK INTER + INTRA:         -13.712
REMARK INTER:                 -10.935
REMARK INTRA:                  -2.778
REMARK UNBOUND:                -2.290
REMARK SMILES CCCCCCCCCCCCCCCCCCCCCCCCCCCCCC(=O)[O-]
REMARK SMILES IDX 16 1 17 2 18 3 19 4 20 5 21 6 22 7 23 8 24 9 25 10 26 11
REMARK SMILES IDX 27 12 28 13 29 14 30 15 31 16 32 17 15 18 14 19 13 20 12 21
REMARK SMILES IDX 11 22 10 23 9 24 8 25 7 26 6 27 5 28 4 29 3 30 2 31 1 32
REMARK H PARENT
REMARK Flexibility Score: inf
ROOT
ATOM      1  C   UNL     1      60.025 152.310   2.200  1.00  0.00     0.000 C 
ENDROOT
BRANCH   1   2
ATOM      2  C   UNL     1      60.651 153.410   1.333  1.00  0.00     0.000 C 
BRANCH   2   3
ATOM      3  C   UNL     1      59.622 154.145   0.457  1.00  0.00     0.000 C 
BRANCH   3   4
ATOM      4  C   UNL     1      58.280 154.420   1.167  1.00  0.00     0.000 C 
BRANCH   4   5
ATOM      5  C   UNL     1      58.002 155.924   1.328  1.00  0.00     0.000 C 
BRANCH   5   6
ATOM      6  C   UNL     1      57.875 156.305   2.808  1.00  0.00     0.000 C 
BRANCH   6   7
ATOM      7  C   UNL     1      58.030 155.067   3.706  1.00  0.00     0.000 C 
BRANCH   7   8
ATOM      8  C   UNL     1      59.024 155.291   4.857  1.00  0.00     0.000 C 
BRANCH   8   9
ATOM      9  C   UNL     1      58.963 156.720   5.419  1.00  0.00     0.000 C 
BRANCH   9  10
ATOM     10  C   UNL     1      58.400 156.728   6.849  1.00  0.00     0.000 C 
BRANCH  10  11
ATOM     11  C   UNL     1      58.972 155.591   7.711  1.00  0.00     0.000 C 
BRANCH  11  12
ATOM     12  C   UNL     1      60.296 155.969   8.390  1.00  0.00     0.000 C 
BRANCH  12  13
ATOM     13  C   UNL     1      61.345 154.868   8.190  1.00  0.00     0.006 C 
BRANCH  13  14
ATOM     14  C   UNL     1      61.094 153.682   9.125  1.00  0.00     0.053 C 
BRANCH  14  15
ATOM     15  C   UNL     1      60.852 152.434   8.334  1.00  0.00     0.041 C 
ATOM     16  O   UNL     1      60.034 152.439   7.375  1.00  0.00    -0.550 OA
ATOM     17  O   UNL     1      61.565 151.278   8.626  1.00  0.00    -0.550 OA
ENDBRANCH  14  15
ENDBRANCH  13  14
ENDBRANCH  12  13
ENDBRANCH  11  12
ENDBRANCH  10  11
ENDBRANCH   9  10
ENDBRANCH   8   9
ENDBRANCH   7   8
ENDBRANCH   6   7
ENDBRANCH   5   6
ENDBRANCH   4   5
ENDBRANCH   3   4
ENDBRANCH   2   3
ENDBRANCH   1   2
BRANCH   1  18
ATOM     18  C   UNL     1      61.102 151.435   2.854  1.00  0.00     0.000 C 
BRANCH  18  19
ATOM     19  C   UNL     1      61.327 151.843   4.317  1.00  0.00     0.000 C 
BRANCH  19  20
ATOM     20  C   UNL     1      62.632 152.628   4.528  1.00  0.00     0.000 C 
BRANCH  20  21
ATOM     21  C   UNL     1      63.805 151.754   5.018  1.00  0.00     0.000 C 
BRANCH  21  22
ATOM     22  C   UNL     1      63.966 150.474   4.179  1.00  0.00     0.000 C 
BRANCH  22  23
ATOM     23  C   UNL     1      65.122 149.584   4.664  1.00  0.00     0.000 C 
BRANCH  23  24
ATOM     24  C   UNL     1      64.703 148.637   5.802  1.00  0.00    -0.000 C 
BRANCH  24  25
ATOM     25  C   UNL     1      63.279 148.085   5.626  1.00  0.00    -0.000 C 
BRANCH  25  26
ATOM     26  C   UNL     1      62.209 148.988   6.265  1.00  0.00    -0.000 C 
BRANCH  26  27
ATOM     27  C   UNL     1      60.781 148.481   6.009  1.00  0.00    -0.000 C 
BRANCH  27  28
ATOM     28  C   UNL     1      59.741 149.154   6.925  1.00  0.00    -0.000 C 
BRANCH  28  29
ATOM     29  C   UNL     1      59.536 148.391   8.244  1.00  0.00    -0.000 C 
BRANCH  29  30
ATOM     30  C   UNL     1      60.020 146.933   8.163  1.00  0.00    -0.000 C 
BRANCH  30  31
ATOM     31  C   UNL     1      58.940 145.931   8.601  1.00  0.00    -0.003 C 
ATOM     32  C   UNL     1      59.049 144.587   7.883  1.00  0.00     0.004 C 
ENDBRANCH  30  31
ENDBRANCH  29  30
ENDBRANCH  28  29
ENDBRANCH  27  28
ENDBRANCH  26  27
ENDBRANCH  25  26
ENDBRANCH  24  25
ENDBRANCH  23  24
ENDBRANCH  22  23
ENDBRANCH  21  22
ENDBRANCH  20  21
ENDBRANCH  19  20
ENDBRANCH  18  19
ENDBRANCH   1  18
TORSDOF 28
ENDMDL
MODEL 9
REMARK VINA RESULT:    -4.252      2.902      6.957
REMARK INTER + INTRA:         -13.503
REMARK INTER:                 -10.415
REMARK INTRA:                  -3.088
REMARK UNBOUND:                -2.290
REMARK SMILES CCCCCCCCCCCCCCCCCCCCCCCCCCCCCC(=O)[O-]
REMARK SMILES IDX 16 1 17 2 18 3 19 4 20 5 21 6 22 7 23 8 24 9 25 10 26 11
REMARK SMILES IDX 27 12 28 13 29 14 30 15 31 16 32 17 15 18 14 19 13 20 12 21
REMARK SMILES IDX 11 22 10 23 9 24 8 25 7 26 6 27 5 28 4 29 3 30 2 31 1 32
REMARK H PARENT
REMARK Flexibility Score: inf
ROOT
ATOM      1  C   UNL     1      63.731 149.034   5.644  1.00  0.00     0.000 C 
ENDROOT
BRANCH   1   2
ATOM      2  C   UNL     1      62.778 147.833   5.575  1.00  0.00     0.000 C 
BRANCH   2   3
ATOM      3  C   UNL     1      61.323 148.199   5.917  1.00  0.00     0.000 C 
BRANCH   3   4
ATOM      4  C   UNL     1      60.565 147.095   6.686  1.00  0.00     0.000 C 
BRANCH   4   5
ATOM      5  C   UNL     1      60.033 147.589   8.041  1.00  0.00     0.000 C 
BRANCH   5   6
ATOM      6  C   UNL     1      58.886 148.589   7.851  1.00  0.00     0.000 C 
BRANCH   6   7
ATOM      7  C   UNL     1      59.079 149.819   8.752  1.00  0.00     0.000 C 
BRANCH   7   8
ATOM      8  C   UNL     1      58.060 150.933   8.460  1.00  0.00     0.000 C 
BRANCH   8   9
ATOM      9  C   UNL     1      57.875 151.183   6.955  1.00  0.00     0.000 C 
BRANCH   9  10
ATOM     10  C   UNL     1      58.270 152.620   6.580  1.00  0.00     0.000 C 
BRANCH  10  11
ATOM     11  C   UNL     1      58.419 152.810   5.063  1.00  0.00     0.000 C 
BRANCH  11  12
ATOM     12  C   UNL     1      59.877 152.710   4.592  1.00  0.00     0.000 C 
BRANCH  12  13
ATOM     13  C   UNL     1      59.986 152.999   3.089  1.00  0.00     0.006 C 
BRANCH  13  14
ATOM     14  C   UNL     1      58.811 153.849   2.599  1.00  0.00     0.053 C 
BRANCH  14  15
ATOM     15  C   UNL     1      59.002 154.228   1.164  1.00  0.00     0.041 C 
ATOM     16  O   UNL     1      60.010 153.817   0.527  1.00  0.00    -0.550 OA
ATOM     17  O   UNL     1      58.044 154.997   0.514  1.00  0.00    -0.550 OA
ENDBRANCH  14  15
ENDBRANCH  13  14
ENDBRANCH  12  13
ENDBRANCH  11  12
ENDBRANCH  10  11
ENDBRANCH   9  10
ENDBRANCH   8   9
ENDBRANCH   7   8
ENDBRANCH   6   7
ENDBRANCH   5   6
ENDBRANCH   4   5
ENDBRANCH   3   4
ENDBRANCH   2   3
ENDBRANCH   1   2
BRANCH   1  18
ATOM     18  C   UNL     1      64.759 148.994   4.507  1.00  0.00     0.000 C 
BRANCH  18  19
ATOM     19  C   UNL     1      64.864 150.360   3.814  1.00  0.00     0.000 C 
BRANCH  19  20
ATOM     20  C   UNL     1      65.283 151.488   4.771  1.00  0.00     0.000 C 
BRANCH  20  21
ATOM     21  C   UNL     1      64.424 152.763   4.636  1.00  0.00     0.000 C 
BRANCH  21  22
ATOM     22  C   UNL     1      62.947 152.507   4.984  1.00  0.00     0.000 C 
BRANCH  22  23
ATOM     23  C   UNL     1      62.672 152.561   6.496  1.00  0.00     0.000 C 
BRANCH  23  24
ATOM     24  C   UNL     1      62.970 153.943   7.103  1.00  0.00    -0.000 C 
BRANCH  24  25
ATOM     25  C   UNL     1      61.734 154.857   7.140  1.00  0.00    -0.000 C 
BRANCH  25  26
ATOM     26  C   UNL     1      61.251 155.145   8.573  1.00  0.00    -0.000 C 
BRANCH  26  27
ATOM     27  C   UNL     1      59.745 154.892   8.748  1.00  0.00    -0.000 C 
BRANCH  27  28
ATOM     28  C   UNL     1      58.964 156.178   9.078  1.00  0.00    -0.000 C 
BRANCH  28  29
ATOM     29  C   UNL     1      57.875 156.489   8.037  1.00  0.00    -0.000 C 
BRANCH  29  30
ATOM     30  C   UNL     1      58.108 155.758   6.704  1.00  0.00    -0.000 C 
BRANCH  30  31
ATOM     31  C   UNL     1      58.804 156.647   5.661  1.00  0.00    -0.003 C 
ATOM     32  C   UNL     1      58.069 156.681   4.322  1.00  0.00     0.004 C 
ENDBRANCH  30  31
ENDBRANCH  29  30
ENDBRANCH  28  29
ENDBRANCH  27  28
ENDBRANCH  26  27
ENDBRANCH  25  26
ENDBRANCH  24  25
ENDBRANCH  23  24
ENDBRANCH  22  23
ENDBRANCH  21  22
ENDBRANCH  20  21
ENDBRANCH  19  20
ENDBRANCH  18  19
ENDBRANCH   1  18
TORSDOF 28
ENDMDL
