MODEL 1
REMARK VINA RESULT:    -4.325      0.000      0.000
REMARK INTER + INTRA:          -8.306
REMARK INTER:                  -7.359
REMARK INTRA:                  -0.947
REMARK UNBOUND:                -0.947
REMARK SMILES CCCCCCCCCCCCCC(=O)[O-]
REMARK SMILES IDX 8 1 9 2 10 3 11 4 12 5 13 6 14 7 15 8 16 9 7 10 6 11 5 12
REMARK SMILES IDX 4 13 3 14 2 15 1 16
REMARK H PARENT
REMARK Flexibility Score: inf
ROOT
ATOM      1  C   UNL     1      -1.997 -35.370  47.121  1.00  0.00     0.000 C 
ENDROOT
BRANCH   1   2
ATOM      2  C   UNL     1      -1.729 -34.362  45.991  1.00  0.00     0.000 C 
BRANCH   2   3
ATOM      3  C   UNL     1      -0.232 -34.078  45.788  1.00  0.00     0.000 C 
BRANCH   3   4
ATOM      4  C   UNL     1       0.378 -34.806  44.571  1.00  0.00     0.000 C 
BRANCH   4   5
ATOM      5  C   UNL     1       1.913 -34.704  44.545  1.00  0.00     0.006 C 
BRANCH   5   6
ATOM      6  C   UNL     1       2.507 -34.506  45.946  1.00  0.00     0.053 C 
BRANCH   6   7
ATOM      7  C   UNL     1       3.290 -35.702  46.394  1.00  0.00     0.041 C 
ATOM      8  O   UNL     1       3.235 -36.776  45.739  1.00  0.00    -0.550 OA
ATOM      9  O   UNL     1       4.108 -35.619  47.513  1.00  0.00    -0.550 OA
ENDBRANCH   6   7
ENDBRANCH   5   6
ENDBRANCH   4   5
ENDBRANCH   3   4
ENDBRANCH   2   3
ENDBRANCH   1   2
BRANCH   1  10
ATOM     10  C   UNL     1      -2.860 -36.557  46.660  1.00  0.00     0.000 C 
BRANCH  10  11
ATOM     11  C   UNL     1      -3.369 -36.390  45.217  1.00  0.00    -0.000 C 
BRANCH  11  12
ATOM     12  C   UNL     1      -4.900 -36.287  45.138  1.00  0.00    -0.000 C 
BRANCH  12  13
ATOM     13  C   UNL     1      -5.370 -35.225  44.127  1.00  0.00    -0.000 C 
BRANCH  13  14
ATOM     14  C   UNL     1      -6.443 -34.290  44.711  1.00  0.00    -0.000 C 
BRANCH  14  15
ATOM     15  C   UNL     1      -6.850 -34.674  46.141  1.00  0.00    -0.003 C 
ATOM     16  C   UNL     1      -6.701 -33.489  47.090  1.00  0.00     0.004 C 
ENDBRANCH  14  15
ENDBRANCH  13  14
ENDBRANCH  12  13
ENDBRANCH  11  12
ENDBRANCH  10  11
ENDBRANCH   1  10
TORSDOF 12
ENDMDL
MODEL 2
REMARK VINA RESULT:    -4.224      1.294      2.264
REMARK INTER + INTRA:          -8.135
REMARK INTER:                  -6.912
REMARK INTRA:                  -1.223
REMARK UNBOUND:                -0.947
REMARK SMILES CCCCCCCCCCCCCC(=O)[O-]
REMARK SMILES IDX 8 1 9 2 10 3 11 4 12 5 13 6 14 7 15 8 16 9 7 10 6 11 5 12
REMARK SMILES IDX 4 13 3 14 2 15 1 16
REMARK H PARENT
REMARK Flexibility Score: inf
ROOT
ATOM      1  C   UNL     1      -2.554 -34.238  46.420  1.00  0.00     0.000 C 
ENDROOT
BRANCH   1   2
ATOM      2  C   UNL     1      -1.054 -34.426  46.142  1.00  0.00     0.000 C 
BRANCH   2   3
ATOM      3  C   UNL     1      -0.697 -35.869  45.747  1.00  0.00     0.000 C 
BRANCH   3   4
ATOM      4  C   UNL     1       0.390 -35.961  44.655  1.00  0.00     0.000 C 
BRANCH   4   5
ATOM      5  C   UNL     1       0.937 -34.577  44.264  1.00  0.00     0.006 C 
BRANCH   5   6
ATOM      6  C   UNL     1       2.452 -34.468  44.482  1.00  0.00     0.053 C 
BRANCH   6   7
ATOM      7  C   UNL     1       2.817 -34.593  45.929  1.00  0.00     0.041 C 
ATOM      8  O   UNL     1       2.453 -33.713  46.753  1.00  0.00    -0.550 OA
ATOM      9  O   UNL     1       3.528 -35.700  46.375  1.00  0.00    -0.550 OA
ENDBRANCH   6   7
ENDBRANCH   5   6
ENDBRANCH   4   5
ENDBRANCH   3   4
ENDBRANCH   2   3
ENDBRANCH   1   2
BRANCH   1  10
ATOM     10  C   UNL     1      -3.108 -35.286  47.400  1.00  0.00     0.000 C 
BRANCH  10  11
ATOM     11  C   UNL     1      -4.590 -35.045  47.743  1.00  0.00    -0.000 C 
BRANCH  11  12
ATOM     12  C   UNL     1      -5.002 -33.573  47.586  1.00  0.00    -0.000 C 
BRANCH  12  13
ATOM     13  C   UNL     1      -6.468 -33.412  47.148  1.00  0.00    -0.000 C 
BRANCH  13  14
ATOM     14  C   UNL     1      -6.863 -34.402  46.038  1.00  0.00    -0.000 C 
BRANCH  14  15
ATOM     15  C   UNL     1      -6.275 -34.025  44.671  1.00  0.00    -0.003 C 
ATOM     16  C   UNL     1      -5.451 -35.174  44.094  1.00  0.00     0.004 C 
ENDBRANCH  14  15
ENDBRANCH  13  14
ENDBRANCH  12  13
ENDBRANCH  11  12
ENDBRANCH  10  11
ENDBRANCH   1  10
TORSDOF 12
ENDMDL
MODEL 3
REMARK VINA RESULT:    -4.224      3.546      7.233
REMARK INTER + INTRA:          -8.135
REMARK INTER:                  -6.975
REMARK INTRA:                  -1.160
REMARK UNBOUND:                -0.947
REMARK SMILES CCCCCCCCCCCCCC(=O)[O-]
REMARK SMILES IDX 8 1 9 2 10 3 11 4 12 5 13 6 14 7 15 8 16 9 7 10 6 11 5 12
REMARK SMILES IDX 4 13 3 14 2 15 1 16
REMARK H PARENT
REMARK Flexibility Score: inf
ROOT
ATOM      1  C   UNL     1      -1.923 -34.124  45.752  1.00  0.00     0.000 C 
ENDROOT
BRANCH   1   2
ATOM      2  C   UNL     1      -2.679 -33.783  47.047  1.00  0.00     0.000 C 
BRANCH   2   3
ATOM      3  C   UNL     1      -3.122 -35.034  47.825  1.00  0.00     0.000 C 
BRANCH   3   4
ATOM      4  C   UNL     1      -4.654 -35.204  47.904  1.00  0.00     0.000 C 
BRANCH   4   5
ATOM      5  C   UNL     1      -5.399 -34.107  47.124  1.00  0.00     0.006 C 
BRANCH   5   6
ATOM      6  C   UNL     1      -6.415 -34.687  46.131  1.00  0.00     0.053 C 
BRANCH   6   7
ATOM      7  C   UNL     1      -5.877 -34.711  44.733  1.00  0.00     0.041 C 
ATOM      8  O   UNL     1      -5.066 -35.608  44.382  1.00  0.00    -0.550 OA
ATOM      9  O   UNL     1      -6.299 -33.765  43.808  1.00  0.00    -0.550 OA
ENDBRANCH   6   7
ENDBRANCH   5   6
ENDBRANCH   4   5
ENDBRANCH   3   4
ENDBRANCH   2   3
ENDBRANCH   1   2
BRANCH   1  10
ATOM     10  C   UNL     1      -1.529 -35.608  45.672  1.00  0.00     0.000 C 
BRANCH  10  11
ATOM     11  C   UNL     1      -0.218 -35.828  44.895  1.00  0.00    -0.000 C 
BRANCH  11  12
ATOM     12  C   UNL     1       0.538 -34.517  44.628  1.00  0.00    -0.000 C 
BRANCH  12  13
ATOM     13  C   UNL     1       2.063 -34.715  44.568  1.00  0.00    -0.000 C 
BRANCH  13  14
ATOM     14  C   UNL     1       2.736 -34.527  45.939  1.00  0.00    -0.000 C 
BRANCH  14  15
ATOM     15  C   UNL     1       1.866 -33.730  46.922  1.00  0.00    -0.003 C 
ATOM     16  C   UNL     1       2.726 -32.855  47.829  1.00  0.00     0.004 C 
ENDBRANCH  14  15
ENDBRANCH  13  14
ENDBRANCH  12  13
ENDBRANCH  11  12
ENDBRANCH  10  11
ENDBRANCH   1  10
TORSDOF 12
ENDMDL
MODEL 4
REMARK VINA RESULT:    -4.194      3.704      7.436
REMARK INTER + INTRA:          -8.084
REMARK INTER:                  -7.100
REMARK INTRA:                  -0.983
REMARK UNBOUND:                -0.947
REMARK SMILES CCCCCCCCCCCCCC(=O)[O-]
REMARK SMILES IDX 8 1 9 2 10 3 11 4 12 5 13 6 14 7 15 8 16 9 7 10 6 11 5 12
REMARK SMILES IDX 4 13 3 14 2 15 1 16
REMARK H PARENT
REMARK Flexibility Score: inf
ROOT
ATOM      1  C   UNL     1      -2.745 -35.365  46.066  1.00  0.00     0.000 C 
ENDROOT
BRANCH   1   2
ATOM      2  C   UNL     1      -3.390 -36.466  45.210  1.00  0.00     0.000 C 
BRANCH   2   3
ATOM      3  C   UNL     1      -4.908 -36.283  45.046  1.00  0.00     0.000 C 
BRANCH   3   4
ATOM      4  C   UNL     1      -5.295 -35.083  44.156  1.00  0.00     0.000 C 
BRANCH   4   5
ATOM      5  C   UNL     1      -6.383 -34.209  44.803  1.00  0.00     0.006 C 
BRANCH   5   6
ATOM      6  C   UNL     1      -6.761 -34.696  46.209  1.00  0.00     0.053 C 
BRANCH   6   7
ATOM      7  C   UNL     1      -6.263 -33.766  47.273  1.00  0.00     0.041 C 
ATOM      8  O   UNL     1      -5.299 -34.105  48.010  1.00  0.00    -0.550 OA
ATOM      9  O   UNL     1      -6.838 -32.511  47.427  1.00  0.00    -0.550 OA
ENDBRANCH   6   7
ENDBRANCH   5   6
ENDBRANCH   4   5
ENDBRANCH   3   4
ENDBRANCH   2   3
ENDBRANCH   1   2
BRANCH   1  10
ATOM     10  C   UNL     1      -1.367 -34.935  45.535  1.00  0.00     0.000 C 
BRANCH  10  11
ATOM     11  C   UNL     1      -0.374 -36.109  45.458  1.00  0.00    -0.000 C 
BRANCH  11  12
ATOM     12  C   UNL     1       0.718 -35.892  44.398  1.00  0.00    -0.000 C 
BRANCH  12  13
ATOM     13  C   UNL     1       1.444 -34.545  44.564  1.00  0.00    -0.000 C 
BRANCH  13  14
ATOM     14  C   UNL     1       2.812 -34.694  45.251  1.00  0.00    -0.000 C 
BRANCH  14  15
ATOM     15  C   UNL     1       2.711 -34.687  46.783  1.00  0.00    -0.003 C 
ATOM     16  C   UNL     1       2.100 -33.383  47.286  1.00  0.00     0.004 C 
ENDBRANCH  14  15
ENDBRANCH  13  14
ENDBRANCH  12  13
ENDBRANCH  11  12
ENDBRANCH  10  11
ENDBRANCH   1  10
TORSDOF 12
ENDMDL
MODEL 5
REMARK VINA RESULT:    -4.181      1.638      2.770
REMARK INTER + INTRA:          -8.061
REMARK INTER:                  -6.619
REMARK INTRA:                  -1.442
REMARK UNBOUND:                -0.947
REMARK SMILES CCCCCCCCCCCCCC(=O)[O-]
REMARK SMILES IDX 8 1 9 2 10 3 11 4 12 5 13 6 14 7 15 8 16 9 7 10 6 11 5 12
REMARK SMILES IDX 4 13 3 14 2 15 1 16
REMARK H PARENT
REMARK Flexibility Score: inf
ROOT
ATOM      1  C   UNL     1      -3.504 -36.287  45.343  1.00  0.00     0.000 C 
ENDROOT
BRANCH   1   2
ATOM      2  C   UNL     1      -3.160 -36.339  46.841  1.00  0.00     0.000 C 
BRANCH   2   3
ATOM      3  C   UNL     1      -2.076 -35.323  47.239  1.00  0.00     0.000 C 
BRANCH   3   4
ATOM      4  C   UNL     1      -1.800 -34.256  46.159  1.00  0.00     0.000 C 
BRANCH   4   5
ATOM      5  C   UNL     1      -0.334 -34.272  45.691  1.00  0.00     0.006 C 
BRANCH   5   6
ATOM      6  C   UNL     1       0.125 -35.672  45.265  1.00  0.00     0.053 C 
BRANCH   6   7
ATOM      7  C   UNL     1       1.254 -35.613  44.282  1.00  0.00     0.041 C 
ATOM      8  O   UNL     1       1.588 -36.643  43.638  1.00  0.00    -0.550 OA
ATOM      9  O   UNL     1       1.913 -34.413  44.050  1.00  0.00    -0.550 OA
ENDBRANCH   6   7
ENDBRANCH   5   6
ENDBRANCH   4   5
ENDBRANCH   3   4
ENDBRANCH   2   3
ENDBRANCH   1   2
BRANCH   1  10
ATOM     10  C   UNL     1      -5.021 -36.275  45.087  1.00  0.00     0.000 C 
BRANCH  10  11
ATOM     11  C   UNL     1      -5.428 -35.251  44.011  1.00  0.00    -0.000 C 
BRANCH  11  12
ATOM     12  C   UNL     1      -6.181 -34.046  44.597  1.00  0.00    -0.000 C 
BRANCH  12  13
ATOM     13  C   UNL     1      -6.866 -34.371  45.936  1.00  0.00    -0.000 C 
BRANCH  13  14
ATOM     14  C   UNL     1      -6.503 -33.366  47.043  1.00  0.00    -0.000 C 
BRANCH  14  15
ATOM     15  C   UNL     1      -5.320 -33.833  47.903  1.00  0.00    -0.003 C 
ATOM     16  C   UNL     1      -4.482 -32.648  48.374  1.00  0.00     0.004 C 
ENDBRANCH  14  15
ENDBRANCH  13  14
ENDBRANCH  12  13
ENDBRANCH  11  12
ENDBRANCH  10  11
ENDBRANCH   1  10
TORSDOF 12
ENDMDL
MODEL 6
REMARK VINA RESULT:    -4.157      4.007      7.613
REMARK INTER + INTRA:          -8.021
REMARK INTER:                  -7.028
REMARK INTRA:                  -0.993
REMARK UNBOUND:                -0.947
REMARK SMILES CCCCCCCCCCCCCC(=O)[O-]
REMARK SMILES IDX 8 1 9 2 10 3 11 4 12 5 13 6 14 7 15 8 16 9 7 10 6 11 5 12
REMARK SMILES IDX 4 13 3 14 2 15 1 16
REMARK H PARENT
REMARK Flexibility Score: inf
ROOT
ATOM      1  C   UNL     1      -0.168 -35.711  44.618  1.00  0.00     0.000 C 
ENDROOT
BRANCH   1   2
ATOM      2  C   UNL     1      -0.563 -34.545  45.538  1.00  0.00     0.000 C 
BRANCH   2   3
ATOM      3  C   UNL     1      -1.236 -35.013  46.839  1.00  0.00     0.000 C 
BRANCH   3   4
ATOM      4  C   UNL     1      -2.691 -35.492  46.646  1.00  0.00     0.000 C 
BRANCH   4   5
ATOM      5  C   UNL     1      -3.547 -34.455  45.897  1.00  0.00     0.006 C 
BRANCH   5   6
ATOM      6  C   UNL     1      -4.707 -35.104  45.131  1.00  0.00     0.053 C 
BRANCH   6   7
ATOM      7  C   UNL     1      -5.880 -34.180  45.010  1.00  0.00     0.041 C 
ATOM      8  O   UNL     1      -6.342 -33.888  43.875  1.00  0.00    -0.550 OA
ATOM      9  O   UNL     1      -6.487 -33.672  46.151  1.00  0.00    -0.550 OA
ENDBRANCH   6   7
ENDBRANCH   5   6
ENDBRANCH   4   5
ENDBRANCH   3   4
ENDBRANCH   2   3
ENDBRANCH   1   2
BRANCH   1  10
ATOM     10  C   UNL     1       1.356 -35.844  44.455  1.00  0.00     0.000 C 
BRANCH  10  11
ATOM     11  C   UNL     1       2.102 -34.549  44.822  1.00  0.00    -0.000 C 
BRANCH  11  12
ATOM     12  C   UNL     1       3.202 -34.777  45.871  1.00  0.00    -0.000 C 
BRANCH  12  13
ATOM     13  C   UNL     1       2.710 -34.529  47.308  1.00  0.00    -0.000 C 
BRANCH  13  14
ATOM     14  C   UNL     1       2.313 -33.063  47.550  1.00  0.00    -0.000 C 
BRANCH  14  15
ATOM     15  C   UNL     1       3.376 -32.283  48.338  1.00  0.00    -0.003 C 
ATOM     16  C   UNL     1       2.928 -30.846  48.588  1.00  0.00     0.004 C 
ENDBRANCH  14  15
ENDBRANCH  13  14
ENDBRANCH  12  13
ENDBRANCH  11  12
ENDBRANCH  10  11
ENDBRANCH   1  10
TORSDOF 12
ENDMDL
MODEL 7
REMARK VINA RESULT:    -4.154      3.869      7.266
REMARK INTER + INTRA:          -8.016
REMARK INTER:                  -6.636
REMARK INTRA:                  -1.379
REMARK UNBOUND:                -0.947
REMARK SMILES CCCCCCCCCCCCCC(=O)[O-]
REMARK SMILES IDX 8 1 9 2 10 3 11 4 12 5 13 6 14 7 15 8 16 9 7 10 6 11 5 12
REMARK SMILES IDX 4 13 3 14 2 15 1 16
REMARK H PARENT
REMARK Flexibility Score: inf
ROOT
ATOM      1  C   UNL     1      -1.221 -33.930  46.387  1.00  0.00     0.000 C 
ENDROOT
BRANCH   1   2
ATOM      2  C   UNL     1      -2.729 -34.101  46.142  1.00  0.00     0.000 C 
BRANCH   2   3
ATOM      3  C   UNL     1      -3.150 -35.575  46.021  1.00  0.00     0.000 C 
BRANCH   3   4
ATOM      4  C   UNL     1      -4.367 -35.798  45.099  1.00  0.00     0.000 C 
BRANCH   4   5
ATOM      5  C   UNL     1      -5.157 -34.500  44.859  1.00  0.00     0.006 C 
BRANCH   5   6
ATOM      6  C   UNL     1      -6.564 -34.554  45.471  1.00  0.00     0.053 C 
BRANCH   6   7
ATOM      7  C   UNL     1      -6.555 -34.180  46.921  1.00  0.00     0.041 C 
ATOM      8  O   UNL     1      -6.802 -32.996  47.271  1.00  0.00    -0.550 OA
ATOM      9  O   UNL     1      -6.311 -35.147  47.888  1.00  0.00    -0.550 OA
ENDBRANCH   6   7
ENDBRANCH   5   6
ENDBRANCH   4   5
ENDBRANCH   3   4
ENDBRANCH   2   3
ENDBRANCH   1   2
BRANCH   1  10
ATOM     10  C   UNL     1      -0.641 -35.032  47.289  1.00  0.00     0.000 C 
BRANCH  10  11
ATOM     11  C   UNL     1       0.874 -34.872  47.515  1.00  0.00    -0.000 C 
BRANCH  11  12
ATOM     12  C   UNL     1       1.515 -33.877  46.534  1.00  0.00    -0.000 C 
BRANCH  12  13
ATOM     13  C   UNL     1       2.382 -34.573  45.469  1.00  0.00    -0.000 C 
BRANCH  13  14
ATOM     14  C   UNL     1       1.559 -35.058  44.264  1.00  0.00    -0.000 C 
BRANCH  14  15
ATOM     15  C   UNL     1       1.366 -36.582  44.252  1.00  0.00    -0.003 C 
ATOM     16  C   UNL     1      -0.115 -36.947  44.239  1.00  0.00     0.004 C 
ENDBRANCH  14  15
ENDBRANCH  13  14
ENDBRANCH  12  13
ENDBRANCH  11  12
ENDBRANCH  10  11
ENDBRANCH   1  10
TORSDOF 12
ENDMDL
MODEL 8
REMARK VINA RESULT:    -4.151      3.095      6.836
REMARK INTER + INTRA:          -8.010
REMARK INTER:                  -6.980
REMARK INTRA:                  -1.030
REMARK UNBOUND:                -0.947
REMARK SMILES CCCCCCCCCCCCCC(=O)[O-]
REMARK SMILES IDX 8 1 9 2 10 3 11 4 12 5 13 6 14 7 15 8 16 9 7 10 6 11 5 12
REMARK SMILES IDX 4 13 3 14 2 15 1 16
REMARK H PARENT
REMARK Flexibility Score: inf
ROOT
ATOM      1  C   UNL     1      -4.352 -36.592  45.364  1.00  0.00     0.000 C 
ENDROOT
BRANCH   1   2
ATOM      2  C   UNL     1      -5.043 -35.717  44.306  1.00  0.00     0.000 C 
BRANCH   2   3
ATOM      3  C   UNL     1      -5.548 -34.381  44.874  1.00  0.00     0.000 C 
BRANCH   3   4
ATOM      4  C   UNL     1      -6.946 -34.472  45.523  1.00  0.00     0.000 C 
BRANCH   4   5
ATOM      5  C   UNL     1      -6.901 -34.200  47.036  1.00  0.00     0.006 C 
BRANCH   5   6
ATOM      6  C   UNL     1      -6.000 -33.008  47.386  1.00  0.00     0.053 C 
BRANCH   6   7
ATOM      7  C   UNL     1      -4.734 -33.444  48.059  1.00  0.00     0.041 C 
ATOM      8  O   UNL     1      -4.564 -34.654  48.363  1.00  0.00    -0.550 OA
ATOM      9  O   UNL     1      -3.729 -32.521  48.316  1.00  0.00    -0.550 OA
ENDBRANCH   6   7
ENDBRANCH   5   6
ENDBRANCH   4   5
ENDBRANCH   3   4
ENDBRANCH   2   3
ENDBRANCH   1   2
BRANCH   1  10
ATOM     10  C   UNL     1      -2.821 -36.596  45.217  1.00  0.00     0.000 C 
BRANCH  10  11
ATOM     11  C   UNL     1      -2.120 -35.798  46.332  1.00  0.00    -0.000 C 
BRANCH  11  12
ATOM     12  C   UNL     1      -1.786 -34.359  45.908  1.00  0.00    -0.000 C 
BRANCH  12  13
ATOM     13  C   UNL     1      -0.271 -34.107  45.813  1.00  0.00    -0.000 C 
BRANCH  13  14
ATOM     14  C   UNL     1       0.368 -34.805  44.600  1.00  0.00    -0.000 C 
BRANCH  14  15
ATOM     15  C   UNL     1       1.895 -34.647  44.561  1.00  0.00    -0.003 C 
ATOM     16  C   UNL     1       2.462 -34.456  45.964  1.00  0.00     0.004 C 
ENDBRANCH  14  15
ENDBRANCH  13  14
ENDBRANCH  12  13
ENDBRANCH  11  12
ENDBRANCH  10  11
ENDBRANCH   1  10
TORSDOF 12
ENDMDL
MODEL 9
REMARK VINA RESULT:    -4.033      3.997      7.117
REMARK INTER + INTRA:          -7.809
REMARK INTER:                  -6.242
REMARK INTRA:                  -1.567
REMARK UNBOUND:                -0.947
REMARK SMILES CCCCCCCCCCCCCC(=O)[O-]
REMARK SMILES IDX 8 1 9 2 10 3 11 4 12 5 13 6 14 7 15 8 16 9 7 10 6 11 5 12
REMARK SMILES IDX 4 13 3 14 2 15 1 16
REMARK H PARENT
REMARK Flexibility Score: inf
ROOT
ATOM      1  C   UNL     1      -2.078 -34.288  47.938  1.00  0.00     0.000 C 
ENDROOT
BRANCH   1   2
ATOM      2  C   UNL     1      -2.765 -35.597  48.360  1.00  0.00     0.000 C 
BRANCH   2   3
ATOM      3  C   UNL     1      -4.081 -35.850  47.607  1.00  0.00     0.000 C 
BRANCH   3   4
ATOM      4  C   UNL     1      -3.922 -36.757  46.368  1.00  0.00     0.000 C 
BRANCH   4   5
ATOM      5  C   UNL     1      -4.226 -36.009  45.059  1.00  0.00     0.006 C 
BRANCH   5   6
ATOM      6  C   UNL     1      -4.719 -34.577  45.308  1.00  0.00     0.053 C 
BRANCH   6   7
ATOM      7  C   UNL     1      -6.185 -34.437  45.032  1.00  0.00     0.041 C 
ATOM      8  O   UNL     1      -6.582 -34.061  43.897  1.00  0.00    -0.550 OA
ATOM      9  O   UNL     1      -7.113 -34.755  46.016  1.00  0.00    -0.550 OA
ENDBRANCH   6   7
ENDBRANCH   5   6
ENDBRANCH   4   5
ENDBRANCH   3   4
ENDBRANCH   2   3
ENDBRANCH   1   2
BRANCH   1  10
ATOM     10  C   UNL     1      -0.717 -34.528  47.263  1.00  0.00     0.000 C 
BRANCH  10  11
ATOM     11  C   UNL     1      -0.812 -34.520  45.726  1.00  0.00    -0.000 C 
BRANCH  11  12
ATOM     12  C   UNL     1      -0.492 -35.890  45.107  1.00  0.00    -0.000 C 
BRANCH  12  13
ATOM     13  C   UNL     1       0.852 -35.901  44.357  1.00  0.00    -0.000 C 
BRANCH  13  14
ATOM     14  C   UNL     1       1.527 -34.519  44.338  1.00  0.00    -0.000 C 
BRANCH  14  15
ATOM     15  C   UNL     1       2.937 -34.540  44.948  1.00  0.00    -0.003 C 
ATOM     16  C   UNL     1       2.881 -34.355  46.462  1.00  0.00     0.004 C 
ENDBRANCH  14  15
ENDBRANCH  13  14
ENDBRANCH  12  13
ENDBRANCH  11  12
ENDBRANCH  10  11
ENDBRANCH   1  10
TORSDOF 12
ENDMDL
