MODEL 1
REMARK VINA RESULT:    -6.776      0.000      0.000
REMARK INTER + INTRA:          -8.251
REMARK INTER:                  -7.964
REMARK INTRA:                  -0.287
REMARK UNBOUND:                -0.287
REMARK SMILES O=c1c(O)c(-c2ccc(O)cc2)oc2cc(O)cc(O)c12
REMARK SMILES IDX 5 1 3 2 2 3 1 4 21 5 19 6 18 7 16 8 15 9 14 10 13 11 6 12
REMARK SMILES IDX 7 13 8 14 9 15 12 16 11 17 10 18 4 20 20 22 17 24
REMARK H PARENT 10 19 4 21 20 23 17 25
REMARK Flexibility Score: inf
ROOT
ATOM      1  C   UNL     1      30.529  10.844  64.114  1.00  0.00     0.180 A 
ATOM      2  C   UNL     1      30.088   9.818  63.256  1.00  0.00     0.208 A 
ATOM      3  C   UNL     1      30.924   9.406  62.207  1.00  0.00     0.238 A 
ATOM      4  O   UNL     1      30.544   8.480  61.438  1.00  0.00    -0.285 OA
ATOM      5  C   UNL     1      32.171  10.037  62.019  1.00  0.00     0.111 A 
ATOM      6  C   UNL     1      33.069   9.683  60.983  1.00  0.00     0.134 A 
ATOM      7  C   UNL     1      34.288  10.365  60.858  1.00  0.00     0.093 A 
ATOM      8  C   UNL     1      34.626  11.391  61.744  1.00  0.00     0.123 A 
ATOM      9  C   UNL     1      33.743  11.744  62.770  1.00  0.00     0.094 A 
ATOM     10  C   UNL     1      32.524  11.075  62.913  1.00  0.00     0.146 A 
ATOM     11  O   UNL     1      31.705  11.426  63.898  1.00  0.00    -0.452 OA
ENDROOT
BRANCH   1  12
ATOM     12  C   UNL     1      29.715  11.320  65.254  1.00  0.00     0.021 A 
ATOM     13  C   UNL     1      28.830  12.407  65.121  1.00  0.00     0.016 A 
ATOM     14  C   UNL     1      28.054  12.823  66.206  1.00  0.00     0.047 A 
ATOM     15  C   UNL     1      28.139  12.156  67.431  1.00  0.00     0.115 A 
ATOM     16  C   UNL     1      29.780  10.641  66.483  1.00  0.00     0.016 A 
ATOM     17  C   UNL     1      29.002  11.061  67.566  1.00  0.00     0.047 A 
BRANCH  15  18
ATOM     18  O   UNL     1      27.360  12.584  68.504  1.00  0.00    -0.508 OA
ATOM     19  H   UNL     1      26.351  12.487  68.497  1.00  0.00     0.293 HD
ENDBRANCH  15  18
ENDBRANCH   1  12
BRANCH   2  20
ATOM     20  O   UNL     1      28.827   9.243  63.433  1.00  0.00    -0.502 OA
ATOM     21  H   UNL     1      28.114   9.266  62.715  1.00  0.00     0.293 HD
ENDBRANCH   2  20
BRANCH   6  22
ATOM     22  O   UNL     1      32.760   8.664  60.081  1.00  0.00    -0.507 OA
ATOM     23  H   UNL     1      32.430   8.865  59.144  1.00  0.00     0.293 HD
ENDBRANCH   6  22
BRANCH   8  24
ATOM     24  O   UNL     1      35.842  12.052  61.597  1.00  0.00    -0.508 OA
ATOM     25  H   UNL     1      36.697  11.550  61.387  1.00  0.00     0.293 HD
ENDBRANCH   8  24
TORSDOF 5
ENDMDL
MODEL 2
REMARK VINA RESULT:    -6.503      1.901      6.400
REMARK INTER + INTRA:          -7.931
REMARK INTER:                  -8.151
REMARK INTRA:                   0.220
REMARK UNBOUND:                -0.287
REMARK SMILES O=c1c(O)c(-c2ccc(O)cc2)oc2cc(O)cc(O)c12
REMARK SMILES IDX 5 1 3 2 2 3 1 4 21 5 19 6 18 7 16 8 15 9 14 10 13 11 6 12
REMARK SMILES IDX 7 13 8 14 9 15 12 16 11 17 10 18 4 20 20 22 17 24
REMARK H PARENT 10 19 4 21 20 23 17 25
REMARK Flexibility Score: inf
ROOT
ATOM      1  C   UNL     1      31.143  10.562  63.895  1.00  0.00     0.180 A 
ATOM      2  C   UNL     1      29.765  10.321  64.061  1.00  0.00     0.208 A 
ATOM      3  C   UNL     1      29.097  10.925  65.138  1.00  0.00     0.238 A 
ATOM      4  O   UNL     1      27.860  10.724  65.290  1.00  0.00    -0.285 OA
ATOM      5  C   UNL     1      29.815  11.739  66.037  1.00  0.00     0.111 A 
ATOM      6  C   UNL     1      29.216  12.380  67.149  1.00  0.00     0.134 A 
ATOM      7  C   UNL     1      30.001  13.167  68.004  1.00  0.00     0.093 A 
ATOM      8  C   UNL     1      31.369  13.326  67.771  1.00  0.00     0.123 A 
ATOM      9  C   UNL     1      31.966  12.695  66.674  1.00  0.00     0.094 A 
ATOM     10  C   UNL     1      31.201  11.908  65.809  1.00  0.00     0.146 A 
ATOM     11  O   UNL     1      31.791  11.324  64.773  1.00  0.00    -0.452 OA
ENDROOT
BRANCH   1  12
ATOM     12  C   UNL     1      31.915   9.979  62.776  1.00  0.00     0.021 A 
ATOM     13  C   UNL     1      31.335   9.783  61.508  1.00  0.00     0.016 A 
ATOM     14  C   UNL     1      32.092   9.252  60.460  1.00  0.00     0.047 A 
ATOM     15  C   UNL     1      33.435   8.922  60.657  1.00  0.00     0.115 A 
ATOM     16  C   UNL     1      33.272   9.664  62.961  1.00  0.00     0.016 A 
ATOM     17  C   UNL     1      34.025   9.134  61.909  1.00  0.00     0.047 A 
BRANCH  15  18
ATOM     18  O   UNL     1      34.176   8.393  59.602  1.00  0.00    -0.508 OA
ATOM     19  H   UNL     1      34.730   7.552  59.714  1.00  0.00     0.293 HD
ENDBRANCH  15  18
ENDBRANCH   1  12
BRANCH   2  20
ATOM     20  O   UNL     1      29.087   9.471  63.185  1.00  0.00    -0.502 OA
ATOM     21  H   UNL     1      28.088   9.313  63.245  1.00  0.00     0.293 HD
ENDBRANCH   2  20
BRANCH   6  22
ATOM     22  O   UNL     1      27.852  12.241  67.410  1.00  0.00    -0.507 OA
ATOM     23  H   UNL     1      27.155  12.372  66.685  1.00  0.00     0.293 HD
ENDBRANCH   6  22
BRANCH   8  24
ATOM     24  O   UNL     1      32.126  14.112  68.635  1.00  0.00    -0.508 OA
ATOM     25  H   UNL     1      31.958  15.107  68.732  1.00  0.00     0.293 HD
ENDBRANCH   8  24
TORSDOF 5
ENDMDL
MODEL 3
REMARK VINA RESULT:    -6.394      1.745      6.958
REMARK INTER + INTRA:          -7.802
REMARK INTER:                  -7.679
REMARK INTRA:                  -0.123
REMARK UNBOUND:                -0.287
REMARK SMILES O=c1c(O)c(-c2ccc(O)cc2)oc2cc(O)cc(O)c12
REMARK SMILES IDX 5 1 3 2 2 3 1 4 21 5 19 6 18 7 16 8 15 9 14 10 13 11 6 12
REMARK SMILES IDX 7 13 8 14 9 15 12 16 11 17 10 18 4 20 20 22 17 24
REMARK H PARENT 10 19 4 21 20 23 17 25
REMARK Flexibility Score: inf
ROOT
ATOM      1  C   UNL     1      30.840  10.640  64.398  1.00  0.00     0.180 A 
ATOM      2  C   UNL     1      31.332  10.375  65.690  1.00  0.00     0.208 A 
ATOM      3  C   UNL     1      30.647  10.899  66.797  1.00  0.00     0.238 A 
ATOM      4  O   UNL     1      31.072  10.659  67.961  1.00  0.00    -0.285 OA
ATOM      5  C   UNL     1      29.500  11.694  66.595  1.00  0.00     0.111 A 
ATOM      6  C   UNL     1      28.755  12.263  67.657  1.00  0.00     0.134 A 
ATOM      7  C   UNL     1      27.630  13.050  67.373  1.00  0.00     0.093 A 
ATOM      8  C   UNL     1      27.234  13.279  66.053  1.00  0.00     0.123 A 
ATOM      9  C   UNL     1      27.966  12.719  65.000  1.00  0.00     0.094 A 
ATOM     10  C   UNL     1      29.089  11.930  65.262  1.00  0.00     0.146 A 
ATOM     11  O   UNL     1      29.763  11.406  64.245  1.00  0.00    -0.452 OA
ENDROOT
BRANCH   1  12
ATOM     12  C   UNL     1      31.495  10.108  63.182  1.00  0.00     0.021 A 
ATOM     13  C   UNL     1      32.805  10.482  62.830  1.00  0.00     0.016 A 
ATOM     14  C   UNL     1      33.410   9.947  61.689  1.00  0.00     0.047 A 
ATOM     15  C   UNL     1      32.725   9.024  60.895  1.00  0.00     0.115 A 
ATOM     16  C   UNL     1      30.819   9.164  62.390  1.00  0.00     0.016 A 
ATOM     17  C   UNL     1      31.428   8.630  61.250  1.00  0.00     0.047 A 
BRANCH  15  18
ATOM     18  O   UNL     1      33.341   8.500  59.761  1.00  0.00    -0.508 OA
ATOM     19  H   UNL     1      34.121   8.972  59.316  1.00  0.00     0.293 HD
ENDBRANCH  15  18
ENDBRANCH   1  12
BRANCH   2  20
ATOM     20  O   UNL     1      32.499   9.626  65.862  1.00  0.00    -0.502 OA
ATOM     21  H   UNL     1      32.489   8.618  65.951  1.00  0.00     0.293 HD
ENDBRANCH   2  20
BRANCH   6  22
ATOM     22  O   UNL     1      29.125  12.054  68.987  1.00  0.00    -0.507 OA
ATOM     23  H   UNL     1      28.483  12.227  69.751  1.00  0.00     0.293 HD
ENDBRANCH   6  22
BRANCH   8  24
ATOM     24  O   UNL     1      26.113  14.065  65.798  1.00  0.00    -0.508 OA
ATOM     25  H   UNL     1      25.277  13.675  65.380  1.00  0.00     0.293 HD
ENDBRANCH   8  24
TORSDOF 5
ENDMDL
MODEL 4
REMARK VINA RESULT:    -6.199      3.015      6.811
REMARK INTER + INTRA:          -7.573
REMARK INTER:                  -7.282
REMARK INTRA:                  -0.291
REMARK UNBOUND:                -0.287
REMARK SMILES O=c1c(O)c(-c2ccc(O)cc2)oc2cc(O)cc(O)c12
REMARK SMILES IDX 5 1 3 2 2 3 1 4 21 5 19 6 18 7 16 8 15 9 14 10 13 11 6 12
REMARK SMILES IDX 7 13 8 14 9 15 12 16 11 17 10 18 4 20 20 22 17 24
REMARK H PARENT 10 19 4 21 20 23 17 25
REMARK Flexibility Score: inf
ROOT
ATOM      1  C   UNL     1      35.159  12.031  62.016  1.00  0.00     0.180 A 
ATOM      2  C   UNL     1      35.483  11.048  61.061  1.00  0.00     0.208 A 
ATOM      3  C   UNL     1      34.503  10.115  60.689  1.00  0.00     0.238 A 
ATOM      4  O   UNL     1      34.779   9.236  59.826  1.00  0.00    -0.285 OA
ATOM      5  C   UNL     1      33.229  10.165  61.290  1.00  0.00     0.111 A 
ATOM      6  C   UNL     1      32.187   9.259  60.974  1.00  0.00     0.134 A 
ATOM      7  C   UNL     1      30.949   9.369  61.623  1.00  0.00     0.093 A 
ATOM      8  C   UNL     1      30.731  10.363  62.579  1.00  0.00     0.123 A 
ATOM      9  C   UNL     1      31.756  11.262  62.895  1.00  0.00     0.094 A 
ATOM     10  C   UNL     1      32.996  11.170  62.258  1.00  0.00     0.146 A 
ATOM     11  O   UNL     1      33.951  12.038  62.573  1.00  0.00    -0.452 OA
ENDROOT
BRANCH   1  12
ATOM     12  C   UNL     1      36.131  13.061  62.446  1.00  0.00     0.021 A 
ATOM     13  C   UNL     1      37.001  12.842  63.530  1.00  0.00     0.016 A 
ATOM     14  C   UNL     1      37.927  13.820  63.902  1.00  0.00     0.047 A 
ATOM     15  C   UNL     1      38.006  15.022  63.193  1.00  0.00     0.115 A 
ATOM     16  C   UNL     1      36.230  14.262  61.725  1.00  0.00     0.016 A 
ATOM     17  C   UNL     1      37.157  15.239  62.100  1.00  0.00     0.047 A 
BRANCH  15  18
ATOM     18  O   UNL     1      38.933  15.989  63.576  1.00  0.00    -0.508 OA
ATOM     19  H   UNL     1      39.710  15.764  64.187  1.00  0.00     0.293 HD
ENDBRANCH  15  18
ENDBRANCH   1  12
BRANCH   2  20
ATOM     20  O   UNL     1      36.769  10.989  60.516  1.00  0.00    -0.502 OA
ATOM     21  H   UNL     1      36.972  10.496  59.656  1.00  0.00     0.293 HD
ENDBRANCH   2  20
BRANCH   6  22
ATOM     22  O   UNL     1      32.373   8.253  60.024  1.00  0.00    -0.507 OA
ATOM     23  H   UNL     1      31.782   8.178  59.205  1.00  0.00     0.293 HD
ENDBRANCH   6  22
BRANCH   8  24
ATOM     24  O   UNL     1      29.492  10.451  63.209  1.00  0.00    -0.508 OA
ATOM     25  H   UNL     1      28.637  10.579  62.682  1.00  0.00     0.293 HD
ENDBRANCH   8  24
TORSDOF 5
ENDMDL
MODEL 5
REMARK VINA RESULT:    -6.174      3.175      6.441
REMARK INTER + INTRA:          -7.543
REMARK INTER:                  -7.332
REMARK INTRA:                  -0.211
REMARK UNBOUND:                -0.287
REMARK SMILES O=c1c(O)c(-c2ccc(O)cc2)oc2cc(O)cc(O)c12
REMARK SMILES IDX 5 1 3 2 2 3 1 4 21 5 19 6 18 7 16 8 15 9 14 10 13 11 6 12
REMARK SMILES IDX 7 13 8 14 9 15 12 16 11 17 10 18 4 20 20 22 17 24
REMARK H PARENT 10 19 4 21 20 23 17 25
REMARK Flexibility Score: inf
ROOT
ATOM      1  C   UNL     1      33.034  12.654  65.643  1.00  0.00     0.180 A 
ATOM      2  C   UNL     1      32.081  12.862  66.658  1.00  0.00     0.208 A 
ATOM      3  C   UNL     1      30.848  12.196  66.577  1.00  0.00     0.238 A 
ATOM      4  O   UNL     1      29.990  12.366  67.487  1.00  0.00    -0.285 OA
ATOM      5  C   UNL     1      30.581  11.353  65.479  1.00  0.00     0.111 A 
ATOM      6  C   UNL     1      29.363  10.649  65.321  1.00  0.00     0.134 A 
ATOM      7  C   UNL     1      29.170   9.836  64.194  1.00  0.00     0.093 A 
ATOM      8  C   UNL     1      30.168   9.714  63.224  1.00  0.00     0.123 A 
ATOM      9  C   UNL     1      31.374  10.407  63.375  1.00  0.00     0.094 A 
ATOM     10  C   UNL     1      31.586  11.220  64.492  1.00  0.00     0.146 A 
ATOM     11  O   UNL     1      32.742  11.863  64.613  1.00  0.00    -0.452 OA
ENDROOT
BRANCH   1  12
ATOM     12  C   UNL     1      34.363  13.304  65.666  1.00  0.00     0.021 A 
ATOM     13  C   UNL     1      35.346  12.933  66.603  1.00  0.00     0.016 A 
ATOM     14  C   UNL     1      36.602  13.545  66.589  1.00  0.00     0.047 A 
ATOM     15  C   UNL     1      36.900  14.523  65.636  1.00  0.00     0.115 A 
ATOM     16  C   UNL     1      34.677  14.273  64.697  1.00  0.00     0.016 A 
ATOM     17  C   UNL     1      35.935  14.883  64.687  1.00  0.00     0.047 A 
BRANCH  15  18
ATOM     18  O   UNL     1      38.156  15.124  65.636  1.00  0.00    -0.508 OA
ATOM     19  H   UNL     1      38.647  15.326  66.500  1.00  0.00     0.293 HD
ENDBRANCH  15  18
ENDBRANCH   1  12
BRANCH   2  20
ATOM     20  O   UNL     1      32.350  13.741  67.710  1.00  0.00    -0.502 OA
ATOM     21  H   UNL     1      32.237  13.476  68.681  1.00  0.00     0.293 HD
ENDBRANCH   2  20
BRANCH   6  22
ATOM     22  O   UNL     1      28.346  10.751  66.272  1.00  0.00    -0.507 OA
ATOM     23  H   UNL     1      27.758   9.961  66.509  1.00  0.00     0.293 HD
ENDBRANCH   6  22
BRANCH   8  24
ATOM     24  O   UNL     1      29.951   8.901  62.115  1.00  0.00    -0.508 OA
ATOM     25  H   UNL     1      29.317   8.112  62.152  1.00  0.00     0.293 HD
ENDBRANCH   8  24
TORSDOF 5
ENDMDL
MODEL 6
REMARK VINA RESULT:    -6.145      3.634      6.534
REMARK INTER + INTRA:          -7.509
REMARK INTER:                  -7.211
REMARK INTRA:                  -0.298
REMARK UNBOUND:                -0.287
REMARK SMILES O=c1c(O)c(-c2ccc(O)cc2)oc2cc(O)cc(O)c12
REMARK SMILES IDX 5 1 3 2 2 3 1 4 21 5 19 6 18 7 16 8 15 9 14 10 13 11 6 12
REMARK SMILES IDX 7 13 8 14 9 15 12 16 11 17 10 18 4 20 20 22 17 24
REMARK H PARENT 10 19 4 21 20 23 17 25
REMARK Flexibility Score: inf
ROOT
ATOM      1  C   UNL     1      34.204  12.085  63.378  1.00  0.00     0.180 A 
ATOM      2  C   UNL     1      33.782  12.295  64.705  1.00  0.00     0.208 A 
ATOM      3  C   UNL     1      34.443  13.258  65.483  1.00  0.00     0.238 A 
ATOM      4  O   UNL     1      34.067  13.462  66.670  1.00  0.00    -0.285 OA
ATOM      5  C   UNL     1      35.524  13.976  64.933  1.00  0.00     0.111 A 
ATOM      6  C   UNL     1      36.246  14.960  65.652  1.00  0.00     0.134 A 
ATOM      7  C   UNL     1      37.316  15.626  65.036  1.00  0.00     0.093 A 
ATOM      8  C   UNL     1      37.679  15.329  63.720  1.00  0.00     0.123 A 
ATOM      9  C   UNL     1      36.969  14.358  63.005  1.00  0.00     0.094 A 
ATOM     10  C   UNL     1      35.898  13.685  63.600  1.00  0.00     0.146 A 
ATOM     11  O   UNL     1      35.238  12.772  62.897  1.00  0.00    -0.452 OA
ENDROOT
BRANCH   1  12
ATOM     12  C   UNL     1      33.546  11.103  62.488  1.00  0.00     0.021 A 
ATOM     13  C   UNL     1      32.462  11.467  61.668  1.00  0.00     0.016 A 
ATOM     14  C   UNL     1      31.872  10.527  60.818  1.00  0.00     0.047 A 
ATOM     15  C   UNL     1      32.362   9.219  60.765  1.00  0.00     0.115 A 
ATOM     16  C   UNL     1      34.047   9.792  62.414  1.00  0.00     0.016 A 
ATOM     17  C   UNL     1      33.454   8.855  61.563  1.00  0.00     0.047 A 
BRANCH  15  18
ATOM     18  O   UNL     1      31.763   8.294  59.913  1.00  0.00    -0.508 OA
ATOM     19  H   UNL     1      30.937   8.528  59.374  1.00  0.00     0.293 HD
ENDBRANCH  15  18
ENDBRANCH   1  12
BRANCH   2  20
ATOM     20  O   UNL     1      32.740  11.535  65.243  1.00  0.00    -0.502 OA
ATOM     21  H   UNL     1      32.904  10.693  65.782  1.00  0.00     0.293 HD
ENDBRANCH   2  20
BRANCH   6  22
ATOM     22  O   UNL     1      35.910  15.279  66.968  1.00  0.00    -0.507 OA
ATOM     23  H   UNL     1      35.561  16.196  67.222  1.00  0.00     0.293 HD
ENDBRANCH   6  22
BRANCH   8  24
ATOM     24  O   UNL     1      38.745  16.003  63.133  1.00  0.00    -0.508 OA
ATOM     25  H   UNL     1      39.137  15.707  62.246  1.00  0.00     0.293 HD
ENDBRANCH   8  24
TORSDOF 5
ENDMDL
MODEL 7
REMARK VINA RESULT:    -6.102      3.099      5.160
REMARK INTER + INTRA:          -7.459
REMARK INTER:                  -7.283
REMARK INTRA:                  -0.177
REMARK UNBOUND:                -0.287
REMARK SMILES O=c1c(O)c(-c2ccc(O)cc2)oc2cc(O)cc(O)c12
REMARK SMILES IDX 5 1 3 2 2 3 1 4 21 5 19 6 18 7 16 8 15 9 14 10 13 11 6 12
REMARK SMILES IDX 7 13 8 14 9 15 12 16 11 17 10 18 4 20 20 22 17 24
REMARK H PARENT 10 19 4 21 20 23 17 25
REMARK Flexibility Score: inf
ROOT
ATOM      1  C   UNL     1      33.209  11.899  65.014  1.00  0.00     0.180 A 
ATOM      2  C   UNL     1      31.880  11.795  65.468  1.00  0.00     0.208 A 
ATOM      3  C   UNL     1      30.975  11.008  64.739  1.00  0.00     0.238 A 
ATOM      4  O   UNL     1      29.784  10.899  65.142  1.00  0.00    -0.285 OA
ATOM      5  C   UNL     1      31.404  10.358  63.564  1.00  0.00     0.111 A 
ATOM      6  C   UNL     1      30.553   9.550  62.771  1.00  0.00     0.134 A 
ATOM      7  C   UNL     1      31.054   8.944  61.610  1.00  0.00     0.093 A 
ATOM      8  C   UNL     1      32.384   9.128  61.226  1.00  0.00     0.123 A 
ATOM      9  C   UNL     1      33.230   9.924  62.006  1.00  0.00     0.094 A 
ATOM     10  C   UNL     1      32.750  10.536  63.168  1.00  0.00     0.146 A 
ATOM     11  O   UNL     1      33.575  11.283  63.893  1.00  0.00    -0.452 OA
ENDROOT
BRANCH   1  12
ATOM     12  C   UNL     1      34.227  12.693  65.737  1.00  0.00     0.021 A 
ATOM     13  C   UNL     1      34.671  12.323  67.020  1.00  0.00     0.016 A 
ATOM     14  C   UNL     1      35.652  13.076  67.673  1.00  0.00     0.047 A 
ATOM     15  C   UNL     1      36.211  14.196  67.051  1.00  0.00     0.115 A 
ATOM     16  C   UNL     1      34.808  13.808  65.110  1.00  0.00     0.016 A 
ATOM     17  C   UNL     1      35.789  14.558  65.765  1.00  0.00     0.047 A 
BRANCH  15  18
ATOM     18  O   UNL     1      37.186  14.936  67.715  1.00  0.00    -0.508 OA
ATOM     19  H   UNL     1      37.248  14.944  68.726  1.00  0.00     0.293 HD
ENDBRANCH  15  18
ENDBRANCH   1  12
BRANCH   2  20
ATOM     20  O   UNL     1      31.466  12.489  66.608  1.00  0.00    -0.502 OA
ATOM     21  H   UNL     1      30.794  13.245  66.569  1.00  0.00     0.293 HD
ENDBRANCH   2  20
BRANCH   6  22
ATOM     22  O   UNL     1      29.219   9.347  63.127  1.00  0.00    -0.507 OA
ATOM     23  H   UNL     1      28.542   8.978  62.468  1.00  0.00     0.293 HD
ENDBRANCH   6  22
BRANCH   8  24
ATOM     24  O   UNL     1      32.856   8.515  60.068  1.00  0.00    -0.508 OA
ATOM     25  H   UNL     1      32.731   7.523  59.905  1.00  0.00     0.293 HD
ENDBRANCH   8  24
TORSDOF 5
ENDMDL
MODEL 8
REMARK VINA RESULT:    -5.958      3.558      5.397
REMARK INTER + INTRA:          -7.290
REMARK INTER:                  -7.001
REMARK INTRA:                  -0.289
REMARK UNBOUND:                -0.287
REMARK SMILES O=c1c(O)c(-c2ccc(O)cc2)oc2cc(O)cc(O)c12
REMARK SMILES IDX 5 1 3 2 2 3 1 4 21 5 19 6 18 7 16 8 15 9 14 10 13 11 6 12
REMARK SMILES IDX 7 13 8 14 9 15 12 16 11 17 10 18 4 20 20 22 17 24
REMARK H PARENT 10 19 4 21 20 23 17 25
REMARK Flexibility Score: inf
ROOT
ATOM      1  C   UNL     1      33.409  11.367  65.058  1.00  0.00     0.180 A 
ATOM      2  C   UNL     1      34.324  10.585  65.789  1.00  0.00     0.208 A 
ATOM      3  C   UNL     1      35.544  11.158  66.181  1.00  0.00     0.238 A 
ATOM      4  O   UNL     1      36.367  10.471  66.846  1.00  0.00    -0.285 OA
ATOM      5  C   UNL     1      35.837  12.489  65.820  1.00  0.00     0.111 A 
ATOM      6  C   UNL     1      37.046  13.139  66.172  1.00  0.00     0.134 A 
ATOM      7  C   UNL     1      37.267  14.463  65.766  1.00  0.00     0.093 A 
ATOM      8  C   UNL     1      36.308  15.149  65.018  1.00  0.00     0.123 A 
ATOM      9  C   UNL     1      35.112  14.513  64.668  1.00  0.00     0.094 A 
ATOM     10  C   UNL     1      34.871  13.194  65.064  1.00  0.00     0.146 A 
ATOM     11  O   UNL     1      33.726  12.615  64.722  1.00  0.00    -0.452 OA
ENDROOT
BRANCH   1  12
ATOM     12  C   UNL     1      32.095  10.842  64.625  1.00  0.00     0.021 A 
ATOM     13  C   UNL     1      31.929  10.219  63.374  1.00  0.00     0.016 A 
ATOM     14  C   UNL     1      30.683   9.709  62.998  1.00  0.00     0.047 A 
ATOM     15  C   UNL     1      29.592   9.802  63.866  1.00  0.00     0.115 A 
ATOM     16  C   UNL     1      30.999  10.913  65.501  1.00  0.00     0.016 A 
ATOM     17  C   UNL     1      29.754  10.402  65.122  1.00  0.00     0.047 A 
BRANCH  15  18
ATOM     18  O   UNL     1      28.357   9.290  63.476  1.00  0.00    -0.508 OA
ATOM     19  H   UNL     1      28.155   8.298  63.526  1.00  0.00     0.293 HD
ENDBRANCH  15  18
ENDBRANCH   1  12
BRANCH   2  20
ATOM     20  O   UNL     1      34.030   9.253  66.092  1.00  0.00    -0.502 OA
ATOM     21  H   UNL     1      33.176   8.978  66.561  1.00  0.00     0.293 HD
ENDBRANCH   2  20
BRANCH   6  22
ATOM     22  O   UNL     1      38.024  12.480  66.918  1.00  0.00    -0.507 OA
ATOM     23  H   UNL     1      38.975  12.825  66.971  1.00  0.00     0.293 HD
ENDBRANCH   6  22
BRANCH   8  24
ATOM     24  O   UNL     1      36.552  16.463  64.627  1.00  0.00    -0.508 OA
ATOM     25  H   UNL     1      35.815  17.158  64.615  1.00  0.00     0.293 HD
ENDBRANCH   8  24
TORSDOF 5
ENDMDL
MODEL 9
REMARK VINA RESULT:    -5.918      2.699      6.053
REMARK INTER + INTRA:          -7.242
REMARK INTER:                  -6.945
REMARK INTRA:                  -0.297
REMARK UNBOUND:                -0.287
REMARK SMILES O=c1c(O)c(-c2ccc(O)cc2)oc2cc(O)cc(O)c12
REMARK SMILES IDX 5 1 3 2 2 3 1 4 21 5 19 6 18 7 16 8 15 9 14 10 13 11 6 12
REMARK SMILES IDX 7 13 8 14 9 15 12 16 11 17 10 18 4 20 20 22 17 24
REMARK H PARENT 10 19 4 21 20 23 17 25
REMARK Flexibility Score: inf
ROOT
ATOM      1  C   UNL     1      33.636  11.986  64.265  1.00  0.00     0.180 A 
ATOM      2  C   UNL     1      33.566  11.294  63.041  1.00  0.00     0.208 A 
ATOM      3  C   UNL     1      32.392  10.590  62.727  1.00  0.00     0.238 A 
ATOM      4  O   UNL     1      32.313   9.975  61.628  1.00  0.00    -0.285 OA
ATOM      5  C   UNL     1      31.322  10.573  63.645  1.00  0.00     0.111 A 
ATOM      6  C   UNL     1      30.108   9.885  63.406  1.00  0.00     0.134 A 
ATOM      7  C   UNL     1      29.093   9.908  64.374  1.00  0.00     0.093 A 
ATOM      8  C   UNL     1      29.267  10.603  65.573  1.00  0.00     0.123 A 
ATOM      9  C   UNL     1      30.465  11.286  65.815  1.00  0.00     0.094 A 
ATOM     10  C   UNL     1      31.487  11.276  64.862  1.00  0.00     0.146 A 
ATOM     11  O   UNL     1      32.612  11.936  65.114  1.00  0.00    -0.452 OA
ENDROOT
BRANCH   1  12
ATOM     12  C   UNL     1      34.830  12.766  64.660  1.00  0.00     0.021 A 
ATOM     13  C   UNL     1      34.951  14.133  64.346  1.00  0.00     0.016 A 
ATOM     14  C   UNL     1      36.077  14.855  64.752  1.00  0.00     0.047 A 
ATOM     15  C   UNL     1      37.089  14.228  65.484  1.00  0.00     0.115 A 
ATOM     16  C   UNL     1      35.841  12.149  65.415  1.00  0.00     0.016 A 
ATOM     17  C   UNL     1      36.967  12.874  65.819  1.00  0.00     0.047 A 
BRANCH  15  18
ATOM     18  O   UNL     1      38.206  14.961  65.880  1.00  0.00    -0.508 OA
ATOM     19  H   UNL     1      38.933  15.215  65.221  1.00  0.00     0.293 HD
ENDBRANCH  15  18
ENDBRANCH   1  12
BRANCH   2  20
ATOM     20  O   UNL     1      34.658  11.285  62.170  1.00  0.00    -0.502 OA
ATOM     21  H   UNL     1      35.199  12.117  61.971  1.00  0.00     0.293 HD
ENDBRANCH   2  20
BRANCH   6  22
ATOM     22  O   UNL     1      29.903   9.180  62.219  1.00  0.00    -0.507 OA
ATOM     23  H   UNL     1      30.148   8.201  62.132  1.00  0.00     0.293 HD
ENDBRANCH   6  22
BRANCH   8  24
ATOM     24  O   UNL     1      28.245  10.610  66.518  1.00  0.00    -0.508 OA
ATOM     25  H   UNL     1      27.918  11.472  66.938  1.00  0.00     0.293 HD
ENDBRANCH   8  24
TORSDOF 5
ENDMDL
