MODEL 1
REMARK VINA RESULT:    -4.506      0.000      0.000
REMARK INTER + INTRA:          -7.837
REMARK INTER:                  -7.141
REMARK INTRA:                  -0.697
REMARK UNBOUND:                -0.697
REMARK SMILES CCCCCCCCCCCC(=O)[O-]
REMARK SMILES IDX 7 1 8 2 9 3 10 4 11 5 12 6 13 7 14 8 6 9 5 10 4 11 3 12 2 13
REMARK SMILES IDX 1 14
REMARK H PARENT
REMARK Flexibility Score: inf
ROOT
ATOM      1  C   UNL     1      13.162  49.768  97.465  1.00  0.00     0.000 C 
ENDROOT
BRANCH   1   2
ATOM      2  C   UNL     1      12.527  49.063  96.256  1.00  0.00     0.000 C 
BRANCH   2   3
ATOM      3  C   UNL     1      11.084  48.601  96.530  1.00  0.00     0.000 C 
BRANCH   3   4
ATOM      4  C   UNL     1      10.684  48.749  98.009  1.00  0.00     0.006 C 
BRANCH   4   5
ATOM      5  C   UNL     1       9.670  49.871  98.279  1.00  0.00     0.053 C 
BRANCH   5   6
ATOM      6  C   UNL     1       8.396  49.669  97.517  1.00  0.00     0.041 C 
ATOM      7  O   UNL     1       7.587  48.768  97.863  1.00  0.00    -0.550 OA
ATOM      8  O   UNL     1       8.087  50.497  96.445  1.00  0.00    -0.550 OA
ENDBRANCH   5   6
ENDBRANCH   4   5
ENDBRANCH   3   4
ENDBRANCH   2   3
ENDBRANCH   1   2
BRANCH   1   9
ATOM      9  C   UNL     1      14.200  50.826  97.051  1.00  0.00     0.000 C 
BRANCH   9  10
ATOM     10  C   UNL     1      14.258  51.029  95.528  1.00  0.00    -0.000 C 
BRANCH  10  11
ATOM     11  C   UNL     1      15.611  50.611  94.929  1.00  0.00    -0.000 C 
BRANCH  11  12
ATOM     12  C   UNL     1      15.525  49.310  94.109  1.00  0.00    -0.000 C 
BRANCH  12  13
ATOM     13  C   UNL     1      16.472  48.188  94.569  1.00  0.00    -0.003 C 
ATOM     14  C   UNL     1      16.923  47.279  93.428  1.00  0.00     0.004 C 
ENDBRANCH  12  13
ENDBRANCH  11  12
ENDBRANCH  10  11
ENDBRANCH   9  10
ENDBRANCH   1   9
TORSDOF 10
ENDMDL
MODEL 2
REMARK VINA RESULT:    -4.262      4.402      7.205
REMARK INTER + INTRA:          -7.449
REMARK INTER:                  -6.909
REMARK INTRA:                  -0.540
REMARK UNBOUND:                -0.697
REMARK SMILES CCCCCCCCCCCC(=O)[O-]
REMARK SMILES IDX 7 1 8 2 9 3 10 4 11 5 12 6 13 7 14 8 6 9 5 10 4 11 3 12 2 13
REMARK SMILES IDX 1 14
REMARK H PARENT
REMARK Flexibility Score: inf
ROOT
ATOM      1  C   UNL     1      14.480  51.023  95.426  1.00  0.00     0.000 C 
ENDROOT
BRANCH   1   2
ATOM      2  C   UNL     1      14.210  49.803  94.531  1.00  0.00     0.000 C 
BRANCH   2   3
ATOM      3  C   UNL     1      15.494  49.226  93.911  1.00  0.00     0.000 C 
BRANCH   3   4
ATOM      4  C   UNL     1      16.338  48.431  94.925  1.00  0.00     0.006 C 
BRANCH   4   5
ATOM      5  C   UNL     1      17.104  47.246  94.315  1.00  0.00     0.053 C 
BRANCH   5   6
ATOM      6  C   UNL     1      18.058  46.633  95.294  1.00  0.00     0.041 C 
ATOM      7  O   UNL     1      17.708  46.448  96.489  1.00  0.00    -0.550 OA
ATOM      8  O   UNL     1      19.322  46.236  94.876  1.00  0.00    -0.550 OA
ENDBRANCH   5   6
ENDBRANCH   4   5
ENDBRANCH   3   4
ENDBRANCH   2   3
ENDBRANCH   1   2
BRANCH   1   9
ATOM      9  C   UNL     1      14.138  50.758  96.903  1.00  0.00     0.000 C 
BRANCH   9  10
ATOM     10  C   UNL     1      13.375  49.437  97.102  1.00  0.00    -0.000 C 
BRANCH  10  11
ATOM     11  C   UNL     1      11.997  49.645  97.752  1.00  0.00    -0.000 C 
BRANCH  11  12
ATOM     12  C   UNL     1      10.966  48.587  97.319  1.00  0.00    -0.000 C 
BRANCH  12  13
ATOM     13  C   UNL     1       9.497  48.970  97.572  1.00  0.00    -0.003 C 
ATOM     14  C   UNL     1       8.514  47.872  97.169  1.00  0.00     0.004 C 
ENDBRANCH  12  13
ENDBRANCH  11  12
ENDBRANCH  10  11
ENDBRANCH   9  10
ENDBRANCH   1   9
TORSDOF 10
ENDMDL
MODEL 3
REMARK VINA RESULT:    -4.129      4.168      6.064
REMARK INTER + INTRA:          -7.240
REMARK INTER:                  -6.772
REMARK INTRA:                  -0.468
REMARK UNBOUND:                -0.697
REMARK SMILES CCCCCCCCCCCC(=O)[O-]
REMARK SMILES IDX 7 1 8 2 9 3 10 4 11 5 12 6 13 7 14 8 6 9 5 10 4 11 3 12 2 13
REMARK SMILES IDX 1 14
REMARK H PARENT
REMARK Flexibility Score: inf
ROOT
ATOM      1  C   UNL     1       9.955  47.135  96.901  1.00  0.00     0.000 C 
ENDROOT
BRANCH   1   2
ATOM      2  C   UNL     1       9.742  48.562  97.434  1.00  0.00     0.000 C 
BRANCH   2   3
ATOM      3  C   UNL     1      11.043  49.201  97.951  1.00  0.00     0.000 C 
BRANCH   3   4
ATOM      4  C   UNL     1      12.197  49.103  96.937  1.00  0.00     0.006 C 
BRANCH   4   5
ATOM      5  C   UNL     1      13.446  49.909  97.325  1.00  0.00     0.053 C 
BRANCH   5   6
ATOM      6  C   UNL     1      14.365  50.115  96.159  1.00  0.00     0.041 C 
ATOM      7  O   UNL     1      15.236  49.251  95.879  1.00  0.00    -0.550 OA
ATOM      8  O   UNL     1      14.235  51.247  95.364  1.00  0.00    -0.550 OA
ENDBRANCH   5   6
ENDBRANCH   4   5
ENDBRANCH   3   4
ENDBRANCH   2   3
ENDBRANCH   1   2
BRANCH   1   9
ATOM      9  C   UNL     1       9.556  46.994  95.421  1.00  0.00     0.000 C 
BRANCH   9  10
ATOM     10  C   UNL     1       9.030  45.588  95.085  1.00  0.00    -0.000 C 
BRANCH  10  11
ATOM     11  C   UNL     1       9.978  44.475  95.564  1.00  0.00    -0.000 C 
BRANCH  11  12
ATOM     12  C   UNL     1      11.070  44.136  94.533  1.00  0.00    -0.000 C 
BRANCH  12  13
ATOM     13  C   UNL     1      11.819  42.816  94.791  1.00  0.00    -0.003 C 
ATOM     14  C   UNL     1      11.423  42.150  96.107  1.00  0.00     0.004 C 
ENDBRANCH  12  13
ENDBRANCH  11  12
ENDBRANCH  10  11
ENDBRANCH   9  10
ENDBRANCH   1   9
TORSDOF 10
ENDMDL
MODEL 4
REMARK VINA RESULT:    -4.071      1.354      2.639
REMARK INTER + INTRA:          -7.147
REMARK INTER:                  -6.576
REMARK INTRA:                  -0.572
REMARK UNBOUND:                -0.697
REMARK SMILES CCCCCCCCCCCC(=O)[O-]
REMARK SMILES IDX 7 1 8 2 9 3 10 4 11 5 12 6 13 7 14 8 6 9 5 10 4 11 3 12 2 13
REMARK SMILES IDX 1 14
REMARK H PARENT
REMARK Flexibility Score: inf
ROOT
ATOM      1  C   UNL     1      11.202  48.565  96.937  1.00  0.00     0.000 C 
ENDROOT
BRANCH   1   2
ATOM      2  C   UNL     1       9.832  48.441  97.624  1.00  0.00     0.000 C 
BRANCH   2   3
ATOM      3  C   UNL     1       9.343  49.775  98.215  1.00  0.00     0.000 C 
BRANCH   3   4
ATOM      4  C   UNL     1       7.846  50.026  97.957  1.00  0.00     0.006 C 
BRANCH   4   5
ATOM      5  C   UNL     1       7.501  51.483  97.615  1.00  0.00     0.053 C 
BRANCH   5   6
ATOM      6  C   UNL     1       7.399  51.703  96.137  1.00  0.00     0.041 C 
ATOM      7  O   UNL     1       7.694  50.777  95.337  1.00  0.00    -0.550 OA
ATOM      8  O   UNL     1       6.946  52.921  95.645  1.00  0.00    -0.550 OA
ENDBRANCH   5   6
ENDBRANCH   4   5
ENDBRANCH   3   4
ENDBRANCH   2   3
ENDBRANCH   1   2
BRANCH   1   9
ATOM      9  C   UNL     1      12.118  49.591  97.628  1.00  0.00     0.000 C 
BRANCH   9  10
ATOM     10  C   UNL     1      13.581  49.477  97.167  1.00  0.00    -0.000 C 
BRANCH  10  11
ATOM     11  C   UNL     1      14.202  50.845  96.838  1.00  0.00    -0.000 C 
BRANCH  11  12
ATOM     12  C   UNL     1      14.739  50.926  95.397  1.00  0.00    -0.000 C 
BRANCH  12  13
ATOM     13  C   UNL     1      14.593  49.633  94.576  1.00  0.00    -0.003 C 
ATOM     14  C   UNL     1      15.922  48.916  94.346  1.00  0.00     0.004 C 
ENDBRANCH  12  13
ENDBRANCH  11  12
ENDBRANCH  10  11
ENDBRANCH   9  10
ENDBRANCH   1   9
TORSDOF 10
ENDMDL
MODEL 5
REMARK VINA RESULT:    -4.055      5.165      6.914
REMARK INTER + INTRA:          -7.122
REMARK INTER:                  -6.579
REMARK INTRA:                  -0.543
REMARK UNBOUND:                -0.697
REMARK SMILES CCCCCCCCCCCC(=O)[O-]
REMARK SMILES IDX 7 1 8 2 9 3 10 4 11 5 12 6 13 7 14 8 6 9 5 10 4 11 3 12 2 13
REMARK SMILES IDX 1 14
REMARK H PARENT
REMARK Flexibility Score: inf
ROOT
ATOM      1  C   UNL     1       9.957  45.988  95.430  1.00  0.00     0.000 C 
ENDROOT
BRANCH   1   2
ATOM      2  C   UNL     1      10.557  44.686  94.873  1.00  0.00     0.000 C 
BRANCH   2   3
ATOM      3  C   UNL     1      10.355  43.489  95.818  1.00  0.00     0.000 C 
BRANCH   3   4
ATOM      4  C   UNL     1      11.384  42.367  95.583  1.00  0.00     0.006 C 
BRANCH   4   5
ATOM      5  C   UNL     1      12.479  42.720  94.564  1.00  0.00     0.053 C 
BRANCH   5   6
ATOM      6  C   UNL     1      13.848  42.393  95.078  1.00  0.00     0.041 C 
ATOM      7  O   UNL     1      14.815  42.284  94.279  1.00  0.00    -0.550 OA
ATOM      8  O   UNL     1      14.060  42.242  96.443  1.00  0.00    -0.550 OA
ENDBRANCH   5   6
ENDBRANCH   4   5
ENDBRANCH   3   4
ENDBRANCH   2   3
ENDBRANCH   1   2
BRANCH   1   9
ATOM      9  C   UNL     1      10.689  47.241  94.918  1.00  0.00     0.000 C 
BRANCH   9  10
ATOM     10  C   UNL     1      10.303  48.508  95.699  1.00  0.00    -0.000 C 
BRANCH  10  11
ATOM     11  C   UNL     1      10.571  48.374  97.208  1.00  0.00    -0.000 C 
BRANCH  11  12
ATOM     12  C   UNL     1      11.625  49.374  97.719  1.00  0.00    -0.000 C 
BRANCH  12  13
ATOM     13  C   UNL     1      13.015  49.239  97.072  1.00  0.00    -0.003 C 
ATOM     14  C   UNL     1      13.843  50.519  97.160  1.00  0.00     0.004 C 
ENDBRANCH  12  13
ENDBRANCH  11  12
ENDBRANCH  10  11
ENDBRANCH   9  10
ENDBRANCH   1   9
TORSDOF 10
ENDMDL
MODEL 6
REMARK VINA RESULT:    -4.045      3.416      7.281
REMARK INTER + INTRA:          -7.106
REMARK INTER:                  -6.583
REMARK INTRA:                  -0.523
REMARK UNBOUND:                -0.697
REMARK SMILES CCCCCCCCCCCC(=O)[O-]
REMARK SMILES IDX 7 1 8 2 9 3 10 4 11 5 12 6 13 7 14 8 6 9 5 10 4 11 3 12 2 13
REMARK SMILES IDX 1 14
REMARK H PARENT
REMARK Flexibility Score: inf
ROOT
ATOM      1  C   UNL     1      12.667  48.891  96.905  1.00  0.00     0.000 C 
ENDROOT
BRANCH   1   2
ATOM      2  C   UNL     1      13.144  50.192  97.571  1.00  0.00     0.000 C 
BRANCH   2   3
ATOM      3  C   UNL     1      14.373  50.799  96.871  1.00  0.00     0.000 C 
BRANCH   3   4
ATOM      4  C   UNL     1      14.251  50.783  95.336  1.00  0.00     0.006 C 
BRANCH   4   5
ATOM      5  C   UNL     1      15.580  50.551  94.601  1.00  0.00     0.053 C 
BRANCH   5   6
ATOM      6  C   UNL     1      15.822  49.099  94.325  1.00  0.00     0.041 C 
ATOM      7  O   UNL     1      15.513  48.606  93.208  1.00  0.00    -0.550 OA
ATOM      8  O   UNL     1      16.420  48.298  95.290  1.00  0.00    -0.550 OA
ENDBRANCH   5   6
ENDBRANCH   4   5
ENDBRANCH   3   4
ENDBRANCH   2   3
ENDBRANCH   1   2
BRANCH   1   9
ATOM      9  C   UNL     1      11.137  48.838  96.746  1.00  0.00     0.000 C 
BRANCH   9  10
ATOM     10  C   UNL     1      10.397  49.204  98.044  1.00  0.00    -0.000 C 
BRANCH  10  11
ATOM     11  C   UNL     1       8.875  49.304  97.846  1.00  0.00    -0.000 C 
BRANCH  11  12
ATOM     12  C   UNL     1       8.346  50.742  98.000  1.00  0.00    -0.000 C 
BRANCH  12  13
ATOM     13  C   UNL     1       6.887  50.850  98.477  1.00  0.00    -0.003 C 
ATOM     14  C   UNL     1       6.160  49.507  98.487  1.00  0.00     0.004 C 
ENDBRANCH  12  13
ENDBRANCH  11  12
ENDBRANCH  10  11
ENDBRANCH   9  10
ENDBRANCH   1   9
TORSDOF 10
ENDMDL
MODEL 7
REMARK VINA RESULT:    -3.968      1.795      3.494
REMARK INTER + INTRA:          -6.985
REMARK INTER:                  -6.516
REMARK INTRA:                  -0.469
REMARK UNBOUND:                -0.697
REMARK SMILES CCCCCCCCCCCC(=O)[O-]
REMARK SMILES IDX 7 1 8 2 9 3 10 4 11 5 12 6 13 7 14 8 6 9 5 10 4 11 3 12 2 13
REMARK SMILES IDX 1 14
REMARK H PARENT
REMARK Flexibility Score: inf
ROOT
ATOM      1  C   UNL     1      15.634  50.394  94.778  1.00  0.00     0.000 C 
ENDROOT
BRANCH   1   2
ATOM      2  C   UNL     1      14.244  50.728  95.343  1.00  0.00     0.000 C 
BRANCH   2   3
ATOM      3  C   UNL     1      14.249  50.892  96.873  1.00  0.00     0.000 C 
BRANCH   3   4
ATOM      4  C   UNL     1      13.310  49.897  97.580  1.00  0.00     0.006 C 
BRANCH   4   5
ATOM      5  C   UNL     1      12.411  49.093  96.628  1.00  0.00     0.053 C 
BRANCH   5   6
ATOM      6  C   UNL     1      11.075  48.796  97.236  1.00  0.00     0.041 C 
ATOM      7  O   UNL     1      10.715  49.381  98.291  1.00  0.00    -0.550 OA
ATOM      8  O   UNL     1      10.214  47.898  96.618  1.00  0.00    -0.550 OA
ENDBRANCH   5   6
ENDBRANCH   4   5
ENDBRANCH   3   4
ENDBRANCH   2   3
ENDBRANCH   1   2
BRANCH   1   9
ATOM      9  C   UNL     1      15.932  48.885  94.798  1.00  0.00     0.000 C 
BRANCH   9  10
ATOM     10  C   UNL     1      16.012  48.282  93.385  1.00  0.00    -0.000 C 
BRANCH  10  11
ATOM     11  C   UNL     1      17.108  47.210  93.264  1.00  0.00    -0.000 C 
BRANCH  11  12
ATOM     12  C   UNL     1      17.793  47.208  91.885  1.00  0.00    -0.000 C 
BRANCH  12  13
ATOM     13  C   UNL     1      19.186  46.555  91.851  1.00  0.00    -0.003 C 
ATOM     14  C   UNL     1      19.195  45.136  92.418  1.00  0.00     0.004 C 
ENDBRANCH  12  13
ENDBRANCH  11  12
ENDBRANCH  10  11
ENDBRANCH   9  10
ENDBRANCH   1   9
TORSDOF 10
ENDMDL
MODEL 8
REMARK VINA RESULT:    -3.944      3.879      7.069
REMARK INTER + INTRA:          -6.946
REMARK INTER:                  -6.316
REMARK INTRA:                  -0.630
REMARK UNBOUND:                -0.697
REMARK SMILES CCCCCCCCCCCC(=O)[O-]
REMARK SMILES IDX 7 1 8 2 9 3 10 4 11 5 12 6 13 7 14 8 6 9 5 10 4 11 3 12 2 13
REMARK SMILES IDX 1 14
REMARK H PARENT
REMARK Flexibility Score: inf
ROOT
ATOM      1  C   UNL     1      13.349  49.241  96.741  1.00  0.00     0.000 C 
ENDROOT
BRANCH   1   2
ATOM      2  C   UNL     1      14.048  50.606  96.631  1.00  0.00     0.000 C 
BRANCH   2   3
ATOM      3  C   UNL     1      14.888  50.741  95.349  1.00  0.00     0.000 C 
BRANCH   3   4
ATOM      4  C   UNL     1      15.722  49.482  95.050  1.00  0.00     0.006 C 
BRANCH   4   5
ATOM      5  C   UNL     1      15.514  48.908  93.640  1.00  0.00     0.053 C 
BRANCH   5   6
ATOM      6  C   UNL     1      16.414  47.741  93.371  1.00  0.00     0.041 C 
ATOM      7  O   UNL     1      17.187  47.316  94.270  1.00  0.00    -0.550 OA
ATOM      8  O   UNL     1      16.375  47.102  92.138  1.00  0.00    -0.550 OA
ENDBRANCH   5   6
ENDBRANCH   4   5
ENDBRANCH   3   4
ENDBRANCH   2   3
ENDBRANCH   1   2
BRANCH   1   9
ATOM      9  C   UNL     1      12.241  49.061  95.687  1.00  0.00     0.000 C 
BRANCH   9  10
ATOM     10  C   UNL     1      10.995  48.363  96.258  1.00  0.00    -0.000 C 
BRANCH  10  11
ATOM     11  C   UNL     1      10.877  48.523  97.783  1.00  0.00    -0.000 C 
BRANCH  11  12
ATOM     12  C   UNL     1      10.024  49.737  98.193  1.00  0.00    -0.000 C 
BRANCH  12  13
ATOM     13  C   UNL     1       8.513  49.583  97.943  1.00  0.00    -0.003 C 
ATOM     14  C   UNL     1       7.942  50.675  97.040  1.00  0.00     0.004 C 
ENDBRANCH  12  13
ENDBRANCH  11  12
ENDBRANCH  10  11
ENDBRANCH   9  10
ENDBRANCH   1   9
TORSDOF 10
ENDMDL
MODEL 9
REMARK VINA RESULT:    -3.928      2.313      3.143
REMARK INTER + INTRA:          -6.922
REMARK INTER:                  -6.100
REMARK INTRA:                  -0.821
REMARK UNBOUND:                -0.697
REMARK SMILES CCCCCCCCCCCC(=O)[O-]
REMARK SMILES IDX 7 1 8 2 9 3 10 4 11 5 12 6 13 7 14 8 6 9 5 10 4 11 3 12 2 13
REMARK SMILES IDX 1 14
REMARK H PARENT
REMARK Flexibility Score: inf
ROOT
ATOM      1  C   UNL     1      11.481  49.601  97.974  1.00  0.00     0.000 C 
ENDROOT
BRANCH   1   2
ATOM      2  C   UNL     1      10.144  49.067  97.435  1.00  0.00     0.000 C 
BRANCH   2   3
ATOM      3  C   UNL     1      10.290  47.711  96.723  1.00  0.00     0.000 C 
BRANCH   3   4
ATOM      4  C   UNL     1       9.624  47.693  95.335  1.00  0.00     0.006 C 
BRANCH   4   5
ATOM      5  C   UNL     1       9.603  49.057  94.629  1.00  0.00     0.053 C 
BRANCH   5   6
ATOM      6  C   UNL     1      10.570  49.111  93.486  1.00  0.00     0.041 C 
ATOM      7  O   UNL     1      10.148  49.175  92.302  1.00  0.00    -0.550 OA
ATOM      8  O   UNL     1      11.937  49.124  93.732  1.00  0.00    -0.550 OA
ENDBRANCH   5   6
ENDBRANCH   4   5
ENDBRANCH   3   4
ENDBRANCH   2   3
ENDBRANCH   1   2
BRANCH   1   9
ATOM      9  C   UNL     1      12.671  49.228  97.072  1.00  0.00     0.000 C 
BRANCH   9  10
ATOM     10  C   UNL     1      13.821  50.246  97.165  1.00  0.00    -0.000 C 
BRANCH  10  11
ATOM     11  C   UNL     1      14.094  50.950  95.825  1.00  0.00    -0.000 C 
BRANCH  11  12
ATOM     12  C   UNL     1      15.483  50.621  95.249  1.00  0.00    -0.000 C 
BRANCH  12  13
ATOM     13  C   UNL     1      15.725  49.131  94.948  1.00  0.00    -0.003 C 
ATOM     14  C   UNL     1      15.605  48.793  93.464  1.00  0.00     0.004 C 
ENDBRANCH  12  13
ENDBRANCH  11  12
ENDBRANCH  10  11
ENDBRANCH   9  10
ENDBRANCH   1   9
TORSDOF 10
ENDMDL
