MODEL 1
REMARK VINA RESULT:    -6.255      0.000      0.000
REMARK INTER + INTRA:          -7.766
REMARK INTER:                  -7.717
REMARK INTRA:                  -0.049
REMARK UNBOUND:                -0.049
REMARK SMILES COc1cc(-c2oc3cc(O)cc(O)c3c(=O)c2O)ccc1O
REMARK SMILES IDX 6 1 18 2 16 3 17 4 15 5 13 6 12 7 10 8 9 9 8 10 7 11 5 12
REMARK SMILES IDX 3 13 22 14 4 15 21 16 20 17 2 18 1 19 23 20 19 22 14 24
REMARK SMILES IDX 11 26
REMARK H PARENT 23 21 19 23 14 25 11 27
REMARK Flexibility Score: inf
ROOT
ATOM      1  C   UNL     1     -38.236  75.482 -26.103  1.00  0.00     0.180 A 
ATOM      2  C   UNL     1     -38.087  74.454 -27.054  1.00  0.00     0.208 A 
ATOM      3  C   UNL     1     -36.795  74.108 -27.482  1.00  0.00     0.238 A 
ATOM      4  O   UNL     1     -36.648  73.182 -28.326  1.00  0.00    -0.285 OA
ATOM      5  C   UNL     1     -35.682  74.805 -26.969  1.00  0.00     0.111 A 
ATOM      6  C   UNL     1     -34.347  74.520 -27.351  1.00  0.00     0.134 A 
ATOM      7  C   UNL     1     -33.293  75.264 -26.802  1.00  0.00     0.093 A 
ATOM      8  C   UNL     1     -33.545  76.285 -25.882  1.00  0.00     0.123 A 
ATOM      9  C   UNL     1     -34.860  76.570 -25.501  1.00  0.00     0.094 A 
ATOM     10  C   UNL     1     -35.925  75.839 -26.035  1.00  0.00     0.146 A 
ATOM     11  O   UNL     1     -37.163  76.126 -25.653  1.00  0.00    -0.452 OA
ENDROOT
BRANCH   1  12
ATOM     12  C   UNL     1     -39.563  75.891 -25.589  1.00  0.00     0.025 A 
ATOM     13  C   UNL     1     -41.065  76.438 -23.739  1.00  0.00     0.161 A 
ATOM     14  C   UNL     1     -42.084  76.722 -24.660  1.00  0.00     0.157 A 
ATOM     15  C   UNL     1     -39.802  76.029 -24.210  1.00  0.00     0.062 A 
ATOM     16  C   UNL     1     -41.840  76.607 -26.033  1.00  0.00     0.051 A 
ATOM     17  C   UNL     1     -40.587  76.202 -26.496  1.00  0.00     0.016 A 
BRANCH  13  18
ATOM     18  O   UNL     1     -41.345  76.576 -22.370  1.00  0.00    -0.493 OA
ATOM     19  C   UNL     1     -41.188  75.540 -21.406  1.00  0.00     0.278 C 
ENDBRANCH  13  18
BRANCH  14  20
ATOM     20  O   UNL     1     -43.336  77.125 -24.199  1.00  0.00    -0.504 OA
ATOM     21  H   UNL     1     -44.157  76.541 -24.316  1.00  0.00     0.293 HD
ENDBRANCH  14  20
ENDBRANCH   1  12
BRANCH   2  22
ATOM     22  O   UNL     1     -39.209  73.813 -27.584  1.00  0.00    -0.502 OA
ATOM     23  H   UNL     1     -39.177  73.288 -28.449  1.00  0.00     0.293 HD
ENDBRANCH   2  22
BRANCH   6  24
ATOM     24  O   UNL     1     -34.064  73.507 -28.268  1.00  0.00    -0.507 OA
ATOM     25  H   UNL     1     -33.477  73.672 -29.078  1.00  0.00     0.293 HD
ENDBRANCH   6  24
BRANCH   8  26
ATOM     26  O   UNL     1     -32.479  77.011 -25.352  1.00  0.00    -0.508 OA
ATOM     27  H   UNL     1     -31.540  76.915 -25.719  1.00  0.00     0.293 HD
ENDBRANCH   8  26
TORSDOF 6
ENDMDL
MODEL 2
REMARK VINA RESULT:    -5.304      1.392      6.994
REMARK INTER + INTRA:          -6.594
REMARK INTER:                  -6.481
REMARK INTRA:                  -0.113
REMARK UNBOUND:                -0.049
REMARK SMILES COc1cc(-c2oc3cc(O)cc(O)c3c(=O)c2O)ccc1O
REMARK SMILES IDX 6 1 18 2 16 3 17 4 15 5 13 6 12 7 10 8 9 9 8 10 7 11 5 12
REMARK SMILES IDX 3 13 22 14 4 15 21 16 20 17 2 18 1 19 23 20 19 22 14 24
REMARK SMILES IDX 11 26
REMARK H PARENT 23 21 19 23 14 25 11 27
REMARK Flexibility Score: inf
ROOT
ATOM      1  C   UNL     1     -39.102  75.698 -25.644  1.00  0.00     0.180 A 
ATOM      2  C   UNL     1     -40.272  75.663 -26.427  1.00  0.00     0.208 A 
ATOM      3  C   UNL     1     -41.507  75.935 -25.815  1.00  0.00     0.238 A 
ATOM      4  O   UNL     1     -42.560  75.917 -26.508  1.00  0.00    -0.285 OA
ATOM      5  C   UNL     1     -41.552  76.215 -24.434  1.00  0.00     0.111 A 
ATOM      6  C   UNL     1     -42.755  76.496 -23.740  1.00  0.00     0.134 A 
ATOM      7  C   UNL     1     -42.719  76.757 -22.363  1.00  0.00     0.093 A 
ATOM      8  C   UNL     1     -41.508  76.743 -21.667  1.00  0.00     0.123 A 
ATOM      9  C   UNL     1     -40.317  76.467 -22.346  1.00  0.00     0.094 A 
ATOM     10  C   UNL     1     -40.331  76.205 -23.719  1.00  0.00     0.146 A 
ATOM     11  O   UNL     1     -39.186  75.952 -24.341  1.00  0.00    -0.452 OA
ENDROOT
BRANCH   1  12
ATOM     12  C   UNL     1     -37.763  75.442 -26.221  1.00  0.00     0.025 A 
ATOM     13  C   UNL     1     -35.438  76.096 -26.606  1.00  0.00     0.161 A 
ATOM     14  C   UNL     1     -35.219  74.889 -27.286  1.00  0.00     0.157 A 
ATOM     15  C   UNL     1     -36.713  76.364 -26.068  1.00  0.00     0.062 A 
ATOM     16  C   UNL     1     -36.258  73.960 -27.419  1.00  0.00     0.051 A 
ATOM     17  C   UNL     1     -37.519  74.230 -26.884  1.00  0.00     0.016 A 
BRANCH  13  18
ATOM     18  O   UNL     1     -34.368  76.997 -26.483  1.00  0.00    -0.493 OA
ATOM     19  C   UNL     1     -33.514  77.083 -25.348  1.00  0.00     0.278 C 
ENDBRANCH  13  18
BRANCH  14  20
ATOM     20  O   UNL     1     -33.961  74.619 -27.823  1.00  0.00    -0.504 OA
ATOM     21  H   UNL     1     -33.644  75.062 -28.678  1.00  0.00     0.293 HD
ENDBRANCH  14  20
ENDBRANCH   1  12
BRANCH   2  22
ATOM     22  O   UNL     1     -40.206  75.333 -27.783  1.00  0.00    -0.502 OA
ATOM     23  H   UNL     1     -39.909  75.995 -28.490  1.00  0.00     0.293 HD
ENDBRANCH   2  22
BRANCH   6  24
ATOM     24  O   UNL     1     -43.980  76.517 -24.408  1.00  0.00    -0.507 OA
ATOM     25  H   UNL     1     -44.842  76.249 -23.946  1.00  0.00     0.293 HD
ENDBRANCH   6  24
BRANCH   8  26
ATOM     26  O   UNL     1     -41.499  77.004 -20.297  1.00  0.00    -0.508 OA
ATOM     27  H   UNL     1     -41.825  76.319 -19.626  1.00  0.00     0.293 HD
ENDBRANCH   8  26
TORSDOF 6
ENDMDL
MODEL 3
REMARK VINA RESULT:    -5.293      3.176      6.316
REMARK INTER + INTRA:          -6.579
REMARK INTER:                  -6.241
REMARK INTRA:                  -0.339
REMARK UNBOUND:                -0.049
REMARK SMILES COc1cc(-c2oc3cc(O)cc(O)c3c(=O)c2O)ccc1O
REMARK SMILES IDX 6 1 18 2 16 3 17 4 15 5 13 6 12 7 10 8 9 9 8 10 7 11 5 12
REMARK SMILES IDX 3 13 22 14 4 15 21 16 20 17 2 18 1 19 23 20 19 22 14 24
REMARK SMILES IDX 11 26
REMARK H PARENT 23 21 19 23 14 25 11 27
REMARK Flexibility Score: inf
ROOT
ATOM      1  C   UNL     1     -39.786  76.097 -22.052  1.00  0.00     0.180 A 
ATOM      2  C   UNL     1     -41.153  75.922 -22.342  1.00  0.00     0.208 A 
ATOM      3  C   UNL     1     -41.577  75.985 -23.678  1.00  0.00     0.238 A 
ATOM      4  O   UNL     1     -42.797  75.818 -23.951  1.00  0.00    -0.285 OA
ATOM      5  C   UNL     1     -40.636  76.241 -24.696  1.00  0.00     0.111 A 
ATOM      6  C   UNL     1     -40.981  76.323 -26.068  1.00  0.00     0.134 A 
ATOM      7  C   UNL     1     -39.988  76.591 -27.020  1.00  0.00     0.093 A 
ATOM      8  C   UNL     1     -38.659  76.777 -26.631  1.00  0.00     0.123 A 
ATOM      9  C   UNL     1     -38.312  76.696 -25.279  1.00  0.00     0.094 A 
ATOM     10  C   UNL     1     -39.287  76.429 -24.314  1.00  0.00     0.146 A 
ATOM     11  O   UNL     1     -38.930  76.352 -23.037  1.00  0.00    -0.452 OA
ENDROOT
BRANCH   1  12
ATOM     12  C   UNL     1     -39.260  76.026 -20.670  1.00  0.00     0.025 A 
ATOM     13  C   UNL     1     -38.039  74.856 -18.903  1.00  0.00     0.161 A 
ATOM     14  C   UNL     1     -38.230  75.956 -18.054  1.00  0.00     0.157 A 
ATOM     15  C   UNL     1     -38.551  74.899 -20.216  1.00  0.00     0.062 A 
ATOM     16  C   UNL     1     -38.916  77.086 -18.513  1.00  0.00     0.051 A 
ATOM     17  C   UNL     1     -39.421  77.125 -19.814  1.00  0.00     0.016 A 
BRANCH  13  18
ATOM     18  O   UNL     1     -37.336  73.745 -18.410  1.00  0.00    -0.493 OA
ATOM     19  C   UNL     1     -37.346  72.454 -19.009  1.00  0.00     0.278 C 
ENDBRANCH  13  18
BRANCH  14  20
ATOM     20  O   UNL     1     -37.728  75.917 -16.754  1.00  0.00    -0.504 OA
ATOM     21  H   UNL     1     -37.775  76.726 -16.143  1.00  0.00     0.293 HD
ENDBRANCH  14  20
ENDBRANCH   1  12
BRANCH   2  22
ATOM     22  O   UNL     1     -42.074  75.719 -21.310  1.00  0.00    -0.502 OA
ATOM     23  H   UNL     1     -42.878  76.319 -21.173  1.00  0.00     0.293 HD
ENDBRANCH   2  22
BRANCH   6  24
ATOM     24  O   UNL     1     -42.300  76.143 -26.488  1.00  0.00    -0.507 OA
ATOM     25  H   UNL     1     -42.623  76.483 -27.387  1.00  0.00     0.293 HD
ENDBRANCH   6  24
BRANCH   8  26
ATOM     26  O   UNL     1     -37.691  77.042 -27.598  1.00  0.00    -0.508 OA
ATOM     27  H   UNL     1     -36.726  77.222 -27.346  1.00  0.00     0.293 HD
ENDBRANCH   8  26
TORSDOF 6
ENDMDL
MODEL 4
REMARK VINA RESULT:    -5.282      1.577      1.775
REMARK INTER + INTRA:          -6.566
REMARK INTER:                  -7.037
REMARK INTRA:                   0.471
REMARK UNBOUND:                -0.049
REMARK SMILES COc1cc(-c2oc3cc(O)cc(O)c3c(=O)c2O)ccc1O
REMARK SMILES IDX 6 1 18 2 16 3 17 4 15 5 13 6 12 7 10 8 9 9 8 10 7 11 5 12
REMARK SMILES IDX 3 13 22 14 4 15 21 16 20 17 2 18 1 19 23 20 19 22 14 24
REMARK SMILES IDX 11 26
REMARK H PARENT 23 21 19 23 14 25 11 27
REMARK Flexibility Score: inf
ROOT
ATOM      1  C   UNL     1     -38.812  76.215 -25.364  1.00  0.00     0.180 A 
ATOM      2  C   UNL     1     -38.982  76.089 -26.756  1.00  0.00     0.208 A 
ATOM      3  C   UNL     1     -37.845  75.979 -27.572  1.00  0.00     0.238 A 
ATOM      4  O   UNL     1     -37.984  75.855 -28.819  1.00  0.00    -0.285 OA
ATOM      5  C   UNL     1     -36.562  76.017 -26.987  1.00  0.00     0.111 A 
ATOM      6  C   UNL     1     -35.365  75.915 -27.738  1.00  0.00     0.134 A 
ATOM      7  C   UNL     1     -34.127  75.971 -27.083  1.00  0.00     0.093 A 
ATOM      8  C   UNL     1     -34.060  76.124 -25.696  1.00  0.00     0.123 A 
ATOM      9  C   UNL     1     -35.238  76.224 -24.949  1.00  0.00     0.094 A 
ATOM     10  C   UNL     1     -36.483  76.170 -25.583  1.00  0.00     0.146 A 
ATOM     11  O   UNL     1     -37.586  76.262 -24.850  1.00  0.00    -0.452 OA
ENDROOT
BRANCH   1  12
ATOM     12  C   UNL     1     -39.962  76.317 -24.437  1.00  0.00     0.025 A 
ATOM     13  C   UNL     1     -40.881  76.655 -22.197  1.00  0.00     0.161 A 
ATOM     14  C   UNL     1     -42.178  76.557 -22.722  1.00  0.00     0.157 A 
ATOM     15  C   UNL     1     -39.775  76.542 -23.062  1.00  0.00     0.062 A 
ATOM     16  C   UNL     1     -42.366  76.355 -24.095  1.00  0.00     0.051 A 
ATOM     17  C   UNL     1     -41.266  76.243 -24.948  1.00  0.00     0.016 A 
BRANCH  13  18
ATOM     18  O   UNL     1     -40.734  76.869 -20.817  1.00  0.00    -0.493 OA
ATOM     19  C   UNL     1     -39.689  76.319 -20.023  1.00  0.00     0.278 C 
ENDBRANCH  13  18
BRANCH  14  20
ATOM     20  O   UNL     1     -43.276  76.666 -21.871  1.00  0.00    -0.504 OA
ATOM     21  H   UNL     1     -43.513  77.543 -21.421  1.00  0.00     0.293 HD
ENDBRANCH  14  20
ENDBRANCH   1  12
BRANCH   2  22
ATOM     22  O   UNL     1     -40.262  76.105 -27.316  1.00  0.00    -0.502 OA
ATOM     23  H   UNL     1     -40.706  75.271 -27.681  1.00  0.00     0.293 HD
ENDBRANCH   2  22
BRANCH   6  24
ATOM     24  O   UNL     1     -35.399  75.762 -29.125  1.00  0.00    -0.507 OA
ATOM     25  H   UNL     1     -35.167  76.525 -29.750  1.00  0.00     0.293 HD
ENDBRANCH   6  24
BRANCH   8  26
ATOM     26  O   UNL     1     -32.816  76.177 -25.070  1.00  0.00    -0.508 OA
ATOM     27  H   UNL     1     -32.338  75.336 -24.770  1.00  0.00     0.293 HD
ENDBRANCH   8  26
TORSDOF 6
ENDMDL
MODEL 5
REMARK VINA RESULT:    -5.106      1.695      7.509
REMARK INTER + INTRA:          -6.349
REMARK INTER:                  -6.498
REMARK INTRA:                   0.148
REMARK UNBOUND:                -0.049
REMARK SMILES COc1cc(-c2oc3cc(O)cc(O)c3c(=O)c2O)ccc1O
REMARK SMILES IDX 6 1 18 2 16 3 17 4 15 5 13 6 12 7 10 8 9 9 8 10 7 11 5 12
REMARK SMILES IDX 3 13 22 14 4 15 21 16 20 17 2 18 1 19 23 20 19 22 14 24
REMARK SMILES IDX 11 26
REMARK H PARENT 23 21 19 23 14 25 11 27
REMARK Flexibility Score: inf
ROOT
ATOM      1  C   UNL     1     -38.744  76.064 -25.107  1.00  0.00     0.180 A 
ATOM      2  C   UNL     1     -39.138  76.457 -23.814  1.00  0.00     0.208 A 
ATOM      3  C   UNL     1     -40.502  76.437 -23.485  1.00  0.00     0.238 A 
ATOM      4  O   UNL     1     -40.867  76.778 -22.327  1.00  0.00    -0.285 OA
ATOM      5  C   UNL     1     -41.447  76.045 -24.455  1.00  0.00     0.111 A 
ATOM      6  C   UNL     1     -42.841  76.000 -24.205  1.00  0.00     0.134 A 
ATOM      7  C   UNL     1     -43.718  75.607 -25.227  1.00  0.00     0.093 A 
ATOM      8  C   UNL     1     -43.232  75.258 -26.489  1.00  0.00     0.123 A 
ATOM      9  C   UNL     1     -41.857  75.300 -26.741  1.00  0.00     0.094 A 
ATOM     10  C   UNL     1     -40.965  75.688 -25.737  1.00  0.00     0.146 A 
ATOM     11  O   UNL     1     -39.665  75.714 -26.001  1.00  0.00    -0.452 OA
ENDROOT
BRANCH   1  12
ATOM     12  C   UNL     1     -37.323  76.040 -25.523  1.00  0.00     0.025 A 
ATOM     13  C   UNL     1     -35.484  75.059 -26.802  1.00  0.00     0.161 A 
ATOM     14  C   UNL     1     -34.629  76.065 -26.329  1.00  0.00     0.157 A 
ATOM     15  C   UNL     1     -36.835  75.056 -26.401  1.00  0.00     0.062 A 
ATOM     16  C   UNL     1     -35.119  77.058 -25.474  1.00  0.00     0.051 A 
ATOM     17  C   UNL     1     -36.458  77.051 -25.079  1.00  0.00     0.016 A 
BRANCH  13  18
ATOM     18  O   UNL     1     -34.957  74.088 -27.669  1.00  0.00    -0.493 OA
ATOM     19  C   UNL     1     -35.516  73.747 -28.933  1.00  0.00     0.278 C 
ENDBRANCH  13  18
BRANCH  14  20
ATOM     20  O   UNL     1     -33.291  76.072 -26.721  1.00  0.00    -0.504 OA
ATOM     21  H   UNL     1     -32.999  75.703 -27.619  1.00  0.00     0.293 HD
ENDBRANCH  14  20
ENDBRANCH   1  12
BRANCH   2  22
ATOM     22  O   UNL     1     -38.187  76.890 -22.887  1.00  0.00    -0.502 OA
ATOM     23  H   UNL     1     -38.362  76.892 -21.889  1.00  0.00     0.293 HD
ENDBRANCH   2  22
BRANCH   6  24
ATOM     24  O   UNL     1     -43.357  76.343 -22.955  1.00  0.00    -0.507 OA
ATOM     25  H   UNL     1     -43.642  75.637 -22.285  1.00  0.00     0.293 HD
ENDBRANCH   6  24
BRANCH   8  26
ATOM     26  O   UNL     1     -44.125  74.872 -27.487  1.00  0.00    -0.508 OA
ATOM     27  H   UNL     1     -45.097  74.674 -27.280  1.00  0.00     0.293 HD
ENDBRANCH   8  26
TORSDOF 6
ENDMDL
MODEL 6
REMARK VINA RESULT:    -4.985      1.479      7.064
REMARK INTER + INTRA:          -6.200
REMARK INTER:                  -6.335
REMARK INTRA:                   0.135
REMARK UNBOUND:                -0.049
REMARK SMILES COc1cc(-c2oc3cc(O)cc(O)c3c(=O)c2O)ccc1O
REMARK SMILES IDX 6 1 18 2 16 3 17 4 15 5 13 6 12 7 10 8 9 9 8 10 7 11 5 12
REMARK SMILES IDX 3 13 22 14 4 15 21 16 20 17 2 18 1 19 23 20 19 22 14 24
REMARK SMILES IDX 11 26
REMARK H PARENT 23 21 19 23 14 25 11 27
REMARK Flexibility Score: inf
ROOT
ATOM      1  C   UNL     1     -37.886  76.180 -25.066  1.00  0.00     0.180 A 
ATOM      2  C   UNL     1     -38.972  75.982 -25.941  1.00  0.00     0.208 A 
ATOM      3  C   UNL     1     -40.276  76.018 -25.422  1.00  0.00     0.238 A 
ATOM      4  O   UNL     1     -41.257  75.852 -26.197  1.00  0.00    -0.285 OA
ATOM      5  C   UNL     1     -40.471  76.230 -24.042  1.00  0.00     0.111 A 
ATOM      6  C   UNL     1     -41.752  76.277 -23.439  1.00  0.00     0.134 A 
ATOM      7  C   UNL     1     -41.863  76.483 -22.057  1.00  0.00     0.093 A 
ATOM      8  C   UNL     1     -40.723  76.644 -21.266  1.00  0.00     0.123 A 
ATOM      9  C   UNL     1     -39.456  76.600 -21.855  1.00  0.00     0.094 A 
ATOM     10  C   UNL     1     -39.323  76.395 -23.232  1.00  0.00     0.146 A 
ATOM     11  O   UNL     1     -38.109  76.363 -23.768  1.00  0.00    -0.452 OA
ENDROOT
BRANCH   1  12
ATOM     12  C   UNL     1     -36.483  76.176 -25.540  1.00  0.00     0.025 A 
ATOM     13  C   UNL     1     -34.724  75.326 -27.010  1.00  0.00     0.161 A 
ATOM     14  C   UNL     1     -33.822  76.240 -26.447  1.00  0.00     0.157 A 
ATOM     15  C   UNL     1     -36.058  75.303 -26.558  1.00  0.00     0.062 A 
ATOM     16  C   UNL     1     -34.250  77.125 -25.450  1.00  0.00     0.051 A 
ATOM     17  C   UNL     1     -35.573  77.099 -25.005  1.00  0.00     0.016 A 
BRANCH  13  18
ATOM     18  O   UNL     1     -34.259  74.463 -28.016  1.00  0.00    -0.493 OA
ATOM     19  C   UNL     1     -35.093  73.611 -28.795  1.00  0.00     0.278 C 
ENDBRANCH  13  18
BRANCH  14  20
ATOM     20  O   UNL     1     -32.500  76.265 -26.889  1.00  0.00    -0.504 OA
ATOM     21  H   UNL     1     -32.239  75.905 -27.800  1.00  0.00     0.293 HD
ENDBRANCH  14  20
ENDBRANCH   1  12
BRANCH   2  22
ATOM     22  O   UNL     1     -38.750  75.724 -27.296  1.00  0.00    -0.502 OA
ATOM     23  H   UNL     1     -38.518  76.455 -27.958  1.00  0.00     0.293 HD
ENDBRANCH   2  22
BRANCH   6  24
ATOM     24  O   UNL     1     -42.911  76.119 -24.202  1.00  0.00    -0.507 OA
ATOM     25  H   UNL     1     -43.769  75.763 -23.798  1.00  0.00     0.293 HD
ENDBRANCH   6  24
BRANCH   8  26
ATOM     26  O   UNL     1     -40.861  76.847 -19.894  1.00  0.00    -0.508 OA
ATOM     27  H   UNL     1     -40.622  77.732 -19.464  1.00  0.00     0.293 HD
ENDBRANCH   8  26
TORSDOF 6
ENDMDL
MODEL 7
REMARK VINA RESULT:    -3.898      2.400      4.267
REMARK INTER + INTRA:          -4.859
REMARK INTER:                  -5.315
REMARK INTRA:                   0.456
REMARK UNBOUND:                -0.049
REMARK SMILES COc1cc(-c2oc3cc(O)cc(O)c3c(=O)c2O)ccc1O
REMARK SMILES IDX 6 1 18 2 16 3 17 4 15 5 13 6 12 7 10 8 9 9 8 10 7 11 5 12
REMARK SMILES IDX 3 13 22 14 4 15 21 16 20 17 2 18 1 19 23 20 19 22 14 24
REMARK SMILES IDX 11 26
REMARK H PARENT 23 21 19 23 14 25 11 27
REMARK Flexibility Score: inf
ROOT
ATOM      1  C   UNL     1     -39.510  76.314 -23.329  1.00  0.00     0.180 A 
ATOM      2  C   UNL     1     -40.461  76.253 -24.365  1.00  0.00     0.208 A 
ATOM      3  C   UNL     1     -40.019  76.052 -25.682  1.00  0.00     0.238 A 
ATOM      4  O   UNL     1     -40.862  75.985 -26.617  1.00  0.00    -0.285 OA
ATOM      5  C   UNL     1     -38.638  75.936 -25.942  1.00  0.00     0.111 A 
ATOM      6  C   UNL     1     -38.109  75.735 -27.241  1.00  0.00     0.134 A 
ATOM      7  C   UNL     1     -36.722  75.639 -27.420  1.00  0.00     0.093 A 
ATOM      8  C   UNL     1     -35.854  75.738 -26.329  1.00  0.00     0.123 A 
ATOM      9  C   UNL     1     -36.370  75.935 -25.045  1.00  0.00     0.094 A 
ATOM     10  C   UNL     1     -37.750  76.033 -24.845  1.00  0.00     0.146 A 
ATOM     11  O   UNL     1     -38.215  76.215 -23.615  1.00  0.00    -0.452 OA
ENDROOT
BRANCH   1  12
ATOM     12  C   UNL     1     -39.900  76.504 -21.913  1.00  0.00     0.025 A 
ATOM     13  C   UNL     1     -39.335  76.637 -19.537  1.00  0.00     0.161 A 
ATOM     14  C   UNL     1     -40.676  76.925 -19.243  1.00  0.00     0.157 A 
ATOM     15  C   UNL     1     -38.950  76.435 -20.878  1.00  0.00     0.062 A 
ATOM     16  C   UNL     1     -41.617  77.017 -20.275  1.00  0.00     0.051 A 
ATOM     17  C   UNL     1     -41.231  76.815 -21.601  1.00  0.00     0.016 A 
BRANCH  13  18
ATOM     18  O   UNL     1     -38.419  76.566 -18.476  1.00  0.00    -0.493 OA
ATOM     19  C   UNL     1     -37.933  75.352 -17.911  1.00  0.00     0.278 C 
ENDBRANCH  13  18
BRANCH  14  20
ATOM     20  O   UNL     1     -41.063  77.124 -17.919  1.00  0.00    -0.504 OA
ATOM     21  H   UNL     1     -42.026  77.325 -17.672  1.00  0.00     0.293 HD
ENDBRANCH  14  20
ENDBRANCH   1  12
BRANCH   2  22
ATOM     22  O   UNL     1     -41.820  76.421 -24.087  1.00  0.00    -0.502 OA
ATOM     23  H   UNL     1     -42.378  77.146 -24.521  1.00  0.00     0.293 HD
ENDBRANCH   2  22
BRANCH   6  24
ATOM     24  O   UNL     1     -38.950  75.633 -28.351  1.00  0.00    -0.507 OA
ATOM     25  H   UNL     1     -39.783  76.202 -28.441  1.00  0.00     0.293 HD
ENDBRANCH   6  24
BRANCH   8  26
ATOM     26  O   UNL     1     -34.479  75.640 -26.534  1.00  0.00    -0.508 OA
ATOM     27  H   UNL     1     -34.083  75.617 -27.466  1.00  0.00     0.293 HD
ENDBRANCH   8  26
TORSDOF 6
ENDMDL
