MODEL 1
REMARK VINA RESULT:    -3.869      0.000      0.000
REMARK INTER + INTRA:          -5.869
REMARK INTER:                  -5.453
REMARK INTRA:                  -0.416
REMARK UNBOUND:                -0.416
REMARK SMILES CCCCCCCCC(=O)[O-]
REMARK SMILES IDX 6 1 7 2 8 3 9 4 10 5 11 6 5 7 4 8 3 9 2 10 1 11
REMARK H PARENT
REMARK Flexibility Score: inf
ROOT
ATOM      1  C   UNL     1      25.518   1.509  17.484  1.00  0.00     0.000 C 
ENDROOT
BRANCH   1   2
ATOM      2  C   UNL     1      24.787   0.805  18.642  1.00  0.00     0.006 C 
BRANCH   2   3
ATOM      3  C   UNL     1      23.779  -0.265  18.186  1.00  0.00     0.053 C 
BRANCH   3   4
ATOM      4  C   UNL     1      24.402  -1.313  17.315  1.00  0.00     0.041 C 
ATOM      5  O   UNL     1      25.209  -2.147  17.801  1.00  0.00    -0.550 OA
ATOM      6  O   UNL     1      24.112  -1.349  15.956  1.00  0.00    -0.550 OA
ENDBRANCH   3   4
ENDBRANCH   2   3
ENDBRANCH   1   2
BRANCH   1   7
ATOM      7  C   UNL     1      25.358   3.036  17.512  1.00  0.00     0.000 C 
BRANCH   7   8
ATOM      8  C   UNL     1      24.315   3.461  18.557  1.00  0.00    -0.000 C 
BRANCH   8   9
ATOM      9  C   UNL     1      23.445   4.641  18.089  1.00  0.00    -0.000 C 
BRANCH   9  10
ATOM     10  C   UNL     1      23.828   5.227  16.718  1.00  0.00    -0.003 C 
ATOM     11  C   UNL     1      23.776   6.753  16.684  1.00  0.00     0.004 C 
ENDBRANCH   9  10
ENDBRANCH   8   9
ENDBRANCH   7   8
ENDBRANCH   1   7
TORSDOF 7
ENDMDL
MODEL 2
REMARK VINA RESULT:    -3.809      1.628      3.019
REMARK INTER + INTRA:          -5.783
REMARK INTER:                  -5.105
REMARK INTRA:                  -0.678
REMARK UNBOUND:                -0.416
REMARK SMILES CCCCCCCCC(=O)[O-]
REMARK SMILES IDX 6 1 7 2 8 3 9 4 10 5 11 6 5 7 4 8 3 9 2 10 1 11
REMARK H PARENT
REMARK Flexibility Score: inf
ROOT
ATOM      1  C   UNL     1      24.756   2.780  17.509  1.00  0.00     0.000 C 
ENDROOT
BRANCH   1   2
ATOM      2  C   UNL     1      25.743   1.600  17.445  1.00  0.00     0.006 C 
BRANCH   2   3
ATOM      3  C   UNL     1      25.297   0.368  18.254  1.00  0.00     0.053 C 
BRANCH   3   4
ATOM      4  C   UNL     1      24.968  -0.807  17.385  1.00  0.00     0.041 C 
ATOM      5  O   UNL     1      25.077  -1.979  17.831  1.00  0.00    -0.550 OA
ATOM      6  O   UNL     1      24.568  -0.608  16.069  1.00  0.00    -0.550 OA
ENDBRANCH   3   4
ENDBRANCH   2   3
ENDBRANCH   1   2
BRANCH   1   7
ATOM      7  C   UNL     1      24.192   3.016  18.918  1.00  0.00     0.000 C 
BRANCH   7   8
ATOM      8  C   UNL     1      22.834   3.732  18.855  1.00  0.00    -0.000 C 
BRANCH   8   9
ATOM      9  C   UNL     1      21.650   2.798  19.165  1.00  0.00    -0.000 C 
BRANCH   9  10
ATOM     10  C   UNL     1      22.041   1.407  19.695  1.00  0.00    -0.003 C 
ATOM     11  C   UNL     1      21.634   0.273  18.757  1.00  0.00     0.004 C 
ENDBRANCH   9  10
ENDBRANCH   8   9
ENDBRANCH   7   8
ENDBRANCH   1   7
TORSDOF 7
ENDMDL
MODEL 3
REMARK VINA RESULT:    -3.732      1.672      1.798
REMARK INTER + INTRA:          -5.676
REMARK INTER:                  -5.159
REMARK INTRA:                  -0.516
REMARK UNBOUND:                -0.416
REMARK SMILES CCCCCCCCC(=O)[O-]
REMARK SMILES IDX 6 1 7 2 8 3 9 4 10 5 11 6 5 7 4 8 3 9 2 10 1 11
REMARK H PARENT
REMARK Flexibility Score: inf
ROOT
ATOM      1  C   UNL     1      25.224   1.505  17.145  1.00  0.00     0.000 C 
ENDROOT
BRANCH   1   2
ATOM      2  C   UNL     1      25.265   0.556  18.357  1.00  0.00     0.006 C 
BRANCH   2   3
ATOM      3  C   UNL     1      24.174  -0.531  18.336  1.00  0.00     0.053 C 
BRANCH   3   4
ATOM      4  C   UNL     1      22.812   0.010  18.643  1.00  0.00     0.041 C 
ATOM      5  O   UNL     1      22.598   0.620  19.724  1.00  0.00    -0.550 OA
ATOM      6  O   UNL     1      21.768  -0.185  17.747  1.00  0.00    -0.550 OA
ENDBRANCH   3   4
ENDBRANCH   2   3
ENDBRANCH   1   2
BRANCH   1   7
ATOM      7  C   UNL     1      25.405   2.980  17.531  1.00  0.00     0.000 C 
BRANCH   7   8
ATOM      8  C   UNL     1      24.471   3.365  18.689  1.00  0.00    -0.000 C 
BRANCH   8   9
ATOM      9  C   UNL     1      23.373   4.357  18.267  1.00  0.00    -0.000 C 
BRANCH   9  10
ATOM     10  C   UNL     1      23.545   4.958  16.861  1.00  0.00    -0.003 C 
ATOM     11  C   UNL     1      23.848   6.455  16.882  1.00  0.00     0.004 C 
ENDBRANCH   9  10
ENDBRANCH   8   9
ENDBRANCH   7   8
ENDBRANCH   1   7
TORSDOF 7
ENDMDL
MODEL 4
REMARK VINA RESULT:    -3.704      9.345     10.973
REMARK INTER + INTRA:          -5.636
REMARK INTER:                  -5.197
REMARK INTRA:                  -0.439
REMARK UNBOUND:                -0.416
REMARK SMILES CCCCCCCCC(=O)[O-]
REMARK SMILES IDX 6 1 7 2 8 3 9 4 10 5 11 6 5 7 4 8 3 9 2 10 1 11
REMARK H PARENT
REMARK Flexibility Score: inf
ROOT
ATOM      1  C   UNL     1      26.661   4.067  10.277  1.00  0.00     0.000 C 
ENDROOT
BRANCH   1   2
ATOM      2  C   UNL     1      26.276   5.508   9.892  1.00  0.00     0.006 C 
BRANCH   2   3
ATOM      3  C   UNL     1      26.944   6.008   8.599  1.00  0.00     0.053 C 
BRANCH   3   4
ATOM      4  C   UNL     1      26.542   7.407   8.243  1.00  0.00     0.041 C 
ATOM      5  O   UNL     1      25.835   8.086   9.033  1.00  0.00    -0.550 OA
ATOM      6  O   UNL     1      26.924   7.950   7.022  1.00  0.00    -0.550 OA
ENDBRANCH   3   4
ENDBRANCH   2   3
ENDBRANCH   1   2
BRANCH   1   7
ATOM      7  C   UNL     1      28.116   3.940  10.752  1.00  0.00     0.000 C 
BRANCH   7   8
ATOM      8  C   UNL     1      28.805   2.734  10.096  1.00  0.00    -0.000 C 
BRANCH   8   9
ATOM      9  C   UNL     1      28.434   2.566   8.612  1.00  0.00    -0.000 C 
BRANCH   9  10
ATOM     10  C   UNL     1      28.229   1.111   8.154  1.00  0.00    -0.003 C 
ATOM     11  C   UNL     1      28.887   0.093   9.084  1.00  0.00     0.004 C 
ENDBRANCH   9  10
ENDBRANCH   8   9
ENDBRANCH   7   8
ENDBRANCH   1   7
TORSDOF 7
ENDMDL
MODEL 5
REMARK VINA RESULT:    -3.700      9.818     11.300
REMARK INTER + INTRA:          -5.631
REMARK INTER:                  -5.090
REMARK INTRA:                  -0.541
REMARK UNBOUND:                -0.416
REMARK SMILES CCCCCCCCC(=O)[O-]
REMARK SMILES IDX 6 1 7 2 8 3 9 4 10 5 11 6 5 7 4 8 3 9 2 10 1 11
REMARK H PARENT
REMARK Flexibility Score: inf
ROOT
ATOM      1  C   UNL     1      26.869   4.667  10.244  1.00  0.00     0.000 C 
ENDROOT
BRANCH   1   2
ATOM      2  C   UNL     1      26.900   5.628   9.040  1.00  0.00     0.006 C 
BRANCH   2   3
ATOM      3  C   UNL     1      25.762   6.666   9.040  1.00  0.00     0.053 C 
BRANCH   3   4
ATOM      4  C   UNL     1      26.213   8.019   8.583  1.00  0.00     0.041 C 
ATOM      5  O   UNL     1      27.113   8.128   7.709  1.00  0.00    -0.550 OA
ATOM      6  O   UNL     1      25.660   9.163   9.145  1.00  0.00    -0.550 OA
ENDBRANCH   3   4
ENDBRANCH   2   3
ENDBRANCH   1   2
BRANCH   1   7
ATOM      7  C   UNL     1      28.065   3.705  10.274  1.00  0.00     0.000 C 
BRANCH   7   8
ATOM      8  C   UNL     1      28.741   3.623   8.897  1.00  0.00    -0.000 C 
BRANCH   8   9
ATOM      9  C   UNL     1      28.369   2.346   8.123  1.00  0.00    -0.000 C 
BRANCH   9  10
ATOM     10  C   UNL     1      27.821   2.582   6.705  1.00  0.00    -0.003 C 
ATOM     11  C   UNL     1      26.301   2.735   6.668  1.00  0.00     0.004 C 
ENDBRANCH   9  10
ENDBRANCH   8   9
ENDBRANCH   7   8
ENDBRANCH   1   7
TORSDOF 7
ENDMDL
MODEL 6
REMARK VINA RESULT:    -3.677      3.140      4.999
REMARK INTER + INTRA:          -5.597
REMARK INTER:                  -4.765
REMARK INTRA:                  -0.832
REMARK UNBOUND:                -0.416
REMARK SMILES CCCCCCCCC(=O)[O-]
REMARK SMILES IDX 6 1 7 2 8 3 9 4 10 5 11 6 5 7 4 8 3 9 2 10 1 11
REMARK H PARENT
REMARK Flexibility Score: inf
ROOT
ATOM      1  C   UNL     1      25.011   1.515  17.104  1.00  0.00     0.000 C 
ENDROOT
BRANCH   1   2
ATOM      2  C   UNL     1      25.207   2.990  17.503  1.00  0.00     0.006 C 
BRANCH   2   3
ATOM      3  C   UNL     1      24.479   3.387  18.801  1.00  0.00     0.053 C 
BRANCH   3   4
ATOM      4  C   UNL     1      23.259   4.219  18.549  1.00  0.00     0.041 C 
ATOM      5  O   UNL     1      22.422   3.873  17.674  1.00  0.00    -0.550 OA
ATOM      6  O   UNL     1      23.061   5.396  19.261  1.00  0.00    -0.550 OA
ENDBRANCH   3   4
ENDBRANCH   2   3
ENDBRANCH   1   2
BRANCH   1   7
ATOM      7  C   UNL     1      25.228   0.543  18.273  1.00  0.00     0.000 C 
BRANCH   7   8
ATOM      8  C   UNL     1      23.968  -0.296  18.532  1.00  0.00    -0.000 C 
BRANCH   8   9
ATOM      9  C   UNL     1      22.738   0.216  17.760  1.00  0.00    -0.000 C 
BRANCH   9  10
ATOM     10  C   UNL     1      21.499   0.500  18.628  1.00  0.00    -0.003 C 
ATOM     11  C   UNL     1      21.845   1.115  19.983  1.00  0.00     0.004 C 
ENDBRANCH   9  10
ENDBRANCH   8   9
ENDBRANCH   7   8
ENDBRANCH   1   7
TORSDOF 7
ENDMDL
MODEL 7
REMARK VINA RESULT:    -3.671      9.344     11.007
REMARK INTER + INTRA:          -5.589
REMARK INTER:                  -5.267
REMARK INTRA:                  -0.323
REMARK UNBOUND:                -0.416
REMARK SMILES CCCCCCCCC(=O)[O-]
REMARK SMILES IDX 6 1 7 2 8 3 9 4 10 5 11 6 5 7 4 8 3 9 2 10 1 11
REMARK H PARENT
REMARK Flexibility Score: inf
ROOT
ATOM      1  C   UNL     1      28.572   3.669   8.898  1.00  0.00     0.000 C 
ENDROOT
BRANCH   1   2
ATOM      2  C   UNL     1      27.331   3.749   9.808  1.00  0.00     0.006 C 
BRANCH   2   3
ATOM      3  C   UNL     1      26.921   5.185  10.180  1.00  0.00     0.053 C 
BRANCH   3   4
ATOM      4  C   UNL     1      26.435   5.972   9.001  1.00  0.00     0.041 C 
ATOM      5  O   UNL     1      26.704   7.198   8.900  1.00  0.00    -0.550 OA
ATOM      6  O   UNL     1      25.659   5.356   8.027  1.00  0.00    -0.550 OA
ENDBRANCH   3   4
ENDBRANCH   2   3
ENDBRANCH   1   2
BRANCH   1   7
ATOM      7  C   UNL     1      28.418   2.647   7.762  1.00  0.00     0.000 C 
BRANCH   7   8
ATOM      8  C   UNL     1      27.751   1.358   8.268  1.00  0.00    -0.000 C 
BRANCH   8   9
ATOM      9  C   UNL     1      28.731   0.176   8.368  1.00  0.00    -0.000 C 
BRANCH   9  10
ATOM     10  C   UNL     1      28.386  -0.864   9.448  1.00  0.00    -0.003 C 
ATOM     11  C   UNL     1      28.333  -2.292   8.908  1.00  0.00     0.004 C 
ENDBRANCH   9  10
ENDBRANCH   8   9
ENDBRANCH   7   8
ENDBRANCH   1   7
TORSDOF 7
ENDMDL
MODEL 8
REMARK VINA RESULT:    -3.669      1.554      2.664
REMARK INTER + INTRA:          -5.587
REMARK INTER:                  -4.911
REMARK INTRA:                  -0.676
REMARK UNBOUND:                -0.416
REMARK SMILES CCCCCCCCC(=O)[O-]
REMARK SMILES IDX 6 1 7 2 8 3 9 4 10 5 11 6 5 7 4 8 3 9 2 10 1 11
REMARK H PARENT
REMARK Flexibility Score: inf
ROOT
ATOM      1  C   UNL     1      21.564   1.208  18.190  1.00  0.00     0.000 C 
ENDROOT
BRANCH   1   2
ATOM      2  C   UNL     1      22.340  -0.120  18.108  1.00  0.00     0.006 C 
BRANCH   2   3
ATOM      3  C   UNL     1      23.765  -0.048  18.688  1.00  0.00     0.053 C 
BRANCH   3   4
ATOM      4  C   UNL     1      24.763  -0.806  17.867  1.00  0.00     0.041 C 
ATOM      5  O   UNL     1      24.912  -0.542  16.645  1.00  0.00    -0.550 OA
ATOM      6  O   UNL     1      25.508  -1.825  18.446  1.00  0.00    -0.550 OA
ENDBRANCH   3   4
ENDBRANCH   2   3
ENDBRANCH   1   2
BRANCH   1   7
ATOM      7  C   UNL     1      22.000   2.085  19.373  1.00  0.00     0.000 C 
BRANCH   7   8
ATOM      8  C   UNL     1      22.113   3.559  18.954  1.00  0.00    -0.000 C 
BRANCH   8   9
ATOM      9  C   UNL     1      23.570   4.053  18.891  1.00  0.00    -0.000 C 
BRANCH   9  10
ATOM     10  C   UNL     1      24.222   3.977  17.499  1.00  0.00    -0.003 C 
ATOM     11  C   UNL     1      25.375   2.977  17.432  1.00  0.00     0.004 C 
ENDBRANCH   9  10
ENDBRANCH   8   9
ENDBRANCH   7   8
ENDBRANCH   1   7
TORSDOF 7
ENDMDL
MODEL 9
REMARK VINA RESULT:    -3.654      9.733     11.397
REMARK INTER + INTRA:          -5.566
REMARK INTER:                  -5.200
REMARK INTRA:                  -0.366
REMARK UNBOUND:                -0.416
REMARK SMILES CCCCCCCCC(=O)[O-]
REMARK SMILES IDX 6 1 7 2 8 3 9 4 10 5 11 6 5 7 4 8 3 9 2 10 1 11
REMARK H PARENT
REMARK Flexibility Score: inf
ROOT
ATOM      1  C   UNL     1      28.276   1.971   7.475  1.00  0.00     0.000 C 
ENDROOT
BRANCH   1   2
ATOM      2  C   UNL     1      27.762   2.630   8.768  1.00  0.00     0.006 C 
BRANCH   2   3
ATOM      3  C   UNL     1      28.132   4.119   8.900  1.00  0.00     0.053 C 
BRANCH   3   4
ATOM      4  C   UNL     1      27.012   5.031   8.504  1.00  0.00     0.041 C 
ATOM      5  O   UNL     1      27.196   6.275   8.441  1.00  0.00    -0.550 OA
ATOM      6  O   UNL     1      25.753   4.509   8.233  1.00  0.00    -0.550 OA
ENDBRANCH   3   4
ENDBRANCH   2   3
ENDBRANCH   1   2
BRANCH   1   7
ATOM      7  C   UNL     1      28.831   0.557   7.701  1.00  0.00     0.000 C 
BRANCH   7   8
ATOM      8  C   UNL     1      28.840   0.202   9.196  1.00  0.00    -0.000 C 
BRANCH   8   9
ATOM      9  C   UNL     1      28.360  -1.234   9.473  1.00  0.00    -0.000 C 
BRANCH   9  10
ATOM     10  C   UNL     1      28.152  -2.103   8.220  1.00  0.00    -0.003 C 
ATOM     11  C   UNL     1      28.087  -3.597   8.531  1.00  0.00     0.004 C 
ENDBRANCH   9  10
ENDBRANCH   8   9
ENDBRANCH   7   8
ENDBRANCH   1   7
TORSDOF 7
ENDMDL
