MODEL 1
REMARK VINA RESULT:   130.093      0.000      0.000
REMARK INTER + INTRA:         151.060
REMARK INTER:                 149.106
REMARK INTRA:                   1.954
REMARK UNBOUND:                 1.954
REMARK SMILES C=C(C)[C@@H]1CC[C@]2(C(=O)[O-])CC[C@@]3(C)[C@@H](CC[C@H]4[C@]5(C)CC[C@H](O)C(C)(C)[C@@H]5CC[C@]43C)[C@H]12
REMARK SMILES IDX 7 1 6 2 33 3 11 4 5 5 15 6 4 7 12 8 16 9 13 10 17 11 31 12
REMARK SMILES IDX 14 13 18 14 30 15 32 16 19 17 29 18 21 19 20 20 28 21 22 22
REMARK SMILES IDX 25 23 23 24 26 25 27 26 8 27 9 28 10 29 2 30 3 31 1 32 24 33
REMARK H PARENT 24 34
REMARK Flexibility Score: inf
ROOT
ATOM      1  C   UNL     1       4.358  -2.270  13.504  1.00  0.00     0.014 C 
ATOM      2  C   UNL     1       4.974  -1.054  12.804  1.00  0.00     0.014 C 
ATOM      3  C   UNL     1       3.009  -2.492  12.734  1.00  0.00     0.012 C 
ATOM      4  C   UNL     1       5.342  -3.472  13.500  1.00  0.00     0.014 C 
ATOM      5  C   UNL     1       3.808  -0.120  12.544  1.00  0.00     0.009 C 
ATOM      6  C   UNL     1       3.051  -3.562  11.578  1.00  0.00     0.000 C 
ATOM      7  C   UNL     1       2.594  -1.033  12.283  1.00  0.00     0.018 C 
ATOM      8  C   UNL     1       5.346  -4.277  12.202  1.00  0.00     0.008 C 
ATOM      9  C   UNL     1       1.636  -4.009  11.192  1.00  0.00     0.005 C 
ATOM     10  C   UNL     1       3.931  -4.831  11.835  1.00  0.00    -0.024 C 
ATOM     11  C   UNL     1       1.667  -4.774   9.882  1.00  0.00     0.005 C 
ATOM     12  C   UNL     1       3.976  -5.793  10.520  1.00  0.00    -0.024 C 
ATOM     13  C   UNL     1       3.375  -5.638  13.061  1.00  0.00     0.012 C 
ATOM     14  C   UNL     1       2.510  -6.092   9.948  1.00  0.00     0.002 C 
ATOM     15  C   UNL     1       4.798  -5.138   9.373  1.00  0.00     0.008 C 
ATOM     16  C   UNL     1       4.694  -7.126  10.923  1.00  0.00     0.012 C 
ATOM     17  C   UNL     1       2.440  -6.896   8.552  1.00  0.00    -0.026 C 
ATOM     18  C   UNL     1       4.820  -5.937   8.071  1.00  0.00     0.005 C 
ATOM     19  C   UNL     1       2.706  -8.438   8.763  1.00  0.00     0.010 C 
ATOM     20  C   UNL     1       0.972  -6.818   8.011  1.00  0.00     0.012 C 
ATOM     21  C   UNL     1       3.419  -6.261   7.471  1.00  0.00     0.003 C 
ATOM     22  C   UNL     1       3.611  -9.087   7.705  1.00  0.00     0.033 C 
ATOM     23  C   UNL     1       3.514  -7.085   6.089  1.00  0.00    -0.006 C 
ATOM     24  C   UNL     1       3.234  -8.624   6.296  1.00  0.00     0.120 C 
ATOM     25  C   UNL     1       4.894  -6.893   5.385  1.00  0.00     0.014 C 
ATOM     26  C   UNL     1       2.479  -6.526   5.070  1.00  0.00     0.014 C 
ENDROOT
BRANCH   1  27
ATOM     27  C   UNL     1       4.103  -1.885  14.964  1.00  0.00     0.048 C 
ATOM     28  O   UNL     1       3.059  -1.248  15.274  1.00  0.00    -0.550 OA
ATOM     29  O   UNL     1       4.967  -2.281  15.980  1.00  0.00    -0.550 OA
ENDBRANCH   1  27
BRANCH   7  30
ATOM     30  C   UNL     1       2.036  -0.822  10.868  1.00  0.00    -0.077 C 
ATOM     31  C   UNL     1       1.242   0.421  10.546  1.00  0.00     0.039 C 
ATOM     32  C   UNL     1       2.331  -1.659   9.852  1.00  0.00     0.008 C 
ENDBRANCH   7  30
BRANCH  24  33
ATOM     33  O   UNL     1       3.922  -9.421   5.363  1.00  0.00    -0.393 OA
ATOM     34  H   UNL     1       4.818  -9.014   5.245  1.00  0.00     0.210 HD
ENDBRANCH  24  33
TORSDOF 3
ENDMDL
