MODEL 1
REMARK VINA RESULT:    -8.553      0.000      0.000
REMARK INTER + INTRA:          -9.554
REMARK INTER:                  -9.554
REMARK INTRA:                   0.000
REMARK UNBOUND:                 0.000
REMARK SMILES Oc1cc(O)c2c(ccc3ccc(O)c(O)c32)c1
REMARK SMILES IDX 9 1 8 2 7 3 18 4 2 5 3 6 4 7 6 8 17 9 10 10 11 11 12 12
REMARK SMILES IDX 13 13 15 14 16 15 1 17 5 19 14 21
REMARK H PARENT 16 16 1 18 5 20 14 22
REMARK Flexibility Score: inf
ROOT
ATOM      1  C   UNL     1       7.843 -48.540  36.258  1.00  0.00     0.009 A 
ATOM      2  C   UNL     1       8.370 -48.282  37.518  1.00  0.00     0.009 A 
ATOM      3  C   UNL     1       9.462 -47.421  37.666  1.00  0.00    -0.010 A 
ATOM      4  C   UNL     1      10.021 -47.236  38.940  1.00  0.00     0.055 A 
ATOM      5  C   UNL     1      11.186 -46.491  39.098  1.00  0.00     0.119 A 
ATOM      6  C   UNL     1      11.834 -45.974  37.975  1.00  0.00     0.093 A 
ATOM      7  C   UNL     1      11.304 -46.165  36.691  1.00  0.00     0.127 A 
ATOM      8  C   UNL     1      10.029 -46.777  36.529  1.00  0.00     0.035 A 
ATOM      9  C   UNL     1       9.341 -46.870  35.275  1.00  0.00     0.039 A 
ATOM     10  C   UNL     1       8.309 -47.841  35.139  1.00  0.00    -0.014 A 
ATOM     11  C   UNL     1       7.717 -48.076  33.893  1.00  0.00     0.013 A 
ATOM     12  C   UNL     1       8.091 -47.323  32.785  1.00  0.00     0.051 A 
ATOM     13  C   UNL     1       8.989 -46.266  32.921  1.00  0.00     0.158 A 
ATOM     14  C   UNL     1       9.549 -45.974  34.187  1.00  0.00     0.166 A 
ENDROOT
BRANCH  14  15
ATOM     15  O   UNL     1      10.196 -44.755  34.404  1.00  0.00    -0.504 OA
ATOM     16  H   UNL     1      11.152 -44.571  34.134  1.00  0.00     0.293 HD
ENDBRANCH  14  15
BRANCH   5  17
ATOM     17  O   UNL     1      11.713 -46.301  40.373  1.00  0.00    -0.508 OA
ATOM     18  H   UNL     1      11.121 -46.080  41.165  1.00  0.00     0.293 HD
ENDBRANCH   5  17
BRANCH   7  19
ATOM     19  O   UNL     1      12.097 -45.834  35.592  1.00  0.00    -0.507 OA
ATOM     20  H   UNL     1      12.943 -45.284  35.687  1.00  0.00     0.293 HD
ENDBRANCH   7  19
BRANCH  13  21
ATOM     21  O   UNL     1       9.298 -45.521  31.781  1.00  0.00    -0.504 OA
ATOM     22  H   UNL     1      10.037 -44.833  31.746  1.00  0.00     0.293 HD
ENDBRANCH  13  21
TORSDOF 4
ENDMDL
MODEL 2
REMARK VINA RESULT:    -7.998      2.796      4.590
REMARK INTER + INTRA:          -8.933
REMARK INTER:                  -8.933
REMARK INTRA:                   0.000
REMARK UNBOUND:                 0.000
REMARK SMILES Oc1cc(O)c2c(ccc3ccc(O)c(O)c32)c1
REMARK SMILES IDX 9 1 8 2 7 3 18 4 2 5 3 6 4 7 6 8 17 9 10 10 11 11 12 12
REMARK SMILES IDX 13 13 15 14 16 15 1 17 5 19 14 21
REMARK H PARENT 16 16 1 18 5 20 14 22
REMARK Flexibility Score: inf
ROOT
ATOM      1  C   UNL     1       9.091 -47.186  37.160  1.00  0.00     0.009 A 
ATOM      2  C   UNL     1       8.471 -48.374  37.527  1.00  0.00     0.009 A 
ATOM      3  C   UNL     1       7.736 -49.108  36.590  1.00  0.00    -0.010 A 
ATOM      4  C   UNL     1       7.059 -50.265  37.006  1.00  0.00     0.055 A 
ATOM      5  C   UNL     1       6.215 -50.942  36.130  1.00  0.00     0.119 A 
ATOM      6  C   UNL     1       5.995 -50.432  34.849  1.00  0.00     0.093 A 
ATOM      7  C   UNL     1       6.645 -49.266  34.421  1.00  0.00     0.127 A 
ATOM      8  C   UNL     1       7.638 -48.660  35.242  1.00  0.00     0.035 A 
ATOM      9  C   UNL     1       8.462 -47.564  34.823  1.00  0.00     0.039 A 
ATOM     10  C   UNL     1       9.102 -46.777  35.822  1.00  0.00    -0.014 A 
ATOM     11  C   UNL     1       9.787 -45.609  35.470  1.00  0.00     0.013 A 
ATOM     12  C   UNL     1       9.899 -45.235  34.135  1.00  0.00     0.051 A 
ATOM     13  C   UNL     1       9.412 -46.064  33.127  1.00  0.00     0.158 A 
ATOM     14  C   UNL     1       8.773 -47.281  33.462  1.00  0.00     0.166 A 
ENDROOT
BRANCH  14  15
ATOM     15  O   UNL     1       8.559 -48.254  32.482  1.00  0.00    -0.504 OA
ATOM     16  H   UNL     1       8.047 -48.088  31.628  1.00  0.00     0.293 HD
ENDBRANCH  14  15
BRANCH   5  17
ATOM     17  O   UNL     1       5.568 -52.100  36.554  1.00  0.00    -0.508 OA
ATOM     18  H   UNL     1       4.558 -52.152  36.617  1.00  0.00     0.293 HD
ENDBRANCH   5  17
BRANCH   7  19
ATOM     19  O   UNL     1       6.224 -48.673  33.231  1.00  0.00    -0.507 OA
ATOM     20  H   UNL     1       6.499 -47.731  32.975  1.00  0.00     0.293 HD
ENDBRANCH   7  19
BRANCH  13  21
ATOM     21  O   UNL     1       9.588 -45.654  31.804  1.00  0.00    -0.504 OA
ATOM     22  H   UNL     1      10.214 -46.112  31.155  1.00  0.00     0.293 HD
ENDBRANCH  13  21
TORSDOF 4
ENDMDL
MODEL 3
REMARK VINA RESULT:    -7.955      3.058      4.459
REMARK INTER + INTRA:          -8.885
REMARK INTER:                  -8.885
REMARK INTRA:                   0.000
REMARK UNBOUND:                 0.000
REMARK SMILES Oc1cc(O)c2c(ccc3ccc(O)c(O)c32)c1
REMARK SMILES IDX 9 1 8 2 7 3 18 4 2 5 3 6 4 7 6 8 17 9 10 10 11 11 12 12
REMARK SMILES IDX 13 13 15 14 16 15 1 17 5 19 14 21
REMARK H PARENT 16 16 1 18 5 20 14 22
REMARK Flexibility Score: inf
ROOT
ATOM      1  C   UNL     1       9.683 -46.138  35.710  1.00  0.00     0.009 A 
ATOM      2  C   UNL     1       9.336 -47.337  36.320  1.00  0.00     0.009 A 
ATOM      3  C   UNL     1       8.442 -48.215  35.699  1.00  0.00    -0.010 A 
ATOM      4  C   UNL     1       8.052 -49.384  36.370  1.00  0.00     0.055 A 
ATOM      5  C   UNL     1       7.066 -50.209  35.836  1.00  0.00     0.119 A 
ATOM      6  C   UNL     1       6.421 -49.840  34.653  1.00  0.00     0.093 A 
ATOM      7  C   UNL     1       6.782 -48.666  33.978  1.00  0.00     0.127 A 
ATOM      8  C   UNL     1       7.899 -47.903  34.420  1.00  0.00     0.035 A 
ATOM      9  C   UNL     1       8.435 -46.782  33.703  1.00  0.00     0.039 A 
ATOM     10  C   UNL     1       9.251 -45.854  34.410  1.00  0.00    -0.014 A 
ATOM     11  C   UNL     1       9.667 -44.667  33.796  1.00  0.00     0.013 A 
ATOM     12  C   UNL     1       9.336 -44.409  32.470  1.00  0.00     0.051 A 
ATOM     13  C   UNL     1       8.667 -45.366  31.710  1.00  0.00     0.158 A 
ATOM     14  C   UNL     1       8.295 -46.599  32.298  1.00  0.00     0.166 A 
ENDROOT
BRANCH  14  15
ATOM     15  O   UNL     1       7.909 -47.672  31.491  1.00  0.00    -0.504 OA
ATOM     16  H   UNL     1       7.466 -48.509  31.842  1.00  0.00     0.293 HD
ENDBRANCH  14  15
BRANCH   5  17
ATOM     17  O   UNL     1       6.707 -51.376  36.506  1.00  0.00    -0.508 OA
ATOM     18  H   UNL     1       6.905 -51.504  37.492  1.00  0.00     0.293 HD
ENDBRANCH   5  17
BRANCH   7  19
ATOM     19  O   UNL     1       5.963 -48.223  32.939  1.00  0.00    -0.507 OA
ATOM     20  H   UNL     1       6.116 -47.334  32.477  1.00  0.00     0.293 HD
ENDBRANCH   7  19
BRANCH  13  21
ATOM     21  O   UNL     1       8.396 -45.066  30.374  1.00  0.00    -0.504 OA
ATOM     22  H   UNL     1       8.213 -44.130  30.038  1.00  0.00     0.293 HD
ENDBRANCH  13  21
TORSDOF 4
ENDMDL
MODEL 4
REMARK VINA RESULT:    -7.857      1.424      5.214
REMARK INTER + INTRA:          -8.775
REMARK INTER:                  -8.775
REMARK INTRA:                   0.000
REMARK UNBOUND:                 0.000
REMARK SMILES Oc1cc(O)c2c(ccc3ccc(O)c(O)c32)c1
REMARK SMILES IDX 9 1 8 2 7 3 18 4 2 5 3 6 4 7 6 8 17 9 10 10 11 11 12 12
REMARK SMILES IDX 13 13 15 14 16 15 1 17 5 19 14 21
REMARK H PARENT 16 16 1 18 5 20 14 22
REMARK Flexibility Score: inf
ROOT
ATOM      1  C   UNL     1       7.167 -48.221  35.580  1.00  0.00     0.009 A 
ATOM      2  C   UNL     1       6.787 -47.962  34.268  1.00  0.00     0.009 A 
ATOM      3  C   UNL     1       7.386 -46.923  33.550  1.00  0.00    -0.010 A 
ATOM      4  C   UNL     1       6.932 -46.636  32.253  1.00  0.00     0.055 A 
ATOM      5  C   UNL     1       7.416 -45.528  31.565  1.00  0.00     0.119 A 
ATOM      6  C   UNL     1       8.316 -44.663  32.191  1.00  0.00     0.093 A 
ATOM      7  C   UNL     1       8.767 -44.920  33.493  1.00  0.00     0.127 A 
ATOM      8  C   UNL     1       8.413 -46.135  34.144  1.00  0.00     0.035 A 
ATOM      9  C   UNL     1       8.952 -46.552  35.406  1.00  0.00     0.039 A 
ATOM     10  C   UNL     1       8.244 -47.535  36.153  1.00  0.00    -0.014 A 
ATOM     11  C   UNL     1       8.646 -47.860  37.454  1.00  0.00     0.013 A 
ATOM     12  C   UNL     1       9.775 -47.267  38.009  1.00  0.00     0.051 A 
ATOM     13  C   UNL     1      10.571 -46.415  37.247  1.00  0.00     0.158 A 
ATOM     14  C   UNL     1      10.215 -46.126  35.908  1.00  0.00     0.166 A 
ENDROOT
BRANCH  14  15
ATOM     15  O   UNL     1      11.144 -45.536  35.047  1.00  0.00    -0.504 OA
ATOM     16  H   UNL     1      11.822 -46.057  34.510  1.00  0.00     0.293 HD
ENDBRANCH  14  15
BRANCH   5  17
ATOM     17  O   UNL     1       6.968 -45.272  30.270  1.00  0.00    -0.508 OA
ATOM     18  H   UNL     1       6.091 -45.646  29.928  1.00  0.00     0.293 HD
ENDBRANCH   5  17
BRANCH   7  19
ATOM     19  O   UNL     1       9.476 -43.919  34.156  1.00  0.00    -0.507 OA
ATOM     20  H   UNL     1       9.637 -43.009  33.740  1.00  0.00     0.293 HD
ENDBRANCH   7  19
BRANCH  13  21
ATOM     21  O   UNL     1      11.713 -45.880  37.846  1.00  0.00    -0.504 OA
ATOM     22  H   UNL     1      12.378 -46.430  38.373  1.00  0.00     0.293 HD
ENDBRANCH  13  21
TORSDOF 4
ENDMDL
MODEL 5
REMARK VINA RESULT:    -7.750      2.993      6.676
REMARK INTER + INTRA:          -8.656
REMARK INTER:                  -8.656
REMARK INTRA:                   0.000
REMARK UNBOUND:                 0.000
REMARK SMILES Oc1cc(O)c2c(ccc3ccc(O)c(O)c32)c1
REMARK SMILES IDX 9 1 8 2 7 3 18 4 2 5 3 6 4 7 6 8 17 9 10 10 11 11 12 12
REMARK SMILES IDX 13 13 15 14 16 15 1 17 5 19 14 21
REMARK H PARENT 16 16 1 18 5 20 14 22
REMARK Flexibility Score: inf
ROOT
ATOM      1  C   UNL     1       9.129 -44.121  32.968  1.00  0.00     0.009 A 
ATOM      2  C   UNL     1       8.070 -43.883  32.100  1.00  0.00     0.009 A 
ATOM      3  C   UNL     1       7.035 -44.815  31.974  1.00  0.00    -0.010 A 
ATOM      4  C   UNL     1       6.017 -44.585  31.036  1.00  0.00     0.055 A 
ATOM      5  C   UNL     1       5.048 -45.554  30.794  1.00  0.00     0.119 A 
ATOM      6  C   UNL     1       5.123 -46.786  31.448  1.00  0.00     0.093 A 
ATOM      7  C   UNL     1       6.144 -47.044  32.373  1.00  0.00     0.127 A 
ATOM      8  C   UNL     1       7.040 -46.006  32.754  1.00  0.00     0.035 A 
ATOM      9  C   UNL     1       8.009 -46.133  33.804  1.00  0.00     0.039 A 
ATOM     10  C   UNL     1       9.107 -45.227  33.824  1.00  0.00    -0.014 A 
ATOM     11  C   UNL     1      10.157 -45.408  34.733  1.00  0.00     0.013 A 
ATOM     12  C   UNL     1      10.110 -46.441  35.663  1.00  0.00     0.051 A 
ATOM     13  C   UNL     1       8.980 -47.249  35.764  1.00  0.00     0.158 A 
ATOM     14  C   UNL     1       7.883 -47.039  34.895  1.00  0.00     0.166 A 
ENDROOT
BRANCH  14  15
ATOM     15  O   UNL     1       6.644 -47.621  35.177  1.00  0.00    -0.504 OA
ATOM     16  H   UNL     1       6.127 -48.188  34.520  1.00  0.00     0.293 HD
ENDBRANCH  14  15
BRANCH   5  17
ATOM     17  O   UNL     1       4.032 -45.298  29.875  1.00  0.00    -0.508 OA
ATOM     18  H   UNL     1       4.227 -45.183  28.888  1.00  0.00     0.293 HD
ENDBRANCH   5  17
BRANCH   7  19
ATOM     19  O   UNL     1       6.313 -48.353  32.823  1.00  0.00    -0.507 OA
ATOM     20  H   UNL     1       6.030 -49.152  32.267  1.00  0.00     0.293 HD
ENDBRANCH   7  19
BRANCH  13  21
ATOM     21  O   UNL     1       8.975 -48.245  36.742  1.00  0.00    -0.504 OA
ATOM     22  H   UNL     1       9.189 -49.215  36.553  1.00  0.00     0.293 HD
ENDBRANCH  13  21
TORSDOF 4
ENDMDL
MODEL 6
REMARK VINA RESULT:    -7.654      2.418      3.729
REMARK INTER + INTRA:          -8.548
REMARK INTER:                  -8.548
REMARK INTRA:                   0.000
REMARK UNBOUND:                 0.000
REMARK SMILES Oc1cc(O)c2c(ccc3ccc(O)c(O)c32)c1
REMARK SMILES IDX 9 1 8 2 7 3 18 4 2 5 3 6 4 7 6 8 17 9 10 10 11 11 12 12
REMARK SMILES IDX 13 13 15 14 16 15 1 17 5 19 14 21
REMARK H PARENT 16 16 1 18 5 20 14 22
REMARK Flexibility Score: inf
ROOT
ATOM      1  C   UNL     1       6.252 -47.446  32.427  1.00  0.00     0.009 A 
ATOM      2  C   UNL     1       5.975 -48.317  33.474  1.00  0.00     0.009 A 
ATOM      3  C   UNL     1       6.757 -48.302  34.633  1.00  0.00    -0.010 A 
ATOM      4  C   UNL     1       6.502 -49.241  35.644  1.00  0.00     0.055 A 
ATOM      5  C   UNL     1       7.344 -49.336  36.748  1.00  0.00     0.119 A 
ATOM      6  C   UNL     1       8.483 -48.531  36.821  1.00  0.00     0.093 A 
ATOM      7  C   UNL     1       8.768 -47.601  35.811  1.00  0.00     0.127 A 
ATOM      8  C   UNL     1       7.830 -47.374  34.765  1.00  0.00     0.035 A 
ATOM      9  C   UNL     1       7.963 -46.337  33.784  1.00  0.00     0.039 A 
ATOM     10  C   UNL     1       7.228 -46.455  32.570  1.00  0.00    -0.014 A 
ATOM     11  C   UNL     1       7.443 -45.551  31.522  1.00  0.00     0.013 A 
ATOM     12  C   UNL     1       8.335 -44.495  31.677  1.00  0.00     0.051 A 
ATOM     13  C   UNL     1       8.953 -44.269  32.905  1.00  0.00     0.158 A 
ATOM     14  C   UNL     1       8.698 -45.135  33.994  1.00  0.00     0.166 A 
ENDROOT
BRANCH  14  15
ATOM     15  O   UNL     1       9.056 -44.756  35.291  1.00  0.00    -0.504 OA
ATOM     16  H   UNL     1       9.719 -44.023  35.499  1.00  0.00     0.293 HD
ENDBRANCH  14  15
BRANCH   5  17
ATOM     17  O   UNL     1       7.063 -50.260  37.751  1.00  0.00    -0.508 OA
ATOM     18  H   UNL     1       7.073 -51.258  37.573  1.00  0.00     0.293 HD
ENDBRANCH   5  17
BRANCH   7  19
ATOM     19  O   UNL     1      10.022 -46.990  35.810  1.00  0.00    -0.507 OA
ATOM     20  H   UNL     1      10.451 -46.650  34.957  1.00  0.00     0.293 HD
ENDBRANCH   7  19
BRANCH  13  21
ATOM     21  O   UNL     1       9.809 -43.171  33.012  1.00  0.00    -0.504 OA
ATOM     22  H   UNL     1       9.803 -42.531  33.795  1.00  0.00     0.293 HD
ENDBRANCH  13  21
TORSDOF 4
ENDMDL
MODEL 7
REMARK VINA RESULT:    -7.626      2.409      3.299
REMARK INTER + INTRA:          -8.517
REMARK INTER:                  -8.517
REMARK INTRA:                   0.000
REMARK UNBOUND:                 0.000
REMARK SMILES Oc1cc(O)c2c(ccc3ccc(O)c(O)c32)c1
REMARK SMILES IDX 9 1 8 2 7 3 18 4 2 5 3 6 4 7 6 8 17 9 10 10 11 11 12 12
REMARK SMILES IDX 13 13 15 14 16 15 1 17 5 19 14 21
REMARK H PARENT 16 16 1 18 5 20 14 22
REMARK Flexibility Score: inf
ROOT
ATOM      1  C   UNL     1       9.741 -45.903  34.396  1.00  0.00     0.009 A 
ATOM      2  C   UNL     1      10.662 -45.715  35.419  1.00  0.00     0.009 A 
ATOM      3  C   UNL     1      10.517 -46.391  36.635  1.00  0.00    -0.010 A 
ATOM      4  C   UNL     1      11.419 -46.127  37.677  1.00  0.00     0.055 A 
ATOM      5  C   UNL     1      11.224 -46.683  38.938  1.00  0.00     0.119 A 
ATOM      6  C   UNL     1      10.091 -47.462  39.182  1.00  0.00     0.093 A 
ATOM      7  C   UNL     1       9.166 -47.721  38.160  1.00  0.00     0.127 A 
ATOM      8  C   UNL     1       9.439 -47.301  36.828  1.00  0.00     0.035 A 
ATOM      9  C   UNL     1       8.633 -47.657  35.697  1.00  0.00     0.039 A 
ATOM     10  C   UNL     1       8.736 -46.868  34.517  1.00  0.00    -0.014 A 
ATOM     11  C   UNL     1       7.860 -47.080  33.445  1.00  0.00     0.013 A 
ATOM     12  C   UNL     1       6.918 -48.102  33.500  1.00  0.00     0.051 A 
ATOM     13  C   UNL     1       6.895 -48.984  34.578  1.00  0.00     0.158 A 
ATOM     14  C   UNL     1       7.816 -48.822  35.640  1.00  0.00     0.166 A 
ENDROOT
BRANCH  14  15
ATOM     15  O   UNL     1       8.012 -49.856  36.561  1.00  0.00    -0.504 OA
ATOM     16  H   UNL     1       8.824 -49.930  37.157  1.00  0.00     0.293 HD
ENDBRANCH  14  15
BRANCH   5  17
ATOM     17  O   UNL     1      12.141 -46.427  39.954  1.00  0.00    -0.508 OA
ATOM     18  H   UNL     1      12.177 -46.994  40.793  1.00  0.00     0.293 HD
ENDBRANCH   5  17
BRANCH   7  19
ATOM     19  O   UNL     1       7.947 -48.304  38.504  1.00  0.00    -0.507 OA
ATOM     20  H   UNL     1       7.320 -48.687  37.806  1.00  0.00     0.293 HD
ENDBRANCH   7  19
BRANCH  13  21
ATOM     21  O   UNL     1       5.952 -50.012  34.559  1.00  0.00    -0.504 OA
ATOM     22  H   UNL     1       4.963 -49.861  34.413  1.00  0.00     0.293 HD
ENDBRANCH  13  21
TORSDOF 4
ENDMDL
MODEL 8
REMARK VINA RESULT:    -7.614      2.451      5.668
REMARK INTER + INTRA:          -8.504
REMARK INTER:                  -8.504
REMARK INTRA:                   0.000
REMARK UNBOUND:                 0.000
REMARK SMILES Oc1cc(O)c2c(ccc3ccc(O)c(O)c32)c1
REMARK SMILES IDX 9 1 8 2 7 3 18 4 2 5 3 6 4 7 6 8 17 9 10 10 11 11 12 12
REMARK SMILES IDX 13 13 15 14 16 15 1 17 5 19 14 21
REMARK H PARENT 16 16 1 18 5 20 14 22
REMARK Flexibility Score: inf
ROOT
ATOM      1  C   UNL     1      10.690 -45.765  36.043  1.00  0.00     0.009 A 
ATOM      2  C   UNL     1      10.536 -45.257  34.759  1.00  0.00     0.009 A 
ATOM      3  C   UNL     1       9.581 -45.801  33.893  1.00  0.00    -0.010 A 
ATOM      4  C   UNL     1       9.497 -45.319  32.577  1.00  0.00     0.055 A 
ATOM      5  C   UNL     1       8.650 -45.927  31.656  1.00  0.00     0.119 A 
ATOM      6  C   UNL     1       7.922 -47.060  32.027  1.00  0.00     0.093 A 
ATOM      7  C   UNL     1       8.008 -47.570  33.330  1.00  0.00     0.127 A 
ATOM      8  C   UNL     1       8.737 -46.862  34.327  1.00  0.00     0.035 A 
ATOM      9  C   UNL     1       8.748 -47.221  35.715  1.00  0.00     0.039 A 
ATOM     10  C   UNL     1       9.805 -46.732  36.533  1.00  0.00    -0.014 A 
ATOM     11  C   UNL     1       9.945 -47.180  37.852  1.00  0.00     0.013 A 
ATOM     12  C   UNL     1       9.019 -48.064  38.395  1.00  0.00     0.051 A 
ATOM     13  C   UNL     1       7.892 -48.442  37.667  1.00  0.00     0.158 A 
ATOM     14  C   UNL     1       7.703 -47.947  36.355  1.00  0.00     0.166 A 
ENDROOT
BRANCH  14  15
ATOM     15  O   UNL     1       6.455 -48.062  35.736  1.00  0.00    -0.504 OA
ATOM     16  H   UNL     1       5.967 -47.288  35.308  1.00  0.00     0.293 HD
ENDBRANCH  14  15
BRANCH   5  17
ATOM     17  O   UNL     1       8.564 -45.421  30.361  1.00  0.00    -0.508 OA
ATOM     18  H   UNL     1       9.267 -44.793  29.988  1.00  0.00     0.293 HD
ENDBRANCH   5  17
BRANCH   7  19
ATOM     19  O   UNL     1       7.451 -48.822  33.587  1.00  0.00    -0.507 OA
ATOM     20  H   UNL     1       6.923 -49.011  34.431  1.00  0.00     0.293 HD
ENDBRANCH   7  19
BRANCH  13  21
ATOM     21  O   UNL     1       6.978 -49.301  38.279  1.00  0.00    -0.504 OA
ATOM     22  H   UNL     1       6.457 -49.062  39.112  1.00  0.00     0.293 HD
ENDBRANCH  13  21
TORSDOF 4
ENDMDL
MODEL 9
REMARK VINA RESULT:    -7.591      2.301      5.881
REMARK INTER + INTRA:          -8.478
REMARK INTER:                  -8.478
REMARK INTRA:                   0.000
REMARK UNBOUND:                 0.000
REMARK SMILES Oc1cc(O)c2c(ccc3ccc(O)c(O)c32)c1
REMARK SMILES IDX 9 1 8 2 7 3 18 4 2 5 3 6 4 7 6 8 17 9 10 10 11 11 12 12
REMARK SMILES IDX 13 13 15 14 16 15 1 17 5 19 14 21
REMARK H PARENT 16 16 1 18 5 20 14 22
REMARK Flexibility Score: inf
ROOT
ATOM      1  C   UNL     1      10.391 -45.319  34.026  1.00  0.00     0.009 A 
ATOM      2  C   UNL     1       9.382 -45.358  33.071  1.00  0.00     0.009 A 
ATOM      3  C   UNL     1       8.229 -46.119  33.290  1.00  0.00    -0.010 A 
ATOM      4  C   UNL     1       7.259 -46.199  32.279  1.00  0.00     0.055 A 
ATOM      5  C   UNL     1       6.167 -47.051  32.415  1.00  0.00     0.119 A 
ATOM      6  C   UNL     1       6.067 -47.873  33.539  1.00  0.00     0.093 A 
ATOM      7  C   UNL     1       7.036 -47.824  34.551  1.00  0.00     0.127 A 
ATOM      8  C   UNL     1       8.064 -46.840  34.507  1.00  0.00     0.035 A 
ATOM      9  C   UNL     1       8.999 -46.613  35.570  1.00  0.00     0.039 A 
ATOM     10  C   UNL     1      10.211 -45.930  35.272  1.00  0.00    -0.014 A 
ATOM     11  C   UNL     1      11.219 -45.821  36.237  1.00  0.00     0.013 A 
ATOM     12  C   UNL     1      11.023 -46.331  37.516  1.00  0.00     0.051 A 
ATOM     13  C   UNL     1       9.791 -46.871  37.880  1.00  0.00     0.158 A 
ATOM     14  C   UNL     1       8.740 -46.930  36.935  1.00  0.00     0.166 A 
ENDROOT
BRANCH  14  15
ATOM     15  O   UNL     1       7.431 -47.175  37.356  1.00  0.00    -0.504 OA
ATOM     16  H   UNL     1       7.139 -48.026  37.815  1.00  0.00     0.293 HD
ENDBRANCH  14  15
BRANCH   5  17
ATOM     17  O   UNL     1       5.204 -47.101  31.410  1.00  0.00    -0.508 OA
ATOM     18  H   UNL     1       4.214 -47.120  31.625  1.00  0.00     0.293 HD
ENDBRANCH   5  17
BRANCH   7  19
ATOM     19  O   UNL     1       7.019 -48.815  35.532  1.00  0.00    -0.507 OA
ATOM     20  H   UNL     1       7.850 -49.343  35.775  1.00  0.00     0.293 HD
ENDBRANCH   7  19
BRANCH  13  21
ATOM     21  O   UNL     1       9.642 -47.331  39.189  1.00  0.00    -0.504 OA
ATOM     22  H   UNL     1       8.829 -47.836  39.515  1.00  0.00     0.293 HD
ENDBRANCH  13  21
TORSDOF 4
ENDMDL
