MODEL 1
REMARK VINA RESULT:    -2.872      0.000      0.000
REMARK INTER + INTRA:          -3.058
REMARK INTER:                  -3.040
REMARK INTRA:                  -0.019
REMARK UNBOUND:                -0.019
REMARK SMILES O=C([O-])c1cccnc1
REMARK SMILES IDX 4 1 5 2 9 3 6 4 8 5 7 6 2 7 1 8 3 9
REMARK H PARENT
REMARK Flexibility Score: inf
ROOT
ATOM      1  C   UNL     1     -15.070  -2.662  16.391  1.00  0.00     0.016 A 
ATOM      2  C   UNL     1     -14.786  -2.011  17.603  1.00  0.00     0.013 A 
ATOM      3  C   UNL     1     -16.165  -2.214  15.633  1.00  0.00     0.120 A 
ATOM      4  C   UNL     1     -15.581  -0.946  18.031  1.00  0.00     0.021 A 
ATOM      5  N   UNL     1     -16.924  -1.173  16.071  1.00  0.00    -0.264 NA
ATOM      6  C   UNL     1     -16.658  -0.537  17.242  1.00  0.00     0.111 A 
ENDROOT
BRANCH   1   7
ATOM      7  C   UNL     1     -14.234  -3.792  15.929  1.00  0.00     0.073 C 
ATOM      8  O   UNL     1     -12.982  -3.674  15.857  1.00  0.00    -0.545 OA
ATOM      9  O   UNL     1     -14.821  -4.999  15.566  1.00  0.00    -0.545 OA
ENDBRANCH   1   7
TORSDOF 1
ENDMDL
MODEL 2
REMARK VINA RESULT:    -2.774      3.144      3.981
REMARK INTER + INTRA:          -2.956
REMARK INTER:                  -2.938
REMARK INTRA:                  -0.017
REMARK UNBOUND:                -0.019
REMARK SMILES O=C([O-])c1cccnc1
REMARK SMILES IDX 4 1 5 2 9 3 6 4 8 5 7 6 2 7 1 8 3 9
REMARK H PARENT
REMARK Flexibility Score: inf
ROOT
ATOM      1  C   UNL     1     -16.020  -0.930  17.073  1.00  0.00     0.016 A 
ATOM      2  C   UNL     1     -15.032  -1.477  17.908  1.00  0.00     0.013 A 
ATOM      3  C   UNL     1     -16.401  -1.651  15.928  1.00  0.00     0.120 A 
ATOM      4  C   UNL     1     -14.453  -2.709  17.596  1.00  0.00     0.021 A 
ATOM      5  N   UNL     1     -15.822  -2.849  15.647  1.00  0.00    -0.264 NA
ATOM      6  C   UNL     1     -14.866  -3.387  16.449  1.00  0.00     0.111 A 
ENDROOT
BRANCH   1   7
ATOM      7  C   UNL     1     -16.640   0.374  17.394  1.00  0.00     0.073 C 
ATOM      8  O   UNL     1     -17.871   0.451  17.654  1.00  0.00    -0.545 OA
ATOM      9  O   UNL     1     -15.873   1.533  17.411  1.00  0.00    -0.545 OA
ENDBRANCH   1   7
TORSDOF 1
ENDMDL
MODEL 3
REMARK VINA RESULT:    -2.742      2.995      3.618
REMARK INTER + INTRA:          -2.921
REMARK INTER:                  -2.903
REMARK INTRA:                  -0.018
REMARK UNBOUND:                -0.019
REMARK SMILES O=C([O-])c1cccnc1
REMARK SMILES IDX 4 1 5 2 9 3 6 4 8 5 7 6 2 7 1 8 3 9
REMARK H PARENT
REMARK Flexibility Score: inf
ROOT
ATOM      1  C   UNL     1     -14.719  -2.051  18.736  1.00  0.00     0.016 A 
ATOM      2  C   UNL     1     -15.835  -1.315  18.303  1.00  0.00     0.013 A 
ATOM      3  C   UNL     1     -13.968  -2.751  17.776  1.00  0.00     0.120 A 
ATOM      4  C   UNL     1     -16.175  -1.288  16.949  1.00  0.00     0.021 A 
ATOM      5  N   UNL     1     -14.320  -2.707  16.463  1.00  0.00    -0.264 NA
ATOM      6  C   UNL     1     -15.398  -1.999  16.034  1.00  0.00     0.111 A 
ENDROOT
BRANCH   1   7
ATOM      7  C   UNL     1     -14.349  -2.087  20.167  1.00  0.00     0.073 C 
ATOM      8  O   UNL     1     -13.189  -1.763  20.536  1.00  0.00    -0.545 OA
ATOM      9  O   UNL     1     -15.277  -2.481  21.124  1.00  0.00    -0.545 OA
ENDBRANCH   1   7
TORSDOF 1
ENDMDL
MODEL 4
REMARK VINA RESULT:    -2.219      3.764      4.405
REMARK INTER + INTRA:          -2.367
REMARK INTER:                  -2.349
REMARK INTRA:                  -0.019
REMARK UNBOUND:                -0.019
REMARK SMILES O=C([O-])c1cccnc1
REMARK SMILES IDX 4 1 5 2 9 3 6 4 8 5 7 6 2 7 1 8 3 9
REMARK H PARENT
REMARK Flexibility Score: inf
ROOT
ATOM      1  C   UNL     1     -14.366  -2.092  19.771  1.00  0.00     0.016 A 
ATOM      2  C   UNL     1     -13.175  -1.615  20.343  1.00  0.00     0.013 A 
ATOM      3  C   UNL     1     -15.397  -2.512  20.629  1.00  0.00     0.120 A 
ATOM      4  C   UNL     1     -13.034  -1.564  21.731  1.00  0.00     0.021 A 
ATOM      5  N   UNL     1     -15.235  -2.452  21.978  1.00  0.00    -0.264 NA
ATOM      6  C   UNL     1     -14.087  -1.992  22.541  1.00  0.00     0.111 A 
ENDROOT
BRANCH   1   7
ATOM      7  C   UNL     1     -14.526  -2.150  18.302  1.00  0.00     0.073 C 
ATOM      8  O   UNL     1     -13.670  -2.737  17.588  1.00  0.00    -0.545 OA
ATOM      9  O   UNL     1     -15.624  -1.555  17.690  1.00  0.00    -0.545 OA
ENDBRANCH   1   7
TORSDOF 1
ENDMDL
MODEL 5
REMARK VINA RESULT:    -1.837      2.886      3.910
REMARK INTER + INTRA:          -1.963
REMARK INTER:                  -1.947
REMARK INTRA:                  -0.016
REMARK UNBOUND:                -0.019
REMARK SMILES O=C([O-])c1cccnc1
REMARK SMILES IDX 4 1 5 2 9 3 6 4 8 5 7 6 2 7 1 8 3 9
REMARK H PARENT
REMARK Flexibility Score: inf
ROOT
ATOM      1  C   UNL     1     -14.716  -2.605  17.068  1.00  0.00     0.016 A 
ATOM      2  C   UNL     1     -15.464  -3.661  16.520  1.00  0.00     0.013 A 
ATOM      3  C   UNL     1     -13.380  -2.453  16.662  1.00  0.00     0.120 A 
ATOM      4  C   UNL     1     -14.880  -4.528  15.595  1.00  0.00     0.021 A 
ATOM      5  N   UNL     1     -12.835  -3.311  15.758  1.00  0.00    -0.264 NA
ATOM      6  C   UNL     1     -13.549  -4.335  15.222  1.00  0.00     0.111 A 
ENDROOT
BRANCH   1   7
ATOM      7  C   UNL     1     -15.325  -1.680  18.049  1.00  0.00     0.073 C 
ATOM      8  O   UNL     1     -15.134  -1.841  19.284  1.00  0.00    -0.545 OA
ATOM      9  O   UNL     1     -16.116  -0.621  17.620  1.00  0.00    -0.545 OA
ENDBRANCH   1   7
TORSDOF 1
ENDMDL
MODEL 6
REMARK VINA RESULT:    -1.815      7.238      8.314
REMARK INTER + INTRA:          -1.940
REMARK INTER:                  -1.924
REMARK INTRA:                  -0.016
REMARK UNBOUND:                -0.019
REMARK SMILES O=C([O-])c1cccnc1
REMARK SMILES IDX 4 1 5 2 9 3 6 4 8 5 7 6 2 7 1 8 3 9
REMARK H PARENT
REMARK Flexibility Score: inf
ROOT
ATOM      1  C   UNL     1     -10.026  -7.320  19.295  1.00  0.00     0.016 A 
ATOM      2  C   UNL     1      -9.140  -8.299  19.775  1.00  0.00     0.013 A 
ATOM      3  C   UNL     1     -10.813  -6.619  20.225  1.00  0.00     0.120 A 
ATOM      4  C   UNL     1      -9.054  -8.557  21.145  1.00  0.00     0.021 A 
ATOM      5  N   UNL     1     -10.709  -6.888  21.554  1.00  0.00    -0.264 NA
ATOM      6  C   UNL     1      -9.856  -7.833  22.028  1.00  0.00     0.111 A 
ENDROOT
BRANCH   1   7
ATOM      7  C   UNL     1     -10.125  -7.039  17.847  1.00  0.00     0.073 C 
ATOM      8  O   UNL     1     -10.998  -7.612  17.142  1.00  0.00    -0.545 OA
ATOM      9  O   UNL     1      -9.255  -6.138  17.243  1.00  0.00    -0.545 OA
ENDBRANCH   1   7
TORSDOF 1
ENDMDL
MODEL 7
REMARK VINA RESULT:    -1.797      1.603      2.173
REMARK INTER + INTRA:          -1.921
REMARK INTER:                  -1.901
REMARK INTRA:                  -0.021
REMARK UNBOUND:                -0.019
REMARK SMILES O=C([O-])c1cccnc1
REMARK SMILES IDX 4 1 5 2 9 3 6 4 8 5 7 6 2 7 1 8 3 9
REMARK H PARENT
REMARK Flexibility Score: inf
ROOT
ATOM      1  C   UNL     1     -15.062  -1.905  17.319  1.00  0.00     0.016 A 
ATOM      2  C   UNL     1     -15.748  -0.783  17.813  1.00  0.00     0.013 A 
ATOM      3  C   UNL     1     -15.520  -2.496  16.129  1.00  0.00     0.120 A 
ATOM      4  C   UNL     1     -16.854  -0.278  17.128  1.00  0.00     0.021 A 
ATOM      5  N   UNL     1     -16.600  -1.983  15.479  1.00  0.00    -0.264 NA
ATOM      6  C   UNL     1     -17.270  -0.899  15.949  1.00  0.00     0.111 A 
ENDROOT
BRANCH   1   7
ATOM      7  C   UNL     1     -13.889  -2.448  18.037  1.00  0.00     0.073 C 
ATOM      8  O   UNL     1     -12.910  -2.918  17.399  1.00  0.00    -0.545 OA
ATOM      9  O   UNL     1     -13.853  -2.448  19.427  1.00  0.00    -0.545 OA
ENDBRANCH   1   7
TORSDOF 1
ENDMDL
MODEL 8
REMARK VINA RESULT:    -1.712      2.800      3.717
REMARK INTER + INTRA:          -1.831
REMARK INTER:                  -1.814
REMARK INTRA:                  -0.016
REMARK UNBOUND:                -0.019
REMARK SMILES O=C([O-])c1cccnc1
REMARK SMILES IDX 4 1 5 2 9 3 6 4 8 5 7 6 2 7 1 8 3 9
REMARK H PARENT
REMARK Flexibility Score: inf
ROOT
ATOM      1  C   UNL     1     -14.719  -2.620  17.099  1.00  0.00     0.016 A 
ATOM      2  C   UNL     1     -13.364  -2.429  16.781  1.00  0.00     0.013 A 
ATOM      3  C   UNL     1     -15.421  -3.643  16.438  1.00  0.00     0.120 A 
ATOM      4  C   UNL     1     -12.743  -3.243  15.832  1.00  0.00     0.021 A 
ATOM      5  N   UNL     1     -14.792  -4.423  15.518  1.00  0.00    -0.264 NA
ATOM      6  C   UNL     1     -13.482  -4.246  15.203  1.00  0.00     0.111 A 
ENDROOT
BRANCH   1   7
ATOM      7  C   UNL     1     -15.386  -1.764  18.103  1.00  0.00     0.073 C 
ATOM      8  O   UNL     1     -16.116  -0.803  17.741  1.00  0.00    -0.545 OA
ATOM      9  O   UNL     1     -15.215  -2.008  19.461  1.00  0.00    -0.545 OA
ENDBRANCH   1   7
TORSDOF 1
ENDMDL
MODEL 9
REMARK VINA RESULT:    -1.671      2.892      3.538
REMARK INTER + INTRA:          -1.788
REMARK INTER:                  -1.767
REMARK INTRA:                  -0.021
REMARK UNBOUND:                -0.019
REMARK SMILES O=C([O-])c1cccnc1
REMARK SMILES IDX 4 1 5 2 9 3 6 4 8 5 7 6 2 7 1 8 3 9
REMARK H PARENT
REMARK Flexibility Score: inf
ROOT
ATOM      1  C   UNL     1     -15.419  -1.719  17.106  1.00  0.00     0.016 A 
ATOM      2  C   UNL     1     -15.357  -1.723  18.510  1.00  0.00     0.013 A 
ATOM      3  C   UNL     1     -14.349  -2.281  16.390  1.00  0.00     0.120 A 
ATOM      4  C   UNL     1     -14.254  -2.276  19.162  1.00  0.00     0.021 A 
ATOM      5  N   UNL     1     -13.285  -2.814  17.050  1.00  0.00    -0.264 NA
ATOM      6  C   UNL     1     -13.216  -2.822  18.407  1.00  0.00     0.111 A 
ENDROOT
BRANCH   1   7
ATOM      7  C   UNL     1     -16.583  -1.136  16.405  1.00  0.00     0.073 C 
ATOM      8  O   UNL     1     -17.019  -1.660  15.345  1.00  0.00    -0.545 OA
ATOM      9  O   UNL     1     -17.211  -0.001  16.906  1.00  0.00    -0.545 OA
ENDBRANCH   1   7
TORSDOF 1
ENDMDL
