MODEL 1
REMARK VINA RESULT:    -4.308      0.000      0.000
REMARK INTER + INTRA:          -5.485
REMARK INTER:                  -6.575
REMARK INTRA:                   1.090
REMARK UNBOUND:                 1.090
REMARK SMILES CC1=CCC[C@H](C)C(=O)C[C@H](C(C)C)C(=O)C1
REMARK SMILES IDX 8 1 9 2 6 3 7 4 5 5 4 6 3 7 2 8 1 9 10 11 11 12 15 13 16 14
REMARK SMILES IDX 17 15 12 17 13 18 14 19
REMARK H PARENT
REMARK Flexibility Score: 70.00
ROOT
ATOM      1  C   UNL     1      70.584  60.599  24.987  1.00  0.00     0.136 C 
ATOM      2  O   UNL     1      70.555  59.405  24.721  1.00  0.00    -0.299 OA
ENDROOT
BRANCH   1   3
ATOM      3  C   UNL     1      71.665  61.485  24.387  1.00  0.00     0.053 C 
ATOM      4  C   UNL     1      71.771  61.318  22.862  1.00  0.00     0.016 C 
BRANCH   3   5
ATOM      5  C   UNL     1      71.481  62.970  24.772  1.00  0.00     0.015 C 
BRANCH   5   6
ATOM      6  C   UNL     1      71.393  63.230  26.296  1.00  0.00     0.028 C 
BRANCH   6   7
ATOM      7  C   UNL     1      72.524  62.543  27.026  1.00  0.00    -0.028 C 
ATOM      8  C   UNL     1      72.383  61.644  28.031  1.00  0.00    -0.070 CG0
ATOM      9  C   UNL     1      73.623  60.955  28.541  1.00  0.00     0.039 C 
ATOM     10  G   UNL     1      71.044  61.302  28.668  1.00  0.00     0.000 G0
ENDBRANCH   6   7
ENDBRANCH   5   6
ENDBRANCH   3   5
ENDBRANCH   1   3
BRANCH   1  11
ATOM     11  C   UNL     1      69.509  61.166  25.887  1.00  0.00     0.087 C 
BRANCH  11  12
ATOM     12  C   UNL     1      69.159  60.221  27.067  1.00  0.00     0.066 C 
BRANCH  12  13
ATOM     13  C   UNL     1      70.306  60.115  28.067  1.00  0.00     0.140 C 
ATOM     14  O   UNL     1      70.662  59.004  28.434  1.00  0.00    -0.299 OA
BRANCH  13  15
ATOM     15  C   UNL     1      71.029  61.309  28.663  1.00  0.00     0.106 CG0
ATOM     16  G   UNL     1      72.376  61.645  28.041  1.00  0.00     0.000 G0
ENDBRANCH  13  15
ENDBRANCH  12  13
BRANCH  12  17
ATOM     17  C   UNL     1      67.817  60.569  27.784  1.00  0.00    -0.006 C 
ATOM     18  C   UNL     1      66.680  60.804  26.776  1.00  0.00     0.008 C 
ATOM     19  C   UNL     1      67.904  61.762  28.754  1.00  0.00     0.008 C 
ENDBRANCH  12  17
ENDBRANCH  11  12
ENDBRANCH   1  11
TORSDOF 1
ENDMDL
MODEL 2
REMARK VINA RESULT:    -4.165      1.477      3.919
REMARK INTER + INTRA:          -5.266
REMARK INTER:                  -6.332
REMARK INTRA:                   1.066
REMARK UNBOUND:                 1.090
REMARK SMILES CC1=CCC[C@H](C)C(=O)C[C@H](C(C)C)C(=O)C1
REMARK SMILES IDX 8 1 9 2 6 3 7 4 5 5 4 6 3 7 2 8 1 9 10 11 11 12 15 13 16 14
REMARK SMILES IDX 17 15 12 17 13 18 14 19
REMARK H PARENT
REMARK Flexibility Score: 70.00
ROOT
ATOM      1  C   UNL     1      69.121  60.161  26.220  1.00  0.00     0.136 C 
ATOM      2  O   UNL     1      68.489  59.229  25.741  1.00  0.00    -0.299 OA
ENDROOT
BRANCH   1   3
ATOM      3  C   UNL     1      68.476  61.061  27.262  1.00  0.00     0.053 C 
ATOM      4  C   UNL     1      66.949  60.881  27.317  1.00  0.00     0.016 C 
BRANCH   3   5
ATOM      5  C   UNL     1      69.107  60.880  28.660  1.00  0.00     0.015 C 
BRANCH   5   6
ATOM      6  C   UNL     1      70.298  61.827  28.953  1.00  0.00     0.028 C 
BRANCH   6   7
ATOM      7  C   UNL     1      71.602  61.061  28.973  1.00  0.00    -0.028 C 
ATOM      8  C   UNL     1      72.694  61.345  28.223  1.00  0.00    -0.070 CG0
ATOM      9  C   UNL     1      73.953  60.558  28.484  1.00  0.00     0.039 C 
ATOM     10  G   UNL     1      72.711  62.408  27.135  1.00  0.00     0.000 G0
ENDBRANCH   6   7
ENDBRANCH   5   6
ENDBRANCH   3   5
ENDBRANCH   1   3
BRANCH   1  11
ATOM     11  C   UNL     1      70.554  60.366  25.779  1.00  0.00     0.087 C 
BRANCH  11  12
ATOM     12  C   UNL     1      70.827  61.815  25.294  1.00  0.00     0.066 C 
BRANCH  12  13
ATOM     13  C   UNL     1      71.409  62.683  26.406  1.00  0.00     0.140 C 
ATOM     14  O   UNL     1      70.793  63.680  26.753  1.00  0.00    -0.299 OA
BRANCH  13  15
ATOM     15  C   UNL     1      72.729  62.404  27.102  1.00  0.00     0.106 CG0
ATOM     16  G   UNL     1      72.684  61.367  28.215  1.00  0.00     0.000 G0
ENDBRANCH  13  15
ENDBRANCH  12  13
BRANCH  12  17
ATOM     17  C   UNL     1      71.696  61.900  24.000  1.00  0.00    -0.006 C 
ATOM     18  C   UNL     1      71.507  63.243  23.277  1.00  0.00     0.008 C 
ATOM     19  C   UNL     1      71.477  60.742  23.009  1.00  0.00     0.008 C 
ENDBRANCH  12  17
ENDBRANCH  11  12
ENDBRANCH   1  11
TORSDOF 1
ENDMDL
MODEL 3
REMARK VINA RESULT:    -3.596     11.756     13.355
REMARK INTER + INTRA:          -4.398
REMARK INTER:                  -3.774
REMARK INTRA:                  -0.624
REMARK UNBOUND:                 1.090
REMARK SMILES CC1=CCC[C@H](C)C(=O)C[C@H](C(C)C)C(=O)C1
REMARK SMILES IDX 8 1 9 2 6 3 7 4 5 5 4 6 3 7 2 8 1 9 10 11 11 12 15 13 16 14
REMARK SMILES IDX 17 15 12 17 13 18 14 19
REMARK H PARENT
REMARK Flexibility Score: 70.00
ROOT
ATOM      1  C   UNL     1      74.122  72.787  21.088  1.00  0.00     0.136 C 
ATOM      2  O   UNL     1      73.619  72.491  20.012  1.00  0.00    -0.299 OA
ENDROOT
BRANCH   1   3
ATOM      3  C   UNL     1      74.263  74.249  21.484  1.00  0.00     0.053 C 
ATOM      4  C   UNL     1      75.132  75.037  20.489  1.00  0.00     0.016 C 
BRANCH   3   5
ATOM      5  C   UNL     1      72.892  74.932  21.686  1.00  0.00     0.015 C 
BRANCH   5   6
ATOM      6  C   UNL     1      71.969  74.225  22.710  1.00  0.00     0.028 C 
BRANCH   6   7
ATOM      7  C   UNL     1      72.343  74.607  24.124  1.00  0.00    -0.028 C 
ATOM      8  C   UNL     1      72.913  73.784  25.038  1.00  0.00    -0.070 CG0
ATOM      9  C   UNL     1      73.347  74.381  26.352  1.00  0.00     0.039 C 
ATOM     10  G   UNL     1      73.131  72.296  24.806  1.00  0.00     0.000 G0
ENDBRANCH   6   7
ENDBRANCH   5   6
ENDBRANCH   3   5
ENDBRANCH   1   3
BRANCH   1  11
ATOM     11  C   UNL     1      74.561  71.674  22.013  1.00  0.00     0.087 C 
BRANCH  11  12
ATOM     12  C   UNL     1      75.315  72.200  23.264  1.00  0.00     0.066 C 
BRANCH  12  13
ATOM     13  C   UNL     1      74.566  71.876  24.553  1.00  0.00     0.140 C 
ATOM     14  O   UNL     1      75.138  71.224  25.414  1.00  0.00    -0.299 OA
BRANCH  13  15
ATOM     15  C   UNL     1      73.132  72.290  24.832  1.00  0.00     0.106 CG0
ATOM     16  G   UNL     1      72.902  73.781  25.032  1.00  0.00     0.000 G0
ENDBRANCH  13  15
ENDBRANCH  12  13
BRANCH  12  17
ATOM     17  C   UNL     1      76.805  71.742  23.347  1.00  0.00    -0.006 C 
ATOM     18  C   UNL     1      77.771  72.909  23.087  1.00  0.00     0.008 C 
ATOM     19  C   UNL     1      77.161  70.560  22.427  1.00  0.00     0.008 C 
ENDBRANCH  12  17
ENDBRANCH  11  12
ENDBRANCH   1  11
TORSDOF 1
ENDMDL
MODEL 4
REMARK VINA RESULT:    -3.588     11.848     13.450
REMARK INTER + INTRA:          -4.385
REMARK INTER:                  -3.822
REMARK INTRA:                  -0.563
REMARK UNBOUND:                 1.090
REMARK SMILES CC1=CCC[C@H](C)C(=O)C[C@H](C(C)C)C(=O)C1
REMARK SMILES IDX 8 1 9 2 6 3 7 4 5 5 4 6 3 7 2 8 1 9 10 11 11 12 15 13 16 14
REMARK SMILES IDX 17 15 12 17 13 18 14 19
REMARK H PARENT
REMARK Flexibility Score: 70.00
ROOT
ATOM      1  C   UNL     1      72.496  72.093  23.233  1.00  0.00     0.136 C 
ATOM      2  O   UNL     1      71.892  71.103  23.625  1.00  0.00    -0.299 OA
ENDROOT
BRANCH   1   3
ATOM      3  C   UNL     1      71.971  73.482  23.561  1.00  0.00     0.053 C 
ATOM      4  C   UNL     1      70.606  73.754  22.906  1.00  0.00     0.016 C 
BRANCH   3   5
ATOM      5  C   UNL     1      71.918  73.741  25.083  1.00  0.00     0.015 C 
BRANCH   5   6
ATOM      6  C   UNL     1      73.190  74.408  25.663  1.00  0.00     0.028 C 
BRANCH   6   7
ATOM      7  C   UNL     1      74.115  73.373  26.261  1.00  0.00    -0.028 C 
ATOM      8  C   UNL     1      75.392  73.138  25.870  1.00  0.00    -0.070 CG0
ATOM      9  C   UNL     1      76.210  72.164  26.679  1.00  0.00     0.039 C 
ATOM     10  G   UNL     1      76.034  73.802  24.661  1.00  0.00     0.000 G0
ENDBRANCH   6   7
ENDBRANCH   5   6
ENDBRANCH   3   5
ENDBRANCH   1   3
BRANCH   1  11
ATOM     11  C   UNL     1      73.779  71.897  22.457  1.00  0.00     0.087 C 
BRANCH  11  12
ATOM     12  C   UNL     1      74.659  73.176  22.426  1.00  0.00     0.066 C 
BRANCH  12  13
ATOM     13  C   UNL     1      75.873  73.049  23.341  1.00  0.00     0.140 C 
ATOM     14  O   UNL     1      76.767  72.278  23.023  1.00  0.00    -0.299 OA
BRANCH  13  15
ATOM     15  C   UNL     1      76.037  73.803  24.648  1.00  0.00     0.106 CG0
ATOM     16  G   UNL     1      75.413  73.149  25.872  1.00  0.00     0.000 G0
ENDBRANCH  13  15
ENDBRANCH  12  13
BRANCH  12  17
ATOM     17  C   UNL     1      75.078  73.625  20.991  1.00  0.00    -0.006 C 
ATOM     18  C   UNL     1      75.807  74.978  21.011  1.00  0.00     0.008 C 
ATOM     19  C   UNL     1      73.922  73.674  19.975  1.00  0.00     0.008 C 
ENDBRANCH  12  17
ENDBRANCH  11  12
ENDBRANCH   1  11
TORSDOF 1
ENDMDL
MODEL 5
REMARK VINA RESULT:    -3.544     12.389     14.013
REMARK INTER + INTRA:          -4.318
REMARK INTER:                  -4.029
REMARK INTRA:                  -0.289
REMARK UNBOUND:                 1.090
REMARK SMILES CC1=CCC[C@H](C)C(=O)C[C@H](C(C)C)C(=O)C1
REMARK SMILES IDX 8 1 9 2 6 3 7 4 5 5 4 6 3 7 2 8 1 9 10 11 11 12 15 13 16 14
REMARK SMILES IDX 17 15 12 17 13 18 14 19
REMARK H PARENT
REMARK Flexibility Score: 70.00
ROOT
ATOM      1  C   UNL     1      73.287  73.317  21.136  1.00  0.00     0.136 C 
ATOM      2  O   UNL     1      73.047  73.246  19.938  1.00  0.00    -0.299 OA
ENDROOT
BRANCH   1   3
ATOM      3  C   UNL     1      74.724  73.437  21.618  1.00  0.00     0.053 C 
ATOM      4  C   UNL     1      75.532  72.155  21.354  1.00  0.00     0.016 C 
BRANCH   3   5
ATOM      5  C   UNL     1      75.436  74.673  21.025  1.00  0.00     0.015 C 
BRANCH   5   6
ATOM      6  C   UNL     1      75.328  75.952  21.893  1.00  0.00     0.028 C 
BRANCH   6   7
ATOM      7  C   UNL     1      75.626  75.644  23.343  1.00  0.00    -0.028 C 
ATOM      8  C   UNL     1      74.716  75.627  24.348  1.00  0.00    -0.070 CG0
ATOM      9  C   UNL     1      75.173  75.158  25.706  1.00  0.00     0.039 C 
ATOM     10  G   UNL     1      73.267  76.059  24.175  1.00  0.00     0.000 G0
ENDBRANCH   6   7
ENDBRANCH   5   6
ENDBRANCH   3   5
ENDBRANCH   1   3
BRANCH   1  11
ATOM     11  C   UNL     1      72.127  73.318  22.107  1.00  0.00     0.087 C 
BRANCH  11  12
ATOM     12  C   UNL     1      72.580  73.522  23.577  1.00  0.00     0.066 C 
BRANCH  12  13
ATOM     13  C   UNL     1      72.241  74.920  24.084  1.00  0.00     0.140 C 
ATOM     14  O   UNL     1      71.087  75.164  24.403  1.00  0.00    -0.299 OA
BRANCH  13  15
ATOM     15  C   UNL     1      73.247  76.052  24.196  1.00  0.00     0.106 CG0
ATOM     16  G   UNL     1      74.701  75.632  24.345  1.00  0.00     0.000 G0
ENDBRANCH  13  15
ENDBRANCH  12  13
BRANCH  12  17
ATOM     17  C   UNL     1      72.062  72.425  24.560  1.00  0.00    -0.006 C 
ATOM     18  C   UNL     1      73.184  71.909  25.475  1.00  0.00     0.008 C 
ATOM     19  C   UNL     1      71.363  71.236  23.876  1.00  0.00     0.008 C 
ENDBRANCH  12  17
ENDBRANCH  11  12
ENDBRANCH   1  11
TORSDOF 1
ENDMDL
MODEL 6
REMARK VINA RESULT:    -3.510     11.712     13.461
REMARK INTER + INTRA:          -4.266
REMARK INTER:                  -3.908
REMARK INTRA:                  -0.359
REMARK UNBOUND:                 1.090
REMARK SMILES CC1=CCC[C@H](C)C(=O)C[C@H](C(C)C)C(=O)C1
REMARK SMILES IDX 8 1 9 2 6 3 7 4 5 5 4 6 3 7 2 8 1 9 10 11 11 12 15 13 16 14
REMARK SMILES IDX 17 15 12 17 13 18 14 19
REMARK H PARENT
REMARK Flexibility Score: 70.00
ROOT
ATOM      1  C   UNL     1      72.326  74.170  22.083  1.00  0.00     0.136 C 
ATOM      2  O   UNL     1      71.177  73.749  22.061  1.00  0.00    -0.299 OA
ENDROOT
BRANCH   1   3
ATOM      3  C   UNL     1      73.105  74.318  20.785  1.00  0.00     0.053 C 
ATOM      4  C   UNL     1      74.171  75.424  20.873  1.00  0.00     0.016 C 
BRANCH   3   5
ATOM      5  C   UNL     1      73.728  72.982  20.324  1.00  0.00     0.015 C 
BRANCH   5   6
ATOM      6  C   UNL     1      75.277  72.982  20.270  1.00  0.00     0.028 C 
BRANCH   6   7
ATOM      7  C   UNL     1      75.847  71.929  21.193  1.00  0.00    -0.028 C 
ATOM      8  C   UNL     1      76.196  72.123  22.488  1.00  0.00    -0.070 CG0
ATOM      9  C   UNL     1      76.613  70.919  23.294  1.00  0.00     0.039 C 
ATOM     10  G   UNL     1      76.192  73.486  23.164  1.00  0.00     0.000 G0
ENDBRANCH   6   7
ENDBRANCH   5   6
ENDBRANCH   3   5
ENDBRANCH   1   3
BRANCH   1  11
ATOM     11  C   UNL     1      72.927  74.566  23.413  1.00  0.00     0.087 C 
BRANCH  11  12
ATOM     12  C   UNL     1      73.681  73.396  24.100  1.00  0.00     0.066 C 
BRANCH  12  13
ATOM     13  C   UNL     1      75.167  73.700  24.265  1.00  0.00     0.140 C 
ATOM     14  O   UNL     1      75.555  74.162  25.328  1.00  0.00    -0.299 OA
BRANCH  13  15
ATOM     15  C   UNL     1      76.204  73.491  23.177  1.00  0.00     0.106 CG0
ATOM     16  G   UNL     1      76.185  72.131  22.496  1.00  0.00     0.000 G0
ENDBRANCH  13  15
ENDBRANCH  12  13
BRANCH  12  17
ATOM     17  C   UNL     1      73.046  72.936  25.450  1.00  0.00    -0.006 C 
ATOM     18  C   UNL     1      73.487  71.512  25.827  1.00  0.00     0.008 C 
ATOM     19  C   UNL     1      71.510  73.032  25.497  1.00  0.00     0.008 C 
ENDBRANCH  12  17
ENDBRANCH  11  12
ENDBRANCH   1  11
TORSDOF 1
ENDMDL
MODEL 7
REMARK VINA RESULT:    -3.503     11.966     13.996
REMARK INTER + INTRA:          -4.256
REMARK INTER:                  -3.701
REMARK INTRA:                  -0.555
REMARK UNBOUND:                 1.090
REMARK SMILES CC1=CCC[C@H](C)C(=O)C[C@H](C(C)C)C(=O)C1
REMARK SMILES IDX 8 1 9 2 6 3 7 4 5 5 4 6 3 7 2 8 1 9 10 11 11 12 15 13 16 14
REMARK SMILES IDX 17 15 12 17 13 18 14 19
REMARK H PARENT
REMARK Flexibility Score: 70.00
ROOT
ATOM      1  C   UNL     1      73.303  71.883  24.699  1.00  0.00     0.136 C 
ATOM      2  O   UNL     1      73.238  71.373  25.810  1.00  0.00    -0.299 OA
ENDROOT
BRANCH   1   3
ATOM      3  C   UNL     1      72.028  72.246  23.954  1.00  0.00     0.053 C 
ATOM      4  C   UNL     1      71.156  71.013  23.662  1.00  0.00     0.016 C 
BRANCH   3   5
ATOM      5  C   UNL     1      71.217  73.339  24.685  1.00  0.00     0.015 C 
BRANCH   5   6
ATOM      6  C   UNL     1      71.251  74.728  24.000  1.00  0.00     0.028 C 
BRANCH   6   7
ATOM      7  C   UNL     1      72.255  75.636  24.674  1.00  0.00    -0.028 C 
ATOM      8  C   UNL     1      73.429  76.048  24.138  1.00  0.00    -0.070 CG0
ATOM      9  C   UNL     1      74.234  77.069  24.902  1.00  0.00     0.039 C 
ATOM     10  G   UNL     1      73.973  75.532  22.814  1.00  0.00     0.000 G0
ENDBRANCH   6   7
ENDBRANCH   5   6
ENDBRANCH   3   5
ENDBRANCH   1   3
BRANCH   1  11
ATOM     11  C   UNL     1      74.667  72.168  24.113  1.00  0.00     0.087 C 
BRANCH  11  12
ATOM     12  C   UNL     1      74.589  72.912  22.753  1.00  0.00     0.066 C 
BRANCH  12  13
ATOM     13  C   UNL     1      74.977  74.381  22.889  1.00  0.00     0.140 C 
ATOM     14  O   UNL     1      76.148  74.660  23.103  1.00  0.00    -0.299 OA
BRANCH  13  15
ATOM     15  C   UNL     1      73.993  75.534  22.802  1.00  0.00     0.106 CG0
ATOM     16  G   UNL     1      73.455  76.046  24.130  1.00  0.00     0.000 G0
ENDBRANCH  13  15
ENDBRANCH  12  13
BRANCH  12  17
ATOM     17  C   UNL     1      75.389  72.222  21.603  1.00  0.00    -0.006 C 
ATOM     18  C   UNL     1      75.063  72.842  20.235  1.00  0.00     0.008 C 
ATOM     19  C   UNL     1      75.213  70.694  21.535  1.00  0.00     0.008 C 
ENDBRANCH  12  17
ENDBRANCH  11  12
ENDBRANCH   1  11
TORSDOF 1
ENDMDL
MODEL 8
REMARK VINA RESULT:    -3.369     10.490     12.253
REMARK INTER + INTRA:          -4.051
REMARK INTER:                  -4.056
REMARK INTRA:                   0.005
REMARK UNBOUND:                 1.090
REMARK SMILES CC1=CCC[C@H](C)C(=O)C[C@H](C(C)C)C(=O)C1
REMARK SMILES IDX 8 1 9 2 6 3 7 4 5 5 4 6 3 7 2 8 1 9 10 11 11 12 15 13 16 14
REMARK SMILES IDX 17 15 12 17 13 18 14 19
REMARK H PARENT
REMARK Flexibility Score: 70.00
ROOT
ATOM      1  C   UNL     1      74.648  70.115  27.267  1.00  0.00     0.136 C 
ATOM      2  O   UNL     1      73.465  69.828  27.139  1.00  0.00    -0.299 OA
ENDROOT
BRANCH   1   3
ATOM      3  C   UNL     1      75.494  69.406  28.313  1.00  0.00     0.053 C 
ATOM      4  C   UNL     1      74.718  68.282  29.020  1.00  0.00     0.016 C 
BRANCH   3   5
ATOM      5  C   UNL     1      76.823  68.879  27.727  1.00  0.00     0.015 C 
BRANCH   5   6
ATOM      6  C   UNL     1      77.995  69.890  27.788  1.00  0.00     0.028 C 
BRANCH   6   7
ATOM      7  C   UNL     1      77.851  70.810  28.979  1.00  0.00    -0.028 C 
ATOM      8  C   UNL     1      77.477  72.112  28.928  1.00  0.00    -0.070 CG0
ATOM      9  C   UNL     1      77.249  72.831  30.233  1.00  0.00     0.039 C 
ATOM     10  G   UNL     1      77.283  72.878  27.629  1.00  0.00     0.000 G0
ENDBRANCH   6   7
ENDBRANCH   5   6
ENDBRANCH   3   5
ENDBRANCH   1   3
BRANCH   1  11
ATOM     11  C   UNL     1      75.243  71.156  26.344  1.00  0.00     0.087 C 
BRANCH  11  12
ATOM     12  C   UNL     1      74.772  72.595  26.686  1.00  0.00     0.066 C 
BRANCH  12  13
ATOM     13  C   UNL     1      75.875  73.406  27.359  1.00  0.00     0.140 C 
ATOM     14  O   UNL     1      75.635  74.556  27.695  1.00  0.00    -0.299 OA
BRANCH  13  15
ATOM     15  C   UNL     1      77.277  72.884  27.621  1.00  0.00     0.106 CG0
ATOM     16  G   UNL     1      77.468  72.129  28.928  1.00  0.00     0.000 G0
ENDBRANCH  13  15
ENDBRANCH  12  13
BRANCH  12  17
ATOM     17  C   UNL     1      74.164  73.369  25.474  1.00  0.00    -0.006 C 
ATOM     18  C   UNL     1      72.629  73.283  25.460  1.00  0.00     0.008 C 
ATOM     19  C   UNL     1      74.719  72.943  24.102  1.00  0.00     0.008 C 
ENDBRANCH  12  17
ENDBRANCH  11  12
ENDBRANCH   1  11
TORSDOF 1
ENDMDL
MODEL 9
REMARK VINA RESULT:    -3.253     11.894     13.775
REMARK INTER + INTRA:          -3.874
REMARK INTER:                  -3.499
REMARK INTRA:                  -0.375
REMARK UNBOUND:                 1.090
REMARK SMILES CC1=CCC[C@H](C)C(=O)C[C@H](C(C)C)C(=O)C1
REMARK SMILES IDX 8 1 9 2 6 3 7 4 5 5 4 6 3 7 2 8 1 9 10 11 11 12 15 13 16 14
REMARK SMILES IDX 17 15 12 17 13 18 14 19
REMARK H PARENT
REMARK Flexibility Score: 70.00
ROOT
ATOM      1  C   UNL     1      75.013  72.600  21.749  1.00  0.00     0.136 C 
ATOM      2  O   UNL     1      75.104  71.628  21.010  1.00  0.00    -0.299 OA
ENDROOT
BRANCH   1   3
ATOM      3  C   UNL     1      74.270  73.842  21.283  1.00  0.00     0.053 C 
ATOM      4  C   UNL     1      74.859  74.415  19.983  1.00  0.00     0.016 C 
BRANCH   3   5
ATOM      5  C   UNL     1      72.751  73.595  21.143  1.00  0.00     0.015 C 
BRANCH   5   6
ATOM      6  C   UNL     1      71.878  74.390  22.146  1.00  0.00     0.028 C 
BRANCH   6   7
ATOM      7  C   UNL     1      71.245  73.464  23.159  1.00  0.00    -0.028 C 
ATOM      8  C   UNL     1      71.591  73.370  24.466  1.00  0.00    -0.070 CG0
ATOM      9  C   UNL     1      70.750  72.493  25.358  1.00  0.00     0.039 C 
ATOM     10  G   UNL     1      72.781  74.099  25.072  1.00  0.00     0.000 G0
ENDBRANCH   6   7
ENDBRANCH   5   6
ENDBRANCH   3   5
ENDBRANCH   1   3
BRANCH   1  11
ATOM     11  C   UNL     1      75.621  72.517  23.132  1.00  0.00     0.087 C 
BRANCH  11  12
ATOM     12  C   UNL     1      75.232  73.723  24.028  1.00  0.00     0.066 C 
BRANCH  12  13
ATOM     13  C   UNL     1      74.113  73.366  25.002  1.00  0.00     0.140 C 
ATOM     14  O   UNL     1      74.276  72.419  25.758  1.00  0.00    -0.299 OA
BRANCH  13  15
ATOM     15  C   UNL     1      72.786  74.099  25.080  1.00  0.00     0.106 CG0
ATOM     16  G   UNL     1      71.595  73.374  24.472  1.00  0.00     0.000 G0
ENDBRANCH  13  15
ENDBRANCH  12  13
BRANCH  12  17
ATOM     17  C   UNL     1      76.439  74.378  24.770  1.00  0.00    -0.006 C 
ATOM     18  C   UNL     1      76.016  75.645  25.531  1.00  0.00     0.008 C 
ATOM     19  C   UNL     1      77.646  74.694  23.868  1.00  0.00     0.008 C 
ENDBRANCH  12  17
ENDBRANCH  11  12
ENDBRANCH   1  11
TORSDOF 1
ENDMDL
