MODEL 1
REMARK VINA RESULT:    -4.875      0.000      0.000
REMARK INTER + INTRA:         -15.250
REMARK INTER:                 -12.284
REMARK INTRA:                  -2.966
REMARK UNBOUND:                -2.966
REMARK SMILES CCCCCCCCCCCCCCCCCCCCCCCCCCCC(=O)[O-]
REMARK SMILES IDX 15 1 16 2 17 3 18 4 19 5 20 6 21 7 22 8 23 9 24 10 25 11
REMARK SMILES IDX 26 12 27 13 28 14 29 15 30 16 14 17 13 18 12 19 11 20 10 21
REMARK SMILES IDX 9 22 8 23 7 24 6 25 5 26 4 27 3 28 2 29 1 30
REMARK H PARENT
REMARK Flexibility Score: inf
ROOT
ATOM      1  C   UNL     1      -4.859  -4.859   0.657  1.00  0.00     0.000 C 
ENDROOT
BRANCH   1   2
ATOM      2  C   UNL     1      -5.449  -5.371  -0.668  1.00  0.00     0.000 C 
BRANCH   2   3
ATOM      3  C   UNL     1      -6.985  -5.280  -0.697  1.00  0.00     0.000 C 
BRANCH   3   4
ATOM      4  C   UNL     1      -7.604  -5.450   0.701  1.00  0.00     0.000 C 
BRANCH   4   5
ATOM      5  C   UNL     1      -8.685  -4.396   1.020  1.00  0.00     0.000 C 
BRANCH   5   6
ATOM      6  C   UNL     1      -8.707  -3.193   0.052  1.00  0.00     0.000 C 
BRANCH   6   7
ATOM      7  C   UNL     1      -9.047  -1.847   0.712  1.00  0.00     0.000 C 
BRANCH   7   8
ATOM      8  C   UNL     1      -7.798  -1.054   1.165  1.00  0.00     0.000 C 
BRANCH   8   9
ATOM      9  C   UNL     1      -7.393   0.064   0.188  1.00  0.00     0.000 C 
BRANCH   9  10
ATOM     10  C   UNL     1      -5.986  -0.088  -0.426  1.00  0.00     0.000 C 
BRANCH  10  11
ATOM     11  C   UNL     1      -5.931  -0.832  -1.773  1.00  0.00     0.000 C 
BRANCH  11  12
ATOM     12  C   UNL     1      -6.223   0.081  -2.977  1.00  0.00     0.006 C 
BRANCH  12  13
ATOM     13  C   UNL     1      -4.941   0.658  -3.590  1.00  0.00     0.053 C 
BRANCH  13  14
ATOM     14  C   UNL     1      -4.775   2.111  -3.269  1.00  0.00     0.041 C 
ATOM     15  O   UNL     1      -5.006   2.986  -4.145  1.00  0.00    -0.550 OA
ATOM     16  O   UNL     1      -4.349   2.500  -2.005  1.00  0.00    -0.550 OA
ENDBRANCH  13  14
ENDBRANCH  12  13
ENDBRANCH  11  12
ENDBRANCH  10  11
ENDBRANCH   9  10
ENDBRANCH   8   9
ENDBRANCH   7   8
ENDBRANCH   6   7
ENDBRANCH   5   6
ENDBRANCH   4   5
ENDBRANCH   3   4
ENDBRANCH   2   3
ENDBRANCH   1   2
BRANCH   1  17
ATOM     17  C   UNL     1      -4.798  -3.322   0.733  1.00  0.00     0.000 C 
BRANCH  17  18
ATOM     18  C   UNL     1      -4.859  -2.736   2.156  1.00  0.00     0.000 C 
BRANCH  18  19
ATOM     19  C   UNL     1      -5.360  -3.750   3.201  1.00  0.00     0.000 C 
BRANCH  19  20
ATOM     20  C   UNL     1      -4.831  -3.454   4.613  1.00  0.00     0.000 C 
BRANCH  20  21
ATOM     21  C   UNL     1      -4.543  -1.958   4.834  1.00  0.00     0.000 C 
BRANCH  21  22
ATOM     22  C   UNL     1      -4.244  -1.625   6.305  1.00  0.00    -0.000 C 
BRANCH  22  23
ATOM     23  C   UNL     1      -2.855  -0.999   6.502  1.00  0.00    -0.000 C 
BRANCH  23  24
ATOM     24  C   UNL     1      -2.739   0.335   5.749  1.00  0.00    -0.000 C 
BRANCH  24  25
ATOM     25  C   UNL     1      -1.310   0.626   5.261  1.00  0.00    -0.000 C 
BRANCH  25  26
ATOM     26  C   UNL     1      -0.260  -0.280   5.926  1.00  0.00    -0.000 C 
BRANCH  26  27
ATOM     27  C   UNL     1       0.729  -0.886   4.914  1.00  0.00    -0.000 C 
BRANCH  27  28
ATOM     28  C   UNL     1       2.035  -1.424   5.530  1.00  0.00    -0.000 C 
BRANCH  28  29
ATOM     29  C   UNL     1       2.789  -2.377   4.591  1.00  0.00    -0.003 C 
ATOM     30  C   UNL     1       2.648  -1.938   3.136  1.00  0.00     0.004 C 
ENDBRANCH  28  29
ENDBRANCH  27  28
ENDBRANCH  26  27
ENDBRANCH  25  26
ENDBRANCH  24  25
ENDBRANCH  23  24
ENDBRANCH  22  23
ENDBRANCH  21  22
ENDBRANCH  20  21
ENDBRANCH  19  20
ENDBRANCH  18  19
ENDBRANCH  17  18
ENDBRANCH   1  17
TORSDOF 26
ENDMDL
MODEL 2
REMARK VINA RESULT:    -4.863      1.867      3.414
REMARK INTER + INTRA:         -15.220
REMARK INTER:                 -11.039
REMARK INTRA:                  -4.181
REMARK UNBOUND:                -2.966
REMARK SMILES CCCCCCCCCCCCCCCCCCCCCCCCCCCC(=O)[O-]
REMARK SMILES IDX 15 1 16 2 17 3 18 4 19 5 20 6 21 7 22 8 23 9 24 10 25 11
REMARK SMILES IDX 26 12 27 13 28 14 29 15 30 16 14 17 13 18 12 19 11 20 10 21
REMARK SMILES IDX 9 22 8 23 7 24 6 25 5 26 4 27 3 28 2 29 1 30
REMARK H PARENT
REMARK Flexibility Score: inf
ROOT
ATOM      1  C   UNL     1      -5.808  -1.477   1.586  1.00  0.00     0.000 C 
ENDROOT
BRANCH   1   2
ATOM      2  C   UNL     1      -5.008  -2.778   1.769  1.00  0.00     0.000 C 
BRANCH   2   3
ATOM      3  C   UNL     1      -4.636  -3.428   0.425  1.00  0.00     0.000 C 
BRANCH   3   4
ATOM      4  C   UNL     1      -4.807  -4.957   0.452  1.00  0.00     0.000 C 
BRANCH   4   5
ATOM      5  C   UNL     1      -5.665  -5.493  -0.713  1.00  0.00     0.000 C 
BRANCH   5   6
ATOM      6  C   UNL     1      -7.174  -5.589  -0.401  1.00  0.00     0.000 C 
BRANCH   6   7
ATOM      7  C   UNL     1      -8.055  -4.609  -1.193  1.00  0.00     0.000 C 
BRANCH   7   8
ATOM      8  C   UNL     1      -7.261  -3.766  -2.219  1.00  0.00     0.000 C 
BRANCH   8   9
ATOM      9  C   UNL     1      -7.187  -2.271  -1.858  1.00  0.00     0.000 C 
BRANCH   9  10
ATOM     10  C   UNL     1      -5.867  -1.574  -2.251  1.00  0.00     0.000 C 
BRANCH  10  11
ATOM     11  C   UNL     1      -5.920  -0.036  -2.286  1.00  0.00     0.000 C 
BRANCH  11  12
ATOM     12  C   UNL     1      -4.826   0.585  -3.173  1.00  0.00     0.006 C 
BRANCH  12  13
ATOM     13  C   UNL     1      -5.289   1.886  -3.838  1.00  0.00     0.053 C 
BRANCH  13  14
ATOM     14  C   UNL     1      -4.638   3.087  -3.225  1.00  0.00     0.041 C 
ATOM     15  O   UNL     1      -4.564   4.168  -3.868  1.00  0.00    -0.550 OA
ATOM     16  O   UNL     1      -4.095   3.008  -1.948  1.00  0.00    -0.550 OA
ENDBRANCH  13  14
ENDBRANCH  12  13
ENDBRANCH  11  12
ENDBRANCH  10  11
ENDBRANCH   9  10
ENDBRANCH   8   9
ENDBRANCH   7   8
ENDBRANCH   6   7
ENDBRANCH   5   6
ENDBRANCH   4   5
ENDBRANCH   3   4
ENDBRANCH   2   3
ENDBRANCH   1   2
BRANCH   1  17
ATOM     17  C   UNL     1      -7.224  -1.553   2.188  1.00  0.00     0.000 C 
BRANCH  17  18
ATOM     18  C   UNL     1      -7.944  -2.900   1.992  1.00  0.00     0.000 C 
BRANCH  18  19
ATOM     19  C   UNL     1      -8.186  -3.649   3.315  1.00  0.00     0.000 C 
BRANCH  19  20
ATOM     20  C   UNL     1      -7.770  -5.127   3.243  1.00  0.00     0.000 C 
BRANCH  20  21
ATOM     21  C   UNL     1      -6.287  -5.340   3.595  1.00  0.00     0.000 C 
BRANCH  21  22
ATOM     22  C   UNL     1      -5.993  -5.109   5.087  1.00  0.00    -0.000 C 
BRANCH  22  23
ATOM     23  C   UNL     1      -4.944  -4.013   5.323  1.00  0.00    -0.000 C 
BRANCH  23  24
ATOM     24  C   UNL     1      -5.601  -2.722   5.834  1.00  0.00    -0.000 C 
BRANCH  24  25
ATOM     25  C   UNL     1      -5.029  -1.457   5.172  1.00  0.00    -0.000 C 
BRANCH  25  26
ATOM     26  C   UNL     1      -3.498  -1.367   5.287  1.00  0.00    -0.000 C 
BRANCH  26  27
ATOM     27  C   UNL     1      -3.019  -1.187   6.739  1.00  0.00    -0.000 C 
BRANCH  27  28
ATOM     28  C   UNL     1      -1.729  -0.361   6.896  1.00  0.00    -0.000 C 
BRANCH  28  29
ATOM     29  C   UNL     1      -1.151   0.105   5.550  1.00  0.00    -0.003 C 
ATOM     30  C   UNL     1      -1.698   1.477   5.164  1.00  0.00     0.004 C 
ENDBRANCH  28  29
ENDBRANCH  27  28
ENDBRANCH  26  27
ENDBRANCH  25  26
ENDBRANCH  24  25
ENDBRANCH  23  24
ENDBRANCH  22  23
ENDBRANCH  21  22
ENDBRANCH  20  21
ENDBRANCH  19  20
ENDBRANCH  18  19
ENDBRANCH  17  18
ENDBRANCH   1  17
TORSDOF 26
ENDMDL
MODEL 3
REMARK VINA RESULT:    -4.833      1.250      3.694
REMARK INTER + INTRA:         -15.144
REMARK INTER:                 -12.101
REMARK INTRA:                  -3.043
REMARK UNBOUND:                -2.966
REMARK SMILES CCCCCCCCCCCCCCCCCCCCCCCCCCCC(=O)[O-]
REMARK SMILES IDX 15 1 16 2 17 3 18 4 19 5 20 6 21 7 22 8 23 9 24 10 25 11
REMARK SMILES IDX 26 12 27 13 28 14 29 15 30 16 14 17 13 18 12 19 11 20 10 21
REMARK SMILES IDX 9 22 8 23 7 24 6 25 5 26 4 27 3 28 2 29 1 30
REMARK H PARENT
REMARK Flexibility Score: inf
ROOT
ATOM      1  C   UNL     1      -4.970  -3.641   4.823  1.00  0.00     0.000 C 
ENDROOT
BRANCH   1   2
ATOM      2  C   UNL     1      -5.377  -3.977   3.378  1.00  0.00     0.000 C 
BRANCH   2   3
ATOM      3  C   UNL     1      -4.946  -2.886   2.382  1.00  0.00     0.000 C 
BRANCH   3   4
ATOM      4  C   UNL     1      -4.556  -3.470   1.013  1.00  0.00     0.000 C 
BRANCH   4   5
ATOM      5  C   UNL     1      -4.935  -4.958   0.857  1.00  0.00     0.000 C 
BRANCH   5   6
ATOM      6  C   UNL     1      -5.482  -5.332  -0.538  1.00  0.00     0.000 C 
BRANCH   6   7
ATOM      7  C   UNL     1      -6.987  -5.646  -0.572  1.00  0.00     0.000 C 
BRANCH   7   8
ATOM      8  C   UNL     1      -7.724  -5.252   0.730  1.00  0.00     0.000 C 
BRANCH   8   9
ATOM      9  C   UNL     1      -8.759  -4.129   0.532  1.00  0.00     0.000 C 
BRANCH   9  10
ATOM     10  C   UNL     1      -8.388  -2.783   1.190  1.00  0.00     0.000 C 
BRANCH  10  11
ATOM     11  C   UNL     1      -8.184  -1.608   0.217  1.00  0.00     0.000 C 
BRANCH  11  12
ATOM     12  C   UNL     1      -7.014  -0.691   0.616  1.00  0.00     0.006 C 
BRANCH  12  13
ATOM     13  C   UNL     1      -6.032  -0.470  -0.541  1.00  0.00     0.053 C 
BRANCH  13  14
ATOM     14  C   UNL     1      -6.151   0.907  -1.118  1.00  0.00     0.041 C 
ATOM     15  O   UNL     1      -6.753   1.812  -0.482  1.00  0.00    -0.550 OA
ATOM     16  O   UNL     1      -5.612   1.186  -2.368  1.00  0.00    -0.550 OA
ENDBRANCH  13  14
ENDBRANCH  12  13
ENDBRANCH  11  12
ENDBRANCH  10  11
ENDBRANCH   9  10
ENDBRANCH   8   9
ENDBRANCH   7   8
ENDBRANCH   6   7
ENDBRANCH   5   6
ENDBRANCH   4   5
ENDBRANCH   3   4
ENDBRANCH   2   3
ENDBRANCH   1   2
BRANCH   1  17
ATOM     17  C   UNL     1      -4.197  -2.314   4.936  1.00  0.00     0.000 C 
BRANCH  17  18
ATOM     18  C   UNL     1      -4.774  -1.307   5.949  1.00  0.00     0.000 C 
BRANCH  18  19
ATOM     19  C   UNL     1      -3.954  -0.007   6.037  1.00  0.00     0.000 C 
BRANCH  19  20
ATOM     20  C   UNL     1      -2.642  -0.080   5.239  1.00  0.00     0.000 C 
BRANCH  20  21
ATOM     21  C   UNL     1      -1.734   1.139   5.484  1.00  0.00     0.000 C 
BRANCH  21  22
ATOM     22  C   UNL     1      -0.503   0.796   6.340  1.00  0.00    -0.000 C 
BRANCH  22  23
ATOM     23  C   UNL     1      -0.853  -0.054   7.571  1.00  0.00    -0.000 C 
BRANCH  23  24
ATOM     24  C   UNL     1       0.014  -1.321   7.630  1.00  0.00    -0.000 C 
BRANCH  24  25
ATOM     25  C   UNL     1       1.430  -1.106   7.071  1.00  0.00    -0.000 C 
BRANCH  25  26
ATOM     26  C   UNL     1       1.765  -2.066   5.918  1.00  0.00    -0.000 C 
BRANCH  26  27
ATOM     27  C   UNL     1       2.018  -1.334   4.587  1.00  0.00    -0.000 C 
BRANCH  27  28
ATOM     28  C   UNL     1       2.353  -2.253   3.398  1.00  0.00    -0.000 C 
BRANCH  28  29
ATOM     29  C   UNL     1       3.583  -1.780   2.607  1.00  0.00    -0.003 C 
ATOM     30  C   UNL     1       4.503  -0.930   3.480  1.00  0.00     0.004 C 
ENDBRANCH  28  29
ENDBRANCH  27  28
ENDBRANCH  26  27
ENDBRANCH  25  26
ENDBRANCH  24  25
ENDBRANCH  23  24
ENDBRANCH  22  23
ENDBRANCH  21  22
ENDBRANCH  20  21
ENDBRANCH  19  20
ENDBRANCH  18  19
ENDBRANCH  17  18
ENDBRANCH   1  17
TORSDOF 26
ENDMDL
MODEL 4
REMARK VINA RESULT:    -4.784      1.969      3.813
REMARK INTER + INTRA:         -15.020
REMARK INTER:                 -11.021
REMARK INTRA:                  -4.000
REMARK UNBOUND:                -2.966
REMARK SMILES CCCCCCCCCCCCCCCCCCCCCCCCCCCC(=O)[O-]
REMARK SMILES IDX 15 1 16 2 17 3 18 4 19 5 20 6 21 7 22 8 23 9 24 10 25 11
REMARK SMILES IDX 26 12 27 13 28 14 29 15 30 16 14 17 13 18 12 19 11 20 10 21
REMARK SMILES IDX 9 22 8 23 7 24 6 25 5 26 4 27 3 28 2 29 1 30
REMARK H PARENT
REMARK Flexibility Score: inf
ROOT
ATOM      1  C   UNL     1      -7.196  -5.568  -0.320  1.00  0.00     0.000 C 
ENDROOT
BRANCH   1   2
ATOM      2  C   UNL     1      -5.733  -5.252  -0.672  1.00  0.00     0.000 C 
BRANCH   2   3
ATOM      3  C   UNL     1      -4.895  -4.904   0.571  1.00  0.00     0.000 C 
BRANCH   3   4
ATOM      4  C   UNL     1      -4.529  -3.411   0.626  1.00  0.00     0.000 C 
BRANCH   4   5
ATOM      5  C   UNL     1      -5.174  -2.671   1.816  1.00  0.00     0.000 C 
BRANCH   5   6
ATOM      6  C   UNL     1      -6.018  -1.440   1.418  1.00  0.00     0.000 C 
BRANCH   6   7
ATOM      7  C   UNL     1      -7.539  -1.651   1.509  1.00  0.00     0.000 C 
BRANCH   7   8
ATOM      8  C   UNL     1      -8.287  -1.286   0.205  1.00  0.00     0.000 C 
BRANCH   8   9
ATOM      9  C   UNL     1      -7.855  -2.132  -1.007  1.00  0.00     0.000 C 
BRANCH   9  10
ATOM     10  C   UNL     1      -7.243  -1.329  -2.173  1.00  0.00     0.000 C 
BRANCH  10  11
ATOM     11  C   UNL     1      -5.707  -1.227  -2.168  1.00  0.00     0.000 C 
BRANCH  11  12
ATOM     12  C   UNL     1      -5.199   0.220  -2.030  1.00  0.00     0.006 C 
BRANCH  12  13
ATOM     13  C   UNL     1      -5.098   0.929  -3.386  1.00  0.00     0.053 C 
BRANCH  13  14
ATOM     14  C   UNL     1      -4.747   2.377  -3.233  1.00  0.00     0.041 C 
ATOM     15  O   UNL     1      -4.880   3.169  -4.203  1.00  0.00    -0.550 OA
ATOM     16  O   UNL     1      -4.255   2.848  -2.021  1.00  0.00    -0.550 OA
ENDBRANCH  13  14
ENDBRANCH  12  13
ENDBRANCH  11  12
ENDBRANCH  10  11
ENDBRANCH   9  10
ENDBRANCH   8   9
ENDBRANCH   7   8
ENDBRANCH   6   7
ENDBRANCH   5   6
ENDBRANCH   4   5
ENDBRANCH   3   4
ENDBRANCH   2   3
ENDBRANCH   1   2
BRANCH   1  17
ATOM     17  C   UNL     1      -7.523  -5.321   1.165  1.00  0.00     0.000 C 
BRANCH  17  18
ATOM     18  C   UNL     1      -9.007  -5.488   1.542  1.00  0.00     0.000 C 
BRANCH  18  19
ATOM     19  C   UNL     1      -9.264  -5.328   3.051  1.00  0.00     0.000 C 
BRANCH  19  20
ATOM     20  C   UNL     1      -7.976  -5.060   3.846  1.00  0.00     0.000 C 
BRANCH  20  21
ATOM     21  C   UNL     1      -7.399  -6.337   4.483  1.00  0.00     0.000 C 
BRANCH  21  22
ATOM     22  C   UNL     1      -5.862  -6.333   4.525  1.00  0.00    -0.000 C 
BRANCH  22  23
ATOM     23  C   UNL     1      -5.275  -4.924   4.693  1.00  0.00    -0.000 C 
BRANCH  23  24
ATOM     24  C   UNL     1      -5.001  -4.613   6.173  1.00  0.00    -0.000 C 
BRANCH  24  25
ATOM     25  C   UNL     1      -4.444  -3.198   6.395  1.00  0.00    -0.000 C 
BRANCH  25  26
ATOM     26  C   UNL     1      -4.748  -2.250   5.223  1.00  0.00    -0.000 C 
BRANCH  26  27
ATOM     27  C   UNL     1      -5.049  -0.811   5.683  1.00  0.00    -0.000 C 
BRANCH  27  28
ATOM     28  C   UNL     1      -3.811   0.011   6.086  1.00  0.00    -0.000 C 
BRANCH  28  29
ATOM     29  C   UNL     1      -2.579  -0.304   5.223  1.00  0.00    -0.003 C 
ATOM     30  C   UNL     1      -1.587   0.856   5.242  1.00  0.00     0.004 C 
ENDBRANCH  28  29
ENDBRANCH  27  28
ENDBRANCH  26  27
ENDBRANCH  25  26
ENDBRANCH  24  25
ENDBRANCH  23  24
ENDBRANCH  22  23
ENDBRANCH  21  22
ENDBRANCH  20  21
ENDBRANCH  19  20
ENDBRANCH  18  19
ENDBRANCH  17  18
ENDBRANCH   1  17
TORSDOF 26
ENDMDL
MODEL 5
REMARK VINA RESULT:    -4.784      0.951      2.289
REMARK INTER + INTRA:         -15.020
REMARK INTER:                 -12.106
REMARK INTRA:                  -2.914
REMARK UNBOUND:                -2.966
REMARK SMILES CCCCCCCCCCCCCCCCCCCCCCCCCCCC(=O)[O-]
REMARK SMILES IDX 15 1 16 2 17 3 18 4 19 5 20 6 21 7 22 8 23 9 24 10 25 11
REMARK SMILES IDX 26 12 27 13 28 14 29 15 30 16 14 17 13 18 12 19 11 20 10 21
REMARK SMILES IDX 9 22 8 23 7 24 6 25 5 26 4 27 3 28 2 29 1 30
REMARK H PARENT
REMARK Flexibility Score: inf
ROOT
ATOM      1  C   UNL     1      -4.989  -2.716   2.039  1.00  0.00     0.000 C 
ENDROOT
BRANCH   1   2
ATOM      2  C   UNL     1      -4.510  -3.391   0.743  1.00  0.00     0.000 C 
BRANCH   2   3
ATOM      3  C   UNL     1      -4.905  -4.877   0.679  1.00  0.00     0.000 C 
BRANCH   3   4
ATOM      4  C   UNL     1      -5.413  -5.283  -0.715  1.00  0.00     0.000 C 
BRANCH   4   5
ATOM      5  C   UNL     1      -6.933  -5.548  -0.754  1.00  0.00     0.000 C 
BRANCH   5   6
ATOM      6  C   UNL     1      -7.640  -5.403   0.611  1.00  0.00     0.000 C 
BRANCH   6   7
ATOM      7  C   UNL     1      -8.718  -4.308   0.661  1.00  0.00     0.000 C 
BRANCH   7   8
ATOM      8  C   UNL     1      -8.668  -3.344  -0.549  1.00  0.00     0.000 C 
BRANCH   8   9
ATOM      9  C   UNL     1      -7.782  -2.108  -0.311  1.00  0.00     0.000 C 
BRANCH   9  10
ATOM     10  C   UNL     1      -7.339  -1.371  -1.593  1.00  0.00     0.000 C 
BRANCH  10  11
ATOM     11  C   UNL     1      -5.854  -1.531  -1.966  1.00  0.00     0.000 C 
BRANCH  11  12
ATOM     12  C   UNL     1      -5.172  -0.195  -2.310  1.00  0.00     0.006 C 
BRANCH  12  13
ATOM     13  C   UNL     1      -6.172   0.966  -2.370  1.00  0.00     0.053 C 
BRANCH  13  14
ATOM     14  C   UNL     1      -5.480   2.294  -2.424  1.00  0.00     0.041 C 
ATOM     15  O   UNL     1      -4.421   2.485  -1.770  1.00  0.00    -0.550 OA
ATOM     16  O   UNL     1      -6.015   3.326  -3.184  1.00  0.00    -0.550 OA
ENDBRANCH  13  14
ENDBRANCH  12  13
ENDBRANCH  11  12
ENDBRANCH  10  11
ENDBRANCH   9  10
ENDBRANCH   8   9
ENDBRANCH   7   8
ENDBRANCH   6   7
ENDBRANCH   5   6
ENDBRANCH   4   5
ENDBRANCH   3   4
ENDBRANCH   2   3
ENDBRANCH   1   2
BRANCH   1  17
ATOM     17  C   UNL     1      -5.638  -3.704   3.027  1.00  0.00     0.000 C 
BRANCH  17  18
ATOM     18  C   UNL     1      -5.495  -3.328   4.513  1.00  0.00     0.000 C 
BRANCH  18  19
ATOM     19  C   UNL     1      -4.509  -2.168   4.747  1.00  0.00     0.000 C 
BRANCH  19  20
ATOM     20  C   UNL     1      -4.252  -1.901   6.238  1.00  0.00     0.000 C 
BRANCH  20  21
ATOM     21  C   UNL     1      -3.043  -0.977   6.472  1.00  0.00     0.000 C 
BRANCH  21  22
ATOM     22  C   UNL     1      -2.535  -0.328   5.174  1.00  0.00    -0.000 C 
BRANCH  22  23
ATOM     23  C   UNL     1      -1.464   0.745   5.425  1.00  0.00    -0.000 C 
BRANCH  23  24
ATOM     24  C   UNL     1      -0.324   0.192   6.293  1.00  0.00    -0.000 C 
BRANCH  24  25
ATOM     25  C   UNL     1       0.574  -0.803   5.540  1.00  0.00    -0.000 C 
BRANCH  25  26
ATOM     26  C   UNL     1       1.869  -1.131   6.304  1.00  0.00    -0.000 C 
BRANCH  26  27
ATOM     27  C   UNL     1       2.948  -1.760   5.404  1.00  0.00    -0.000 C 
BRANCH  27  28
ATOM     28  C   UNL     1       2.408  -2.480   4.154  1.00  0.00    -0.000 C 
BRANCH  28  29
ATOM     29  C   UNL     1       2.791  -1.772   2.846  1.00  0.00    -0.003 C 
ATOM     30  C   UNL     1       4.087  -0.983   3.009  1.00  0.00     0.004 C 
ENDBRANCH  28  29
ENDBRANCH  27  28
ENDBRANCH  26  27
ENDBRANCH  25  26
ENDBRANCH  24  25
ENDBRANCH  23  24
ENDBRANCH  22  23
ENDBRANCH  21  22
ENDBRANCH  20  21
ENDBRANCH  19  20
ENDBRANCH  18  19
ENDBRANCH  17  18
ENDBRANCH   1  17
TORSDOF 26
ENDMDL
MODEL 6
REMARK VINA RESULT:    -4.755      3.266      9.618
REMARK INTER + INTRA:         -14.948
REMARK INTER:                 -12.138
REMARK INTRA:                  -2.810
REMARK UNBOUND:                -2.966
REMARK SMILES CCCCCCCCCCCCCCCCCCCCCCCCCCCC(=O)[O-]
REMARK SMILES IDX 15 1 16 2 17 3 18 4 19 5 20 6 21 7 22 8 23 9 24 10 25 11
REMARK SMILES IDX 26 12 27 13 28 14 29 15 30 16 14 17 13 18 12 19 11 20 10 21
REMARK SMILES IDX 9 22 8 23 7 24 6 25 5 26 4 27 3 28 2 29 1 30
REMARK H PARENT
REMARK Flexibility Score: inf
ROOT
ATOM      1  C   UNL     1      -4.516  -2.655   5.602  1.00  0.00     0.000 C 
ENDROOT
BRANCH   1   2
ATOM      2  C   UNL     1      -4.458  -1.118   5.611  1.00  0.00     0.000 C 
BRANCH   2   3
ATOM      3  C   UNL     1      -3.110  -0.589   6.131  1.00  0.00     0.000 C 
BRANCH   3   4
ATOM      4  C   UNL     1      -2.198  -0.102   4.991  1.00  0.00     0.000 C 
BRANCH   4   5
ATOM      5  C   UNL     1      -0.805   0.349   5.478  1.00  0.00     0.000 C 
BRANCH   5   6
ATOM      6  C   UNL     1      -0.661   0.428   7.013  1.00  0.00     0.000 C 
BRANCH   6   7
ATOM      7  C   UNL     1       0.555  -0.323   7.581  1.00  0.00     0.000 C 
BRANCH   7   8
ATOM      8  C   UNL     1       1.087  -1.428   6.638  1.00  0.00     0.000 C 
BRANCH   8   9
ATOM      9  C   UNL     1       2.609  -1.362   6.415  1.00  0.00     0.000 C 
BRANCH   9  10
ATOM     10  C   UNL     1       3.132  -2.236   5.255  1.00  0.00     0.000 C 
BRANCH  10  11
ATOM     11  C   UNL     1       2.243  -2.264   3.998  1.00  0.00     0.000 C 
BRANCH  11  12
ATOM     12  C   UNL     1       2.835  -1.464   2.824  1.00  0.00     0.006 C 
BRANCH  12  13
ATOM     13  C   UNL     1       4.367  -1.519   2.800  1.00  0.00     0.053 C 
BRANCH  13  14
ATOM     14  C   UNL     1       4.870  -2.809   2.230  1.00  0.00     0.041 C 
ATOM     15  O   UNL     1       5.552  -3.595   2.941  1.00  0.00    -0.550 OA
ATOM     16  O   UNL     1       4.599  -3.137   0.907  1.00  0.00    -0.550 OA
ENDBRANCH  13  14
ENDBRANCH  12  13
ENDBRANCH  11  12
ENDBRANCH  10  11
ENDBRANCH   9  10
ENDBRANCH   8   9
ENDBRANCH   7   8
ENDBRANCH   6   7
ENDBRANCH   5   6
ENDBRANCH   4   5
ENDBRANCH   3   4
ENDBRANCH   2   3
ENDBRANCH   1   2
BRANCH   1  17
ATOM     17  C   UNL     1      -4.843  -3.235   4.213  1.00  0.00     0.000 C 
BRANCH  17  18
ATOM     18  C   UNL     1      -4.739  -2.234   3.048  1.00  0.00     0.000 C 
BRANCH  18  19
ATOM     19  C   UNL     1      -4.949  -2.891   1.671  1.00  0.00     0.000 C 
BRANCH  19  20
ATOM     20  C   UNL     1      -5.125  -4.415   1.764  1.00  0.00     0.000 C 
BRANCH  20  21
ATOM     21  C   UNL     1      -4.650  -5.142   0.493  1.00  0.00     0.000 C 
BRANCH  21  22
ATOM     22  C   UNL     1      -5.632  -4.984  -0.680  1.00  0.00    -0.000 C 
BRANCH  22  23
ATOM     23  C   UNL     1      -6.990  -5.648  -0.412  1.00  0.00    -0.000 C 
BRANCH  23  24
ATOM     24  C   UNL     1      -8.146  -4.689  -0.733  1.00  0.00    -0.000 C 
BRANCH  24  25
ATOM     25  C   UNL     1      -8.131  -3.421   0.137  1.00  0.00    -0.000 C 
BRANCH  25  26
ATOM     26  C   UNL     1      -8.197  -2.129  -0.695  1.00  0.00    -0.000 C 
BRANCH  26  27
ATOM     27  C   UNL     1      -7.664  -2.316  -2.128  1.00  0.00    -0.000 C 
BRANCH  27  28
ATOM     28  C   UNL     1      -6.207  -1.867  -2.339  1.00  0.00    -0.000 C 
BRANCH  28  29
ATOM     29  C   UNL     1      -5.726  -0.876  -1.267  1.00  0.00    -0.003 C 
ATOM     30  C   UNL     1      -5.633   0.539  -1.832  1.00  0.00     0.004 C 
ENDBRANCH  28  29
ENDBRANCH  27  28
ENDBRANCH  26  27
ENDBRANCH  25  26
ENDBRANCH  24  25
ENDBRANCH  23  24
ENDBRANCH  22  23
ENDBRANCH  21  22
ENDBRANCH  20  21
ENDBRANCH  19  20
ENDBRANCH  18  19
ENDBRANCH  17  18
ENDBRANCH   1  17
TORSDOF 26
ENDMDL
MODEL 7
REMARK VINA RESULT:    -4.751      2.309      4.256
REMARK INTER + INTRA:         -14.937
REMARK INTER:                 -10.225
REMARK INTRA:                  -4.713
REMARK UNBOUND:                -2.966
REMARK SMILES CCCCCCCCCCCCCCCCCCCCCCCCCCCC(=O)[O-]
REMARK SMILES IDX 15 1 16 2 17 3 18 4 19 5 20 6 21 7 22 8 23 9 24 10 25 11
REMARK SMILES IDX 26 12 27 13 28 14 29 15 30 16 14 17 13 18 12 19 11 20 10 21
REMARK SMILES IDX 9 22 8 23 7 24 6 25 5 26 4 27 3 28 2 29 1 30
REMARK H PARENT
REMARK Flexibility Score: inf
ROOT
ATOM      1  C   UNL     1      -5.422  -1.672   1.768  1.00  0.00     0.000 C 
ENDROOT
BRANCH   1   2
ATOM      2  C   UNL     1      -5.095  -3.172   1.875  1.00  0.00     0.000 C 
BRANCH   2   3
ATOM      3  C   UNL     1      -4.542  -3.743   0.557  1.00  0.00     0.000 C 
BRANCH   3   4
ATOM      4  C   UNL     1      -4.955  -5.209   0.342  1.00  0.00     0.000 C 
BRANCH   4   5
ATOM      5  C   UNL     1      -5.733  -5.436  -0.971  1.00  0.00     0.000 C 
BRANCH   5   6
ATOM      6  C   UNL     1      -7.268  -5.454  -0.805  1.00  0.00     0.000 C 
BRANCH   6   7
ATOM      7  C   UNL     1      -7.979  -4.175  -1.280  1.00  0.00     0.000 C 
BRANCH   7   8
ATOM      8  C   UNL     1      -7.159  -3.368  -2.315  1.00  0.00     0.000 C 
BRANCH   8   9
ATOM      9  C   UNL     1      -7.073  -1.866  -1.992  1.00  0.00     0.000 C 
BRANCH   9  10
ATOM     10  C   UNL     1      -5.642  -1.332  -1.768  1.00  0.00     0.000 C 
BRANCH  10  11
ATOM     11  C   UNL     1      -5.462   0.181  -1.988  1.00  0.00     0.000 C 
BRANCH  11  12
ATOM     12  C   UNL     1      -5.340   0.564  -3.474  1.00  0.00     0.006 C 
BRANCH  12  13
ATOM     13  C   UNL     1      -4.361  -0.345  -4.227  1.00  0.00     0.053 C 
BRANCH  13  14
ATOM     14  C   UNL     1      -5.022  -1.048  -5.372  1.00  0.00     0.041 C 
ATOM     15  O   UNL     1      -5.429  -2.233  -5.240  1.00  0.00    -0.550 OA
ATOM     16  O   UNL     1      -5.173  -0.401  -6.592  1.00  0.00    -0.550 OA
ENDBRANCH  13  14
ENDBRANCH  12  13
ENDBRANCH  11  12
ENDBRANCH  10  11
ENDBRANCH   9  10
ENDBRANCH   8   9
ENDBRANCH   7   8
ENDBRANCH   6   7
ENDBRANCH   5   6
ENDBRANCH   4   5
ENDBRANCH   3   4
ENDBRANCH   2   3
ENDBRANCH   1   2
BRANCH   1  17
ATOM     17  C   UNL     1      -6.889  -1.352   2.111  1.00  0.00     0.000 C 
BRANCH  17  18
ATOM     18  C   UNL     1      -7.890  -2.482   1.809  1.00  0.00     0.000 C 
BRANCH  18  19
ATOM     19  C   UNL     1      -8.623  -2.987   3.065  1.00  0.00     0.000 C 
BRANCH  19  20
ATOM     20  C   UNL     1      -9.096  -4.443   2.931  1.00  0.00     0.000 C 
BRANCH  20  21
ATOM     21  C   UNL     1      -7.928  -5.428   2.747  1.00  0.00     0.000 C 
BRANCH  21  22
ATOM     22  C   UNL     1      -7.261  -5.810   4.079  1.00  0.00    -0.000 C 
BRANCH  22  23
ATOM     23  C   UNL     1      -5.727  -5.784   4.006  1.00  0.00    -0.000 C 
BRANCH  23  24
ATOM     24  C   UNL     1      -5.131  -5.031   5.205  1.00  0.00    -0.000 C 
BRANCH  24  25
ATOM     25  C   UNL     1      -5.724  -3.624   5.384  1.00  0.00    -0.000 C 
BRANCH  25  26
ATOM     26  C   UNL     1      -4.749  -2.652   6.069  1.00  0.00    -0.000 C 
BRANCH  26  27
ATOM     27  C   UNL     1      -4.209  -1.575   5.109  1.00  0.00    -0.000 C 
BRANCH  27  28
ATOM     28  C   UNL     1      -3.630  -0.326   5.799  1.00  0.00    -0.000 C 
BRANCH  28  29
ATOM     29  C   UNL     1      -2.150  -0.486   6.178  1.00  0.00    -0.003 C 
ATOM     30  C   UNL     1      -1.286   0.550   5.463  1.00  0.00     0.004 C 
ENDBRANCH  28  29
ENDBRANCH  27  28
ENDBRANCH  26  27
ENDBRANCH  25  26
ENDBRANCH  24  25
ENDBRANCH  23  24
ENDBRANCH  22  23
ENDBRANCH  21  22
ENDBRANCH  20  21
ENDBRANCH  19  20
ENDBRANCH  18  19
ENDBRANCH  17  18
ENDBRANCH   1  17
TORSDOF 26
ENDMDL
MODEL 8
REMARK VINA RESULT:    -4.744      3.782      9.269
REMARK INTER + INTRA:         -14.920
REMARK INTER:                 -11.745
REMARK INTRA:                  -3.176
REMARK UNBOUND:                -2.966
REMARK SMILES CCCCCCCCCCCCCCCCCCCCCCCCCCCC(=O)[O-]
REMARK SMILES IDX 15 1 16 2 17 3 18 4 19 5 20 6 21 7 22 8 23 9 24 10 25 11
REMARK SMILES IDX 26 12 27 13 28 14 29 15 30 16 14 17 13 18 12 19 11 20 10 21
REMARK SMILES IDX 9 22 8 23 7 24 6 25 5 26 4 27 3 28 2 29 1 30
REMARK H PARENT
REMARK Flexibility Score: inf
ROOT
ATOM      1  C   UNL     1      -4.098  -2.155   5.122  1.00  0.00     0.000 C 
ENDROOT
BRANCH   1   2
ATOM      2  C   UNL     1      -4.470  -1.008   6.077  1.00  0.00     0.000 C 
BRANCH   2   3
ATOM      3  C   UNL     1      -3.326   0.008   6.241  1.00  0.00     0.000 C 
BRANCH   3   4
ATOM      4  C   UNL     1      -2.302  -0.080   5.097  1.00  0.00     0.000 C 
BRANCH   4   5
ATOM      5  C   UNL     1      -0.878   0.334   5.523  1.00  0.00     0.000 C 
BRANCH   5   6
ATOM      6  C   UNL     1      -0.475  -0.135   6.938  1.00  0.00     0.000 C 
BRANCH   6   7
ATOM      7  C   UNL     1       0.422  -1.383   6.968  1.00  0.00     0.000 C 
BRANCH   7   8
ATOM      8  C   UNL     1       1.899  -1.067   7.305  1.00  0.00     0.000 C 
BRANCH   8   9
ATOM      9  C   UNL     1       2.833  -1.126   6.082  1.00  0.00     0.000 C 
BRANCH   9  10
ATOM     10  C   UNL     1       2.716  -2.413   5.239  1.00  0.00     0.000 C 
BRANCH  10  11
ATOM     11  C   UNL     1       2.220  -2.212   3.796  1.00  0.00     0.000 C 
BRANCH  11  12
ATOM     12  C   UNL     1       3.132  -1.289   2.968  1.00  0.00     0.006 C 
BRANCH  12  13
ATOM     13  C   UNL     1       4.614  -1.656   3.115  1.00  0.00     0.053 C 
BRANCH  13  14
ATOM     14  C   UNL     1       4.960  -2.893   2.345  1.00  0.00     0.041 C 
ATOM     15  O   UNL     1       4.795  -2.931   1.097  1.00  0.00    -0.550 OA
ATOM     16  O   UNL     1       5.450  -4.012   3.009  1.00  0.00    -0.550 OA
ENDBRANCH  13  14
ENDBRANCH  12  13
ENDBRANCH  11  12
ENDBRANCH  10  11
ENDBRANCH   9  10
ENDBRANCH   8   9
ENDBRANCH   7   8
ENDBRANCH   6   7
ENDBRANCH   5   6
ENDBRANCH   4   5
ENDBRANCH   3   4
ENDBRANCH   2   3
ENDBRANCH   1   2
BRANCH   1  17
ATOM     17  C   UNL     1      -4.792  -3.483   5.479  1.00  0.00     0.000 C 
BRANCH  17  18
ATOM     18  C   UNL     1      -5.270  -4.314   4.274  1.00  0.00     0.000 C 
BRANCH  18  19
ATOM     19  C   UNL     1      -6.707  -4.842   4.441  1.00  0.00     0.000 C 
BRANCH  19  20
ATOM     20  C   UNL     1      -7.524  -4.757   3.142  1.00  0.00     0.000 C 
BRANCH  20  21
ATOM     21  C   UNL     1      -8.388  -3.484   3.072  1.00  0.00     0.000 C 
BRANCH  21  22
ATOM     22  C   UNL     1      -7.913  -2.507   1.983  1.00  0.00    -0.000 C 
BRANCH  22  23
ATOM     23  C   UNL     1      -6.857  -1.516   2.494  1.00  0.00    -0.000 C 
BRANCH  23  24
ATOM     24  C   UNL     1      -5.504  -1.747   1.802  1.00  0.00    -0.000 C 
BRANCH  24  25
ATOM     25  C   UNL     1      -5.612  -2.653   0.564  1.00  0.00    -0.000 C 
BRANCH  25  26
ATOM     26  C   UNL     1      -4.577  -3.791   0.570  1.00  0.00    -0.000 C 
BRANCH  26  27
ATOM     27  C   UNL     1      -5.223  -5.183   0.443  1.00  0.00    -0.000 C 
BRANCH  27  28
ATOM     28  C   UNL     1      -6.259  -5.313  -0.689  1.00  0.00    -0.000 C 
BRANCH  28  29
ATOM     29  C   UNL     1      -5.663  -5.890  -1.981  1.00  0.00    -0.003 C 
ATOM     30  C   UNL     1      -6.741  -6.082  -3.045  1.00  0.00     0.004 C 
ENDBRANCH  28  29
ENDBRANCH  27  28
ENDBRANCH  26  27
ENDBRANCH  25  26
ENDBRANCH  24  25
ENDBRANCH  23  24
ENDBRANCH  22  23
ENDBRANCH  21  22
ENDBRANCH  20  21
ENDBRANCH  19  20
ENDBRANCH  18  19
ENDBRANCH  17  18
ENDBRANCH   1  17
TORSDOF 26
ENDMDL
MODEL 9
REMARK VINA RESULT:    -4.679      1.944      3.096
REMARK INTER + INTRA:         -14.756
REMARK INTER:                 -10.300
REMARK INTRA:                  -4.456
REMARK UNBOUND:                -2.966
REMARK SMILES CCCCCCCCCCCCCCCCCCCCCCCCCCCC(=O)[O-]
REMARK SMILES IDX 15 1 16 2 17 3 18 4 19 5 20 6 21 7 22 8 23 9 24 10 25 11
REMARK SMILES IDX 26 12 27 13 28 14 29 15 30 16 14 17 13 18 12 19 11 20 10 21
REMARK SMILES IDX 9 22 8 23 7 24 6 25 5 26 4 27 3 28 2 29 1 30
REMARK H PARENT
REMARK Flexibility Score: inf
ROOT
ATOM      1  C   UNL     1      -4.866  -2.439   1.859  1.00  0.00     0.000 C 
ENDROOT
BRANCH   1   2
ATOM      2  C   UNL     1      -4.526  -3.389   0.698  1.00  0.00     0.000 C 
BRANCH   2   3
ATOM      3  C   UNL     1      -4.934  -4.842   0.993  1.00  0.00     0.000 C 
BRANCH   3   4
ATOM      4  C   UNL     1      -5.941  -5.384  -0.036  1.00  0.00     0.000 C 
BRANCH   4   5
ATOM      5  C   UNL     1      -7.403  -5.330   0.456  1.00  0.00     0.000 C 
BRANCH   5   6
ATOM      6  C   UNL     1      -8.449  -5.718  -0.611  1.00  0.00     0.000 C 
BRANCH   6   7
ATOM      7  C   UNL     1      -8.954  -4.546  -1.468  1.00  0.00     0.000 C 
BRANCH   7   8
ATOM      8  C   UNL     1      -8.599  -3.159  -0.879  1.00  0.00     0.000 C 
BRANCH   8   9
ATOM      9  C   UNL     1      -7.995  -2.191  -1.912  1.00  0.00     0.000 C 
BRANCH   9  10
ATOM     10  C   UNL     1      -6.524  -2.472  -2.281  1.00  0.00     0.000 C 
BRANCH  10  11
ATOM     11  C   UNL     1      -5.554  -1.296  -2.066  1.00  0.00     0.000 C 
BRANCH  11  12
ATOM     12  C   UNL     1      -6.168   0.067  -2.435  1.00  0.00     0.006 C 
BRANCH  12  13
ATOM     13  C   UNL     1      -5.673   1.192  -1.518  1.00  0.00     0.053 C 
BRANCH  13  14
ATOM     14  C   UNL     1      -6.769   1.721  -0.645  1.00  0.00     0.041 C 
ATOM     15  O   UNL     1      -7.671   0.951  -0.222  1.00  0.00    -0.550 OA
ATOM     16  O   UNL     1      -6.803   3.070  -0.313  1.00  0.00    -0.550 OA
ENDBRANCH  13  14
ENDBRANCH  12  13
ENDBRANCH  11  12
ENDBRANCH  10  11
ENDBRANCH   9  10
ENDBRANCH   8   9
ENDBRANCH   7   8
ENDBRANCH   6   7
ENDBRANCH   5   6
ENDBRANCH   4   5
ENDBRANCH   3   4
ENDBRANCH   2   3
ENDBRANCH   1   2
BRANCH   1  17
ATOM     17  C   UNL     1      -6.082  -1.542   1.565  1.00  0.00     0.000 C 
BRANCH  17  18
ATOM     18  C   UNL     1      -7.361  -1.902   2.344  1.00  0.00     0.000 C 
BRANCH  18  19
ATOM     19  C   UNL     1      -7.069  -2.516   3.725  1.00  0.00     0.000 C 
BRANCH  19  20
ATOM     20  C   UNL     1      -7.397  -4.017   3.788  1.00  0.00     0.000 C 
BRANCH  20  21
ATOM     21  C   UNL     1      -6.430  -4.795   4.698  1.00  0.00     0.000 C 
BRANCH  21  22
ATOM     22  C   UNL     1      -5.112  -4.040   4.942  1.00  0.00    -0.000 C 
BRANCH  22  23
ATOM     23  C   UNL     1      -4.728  -3.980   6.428  1.00  0.00    -0.000 C 
BRANCH  23  24
ATOM     24  C   UNL     1      -3.976  -2.679   6.750  1.00  0.00    -0.000 C 
BRANCH  24  25
ATOM     25  C   UNL     1      -3.915  -1.711   5.557  1.00  0.00    -0.000 C 
BRANCH  25  26
ATOM     26  C   UNL     1      -3.270  -0.362   5.920  1.00  0.00    -0.000 C 
BRANCH  26  27
ATOM     27  C   UNL     1      -2.154   0.046   4.941  1.00  0.00    -0.000 C 
BRANCH  27  28
ATOM     28  C   UNL     1      -0.744   0.107   5.559  1.00  0.00    -0.000 C 
BRANCH  28  29
ATOM     29  C   UNL     1      -0.759   0.001   7.091  1.00  0.00    -0.003 C 
ATOM     30  C   UNL     1       0.388  -0.873   7.592  1.00  0.00     0.004 C 
ENDBRANCH  28  29
ENDBRANCH  27  28
ENDBRANCH  26  27
ENDBRANCH  25  26
ENDBRANCH  24  25
ENDBRANCH  23  24
ENDBRANCH  22  23
ENDBRANCH  21  22
ENDBRANCH  20  21
ENDBRANCH  19  20
ENDBRANCH  18  19
ENDBRANCH  17  18
ENDBRANCH   1  17
TORSDOF 26
ENDMDL
