MODEL 1
REMARK VINA RESULT:    -5.172      0.000      0.000
REMARK INTER + INTRA:          -8.884
REMARK INTER:                  -7.591
REMARK INTRA:                  -1.292
REMARK UNBOUND:                -1.292
REMARK SMILES Cc1cc2c(C(C)C)c(O)c(O)c(C=O)c2c(O)c1-c1c(C)cc2c(C(C)C)c(O)c(O)c(C=O)c2c1O
REMARK SMILES IDX 1 1 2 2 3 3 4 4 16 5 13 6 11 7 9 8 5 9 17 10 19 11 20 12
REMARK SMILES IDX 37 13 21 14 36 15 23 16 22 17 24 18 33 19 25 20 31 21 29 22
REMARK SMILES IDX 38 23 34 25 35 26 26 27 27 28 28 29 32 30 30 32 18 34 6 36
REMARK SMILES IDX 7 37 8 38 14 39 15 40 10 41 12 43
REMARK H PARENT 38 24 32 31 30 33 18 35 10 42 12 44
REMARK Flexibility Score: inf
ROOT
ATOM      1  C   UNL     1      57.605  31.715  57.493  1.00  0.00     0.045 C 
ATOM      2  C   UNL     1      57.228  30.844  56.319  1.00  0.00    -0.039 A 
ATOM      3  C   UNL     1      56.562  31.410  55.232  1.00  0.00     0.013 A 
ATOM      4  C   UNL     1      56.222  30.654  54.087  1.00  0.00    -0.006 A 
ATOM      5  C   UNL     1      56.524  29.259  54.071  1.00  0.00     0.039 A 
ATOM      6  C   UNL     1      56.169  28.491  52.924  1.00  0.00     0.072 A 
ATOM      7  C   UNL     1      55.358  29.064  51.929  1.00  0.00     0.169 A 
ATOM      8  C   UNL     1      55.003  30.415  51.985  1.00  0.00     0.162 A 
ATOM      9  C   UNL     1      55.566  31.263  52.972  1.00  0.00     0.008 A 
ATOM     10  C   UNL     1      57.136  28.670  55.218  1.00  0.00     0.132 A 
ATOM     11  C   UNL     1      57.516  29.469  56.317  1.00  0.00     0.031 A 
ENDROOT
BRANCH  11  12
ATOM     12  C   UNL     1      58.198  28.855  57.487  1.00  0.00     0.031 A 
ATOM     13  C   UNL     1      57.439  28.320  58.550  1.00  0.00     0.132 A 
ATOM     14  C   UNL     1      59.601  28.793  57.522  1.00  0.00    -0.039 A 
ATOM     15  C   UNL     1      58.087  27.756  59.692  1.00  0.00     0.039 A 
ATOM     16  C   UNL     1      60.238  28.252  58.638  1.00  0.00     0.013 A 
ATOM     17  C   UNL     1      60.435  29.339  56.387  1.00  0.00     0.045 C 
ATOM     18  C   UNL     1      59.514  27.775  59.754  1.00  0.00    -0.006 A 
ATOM     19  C   UNL     1      57.361  27.143  60.758  1.00  0.00     0.072 A 
ATOM     20  C   UNL     1      60.192  27.283  60.912  1.00  0.00     0.008 A 
ATOM     21  C   UNL     1      58.054  26.517  61.814  1.00  0.00     0.169 A 
ATOM     22  C   UNL     1      59.451  26.557  61.868  1.00  0.00     0.162 A 
BRANCH  13  23
ATOM     23  O   UNL     1      56.043  28.342  58.464  1.00  0.00    -0.507 OA
ATOM     24  H   UNL     1      55.484  27.573  58.116  1.00  0.00     0.293 HD
ENDBRANCH  13  23
BRANCH  19  25
ATOM     25  C   UNL     1      55.884  27.121  60.788  1.00  0.00     0.264 C 
ATOM     26  O   UNL     1      55.246  27.929  61.514  1.00  0.00    -0.298 OA
ENDBRANCH  19  25
BRANCH  20  27
ATOM     27  C   UNL     1      61.697  27.515  61.133  1.00  0.00     0.017 C 
ATOM     28  C   UNL     1      62.033  29.008  61.090  1.00  0.00     0.012 C 
ATOM     29  C   UNL     1      62.596  26.710  60.175  1.00  0.00     0.012 C 
ENDBRANCH  20  27
BRANCH  21  30
ATOM     30  O   UNL     1      57.378  25.870  62.855  1.00  0.00    -0.504 OA
ATOM     31  H   UNL     1      57.478  26.109  63.833  1.00  0.00     0.293 HD
ENDBRANCH  21  30
BRANCH  22  32
ATOM     32  O   UNL     1      60.114  25.868  62.887  1.00  0.00    -0.504 OA
ATOM     33  H   UNL     1      60.359  24.887  62.824  1.00  0.00     0.293 HD
ENDBRANCH  22  32
ENDBRANCH  11  12
BRANCH  10  34
ATOM     34  O   UNL     1      57.328  27.284  55.283  1.00  0.00    -0.507 OA
ATOM     35  H   UNL     1      57.406  26.685  54.471  1.00  0.00     0.293 HD
ENDBRANCH  10  34
BRANCH   9  36
ATOM     36  C   UNL     1      55.546  32.794  52.807  1.00  0.00     0.017 C 
ATOM     37  C   UNL     1      56.915  33.426  53.088  1.00  0.00     0.012 C 
ATOM     38  C   UNL     1      54.412  33.500  53.577  1.00  0.00     0.012 C 
ENDBRANCH   9  36
BRANCH   6  39
ATOM     39  C   UNL     1      56.675  27.116  52.700  1.00  0.00     0.264 C 
ATOM     40  O   UNL     1      55.917  26.115  52.808  1.00  0.00    -0.298 OA
ENDBRANCH   6  39
BRANCH   8  41
ATOM     41  O   UNL     1      54.086  30.876  51.038  1.00  0.00    -0.504 OA
ATOM     42  H   UNL     1      54.166  30.690  50.050  1.00  0.00     0.293 HD
ENDBRANCH   8  41
BRANCH   7  43
ATOM     43  O   UNL     1      54.918  28.275  50.860  1.00  0.00    -0.504 OA
ATOM     44  H   UNL     1      55.520  27.621  50.375  1.00  0.00     0.293 HD
ENDBRANCH   7  43
TORSDOF 11
ENDMDL
MODEL 2
REMARK VINA RESULT:    -5.119      6.273     10.157
REMARK INTER + INTRA:          -8.806
REMARK INTER:                  -7.508
REMARK INTRA:                  -1.298
REMARK UNBOUND:                -1.292
REMARK SMILES Cc1cc2c(C(C)C)c(O)c(O)c(C=O)c2c(O)c1-c1c(C)cc2c(C(C)C)c(O)c(O)c(C=O)c2c1O
REMARK SMILES IDX 1 1 2 2 3 3 4 4 16 5 13 6 11 7 9 8 5 9 17 10 19 11 20 12
REMARK SMILES IDX 37 13 21 14 36 15 23 16 22 17 24 18 33 19 25 20 31 21 29 22
REMARK SMILES IDX 38 23 34 25 35 26 26 27 27 28 28 29 32 30 30 32 18 34 6 36
REMARK SMILES IDX 7 37 8 38 14 39 15 40 10 41 12 43
REMARK H PARENT 38 24 32 31 30 33 18 35 10 42 12 44
REMARK Flexibility Score: inf
ROOT
ATOM      1  C   UNL     1      58.737  32.619  53.414  1.00  0.00     0.045 C 
ATOM      2  C   UNL     1      59.646  32.937  54.577  1.00  0.00    -0.039 A 
ATOM      3  C   UNL     1      59.140  33.641  55.670  1.00  0.00     0.013 A 
ATOM      4  C   UNL     1      59.931  33.931  56.804  1.00  0.00    -0.006 A 
ATOM      5  C   UNL     1      61.303  33.536  56.804  1.00  0.00     0.039 A 
ATOM      6  C   UNL     1      62.107  33.841  57.941  1.00  0.00     0.072 A 
ATOM      7  C   UNL     1      61.603  34.689  58.940  1.00  0.00     0.169 A 
ATOM      8  C   UNL     1      60.278  35.134  58.901  1.00  0.00     0.162 A 
ATOM      9  C   UNL     1      59.382  34.629  57.926  1.00  0.00     0.008 A 
ATOM     10  C   UNL     1      61.836  32.884  55.650  1.00  0.00     0.132 A 
ATOM     11  C   UNL     1      60.999  32.558  54.563  1.00  0.00     0.031 A 
ENDROOT
BRANCH  11  12
ATOM     12  C   UNL     1      61.551  31.834  53.387  1.00  0.00     0.031 A 
ATOM     13  C   UNL     1      62.136  32.554  52.323  1.00  0.00     0.132 A 
ATOM     14  C   UNL     1      61.504  30.432  53.347  1.00  0.00    -0.039 A 
ATOM     15  C   UNL     1      62.642  31.868  51.175  1.00  0.00     0.039 A 
ATOM     16  C   UNL     1      61.987  29.758  52.226  1.00  0.00     0.013 A 
ATOM     17  C   UNL     1      60.902  29.638  54.482  1.00  0.00     0.045 C 
ATOM     18  C   UNL     1      62.512  30.447  51.108  1.00  0.00    -0.006 A 
ATOM     19  C   UNL     1      63.303  32.549  50.108  1.00  0.00     0.072 A 
ATOM     20  C   UNL     1      62.943  29.737  49.945  1.00  0.00     0.008 A 
ATOM     21  C   UNL     1      63.867  31.812  49.045  1.00  0.00     0.169 A 
ATOM     22  C   UNL     1      63.719  30.423  48.988  1.00  0.00     0.162 A 
BRANCH  13  23
ATOM     23  O   UNL     1      62.224  33.947  52.413  1.00  0.00    -0.507 OA
ATOM     24  H   UNL     1      62.606  34.540  51.688  1.00  0.00     0.293 HD
ENDBRANCH  13  23
BRANCH  19  25
ATOM     25  C   UNL     1      63.439  34.019  50.081  1.00  0.00     0.264 C 
ATOM     26  O   UNL     1      62.645  34.724  49.404  1.00  0.00    -0.298 OA
ENDBRANCH  19  25
BRANCH  20  27
ATOM     27  C   UNL     1      62.593  28.255  49.721  1.00  0.00     0.017 C 
ATOM     28  C   UNL     1      61.077  28.047  49.697  1.00  0.00     0.012 C 
ATOM     29  C   UNL     1      63.274  27.300  50.719  1.00  0.00     0.012 C 
ENDBRANCH  20  27
BRANCH  21  30
ATOM     30  O   UNL     1      64.558  32.440  48.002  1.00  0.00    -0.504 OA
ATOM     31  H   UNL     1      65.460  32.887  48.105  1.00  0.00     0.293 HD
ENDBRANCH  21  30
BRANCH  22  32
ATOM     32  O   UNL     1      64.347  29.712  47.962  1.00  0.00    -0.504 OA
ATOM     33  H   UNL     1      64.230  28.715  47.827  1.00  0.00     0.293 HD
ENDBRANCH  22  32
ENDBRANCH  11  12
BRANCH  10  34
ATOM     34  O   UNL     1      63.204  32.600  55.569  1.00  0.00    -0.507 OA
ATOM     35  H   UNL     1      63.929  33.306  55.558  1.00  0.00     0.293 HD
ENDBRANCH  10  34
BRANCH   9  36
ATOM     36  C   UNL     1      57.858  34.752  58.109  1.00  0.00     0.017 C 
ATOM     37  C   UNL     1      57.133  33.426  57.848  1.00  0.00     0.012 C 
ATOM     38  C   UNL     1      57.219  35.924  57.338  1.00  0.00     0.012 C 
ENDBRANCH   9  36
BRANCH   6  39
ATOM     39  C   UNL     1      63.448  33.243  58.148  1.00  0.00     0.264 C 
ATOM     40  O   UNL     1      64.497  33.926  58.006  1.00  0.00    -0.298 OA
ENDBRANCH   6  39
BRANCH   8  41
ATOM     41  O   UNL     1      59.892  36.081  59.851  1.00  0.00    -0.504 OA
ATOM     42  H   UNL     1      59.754  37.057  59.639  1.00  0.00     0.293 HD
ENDBRANCH   8  41
BRANCH   7  43
ATOM     43  O   UNL     1      62.433  35.076  59.999  1.00  0.00    -0.504 OA
ATOM     44  H   UNL     1      63.035  35.889  59.958  1.00  0.00     0.293 HD
ENDBRANCH   7  43
TORSDOF 11
ENDMDL
MODEL 3
REMARK VINA RESULT:    -5.033      5.864      7.916
REMARK INTER + INTRA:          -8.679
REMARK INTER:                  -7.031
REMARK INTRA:                  -1.648
REMARK UNBOUND:                -1.292
REMARK SMILES Cc1cc2c(C(C)C)c(O)c(O)c(C=O)c2c(O)c1-c1c(C)cc2c(C(C)C)c(O)c(O)c(C=O)c2c1O
REMARK SMILES IDX 1 1 2 2 3 3 4 4 16 5 13 6 11 7 9 8 5 9 17 10 19 11 20 12
REMARK SMILES IDX 37 13 21 14 36 15 23 16 22 17 24 18 33 19 25 20 31 21 29 22
REMARK SMILES IDX 38 23 34 25 35 26 26 27 27 28 28 29 32 30 30 32 18 34 6 36
REMARK SMILES IDX 7 37 8 38 14 39 15 40 10 41 12 43
REMARK H PARENT 38 24 32 31 30 33 18 35 10 42 12 44
REMARK Flexibility Score: inf
ROOT
ATOM      1  C   UNL     1      61.009  29.232  55.436  1.00  0.00     0.045 C 
ATOM      2  C   UNL     1      61.549  29.783  54.138  1.00  0.00    -0.039 A 
ATOM      3  C   UNL     1      61.717  28.929  53.048  1.00  0.00     0.013 A 
ATOM      4  C   UNL     1      62.177  29.395  51.797  1.00  0.00    -0.006 A 
ATOM      5  C   UNL     1      62.531  30.772  51.664  1.00  0.00     0.039 A 
ATOM      6  C   UNL     1      63.010  31.242  50.407  1.00  0.00     0.072 A 
ATOM      7  C   UNL     1      63.317  30.319  49.393  1.00  0.00     0.169 A 
ATOM      8  C   UNL     1      63.036  28.959  49.552  1.00  0.00     0.162 A 
ATOM      9  C   UNL     1      62.313  28.506  50.685  1.00  0.00     0.008 A 
ATOM     10  C   UNL     1      62.430  31.625  52.805  1.00  0.00     0.132 A 
ATOM     11  C   UNL     1      61.908  31.136  54.020  1.00  0.00     0.031 A 
ENDROOT
BRANCH  11  12
ATOM     12  C   UNL     1      61.760  32.044  55.189  1.00  0.00     0.031 A 
ATOM     13  C   UNL     1      60.541  32.721  55.409  1.00  0.00     0.132 A 
ATOM     14  C   UNL     1      62.831  32.213  56.081  1.00  0.00    -0.039 A 
ATOM     15  C   UNL     1      60.400  33.620  56.512  1.00  0.00     0.039 A 
ATOM     16  C   UNL     1      62.701  33.095  57.152  1.00  0.00     0.013 A 
ATOM     17  C   UNL     1      64.138  31.484  55.878  1.00  0.00     0.045 C 
ATOM     18  C   UNL     1      61.524  33.848  57.364  1.00  0.00    -0.006 A 
ATOM     19  C   UNL     1      59.166  34.273  56.812  1.00  0.00     0.072 A 
ATOM     20  C   UNL     1      61.438  34.793  58.432  1.00  0.00     0.008 A 
ATOM     21  C   UNL     1      59.056  35.075  57.968  1.00  0.00     0.169 A 
ATOM     22  C   UNL     1      60.169  35.298  58.783  1.00  0.00     0.162 A 
BRANCH  13  23
ATOM     23  O   UNL     1      59.470  32.491  54.539  1.00  0.00    -0.507 OA
ATOM     24  H   UNL     1      58.509  32.736  54.744  1.00  0.00     0.293 HD
ENDBRANCH  13  23
BRANCH  19  25
ATOM     25  C   UNL     1      57.971  34.123  55.957  1.00  0.00     0.264 C 
ATOM     26  O   UNL     1      57.005  33.406  56.326  1.00  0.00    -0.298 OA
ENDBRANCH  19  25
BRANCH  20  27
ATOM     27  C   UNL     1      62.684  35.257  59.208  1.00  0.00     0.017 C 
ATOM     28  C   UNL     1      63.594  36.112  58.322  1.00  0.00     0.012 C 
ATOM     29  C   UNL     1      63.466  34.107  59.871  1.00  0.00     0.012 C 
ENDBRANCH  20  27
BRANCH  21  30
ATOM     30  O   UNL     1      57.852  35.697  58.319  1.00  0.00    -0.504 OA
ATOM     31  H   UNL     1      57.731  36.280  59.137  1.00  0.00     0.293 HD
ENDBRANCH  21  30
BRANCH  22  32
ATOM     32  O   UNL     1      60.015  36.039  59.959  1.00  0.00    -0.504 OA
ATOM     33  H   UNL     1      59.197  36.602  60.155  1.00  0.00     0.293 HD
ENDBRANCH  22  32
ENDBRANCH  11  12
BRANCH  10  34
ATOM     34  O   UNL     1      62.888  32.946  52.741  1.00  0.00    -0.507 OA
ATOM     35  H   UNL     1      63.380  33.412  53.493  1.00  0.00     0.293 HD
ENDBRANCH  10  34
BRANCH   9  36
ATOM     36  C   UNL     1      61.624  27.129  50.686  1.00  0.00     0.017 C 
ATOM     37  C   UNL     1      62.627  25.978  50.834  1.00  0.00     0.012 C 
ATOM     38  C   UNL     1      60.652  26.905  49.511  1.00  0.00     0.012 C 
ENDBRANCH   9  36
BRANCH   6  39
ATOM     39  C   UNL     1      63.142  32.685  50.096  1.00  0.00     0.264 C 
ATOM     40  O   UNL     1      64.273  33.234  50.007  1.00  0.00    -0.298 OA
ENDBRANCH   6  39
BRANCH   8  41
ATOM     41  O   UNL     1      63.494  28.089  48.560  1.00  0.00    -0.504 OA
ATOM     42  H   UNL     1      62.881  27.557  47.962  1.00  0.00     0.293 HD
ENDBRANCH   8  41
BRANCH   7  43
ATOM     43  O   UNL     1      63.892  30.772  48.200  1.00  0.00    -0.504 OA
ATOM     44  H   UNL     1      64.629  31.466  48.172  1.00  0.00     0.293 HD
ENDBRANCH   7  43
TORSDOF 11
ENDMDL
MODEL 4
REMARK VINA RESULT:    -5.030      5.476      8.176
REMARK INTER + INTRA:          -8.675
REMARK INTER:                  -6.986
REMARK INTRA:                  -1.689
REMARK UNBOUND:                -1.292
REMARK SMILES Cc1cc2c(C(C)C)c(O)c(O)c(C=O)c2c(O)c1-c1c(C)cc2c(C(C)C)c(O)c(O)c(C=O)c2c1O
REMARK SMILES IDX 1 1 2 2 3 3 4 4 16 5 13 6 11 7 9 8 5 9 17 10 19 11 20 12
REMARK SMILES IDX 37 13 21 14 36 15 23 16 22 17 24 18 33 19 25 20 31 21 29 22
REMARK SMILES IDX 38 23 34 25 35 26 26 27 27 28 28 29 32 30 30 32 18 34 6 36
REMARK SMILES IDX 7 37 8 38 14 39 15 40 10 41 12 43
REMARK H PARENT 38 24 32 31 30 33 18 35 10 42 12 44
REMARK Flexibility Score: inf
ROOT
ATOM      1  C   UNL     1      66.235  29.360  61.106  1.00  0.00     0.045 C 
ATOM      2  C   UNL     1      65.039  29.985  60.430  1.00  0.00    -0.039 A 
ATOM      3  C   UNL     1      64.949  31.375  60.343  1.00  0.00     0.013 A 
ATOM      4  C   UNL     1      63.875  32.015  59.686  1.00  0.00    -0.006 A 
ATOM      5  C   UNL     1      62.825  31.213  59.143  1.00  0.00     0.039 A 
ATOM      6  C   UNL     1      61.733  31.857  58.492  1.00  0.00     0.072 A 
ATOM      7  C   UNL     1      61.603  33.254  58.573  1.00  0.00     0.169 A 
ATOM      8  C   UNL     1      62.599  34.033  59.170  1.00  0.00     0.162 A 
ATOM      9  C   UNL     1      63.819  33.441  59.584  1.00  0.00     0.008 A 
ATOM     10  C   UNL     1      62.885  29.796  59.302  1.00  0.00     0.132 A 
ATOM     11  C   UNL     1      64.004  29.190  59.911  1.00  0.00     0.031 A 
ENDROOT
BRANCH  11  12
ATOM     12  C   UNL     1      64.080  27.709  60.028  1.00  0.00     0.031 A 
ATOM     13  C   UNL     1      63.434  27.049  61.095  1.00  0.00     0.132 A 
ATOM     14  C   UNL     1      64.781  26.970  59.062  1.00  0.00    -0.039 A 
ATOM     15  C   UNL     1      63.528  25.629  61.233  1.00  0.00     0.039 A 
ATOM     16  C   UNL     1      64.884  25.586  59.197  1.00  0.00     0.013 A 
ATOM     17  C   UNL     1      65.463  27.651  57.900  1.00  0.00     0.045 C 
ATOM     18  C   UNL     1      64.315  24.896  60.292  1.00  0.00    -0.006 A 
ATOM     19  C   UNL     1      62.836  24.913  62.256  1.00  0.00     0.072 A 
ATOM     20  C   UNL     1      64.487  23.485  60.441  1.00  0.00     0.008 A 
ATOM     21  C   UNL     1      62.887  23.504  62.287  1.00  0.00     0.169 A 
ATOM     22  C   UNL     1      63.673  22.802  61.367  1.00  0.00     0.162 A 
BRANCH  13  23
ATOM     23  O   UNL     1      62.693  27.803  62.011  1.00  0.00    -0.507 OA
ATOM     24  H   UNL     1      62.855  28.784  62.202  1.00  0.00     0.293 HD
ENDBRANCH  13  23
BRANCH  19  25
ATOM     25  C   UNL     1      62.038  25.601  63.291  1.00  0.00     0.264 C 
ATOM     26  O   UNL     1      60.780  25.571  63.255  1.00  0.00    -0.298 OA
ENDBRANCH  19  25
BRANCH  20  27
ATOM     27  C   UNL     1      65.521  22.701  59.613  1.00  0.00     0.017 C 
ATOM     28  C   UNL     1      64.831  21.799  58.587  1.00  0.00     0.012 C 
ATOM     29  C   UNL     1      66.528  21.908  60.468  1.00  0.00     0.012 C 
ENDBRANCH  20  27
BRANCH  21  30
ATOM     30  O   UNL     1      62.189  22.764  63.249  1.00  0.00    -0.504 OA
ATOM     31  H   UNL     1      61.210  22.517  63.176  1.00  0.00     0.293 HD
ENDBRANCH  21  30
BRANCH  22  32
ATOM     32  O   UNL     1      63.649  21.405  61.377  1.00  0.00    -0.504 OA
ATOM     33  H   UNL     1      63.114  20.865  62.046  1.00  0.00     0.293 HD
ENDBRANCH  22  32
ENDBRANCH  11  12
BRANCH  10  34
ATOM     34  O   UNL     1      61.812  28.994  58.894  1.00  0.00    -0.507 OA
ATOM     35  H   UNL     1      61.840  27.983  58.866  1.00  0.00     0.293 HD
ENDBRANCH  10  34
BRANCH   9  36
ATOM     36  C   UNL     1      65.072  34.300  59.835  1.00  0.00     0.017 C 
ATOM     37  C   UNL     1      65.024  35.012  61.193  1.00  0.00     0.012 C 
ATOM     38  C   UNL     1      65.420  35.265  58.685  1.00  0.00     0.012 C 
ENDBRANCH   9  36
BRANCH   6  39
ATOM     39  C   UNL     1      60.748  31.115  57.670  1.00  0.00     0.264 C 
ATOM     40  O   UNL     1      59.579  30.898  58.088  1.00  0.00    -0.298 OA
ENDBRANCH   6  39
BRANCH   8  41
ATOM     41  O   UNL     1      62.335  35.394  59.334  1.00  0.00    -0.504 OA
ATOM     42  H   UNL     1      62.918  36.012  59.877  1.00  0.00     0.293 HD
ENDBRANCH   8  41
BRANCH   7  43
ATOM     43  O   UNL     1      60.472  33.874  58.029  1.00  0.00    -0.504 OA
ATOM     44  H   UNL     1      60.520  34.723  57.481  1.00  0.00     0.293 HD
ENDBRANCH   7  43
TORSDOF 11
ENDMDL
MODEL 5
REMARK VINA RESULT:    -4.970      6.787      9.821
REMARK INTER + INTRA:          -8.586
REMARK INTER:                  -6.890
REMARK INTRA:                  -1.696
REMARK UNBOUND:                -1.292
REMARK SMILES Cc1cc2c(C(C)C)c(O)c(O)c(C=O)c2c(O)c1-c1c(C)cc2c(C(C)C)c(O)c(O)c(C=O)c2c1O
REMARK SMILES IDX 1 1 2 2 3 3 4 4 16 5 13 6 11 7 9 8 5 9 17 10 19 11 20 12
REMARK SMILES IDX 37 13 21 14 36 15 23 16 22 17 24 18 33 19 25 20 31 21 29 22
REMARK SMILES IDX 38 23 34 25 35 26 26 27 27 28 28 29 32 30 30 32 18 34 6 36
REMARK SMILES IDX 7 37 8 38 14 39 15 40 10 41 12 43
REMARK H PARENT 38 24 32 31 30 33 18 35 10 42 12 44
REMARK Flexibility Score: inf
ROOT
ATOM      1  C   UNL     1      60.237  23.935  49.716  1.00  0.00     0.045 C 
ATOM      2  C   UNL     1      59.678  25.155  50.408  1.00  0.00    -0.039 A 
ATOM      3  C   UNL     1      58.297  25.348  50.446  1.00  0.00     0.013 A 
ATOM      4  C   UNL     1      57.714  26.448  51.115  1.00  0.00    -0.006 A 
ATOM      5  C   UNL     1      58.570  27.416  51.721  1.00  0.00     0.039 A 
ATOM      6  C   UNL     1      57.985  28.534  52.384  1.00  0.00     0.072 A 
ATOM      7  C   UNL     1      56.606  28.773  52.256  1.00  0.00     0.169 A 
ATOM      8  C   UNL     1      55.779  27.858  51.598  1.00  0.00     0.162 A 
ATOM      9  C   UNL     1      56.293  26.610  51.166  1.00  0.00     0.008 A 
ATOM     10  C   UNL     1      59.985  27.253  51.612  1.00  0.00     0.132 A 
ATOM     11  C   UNL     1      60.528  26.110  50.990  1.00  0.00     0.031 A 
ENDROOT
BRANCH  11  12
ATOM     12  C   UNL     1      62.002  25.925  50.925  1.00  0.00     0.031 A 
ATOM     13  C   UNL     1      62.750  26.544  49.900  1.00  0.00     0.132 A 
ATOM     14  C   UNL     1      62.649  25.145  51.897  1.00  0.00    -0.039 A 
ATOM     15  C   UNL     1      64.163  26.346  49.812  1.00  0.00     0.039 A 
ATOM     16  C   UNL     1      64.026  24.942  51.810  1.00  0.00     0.013 A 
ATOM     17  C   UNL     1      61.875  24.489  53.015  1.00  0.00     0.045 C 
ATOM     18  C   UNL     1      64.798  25.483  50.757  1.00  0.00    -0.006 A 
ATOM     19  C   UNL     1      64.967  27.007  48.835  1.00  0.00     0.072 A 
ATOM     20  C   UNL     1      66.196  25.208  50.656  1.00  0.00     0.008 A 
ATOM     21  C   UNL     1      66.369  26.850  48.855  1.00  0.00     0.169 A 
ATOM     22  C   UNL     1      66.974  25.990  49.777  1.00  0.00     0.162 A 
BRANCH  13  23
ATOM     23  O   UNL     1      62.089  27.363  48.978  1.00  0.00    -0.507 OA
ATOM     24  H   UNL     1      62.015  27.160  47.990  1.00  0.00     0.293 HD
ENDBRANCH  13  23
BRANCH  19  25
ATOM     25  C   UNL     1      64.382  27.880  47.798  1.00  0.00     0.264 C 
ATOM     26  O   UNL     1      64.500  29.131  47.873  1.00  0.00    -0.298 OA
ENDBRANCH  19  25
BRANCH  20  27
ATOM     27  C   UNL     1      66.868  24.097  51.482  1.00  0.00     0.017 C 
ATOM     28  C   UNL     1      67.778  24.691  52.560  1.00  0.00     0.012 C 
ATOM     29  C   UNL     1      67.616  23.055  50.629  1.00  0.00     0.012 C 
ENDBRANCH  20  27
BRANCH  21  30
ATOM     30  O   UNL     1      67.195  27.513  47.940  1.00  0.00    -0.504 OA
ATOM     31  H   UNL     1      68.071  27.959  48.183  1.00  0.00     0.293 HD
ENDBRANCH  21  30
BRANCH  22  32
ATOM     32  O   UNL     1      68.368  25.908  49.819  1.00  0.00    -0.504 OA
ATOM     33  H   UNL     1      68.959  26.672  50.124  1.00  0.00     0.293 HD
ENDBRANCH  22  32
ENDBRANCH  11  12
BRANCH  10  34
ATOM     34  O   UNL     1      60.848  28.249  52.085  1.00  0.00    -0.507 OA
ATOM     35  H   UNL     1      61.347  28.194  52.964  1.00  0.00     0.293 HD
ENDBRANCH  10  34
BRANCH   9  36
ATOM     36  C   UNL     1      55.353  25.434  50.842  1.00  0.00     0.017 C 
ATOM     37  C   UNL     1      54.714  25.568  49.454  1.00  0.00     0.012 C 
ATOM     38  C   UNL     1      54.309  25.137  51.936  1.00  0.00     0.012 C 
ENDBRANCH   9  36
BRANCH   6  39
ATOM     39  C   UNL     1      58.767  29.434  53.265  1.00  0.00     0.264 C 
ATOM     40  O   UNL     1      59.090  30.594  52.893  1.00  0.00    -0.298 OA
ENDBRANCH   6  39
BRANCH   8  41
ATOM     41  O   UNL     1      54.449  28.230  51.393  1.00  0.00    -0.504 OA
ATOM     42  H   UNL     1      53.669  27.611  51.547  1.00  0.00     0.293 HD
ENDBRANCH   8  41
BRANCH   7  43
ATOM     43  O   UNL     1      56.053  29.931  52.814  1.00  0.00    -0.504 OA
ATOM     44  H   UNL     1      56.612  30.649  53.258  1.00  0.00     0.293 HD
ENDBRANCH   7  43
TORSDOF 11
ENDMDL
MODEL 6
REMARK VINA RESULT:    -4.935      0.868      8.912
REMARK INTER + INTRA:          -8.536
REMARK INTER:                  -6.959
REMARK INTRA:                  -1.577
REMARK UNBOUND:                -1.292
REMARK SMILES Cc1cc2c(C(C)C)c(O)c(O)c(C=O)c2c(O)c1-c1c(C)cc2c(C(C)C)c(O)c(O)c(C=O)c2c1O
REMARK SMILES IDX 1 1 2 2 3 3 4 4 16 5 13 6 11 7 9 8 5 9 17 10 19 11 20 12
REMARK SMILES IDX 37 13 21 14 36 15 23 16 22 17 24 18 33 19 25 20 31 21 29 22
REMARK SMILES IDX 38 23 34 25 35 26 26 27 27 28 28 29 32 30 30 32 18 34 6 36
REMARK SMILES IDX 7 37 8 38 14 39 15 40 10 41 12 43
REMARK H PARENT 38 24 32 31 30 33 18 35 10 42 12 44
REMARK Flexibility Score: inf
ROOT
ATOM      1  C   UNL     1      60.792  30.092  56.112  1.00  0.00     0.045 C 
ATOM      2  C   UNL     1      60.170  29.341  57.265  1.00  0.00    -0.039 A 
ATOM      3  C   UNL     1      60.990  28.821  58.266  1.00  0.00     0.013 A 
ATOM      4  C   UNL     1      60.462  28.147  59.390  1.00  0.00    -0.006 A 
ATOM      5  C   UNL     1      59.051  27.948  59.471  1.00  0.00     0.039 A 
ATOM      6  C   UNL     1      58.517  27.255  60.596  1.00  0.00     0.072 A 
ATOM      7  C   UNL     1      59.387  26.609  61.491  1.00  0.00     0.169 A 
ATOM      8  C   UNL     1      60.773  26.746  61.366  1.00  0.00     0.162 A 
ATOM      9  C   UNL     1      61.321  27.648  60.419  1.00  0.00     0.008 A 
ATOM     10  C   UNL     1      58.223  28.415  58.405  1.00  0.00     0.132 A 
ATOM     11  C   UNL     1      58.782  29.137  57.330  1.00  0.00     0.031 A 
ENDROOT
BRANCH  11  12
ATOM     12  C   UNL     1      57.906  29.664  56.249  1.00  0.00     0.031 A 
ATOM     13  C   UNL     1      57.581  28.851  55.142  1.00  0.00     0.132 A 
ATOM     14  C   UNL     1      57.389  30.966  56.344  1.00  0.00    -0.039 A 
ATOM     15  C   UNL     1      56.766  29.359  54.083  1.00  0.00     0.039 A 
ATOM     16  C   UNL     1      56.600  31.469  55.310  1.00  0.00     0.013 A 
ATOM     17  C   UNL     1      57.704  31.847  57.529  1.00  0.00     0.045 C 
ATOM     18  C   UNL     1      56.315  30.714  54.150  1.00  0.00    -0.006 A 
ATOM     19  C   UNL     1      56.356  28.552  52.979  1.00  0.00     0.072 A 
ATOM     20  C   UNL     1      55.557  31.274  53.077  1.00  0.00     0.008 A 
ATOM     21  C   UNL     1      55.472  29.076  52.013  1.00  0.00     0.169 A 
ATOM     22  C   UNL     1      55.052  30.408  52.085  1.00  0.00     0.162 A 
BRANCH  13  23
ATOM     23  O   UNL     1      58.061  27.537  55.100  1.00  0.00    -0.507 OA
ATOM     24  H   UNL     1      58.342  27.010  55.916  1.00  0.00     0.293 HD
ENDBRANCH  13  23
BRANCH  19  25
ATOM     25  C   UNL     1      56.814  27.158  52.816  1.00  0.00     0.264 C 
ATOM     26  O   UNL     1      57.719  26.873  51.988  1.00  0.00    -0.298 OA
ENDBRANCH  19  25
BRANCH  20  27
ATOM     27  C   UNL     1      55.271  32.784  52.985  1.00  0.00     0.017 C 
ATOM     28  C   UNL     1      56.573  33.590  53.012  1.00  0.00     0.012 C 
ATOM     29  C   UNL     1      54.275  33.292  54.044  1.00  0.00     0.012 C 
ENDBRANCH  20  27
BRANCH  21  30
ATOM     30  O   UNL     1      55.016  28.303  50.938  1.00  0.00    -0.504 OA
ATOM     31  H   UNL     1      55.621  27.828  50.282  1.00  0.00     0.293 HD
ENDBRANCH  21  30
BRANCH  22  32
ATOM     32  O   UNL     1      54.122  30.880  51.155  1.00  0.00    -0.504 OA
ATOM     33  H   UNL     1      53.502  31.660  51.339  1.00  0.00     0.293 HD
ENDBRANCH  22  32
ENDBRANCH  11  12
BRANCH  10  34
ATOM     34  O   UNL     1      56.854  28.124  58.395  1.00  0.00    -0.507 OA
ATOM     35  H   UNL     1      56.309  27.997  57.551  1.00  0.00     0.293 HD
ENDBRANCH  10  34
BRANCH   9  36
ATOM     36  C   UNL     1      62.775  28.141  60.542  1.00  0.00     0.017 C 
ATOM     37  C   UNL     1      63.787  26.992  60.446  1.00  0.00     0.012 C 
ATOM     38  C   UNL     1      63.036  29.044  61.763  1.00  0.00     0.012 C 
ENDBRANCH   9  36
BRANCH   6  39
ATOM     39  C   UNL     1      57.067  27.237  60.904  1.00  0.00     0.264 C 
ATOM     40  O   UNL     1      56.375  26.198  60.730  1.00  0.00    -0.298 OA
ENDBRANCH   6  39
BRANCH   8  41
ATOM     41  O   UNL     1      61.571  25.967  62.206  1.00  0.00    -0.504 OA
ATOM     42  H   UNL     1      62.533  26.184  62.417  1.00  0.00     0.293 HD
ENDBRANCH   8  41
BRANCH   7  43
ATOM     43  O   UNL     1      58.858  25.837  62.531  1.00  0.00    -0.504 OA
ATOM     44  H   UNL     1      58.976  26.074  63.508  1.00  0.00     0.293 HD
ENDBRANCH   7  43
TORSDOF 11
ENDMDL
MODEL 7
REMARK VINA RESULT:    -4.933      5.792      8.119
REMARK INTER + INTRA:          -8.532
REMARK INTER:                  -6.939
REMARK INTRA:                  -1.593
REMARK UNBOUND:                -1.292
REMARK SMILES Cc1cc2c(C(C)C)c(O)c(O)c(C=O)c2c(O)c1-c1c(C)cc2c(C(C)C)c(O)c(O)c(C=O)c2c1O
REMARK SMILES IDX 1 1 2 2 3 3 4 4 16 5 13 6 11 7 9 8 5 9 17 10 19 11 20 12
REMARK SMILES IDX 37 13 21 14 36 15 23 16 22 17 24 18 33 19 25 20 31 21 29 22
REMARK SMILES IDX 38 23 34 25 35 26 26 27 27 28 28 29 32 30 30 32 18 34 6 36
REMARK SMILES IDX 7 37 8 38 14 39 15 40 10 41 12 43
REMARK H PARENT 38 24 32 31 30 33 18 35 10 42 12 44
REMARK Flexibility Score: inf
ROOT
ATOM      1  C   UNL     1      59.949  29.215  54.959  1.00  0.00     0.045 C 
ATOM      2  C   UNL     1      60.720  29.711  53.760  1.00  0.00    -0.039 A 
ATOM      3  C   UNL     1      61.119  28.804  52.779  1.00  0.00     0.013 A 
ATOM      4  C   UNL     1      61.806  29.215  51.615  1.00  0.00    -0.006 A 
ATOM      5  C   UNL     1      62.147  30.594  51.470  1.00  0.00     0.039 A 
ATOM      6  C   UNL     1      62.853  31.010  50.304  1.00  0.00     0.072 A 
ATOM      7  C   UNL     1      63.375  30.044  49.427  1.00  0.00     0.169 A 
ATOM      8  C   UNL     1      63.101  28.685  49.613  1.00  0.00     0.162 A 
ATOM      9  C   UNL     1      62.180  28.271  50.608  1.00  0.00     0.008 A 
ATOM     10  C   UNL     1      61.803  31.506  52.514  1.00  0.00     0.132 A 
ATOM     11  C   UNL     1      61.064  31.067  53.632  1.00  0.00     0.031 A 
ENDROOT
BRANCH  11  12
ATOM     12  C   UNL     1      60.667  32.034  54.691  1.00  0.00     0.031 A 
ATOM     13  C   UNL     1      61.522  32.273  55.788  1.00  0.00     0.132 A 
ATOM     14  C   UNL     1      59.447  32.720  54.585  1.00  0.00    -0.039 A 
ATOM     15  C   UNL     1      61.135  33.176  56.826  1.00  0.00     0.039 A 
ATOM     16  C   UNL     1      59.061  33.596  55.599  1.00  0.00     0.013 A 
ATOM     17  C   UNL     1      58.525  32.498  53.410  1.00  0.00     0.045 C 
ATOM     18  C   UNL     1      59.854  33.805  56.749  1.00  0.00    -0.006 A 
ATOM     19  C   UNL     1      61.996  33.500  57.918  1.00  0.00     0.072 A 
ATOM     20  C   UNL     1      59.407  34.660  57.804  1.00  0.00     0.008 A 
ATOM     21  C   UNL     1      61.601  34.471  58.862  1.00  0.00     0.169 A 
ATOM     22  C   UNL     1      60.339  35.067  58.781  1.00  0.00     0.162 A 
BRANCH  13  23
ATOM     23  O   UNL     1      62.758  31.619  55.840  1.00  0.00    -0.507 OA
ATOM     24  H   UNL     1      63.047  30.899  55.191  1.00  0.00     0.293 HD
ENDBRANCH  13  23
BRANCH  19  25
ATOM     25  C   UNL     1      63.316  32.861  58.091  1.00  0.00     0.264 C 
ATOM     26  O   UNL     1      63.479  31.948  58.942  1.00  0.00    -0.298 OA
ENDBRANCH  19  25
BRANCH  20  27
ATOM     27  C   UNL     1      57.951  35.150  57.891  1.00  0.00     0.017 C 
ATOM     28  C   UNL     1      56.979  33.969  57.971  1.00  0.00     0.012 C 
ATOM     29  C   UNL     1      57.556  36.125  56.765  1.00  0.00     0.012 C 
ENDBRANCH  20  27
BRANCH  21  30
ATOM     30  O   UNL     1      62.434  34.845  59.923  1.00  0.00    -0.504 OA
ATOM     31  H   UNL     1      62.128  34.934  60.883  1.00  0.00     0.293 HD
ENDBRANCH  21  30
BRANCH  22  32
ATOM     32  O   UNL     1      60.002  36.076  59.688  1.00  0.00    -0.504 OA
ATOM     33  H   UNL     1      59.598  35.890  60.598  1.00  0.00     0.293 HD
ENDBRANCH  22  32
ENDBRANCH  11  12
BRANCH  10  34
ATOM     34  O   UNL     1      62.234  32.837  52.459  1.00  0.00    -0.507 OA
ATOM     35  H   UNL     1      62.754  33.294  53.198  1.00  0.00     0.293 HD
ENDBRANCH  10  34
BRANCH   9  36
ATOM     36  C   UNL     1      61.536  26.873  50.559  1.00  0.00     0.017 C 
ATOM     37  C   UNL     1      62.577  25.751  50.660  1.00  0.00     0.012 C 
ATOM     38  C   UNL     1      60.568  26.661  49.379  1.00  0.00     0.012 C 
ENDBRANCH   9  36
BRANCH   6  39
ATOM     39  C   UNL     1      63.010  32.437  49.936  1.00  0.00     0.264 C 
ATOM     40  O   UNL     1      64.122  33.022  50.043  1.00  0.00    -0.298 OA
ENDBRANCH   6  39
BRANCH   8  41
ATOM     41  O   UNL     1      63.765  27.779  48.785  1.00  0.00    -0.504 OA
ATOM     42  H   UNL     1      64.289  26.990  49.131  1.00  0.00     0.293 HD
ENDBRANCH   8  41
BRANCH   7  43
ATOM     43  O   UNL     1      64.163  30.450  48.344  1.00  0.00    -0.504 OA
ATOM     44  H   UNL     1      65.125  30.158  48.223  1.00  0.00     0.293 HD
ENDBRANCH   7  43
TORSDOF 11
ENDMDL
MODEL 8
REMARK VINA RESULT:    -4.859      3.473      8.974
REMARK INTER + INTRA:          -8.424
REMARK INTER:                  -6.761
REMARK INTRA:                  -1.663
REMARK UNBOUND:                -1.292
REMARK SMILES Cc1cc2c(C(C)C)c(O)c(O)c(C=O)c2c(O)c1-c1c(C)cc2c(C(C)C)c(O)c(O)c(C=O)c2c1O
REMARK SMILES IDX 1 1 2 2 3 3 4 4 16 5 13 6 11 7 9 8 5 9 17 10 19 11 20 12
REMARK SMILES IDX 37 13 21 14 36 15 23 16 22 17 24 18 33 19 25 20 31 21 29 22
REMARK SMILES IDX 38 23 34 25 35 26 26 27 27 28 28 29 32 30 30 32 18 34 6 36
REMARK SMILES IDX 7 37 8 38 14 39 15 40 10 41 12 43
REMARK H PARENT 38 24 32 31 30 33 18 35 10 42 12 44
REMARK Flexibility Score: inf
ROOT
ATOM      1  C   UNL     1      56.186  27.339  55.356  1.00  0.00     0.045 C 
ATOM      2  C   UNL     1      57.182  27.126  56.471  1.00  0.00    -0.039 A 
ATOM      3  C   UNL     1      56.751  27.190  57.796  1.00  0.00     0.013 A 
ATOM      4  C   UNL     1      57.627  26.957  58.879  1.00  0.00    -0.006 A 
ATOM      5  C   UNL     1      59.005  26.701  58.606  1.00  0.00     0.039 A 
ATOM      6  C   UNL     1      59.894  26.481  59.697  1.00  0.00     0.072 A 
ATOM      7  C   UNL     1      59.453  26.717  61.010  1.00  0.00     0.169 A 
ATOM      8  C   UNL     1      58.117  27.039  61.270  1.00  0.00     0.162 A 
ATOM      9  C   UNL     1      57.156  27.000  60.229  1.00  0.00     0.008 A 
ATOM     10  C   UNL     1      59.455  26.713  57.251  1.00  0.00     0.132 A 
ATOM     11  C   UNL     1      58.538  26.888  56.194  1.00  0.00     0.031 A 
ENDROOT
BRANCH  11  12
ATOM     12  C   UNL     1      59.008  26.848  54.783  1.00  0.00     0.031 A 
ATOM     13  C   UNL     1      59.530  28.012  54.177  1.00  0.00     0.132 A 
ATOM     14  C   UNL     1      58.948  25.645  54.062  1.00  0.00    -0.039 A 
ATOM     15  C   UNL     1      59.955  27.990  52.812  1.00  0.00     0.039 A 
ATOM     16  C   UNL     1      59.353  25.621  52.728  1.00  0.00     0.013 A 
ATOM     17  C   UNL     1      58.414  24.382  54.694  1.00  0.00     0.045 C 
ATOM     18  C   UNL     1      59.810  26.782  52.064  1.00  0.00    -0.006 A 
ATOM     19  C   UNL     1      60.552  29.123  52.180  1.00  0.00     0.072 A 
ATOM     20  C   UNL     1      60.160  26.745  50.679  1.00  0.00     0.008 A 
ATOM     21  C   UNL     1      61.041  29.017  50.861  1.00  0.00     0.169 A 
ATOM     22  C   UNL     1      60.878  27.832  50.138  1.00  0.00     0.162 A 
BRANCH  13  23
ATOM     23  O   UNL     1      59.634  29.183  54.935  1.00  0.00    -0.507 OA
ATOM     24  H   UNL     1      59.216  29.307  55.848  1.00  0.00     0.293 HD
ENDBRANCH  13  23
BRANCH  19  25
ATOM     25  C   UNL     1      60.697  30.420  52.871  1.00  0.00     0.264 C 
ATOM     26  O   UNL     1      61.816  30.786  53.318  1.00  0.00    -0.298 OA
ENDBRANCH  19  25
BRANCH  20  27
ATOM     27  C   UNL     1      59.786  25.556  49.777  1.00  0.00     0.017 C 
ATOM     28  C   UNL     1      58.287  25.256  49.860  1.00  0.00     0.012 C 
ATOM     29  C   UNL     1      60.625  24.291  50.038  1.00  0.00     0.012 C 
ENDBRANCH  20  27
BRANCH  21  30
ATOM     30  O   UNL     1      61.669  30.093  50.222  1.00  0.00    -0.504 OA
ATOM     31  H   UNL     1      61.201  30.733  49.593  1.00  0.00     0.293 HD
ENDBRANCH  21  30
BRANCH  22  32
ATOM     32  O   UNL     1      61.434  27.732  48.859  1.00  0.00    -0.504 OA
ATOM     33  H   UNL     1      61.868  28.512  48.382  1.00  0.00     0.293 HD
ENDBRANCH  22  32
ENDBRANCH  11  12
BRANCH  10  34
ATOM     34  O   UNL     1      60.819  26.591  56.959  1.00  0.00    -0.507 OA
ATOM     35  H   UNL     1      61.557  26.971  57.538  1.00  0.00     0.293 HD
ENDBRANCH  10  34
BRANCH   9  36
ATOM     36  C   UNL     1      55.651  26.921  60.543  1.00  0.00     0.017 C 
ATOM     37  C   UNL     1      55.099  28.249  61.078  1.00  0.00     0.012 C 
ATOM     38  C   UNL     1      55.249  25.726  61.429  1.00  0.00     0.012 C 
ENDBRANCH   9  36
BRANCH   6  39
ATOM     39  C   UNL     1      61.264  25.946  59.511  1.00  0.00     0.264 C 
ATOM     40  O   UNL     1      62.277  26.687  59.626  1.00  0.00    -0.298 OA
ENDBRANCH   6  39
BRANCH   8  41
ATOM     41  O   UNL     1      57.787  27.393  62.580  1.00  0.00    -0.504 OA
ATOM     42  H   UNL     1      57.155  26.861  63.157  1.00  0.00     0.293 HD
ENDBRANCH   8  41
BRANCH   7  43
ATOM     43  O   UNL     1      60.359  26.607  62.072  1.00  0.00    -0.504 OA
ATOM     44  H   UNL     1      60.072  26.407  63.022  1.00  0.00     0.293 HD
ENDBRANCH   7  43
TORSDOF 11
ENDMDL
MODEL 9
REMARK VINA RESULT:    -3.291      3.015      4.212
REMARK INTER + INTRA:          -6.122
REMARK INTER:                  -4.437
REMARK INTRA:                  -1.686
REMARK UNBOUND:                -1.292
REMARK SMILES Cc1cc2c(C(C)C)c(O)c(O)c(C=O)c2c(O)c1-c1c(C)cc2c(C(C)C)c(O)c(O)c(C=O)c2c1O
REMARK SMILES IDX 1 1 2 2 3 3 4 4 16 5 13 6 11 7 9 8 5 9 17 10 19 11 20 12
REMARK SMILES IDX 37 13 21 14 36 15 23 16 22 17 24 18 33 19 25 20 31 21 29 22
REMARK SMILES IDX 38 23 34 25 35 26 26 27 27 28 28 29 32 30 30 32 18 34 6 36
REMARK SMILES IDX 7 37 8 38 14 39 15 40 10 41 12 43
REMARK H PARENT 38 24 32 31 30 33 18 35 10 42 12 44
REMARK Flexibility Score: inf
ROOT
ATOM      1  C   UNL     1      58.813  33.896  58.405  1.00  0.00     0.045 C 
ATOM      2  C   UNL     1      58.561  33.145  57.120  1.00  0.00    -0.039 A 
ATOM      3  C   UNL     1      57.425  33.440  56.365  1.00  0.00     0.013 A 
ATOM      4  C   UNL     1      57.159  32.801  55.134  1.00  0.00    -0.006 A 
ATOM      5  C   UNL     1      58.054  31.786  54.679  1.00  0.00     0.039 A 
ATOM      6  C   UNL     1      57.780  31.129  53.444  1.00  0.00     0.072 A 
ATOM      7  C   UNL     1      56.546  31.340  52.805  1.00  0.00     0.169 A 
ATOM      8  C   UNL     1      55.638  32.284  53.294  1.00  0.00     0.162 A 
ATOM      9  C   UNL     1      56.003  33.140  54.363  1.00  0.00     0.008 A 
ATOM     10  C   UNL     1      59.173  31.435  55.493  1.00  0.00     0.132 A 
ATOM     11  C   UNL     1      59.439  32.138  56.686  1.00  0.00     0.031 A 
ENDROOT
BRANCH  11  12
ATOM     12  C   UNL     1      60.636  31.799  57.502  1.00  0.00     0.031 A 
ATOM     13  C   UNL     1      60.576  30.750  58.445  1.00  0.00     0.132 A 
ATOM     14  C   UNL     1      61.830  32.514  57.318  1.00  0.00    -0.039 A 
ATOM     15  C   UNL     1      61.712  30.438  59.255  1.00  0.00     0.039 A 
ATOM     16  C   UNL     1      62.937  32.220  58.112  1.00  0.00     0.013 A 
ATOM     17  C   UNL     1      61.925  33.627  56.301  1.00  0.00     0.045 C 
ATOM     18  C   UNL     1      62.894  31.228  59.118  1.00  0.00    -0.006 A 
ATOM     19  C   UNL     1      61.718  29.343  60.172  1.00  0.00     0.072 A 
ATOM     20  C   UNL     1      64.023  30.988  59.961  1.00  0.00     0.008 A 
ATOM     21  C   UNL     1      62.898  29.021  60.876  1.00  0.00     0.169 A 
ATOM     22  C   UNL     1      64.042  29.813  60.741  1.00  0.00     0.162 A 
BRANCH  13  23
ATOM     23  O   UNL     1      59.392  30.014  58.567  1.00  0.00    -0.507 OA
ATOM     24  H   UNL     1      58.539  30.375  58.975  1.00  0.00     0.293 HD
ENDBRANCH  13  23
BRANCH  19  25
ATOM     25  C   UNL     1      60.524  28.506  60.402  1.00  0.00     0.264 C 
ATOM     26  O   UNL     1      60.448  27.349  59.911  1.00  0.00    -0.298 OA
ENDBRANCH  19  25
BRANCH  20  27
ATOM     27  C   UNL     1      65.210  31.965  60.028  1.00  0.00     0.017 C 
ATOM     28  C   UNL     1      64.753  33.351  60.492  1.00  0.00     0.012 C 
ATOM     29  C   UNL     1      66.018  32.050  58.719  1.00  0.00     0.012 C 
ENDBRANCH  20  27
BRANCH  21  30
ATOM     30  O   UNL     1      62.956  27.931  61.751  1.00  0.00    -0.504 OA
ATOM     31  H   UNL     1      63.302  27.015  61.497  1.00  0.00     0.293 HD
ENDBRANCH  21  30
BRANCH  22  32
ATOM     32  O   UNL     1      65.217  29.430  61.395  1.00  0.00    -0.504 OA
ATOM     33  H   UNL     1      66.102  29.310  60.918  1.00  0.00     0.293 HD
ENDBRANCH  22  32
ENDBRANCH  11  12
BRANCH  10  34
ATOM     34  O   UNL     1      59.996  30.359  55.136  1.00  0.00    -0.507 OA
ATOM     35  H   UNL     1      59.946  29.443  55.563  1.00  0.00     0.293 HD
ENDBRANCH  10  34
BRANCH   9  36
ATOM     36  C   UNL     1      55.227  34.442  54.636  1.00  0.00     0.017 C 
ATOM     37  C   UNL     1      53.875  34.181  55.312  1.00  0.00     0.012 C 
ATOM     38  C   UNL     1      55.094  35.370  53.412  1.00  0.00     0.012 C 
ENDBRANCH   9  36
BRANCH   6  39
ATOM     39  C   UNL     1      58.777  30.269  52.763  1.00  0.00     0.264 C 
ATOM     40  O   UNL     1      58.646  29.016  52.731  1.00  0.00    -0.298 OA
ENDBRANCH   6  39
BRANCH   8  41
ATOM     41  O   UNL     1      54.382  32.338  52.687  1.00  0.00    -0.504 OA
ATOM     42  H   UNL     1      53.913  31.531  52.306  1.00  0.00     0.293 HD
ENDBRANCH   8  41
BRANCH   7  43
ATOM     43  O   UNL     1      56.234  30.610  51.652  1.00  0.00    -0.504 OA
ATOM     44  H   UNL     1      56.604  29.686  51.468  1.00  0.00     0.293 HD
ENDBRANCH   7  43
TORSDOF 11
ENDMDL
