MODEL 1
REMARK VINA RESULT:    -4.096      0.000      0.000
REMARK INTER + INTRA:          -6.406
REMARK INTER:                  -6.251
REMARK INTRA:                  -0.155
REMARK UNBOUND:                -0.155
REMARK SMILES CC1=CCC[C@@H](C)C(=O)C[C@@H](C(C)C)C(=O)C1
REMARK SMILES IDX 8 1 9 2 6 3 7 4 5 5 4 6 3 7 2 8 1 9 10 11 11 12 15 13 16 14
REMARK SMILES IDX 17 15 12 17 13 18 14 19
REMARK H PARENT
REMARK Flexibility Score: 70.00
ROOT
ATOM      1  C   UNL     1     -13.160  11.365 -29.857  1.00  0.00     0.136 C 
ATOM      2  O   UNL     1     -12.098  10.907 -30.255  1.00  0.00    -0.299 OA
ENDROOT
BRANCH   1   3
ATOM      3  C   UNL     1     -13.431  11.440 -28.368  1.00  0.00     0.053 C 
ATOM      4  C   UNL     1     -12.219  10.896 -27.604  1.00  0.00     0.016 C 
BRANCH   3   5
ATOM      5  C   UNL     1     -14.708  10.663 -27.965  1.00  0.00     0.015 C 
BRANCH   5   6
ATOM      6  C   UNL     1     -15.855  11.558 -27.472  1.00  0.00     0.028 C 
BRANCH   6   7
ATOM      7  C   UNL     1     -17.089  11.401 -28.329  1.00  0.00    -0.028 C 
ATOM      8  C   UNL     1     -17.537  12.313 -29.222  1.00  0.00    -0.070 CG0
ATOM      9  C   UNL     1     -18.780  11.984 -30.008  1.00  0.00     0.039 C 
ATOM     10  G   UNL     1     -16.839  13.640 -29.464  1.00  0.00     0.000 G0
ENDBRANCH   6   7
ENDBRANCH   5   6
ENDBRANCH   3   5
ENDBRANCH   1   3
BRANCH   1  11
ATOM     11  C   UNL     1     -14.157  11.889 -30.865  1.00  0.00     0.087 C 
BRANCH  11  12
ATOM     12  C   UNL     1     -14.467  13.398 -30.698  1.00  0.00     0.066 C 
BRANCH  12  13
ATOM     13  C   UNL     1     -15.968  13.668 -30.721  1.00  0.00     0.140 C 
ATOM     14  O   UNL     1     -16.504  13.956 -31.782  1.00  0.00    -0.299 OA
BRANCH  13  15
ATOM     15  C   UNL     1     -16.832  13.642 -29.475  1.00  0.00     0.106 CG0
ATOM     16  G   UNL     1     -17.529  12.316 -29.227  1.00  0.00     0.000 G0
ENDBRANCH  13  15
ENDBRANCH  12  13
BRANCH  12  17
ATOM     17  C   UNL     1     -13.686  14.262 -31.737  1.00  0.00    -0.006 C 
ATOM     18  C   UNL     1     -12.638  13.423 -32.486  1.00  0.00     0.008 C 
ATOM     19  C   UNL     1     -13.020  15.517 -31.144  1.00  0.00     0.008 C 
ENDBRANCH  12  17
ENDBRANCH  11  12
ENDBRANCH   1  11
TORSDOF 1
ENDMDL
MODEL 2
REMARK VINA RESULT:    -4.009      1.830      4.739
REMARK INTER + INTRA:          -6.273
REMARK INTER:                  -6.376
REMARK INTRA:                   0.103
REMARK UNBOUND:                -0.155
REMARK SMILES CC1=CCC[C@@H](C)C(=O)C[C@@H](C(C)C)C(=O)C1
REMARK SMILES IDX 8 1 9 2 6 3 7 4 5 5 4 6 3 7 2 8 1 9 10 11 11 12 15 13 16 14
REMARK SMILES IDX 17 15 12 17 13 18 14 19
REMARK H PARENT
REMARK Flexibility Score: 70.00
ROOT
ATOM      1  C   UNL     1     -16.866  12.200 -28.690  1.00  0.00     0.136 C 
ATOM      2  O   UNL     1     -16.866  13.231 -28.031  1.00  0.00    -0.299 OA
ENDROOT
BRANCH   1   3
ATOM      3  C   UNL     1     -18.019  11.914 -29.631  1.00  0.00     0.053 C 
ATOM      4  C   UNL     1     -18.307  10.409 -29.639  1.00  0.00     0.016 C 
BRANCH   3   5
ATOM      5  C   UNL     1     -17.736  12.411 -31.071  1.00  0.00     0.015 C 
BRANCH   5   6
ATOM      6  C   UNL     1     -16.842  13.658 -31.138  1.00  0.00     0.028 C 
BRANCH   6   7
ATOM      7  C   UNL     1     -15.702  13.473 -32.112  1.00  0.00    -0.028 C 
ATOM      8  C   UNL     1     -14.391  13.469 -31.783  1.00  0.00    -0.070 CG0
ATOM      9  C   UNL     1     -13.384  13.252 -32.884  1.00  0.00     0.039 C 
ATOM     10  G   UNL     1     -13.897  13.668 -30.360  1.00  0.00     0.000 G0
ENDBRANCH   6   7
ENDBRANCH   5   6
ENDBRANCH   3   5
ENDBRANCH   1   3
BRANCH   1  11
ATOM     11  C   UNL     1     -15.687  11.260 -28.582  1.00  0.00     0.087 C 
BRANCH  11  12
ATOM     12  C   UNL     1     -14.344  11.984 -28.310  1.00  0.00     0.066 C 
BRANCH  12  13
ATOM     13  C   UNL     1     -13.634  12.353 -29.608  1.00  0.00     0.140 C 
ATOM     14  O   UNL     1     -12.786  11.595 -30.057  1.00  0.00    -0.299 OA
BRANCH  13  15
ATOM     15  C   UNL     1     -13.894  13.647 -30.354  1.00  0.00     0.106 CG0
ATOM     16  G   UNL     1     -14.390  13.459 -31.776  1.00  0.00     0.000 G0
ENDBRANCH  13  15
ENDBRANCH  12  13
BRANCH  12  17
ATOM     17  C   UNL     1     -13.438  11.162 -27.341  1.00  0.00    -0.006 C 
ATOM     18  C   UNL     1     -14.275  10.247 -26.434  1.00  0.00     0.008 C 
ATOM     19  C   UNL     1     -12.490  12.019 -26.483  1.00  0.00     0.008 C 
ENDBRANCH  12  17
ENDBRANCH  11  12
ENDBRANCH   1  11
TORSDOF 1
ENDMDL
MODEL 3
REMARK VINA RESULT:    -3.503      1.902      3.945
REMARK INTER + INTRA:          -5.501
REMARK INTER:                  -5.678
REMARK INTRA:                   0.177
REMARK UNBOUND:                -0.155
REMARK SMILES CC1=CCC[C@@H](C)C(=O)C[C@@H](C(C)C)C(=O)C1
REMARK SMILES IDX 8 1 9 2 6 3 7 4 5 5 4 6 3 7 2 8 1 9 10 11 11 12 15 13 16 14
REMARK SMILES IDX 17 15 12 17 13 18 14 19
REMARK H PARENT
REMARK Flexibility Score: 70.00
ROOT
ATOM      1  C   UNL     1     -16.932  13.217 -29.761  1.00  0.00     0.136 C 
ATOM      2  O   UNL     1     -17.152  13.691 -28.655  1.00  0.00    -0.299 OA
ENDROOT
BRANCH   1   3
ATOM      3  C   UNL     1     -17.613  11.927 -30.171  1.00  0.00     0.053 C 
ATOM      4  C   UNL     1     -19.123  12.163 -30.281  1.00  0.00     0.016 C 
BRANCH   3   5
ATOM      5  C   UNL     1     -17.326  10.773 -29.179  1.00  0.00     0.015 C 
BRANCH   5   6
ATOM      6  C   UNL     1     -16.099   9.924 -29.546  1.00  0.00     0.028 C 
BRANCH   6   7
ATOM      7  C   UNL     1     -15.054   9.958 -28.456  1.00  0.00    -0.028 C 
ATOM      8  C   UNL     1     -13.848  10.562 -28.554  1.00  0.00    -0.070 CG0
ATOM      9  C   UNL     1     -12.932  10.514 -27.357  1.00  0.00     0.039 C 
ATOM     10  G   UNL     1     -13.387  11.285 -29.807  1.00  0.00     0.000 G0
ENDBRANCH   6   7
ENDBRANCH   5   6
ENDBRANCH   3   5
ENDBRANCH   1   3
BRANCH   1  11
ATOM     11  C   UNL     1     -16.021  13.961 -30.710  1.00  0.00     0.087 C 
BRANCH  11  12
ATOM     12  C   UNL     1     -14.782  13.140 -31.147  1.00  0.00     0.066 C 
BRANCH  12  13
ATOM     13  C   UNL     1     -13.953  12.695 -29.946  1.00  0.00     0.140 C 
ATOM     14  O   UNL     1     -13.695  13.507 -29.069  1.00  0.00    -0.299 OA
BRANCH  13  15
ATOM     15  C   UNL     1     -13.386  11.296 -29.806  1.00  0.00     0.106 CG0
ATOM     16  G   UNL     1     -13.843  10.560 -28.559  1.00  0.00     0.000 G0
ENDBRANCH  13  15
ENDBRANCH  12  13
BRANCH  12  17
ATOM     17  C   UNL     1     -13.935  13.905 -32.212  1.00  0.00    -0.006 C 
ATOM     18  C   UNL     1     -12.893  12.983 -32.864  1.00  0.00     0.008 C 
ATOM     19  C   UNL     1     -13.246  15.174 -31.678  1.00  0.00     0.008 C 
ENDBRANCH  12  17
ENDBRANCH  11  12
ENDBRANCH   1  11
TORSDOF 1
ENDMDL
MODEL 4
REMARK VINA RESULT:    -3.461      1.580      3.943
REMARK INTER + INTRA:          -5.437
REMARK INTER:                  -5.690
REMARK INTRA:                   0.253
REMARK UNBOUND:                -0.155
REMARK SMILES CC1=CCC[C@@H](C)C(=O)C[C@@H](C(C)C)C(=O)C1
REMARK SMILES IDX 8 1 9 2 6 3 7 4 5 5 4 6 3 7 2 8 1 9 10 11 11 12 15 13 16 14
REMARK SMILES IDX 17 15 12 17 13 18 14 19
REMARK H PARENT
REMARK Flexibility Score: 70.00
ROOT
ATOM      1  C   UNL     1     -12.882  12.168 -30.890  1.00  0.00     0.136 C 
ATOM      2  O   UNL     1     -12.110  11.361 -31.391  1.00  0.00    -0.299 OA
ENDROOT
BRANCH   1   3
ATOM      3  C   UNL     1     -13.505  13.243 -31.757  1.00  0.00     0.053 C 
ATOM      4  C   UNL     1     -12.786  13.286 -33.109  1.00  0.00     0.016 C 
BRANCH   3   5
ATOM      5  C   UNL     1     -13.459  14.638 -31.084  1.00  0.00     0.015 C 
BRANCH   5   6
ATOM      6  C   UNL     1     -14.771  15.043 -30.394  1.00  0.00     0.028 C 
BRANCH   6   7
ATOM      7  C   UNL     1     -15.946  14.261 -30.933  1.00  0.00    -0.028 C 
ATOM      8  C   UNL     1     -16.524  13.204 -30.318  1.00  0.00    -0.070 CG0
ATOM      9  C   UNL     1     -17.704  12.551 -30.991  1.00  0.00     0.039 C 
ATOM     10  G   UNL     1     -16.038  12.658 -28.986  1.00  0.00     0.000 G0
ENDBRANCH   6   7
ENDBRANCH   5   6
ENDBRANCH   3   5
ENDBRANCH   1   3
BRANCH   1  11
ATOM     11  C   UNL     1     -13.230  12.038 -29.426  1.00  0.00     0.087 C 
BRANCH  11  12
ATOM     12  C   UNL     1     -14.132  10.818 -29.112  1.00  0.00     0.066 C 
BRANCH  12  13
ATOM     13  C   UNL     1     -15.600  11.220 -29.001  1.00  0.00     0.140 C 
ATOM     14  O   UNL     1     -16.455  10.346 -28.976  1.00  0.00    -0.299 OA
BRANCH  13  15
ATOM     15  C   UNL     1     -16.061  12.664 -28.968  1.00  0.00     0.106 CG0
ATOM     16  G   UNL     1     -16.526  13.201 -30.311  1.00  0.00     0.000 G0
ENDBRANCH  13  15
ENDBRANCH  12  13
BRANCH  12  17
ATOM     17  C   UNL     1     -13.626  10.040 -27.857  1.00  0.00    -0.006 C 
ATOM     18  C   UNL     1     -14.275  10.573 -26.570  1.00  0.00     0.008 C 
ATOM     19  C   UNL     1     -12.095  10.024 -27.699  1.00  0.00     0.008 C 
ENDBRANCH  12  17
ENDBRANCH  11  12
ENDBRANCH   1  11
TORSDOF 1
ENDMDL
MODEL 5
REMARK VINA RESULT:    -3.380      8.997     11.820
REMARK INTER + INTRA:          -5.313
REMARK INTER:                  -5.352
REMARK INTRA:                   0.039
REMARK UNBOUND:                -0.155
REMARK SMILES CC1=CCC[C@@H](C)C(=O)C[C@@H](C(C)C)C(=O)C1
REMARK SMILES IDX 8 1 9 2 6 3 7 4 5 5 4 6 3 7 2 8 1 9 10 11 11 12 15 13 16 14
REMARK SMILES IDX 17 15 12 17 13 18 14 19
REMARK H PARENT
REMARK Flexibility Score: 70.00
ROOT
ATOM      1  C   UNL     1     -27.649  13.186 -31.098  1.00  0.00     0.136 C 
ATOM      2  O   UNL     1     -27.424  13.218 -32.300  1.00  0.00    -0.299 OA
ENDROOT
BRANCH   1   3
ATOM      3  C   UNL     1     -28.999  12.708 -30.602  1.00  0.00     0.053 C 
ATOM      4  C   UNL     1     -29.947  13.905 -30.477  1.00  0.00     0.016 C 
BRANCH   3   5
ATOM      5  C   UNL     1     -28.895  11.965 -29.247  1.00  0.00     0.015 C 
BRANCH   5   6
ATOM      6  C   UNL     1     -28.371  10.526 -29.361  1.00  0.00     0.028 C 
BRANCH   6   7
ATOM      7  C   UNL     1     -27.301  10.241 -28.333  1.00  0.00    -0.028 C 
ATOM      8  C   UNL     1     -25.969  10.300 -28.561  1.00  0.00    -0.070 CG0
ATOM      9  C   UNL     1     -25.040  10.002 -27.411  1.00  0.00     0.039 C 
ATOM     10  G   UNL     1     -25.379  10.657 -29.913  1.00  0.00     0.000 G0
ENDBRANCH   6   7
ENDBRANCH   5   6
ENDBRANCH   3   5
ENDBRANCH   1   3
BRANCH   1  11
ATOM     11  C   UNL     1     -26.552  13.580 -30.135  1.00  0.00     0.087 C 
BRANCH  11  12
ATOM     12  C   UNL     1     -25.131  13.225 -30.641  1.00  0.00     0.066 C 
BRANCH  12  13
ATOM     13  C   UNL     1     -24.594  11.968 -29.963  1.00  0.00     0.140 C 
ATOM     14  O   UNL     1     -23.484  11.997 -29.450  1.00  0.00    -0.299 OA
BRANCH  13  15
ATOM     15  C   UNL     1     -25.354  10.656 -29.934  1.00  0.00     0.106 CG0
ATOM     16  G   UNL     1     -25.966  10.320 -28.585  1.00  0.00     0.000 G0
ENDBRANCH  13  15
ENDBRANCH  12  13
BRANCH  12  17
ATOM     17  C   UNL     1     -24.158  14.439 -30.513  1.00  0.00    -0.006 C 
ATOM     18  C   UNL     1     -24.913  15.773 -30.619  1.00  0.00     0.008 C 
ATOM     19  C   UNL     1     -22.990  14.420 -31.515  1.00  0.00     0.008 C 
ENDBRANCH  12  17
ENDBRANCH  11  12
ENDBRANCH   1  11
TORSDOF 1
ENDMDL
MODEL 6
REMARK VINA RESULT:    -3.198      8.575     11.578
REMARK INTER + INTRA:          -5.035
REMARK INTER:                  -5.116
REMARK INTRA:                   0.080
REMARK UNBOUND:                -0.155
REMARK SMILES CC1=CCC[C@@H](C)C(=O)C[C@@H](C(C)C)C(=O)C1
REMARK SMILES IDX 8 1 9 2 6 3 7 4 5 5 4 6 3 7 2 8 1 9 10 11 11 12 15 13 16 14
REMARK SMILES IDX 17 15 12 17 13 18 14 19
REMARK H PARENT
REMARK Flexibility Score: 70.00
ROOT
ATOM      1  C   UNL     1     -24.393  13.397 -30.113  1.00  0.00     0.136 C 
ATOM      2  O   UNL     1     -23.204  13.477 -30.390  1.00  0.00    -0.299 OA
ENDROOT
BRANCH   1   3
ATOM      3  C   UNL     1     -25.391  14.274 -30.840  1.00  0.00     0.053 C 
ATOM      4  C   UNL     1     -25.245  15.720 -30.353  1.00  0.00     0.016 C 
BRANCH   3   5
ATOM      5  C   UNL     1     -26.849  13.790 -30.643  1.00  0.00     0.015 C 
BRANCH   5   6
ATOM      6  C   UNL     1     -27.352  12.853 -31.752  1.00  0.00     0.028 C 
BRANCH   6   7
ATOM      7  C   UNL     1     -28.465  11.958 -31.260  1.00  0.00    -0.028 C 
ATOM      8  C   UNL     1     -28.307  10.686 -30.830  1.00  0.00    -0.070 CG0
ATOM      9  C   UNL     1     -29.528   9.941 -30.355  1.00  0.00     0.039 C 
ATOM     10  G   UNL     1     -26.959   9.987 -30.803  1.00  0.00     0.000 G0
ENDBRANCH   6   7
ENDBRANCH   5   6
ENDBRANCH   3   5
ENDBRANCH   1   3
BRANCH   1  11
ATOM     11  C   UNL     1     -24.840  12.384 -29.083  1.00  0.00     0.087 C 
BRANCH  11  12
ATOM     12  C   UNL     1     -24.770  10.920 -29.587  1.00  0.00     0.066 C 
BRANCH  12  13
ATOM     13  C   UNL     1     -26.140  10.250 -29.551  1.00  0.00     0.140 C 
ATOM     14  O   UNL     1     -26.590   9.876 -28.477  1.00  0.00    -0.299 OA
BRANCH  13  15
ATOM     15  C   UNL     1     -26.959   9.978 -30.797  1.00  0.00     0.106 CG0
ATOM     16  G   UNL     1     -28.312  10.668 -30.816  1.00  0.00     0.000 G0
ENDBRANCH  13  15
ENDBRANCH  12  13
BRANCH  12  17
ATOM     17  C   UNL     1     -23.681  10.104 -28.822  1.00  0.00    -0.006 C 
ATOM     18  C   UNL     1     -23.680  10.440 -27.323  1.00  0.00     0.008 C 
ATOM     19  C   UNL     1     -22.259  10.260 -29.391  1.00  0.00     0.008 C 
ENDBRANCH  12  17
ENDBRANCH  11  12
ENDBRANCH   1  11
TORSDOF 1
ENDMDL
MODEL 7
REMARK VINA RESULT:    -2.926      9.592     12.390
REMARK INTER + INTRA:          -4.622
REMARK INTER:                  -5.143
REMARK INTRA:                   0.521
REMARK UNBOUND:                -0.155
REMARK SMILES CC1=CCC[C@@H](C)C(=O)C[C@@H](C(C)C)C(=O)C1
REMARK SMILES IDX 8 1 9 2 6 3 7 4 5 5 4 6 3 7 2 8 1 9 10 11 11 12 15 13 16 14
REMARK SMILES IDX 17 15 12 17 13 18 14 19
REMARK H PARENT
REMARK Flexibility Score: 70.00
ROOT
ATOM      1  C   UNL     1     -27.922  10.358 -28.499  1.00  0.00     0.136 C 
ATOM      2  O   UNL     1     -27.763  10.342 -27.286  1.00  0.00    -0.299 OA
ENDROOT
BRANCH   1   3
ATOM      3  C   UNL     1     -29.232  10.854 -29.076  1.00  0.00     0.053 C 
ATOM      4  C   UNL     1     -29.412  10.287 -30.488  1.00  0.00     0.016 C 
BRANCH   3   5
ATOM      5  C   UNL     1     -29.310  12.400 -29.108  1.00  0.00     0.015 C 
BRANCH   5   6
ATOM      6  C   UNL     1     -28.920  13.018 -30.460  1.00  0.00     0.028 C 
BRANCH   6   7
ATOM      7  C   UNL     1     -27.749  13.962 -30.321  1.00  0.00    -0.028 C 
ATOM      8  C   UNL     1     -26.586  13.863 -31.004  1.00  0.00    -0.070 CG0
ATOM      9  C   UNL     1     -25.526  14.906 -30.755  1.00  0.00     0.039 C 
ATOM     10  G   UNL     1     -26.310  12.756 -32.006  1.00  0.00     0.000 G0
ENDBRANCH   6   7
ENDBRANCH   5   6
ENDBRANCH   3   5
ENDBRANCH   1   3
BRANCH   1  11
ATOM     11  C   UNL     1     -26.781   9.929 -29.394  1.00  0.00     0.087 C 
BRANCH  11  12
ATOM     12  C   UNL     1     -25.941  11.113 -29.934  1.00  0.00     0.066 C 
BRANCH  12  13
ATOM     13  C   UNL     1     -26.209  11.361 -31.415  1.00  0.00     0.140 C 
ATOM     14  O   UNL     1     -26.307  10.403 -32.169  1.00  0.00    -0.299 OA
BRANCH  13  15
ATOM     15  C   UNL     1     -26.315  12.749 -32.015  1.00  0.00     0.106 CG0
ATOM     16  G   UNL     1     -26.577  13.849 -31.001  1.00  0.00     0.000 G0
ENDBRANCH  13  15
ENDBRANCH  12  13
BRANCH  12  17
ATOM     17  C   UNL     1     -24.423  10.928 -29.621  1.00  0.00    -0.006 C 
ATOM     18  C   UNL     1     -24.212  10.285 -28.242  1.00  0.00     0.008 C 
ATOM     19  C   UNL     1     -23.594  12.220 -29.725  1.00  0.00     0.008 C 
ENDBRANCH  12  17
ENDBRANCH  11  12
ENDBRANCH   1  11
TORSDOF 1
ENDMDL
MODEL 8
REMARK VINA RESULT:    -2.408      8.878     11.252
REMARK INTER + INTRA:          -3.830
REMARK INTER:                  -3.965
REMARK INTRA:                   0.135
REMARK UNBOUND:                -0.155
REMARK SMILES CC1=CCC[C@@H](C)C(=O)C[C@@H](C(C)C)C(=O)C1
REMARK SMILES IDX 8 1 9 2 6 3 7 4 5 5 4 6 3 7 2 8 1 9 10 11 11 12 15 13 16 14
REMARK SMILES IDX 17 15 12 17 13 18 14 19
REMARK H PARENT
REMARK Flexibility Score: 70.00
ROOT
ATOM      1  C   UNL     1     -24.872  10.501 -28.410  1.00  0.00     0.136 C 
ATOM      2  O   UNL     1     -24.629  10.245 -27.239  1.00  0.00    -0.299 OA
ENDROOT
BRANCH   1   3
ATOM      3  C   UNL     1     -23.730  10.776 -29.368  1.00  0.00     0.053 C 
ATOM      4  C   UNL     1     -22.543   9.875 -29.014  1.00  0.00     0.016 C 
BRANCH   3   5
ATOM      5  C   UNL     1     -23.296  12.263 -29.350  1.00  0.00     0.015 C 
BRANCH   5   6
ATOM      6  C   UNL     1     -23.543  13.003 -30.673  1.00  0.00     0.028 C 
BRANCH   6   7
ATOM      7  C   UNL     1     -24.203  14.342 -30.446  1.00  0.00    -0.028 C 
ATOM      8  C   UNL     1     -25.508  14.615 -30.675  1.00  0.00    -0.070 CG0
ATOM      9  C   UNL     1     -26.004  16.006 -30.374  1.00  0.00     0.039 C 
ATOM     10  G   UNL     1     -26.484  13.584 -31.214  1.00  0.00     0.000 G0
ENDBRANCH   6   7
ENDBRANCH   5   6
ENDBRANCH   3   5
ENDBRANCH   1   3
BRANCH   1  11
ATOM     11  C   UNL     1     -26.308  10.488 -28.881  1.00  0.00     0.087 C 
BRANCH  11  12
ATOM     12  C   UNL     1     -26.499  11.093 -30.295  1.00  0.00     0.066 C 
BRANCH  12  13
ATOM     13  C   UNL     1     -26.957  12.547 -30.225  1.00  0.00     0.140 C 
ATOM     14  O   UNL     1     -27.753  12.877 -29.358  1.00  0.00    -0.299 OA
BRANCH  13  15
ATOM     15  C   UNL     1     -26.508  13.603 -31.214  1.00  0.00     0.106 CG0
ATOM     16  G   UNL     1     -25.517  14.606 -30.649  1.00  0.00     0.000 G0
ENDBRANCH  13  15
ENDBRANCH  12  13
BRANCH  12  17
ATOM     17  C   UNL     1     -27.438  10.209 -31.174  1.00  0.00    -0.006 C 
ATOM     18  C   UNL     1     -27.166  10.421 -32.671  1.00  0.00     0.008 C 
ATOM     19  C   UNL     1     -28.938  10.401 -30.885  1.00  0.00     0.008 C 
ENDBRANCH  12  17
ENDBRANCH  11  12
ENDBRANCH   1  11
TORSDOF 1
ENDMDL
MODEL 9
REMARK VINA RESULT:    -2.293      1.850      3.978
REMARK INTER + INTRA:          -3.656
REMARK INTER:                  -4.364
REMARK INTRA:                   0.709
REMARK UNBOUND:                -0.155
REMARK SMILES CC1=CCC[C@@H](C)C(=O)C[C@@H](C(C)C)C(=O)C1
REMARK SMILES IDX 8 1 9 2 6 3 7 4 5 5 4 6 3 7 2 8 1 9 10 11 11 12 15 13 16 14
REMARK SMILES IDX 17 15 12 17 13 18 14 19
REMARK H PARENT
REMARK Flexibility Score: 70.00
ROOT
ATOM      1  C   UNL     1     -14.551  13.797 -30.880  1.00  0.00     0.136 C 
ATOM      2  O   UNL     1     -14.654  14.898 -30.356  1.00  0.00    -0.299 OA
ENDROOT
BRANCH   1   3
ATOM      3  C   UNL     1     -15.798  12.991 -31.179  1.00  0.00     0.053 C 
ATOM      4  C   UNL     1     -16.536  13.618 -32.366  1.00  0.00     0.016 C 
BRANCH   3   5
ATOM      5  C   UNL     1     -16.742  12.897 -29.954  1.00  0.00     0.015 C 
BRANCH   5   6
ATOM      6  C   UNL     1     -17.014  11.460 -29.483  1.00  0.00     0.028 C 
BRANCH   6   7
ATOM      7  C   UNL     1     -16.300  11.157 -28.186  1.00  0.00    -0.028 C 
ATOM      8  C   UNL     1     -15.065  10.615 -28.087  1.00  0.00    -0.070 CG0
ATOM      9  C   UNL     1     -14.496  10.396 -26.708  1.00  0.00     0.039 C 
ATOM     10  G   UNL     1     -14.236  10.226 -29.298  1.00  0.00     0.000 G0
ENDBRANCH   6   7
ENDBRANCH   5   6
ENDBRANCH   3   5
ENDBRANCH   1   3
BRANCH   1  11
ATOM     11  C   UNL     1     -13.178  13.293 -31.261  1.00  0.00     0.087 C 
BRANCH  11  12
ATOM     12  C   UNL     1     -13.032  11.754 -31.143  1.00  0.00     0.066 C 
BRANCH  12  13
ATOM     13  C   UNL     1     -13.202  11.284 -29.702  1.00  0.00     0.140 C 
ATOM     14  O   UNL     1     -12.471  11.743 -28.837  1.00  0.00    -0.299 OA
BRANCH  13  15
ATOM     15  C   UNL     1     -14.211  10.229 -29.291  1.00  0.00     0.106 CG0
ATOM     16  G   UNL     1     -15.057  10.611 -28.089  1.00  0.00     0.000 G0
ENDBRANCH  13  15
ENDBRANCH  12  13
BRANCH  12  17
ATOM     17  C   UNL     1     -11.699  11.256 -31.785  1.00  0.00    -0.006 C 
ATOM     18  C   UNL     1     -10.784  10.604 -30.737  1.00  0.00     0.008 C 
ATOM     19  C   UNL     1     -10.922  12.342 -32.551  1.00  0.00     0.008 C 
ENDBRANCH  12  17
ENDBRANCH  11  12
ENDBRANCH   1  11
TORSDOF 1
ENDMDL
