MODEL 1
REMARK VINA RESULT:    -5.969      0.000      0.000
REMARK INTER + INTRA:          -6.877
REMARK INTER:                  -6.667
REMARK INTRA:                  -0.210
REMARK UNBOUND:                -0.210
REMARK SMILES CC(C)c1ccc(C(=O)[O-])cc1
REMARK SMILES IDX 7 1 6 2 11 3 5 4 12 5 4 6 8 7 9 8 10 9 2 10 1 11 3 12
REMARK H PARENT
REMARK Flexibility Score: inf
ROOT
ATOM      1  C   UNL     1      13.614   3.216  56.398  1.00  0.00    -0.003 A 
ATOM      2  C   UNL     1      13.539   2.064  57.199  1.00  0.00     0.010 A 
ATOM      3  C   UNL     1      14.770   3.439  55.632  1.00  0.00     0.010 A 
ATOM      4  C   UNL     1      14.599   1.153  57.234  1.00  0.00     0.004 A 
ATOM      5  C   UNL     1      15.830   2.528  55.667  1.00  0.00     0.004 A 
ATOM      6  C   UNL     1      15.757   1.374  56.469  1.00  0.00    -0.045 A 
ENDROOT
BRANCH   1   7
ATOM      7  C   UNL     1      12.494   4.182  56.358  1.00  0.00     0.071 C 
ATOM      8  O   UNL     1      12.441   5.065  55.462  1.00  0.00    -0.545 OA
ATOM      9  O   UNL     1      11.481   4.127  57.310  1.00  0.00    -0.545 OA
ENDBRANCH   1   7
BRANCH   6  10
ATOM     10  C   UNL     1      16.900   0.378  56.516  1.00  0.00     0.013 C 
ATOM     11  C   UNL     1      16.502  -0.948  55.854  1.00  0.00     0.012 C 
ATOM     12  C   UNL     1      17.381   0.154  57.953  1.00  0.00     0.012 C 
ENDBRANCH   6  10
TORSDOF 2
ENDMDL
MODEL 2
REMARK VINA RESULT:    -5.876      2.981      5.238
REMARK INTER + INTRA:          -6.773
REMARK INTER:                  -6.564
REMARK INTRA:                  -0.209
REMARK UNBOUND:                -0.210
REMARK SMILES CC(C)c1ccc(C(=O)[O-])cc1
REMARK SMILES IDX 7 1 6 2 11 3 5 4 12 5 4 6 8 7 9 8 10 9 2 10 1 11 3 12
REMARK H PARENT
REMARK Flexibility Score: inf
ROOT
ATOM      1  C   UNL     1      15.582   1.375  56.435  1.00  0.00    -0.003 A 
ATOM      2  C   UNL     1      15.833   2.514  55.650  1.00  0.00     0.010 A 
ATOM      3  C   UNL     1      14.364   1.281  57.129  1.00  0.00     0.010 A 
ATOM      4  C   UNL     1      14.885   3.537  55.560  1.00  0.00     0.004 A 
ATOM      5  C   UNL     1      13.416   2.305  57.039  1.00  0.00     0.004 A 
ATOM      6  C   UNL     1      13.666   3.445  56.253  1.00  0.00    -0.045 A 
ENDROOT
BRANCH   1   7
ATOM      7  C   UNL     1      16.583   0.290  56.532  1.00  0.00     0.071 C 
ATOM      8  O   UNL     1      16.607  -0.637  55.681  1.00  0.00    -0.545 OA
ATOM      9  O   UNL     1      17.513   0.280  57.566  1.00  0.00    -0.545 OA
ENDBRANCH   1   7
BRANCH   6  10
ATOM     10  C   UNL     1      12.645   4.563  56.146  1.00  0.00     0.013 C 
ATOM     11  C   UNL     1      11.414   4.270  57.014  1.00  0.00     0.012 C 
ATOM     12  C   UNL     1      12.246   4.810  54.687  1.00  0.00     0.012 C 
ENDBRANCH   6  10
TORSDOF 2
ENDMDL
MODEL 3
REMARK VINA RESULT:    -5.521      3.491      7.194
REMARK INTER + INTRA:          -6.376
REMARK INTER:                  -6.166
REMARK INTRA:                  -0.210
REMARK UNBOUND:                -0.210
REMARK SMILES CC(C)c1ccc(C(=O)[O-])cc1
REMARK SMILES IDX 7 1 6 2 11 3 5 4 12 5 4 6 8 7 9 8 10 9 2 10 1 11 3 12
REMARK H PARENT
REMARK Flexibility Score: inf
ROOT
ATOM      1  C   UNL     1      11.769   4.454  55.993  1.00  0.00    -0.003 A 
ATOM      2  C   UNL     1      12.229   5.736  55.646  1.00  0.00     0.010 A 
ATOM      3  C   UNL     1      10.386   4.204  55.993  1.00  0.00     0.010 A 
ATOM      4  C   UNL     1      11.326   6.747  55.306  1.00  0.00     0.004 A 
ATOM      5  C   UNL     1       9.483   5.216  55.653  1.00  0.00     0.004 A 
ATOM      6  C   UNL     1       9.943   6.500  55.305  1.00  0.00    -0.045 A 
ENDROOT
BRANCH   1   7
ATOM      7  C   UNL     1      12.722   3.381  56.353  1.00  0.00     0.071 C 
ATOM      8  O   UNL     1      12.381   2.460  57.140  1.00  0.00    -0.545 OA
ATOM      9  O   UNL     1      14.008   3.374  55.824  1.00  0.00    -0.545 OA
ENDBRANCH   1   7
BRANCH   6  10
ATOM     10  C   UNL     1       8.974   7.606  54.934  1.00  0.00     0.013 C 
ATOM     11  C   UNL     1       8.704   7.619  53.424  1.00  0.00     0.012 C 
ATOM     12  C   UNL     1       9.480   8.970  55.416  1.00  0.00     0.012 C 
ENDBRANCH   6  10
TORSDOF 2
ENDMDL
MODEL 4
REMARK VINA RESULT:    -5.314      3.710      5.520
REMARK INTER + INTRA:          -6.145
REMARK INTER:                  -5.930
REMARK INTRA:                  -0.215
REMARK UNBOUND:                -0.210
REMARK SMILES CC(C)c1ccc(C(=O)[O-])cc1
REMARK SMILES IDX 7 1 6 2 11 3 5 4 12 5 4 6 8 7 9 8 10 9 2 10 1 11 3 12
REMARK H PARENT
REMARK Flexibility Score: inf
ROOT
ATOM      1  C   UNL     1       9.838   6.426  54.687  1.00  0.00    -0.003 A 
ATOM      2  C   UNL     1      11.071   6.264  54.031  1.00  0.00     0.010 A 
ATOM      3  C   UNL     1       9.533   5.594  55.778  1.00  0.00     0.010 A 
ATOM      4  C   UNL     1      11.979   5.291  54.457  1.00  0.00     0.004 A 
ATOM      5  C   UNL     1      10.442   4.622  56.203  1.00  0.00     0.004 A 
ATOM      6  C   UNL     1      11.676   4.458  55.547  1.00  0.00    -0.045 A 
ENDROOT
BRANCH   1   7
ATOM      7  C   UNL     1       8.874   7.455  54.239  1.00  0.00     0.071 C 
ATOM      8  O   UNL     1       8.511   7.512  53.035  1.00  0.00    -0.545 OA
ATOM      9  O   UNL     1       8.353   8.374  55.144  1.00  0.00    -0.545 OA
ENDBRANCH   1   7
BRANCH   6  10
ATOM     10  C   UNL     1      12.672   3.407  56.000  1.00  0.00     0.013 C 
ATOM     11  C   UNL     1      12.508   3.098  57.493  1.00  0.00     0.012 C 
ATOM     12  C   UNL     1      14.109   3.831  55.678  1.00  0.00     0.012 C 
ENDBRANCH   6  10
TORSDOF 2
ENDMDL
MODEL 5
REMARK VINA RESULT:    -5.312      2.837      5.485
REMARK INTER + INTRA:          -6.144
REMARK INTER:                  -5.924
REMARK INTRA:                  -0.219
REMARK UNBOUND:                -0.210
REMARK SMILES CC(C)c1ccc(C(=O)[O-])cc1
REMARK SMILES IDX 7 1 6 2 11 3 5 4 12 5 4 6 8 7 9 8 10 9 2 10 1 11 3 12
REMARK H PARENT
REMARK Flexibility Score: inf
ROOT
ATOM      1  C   UNL     1      13.280   2.649  57.098  1.00  0.00    -0.003 A 
ATOM      2  C   UNL     1      12.028   3.082  57.565  1.00  0.00     0.010 A 
ATOM      3  C   UNL     1      13.867   3.313  56.007  1.00  0.00     0.010 A 
ATOM      4  C   UNL     1      11.375   4.157  56.956  1.00  0.00     0.004 A 
ATOM      5  C   UNL     1      13.214   4.388  55.397  1.00  0.00     0.004 A 
ATOM      6  C   UNL     1      11.959   4.822  55.865  1.00  0.00    -0.045 A 
ENDROOT
BRANCH   1   7
ATOM      7  C   UNL     1      13.975   1.512  57.741  1.00  0.00     0.071 C 
ATOM      8  O   UNL     1      14.795   0.812  57.091  1.00  0.00    -0.545 OA
ATOM      9  O   UNL     1      13.732   1.201  59.075  1.00  0.00    -0.545 OA
ENDBRANCH   1   7
BRANCH   6  10
ATOM     10  C   UNL     1      11.240   5.988  55.212  1.00  0.00     0.013 C 
ATOM     11  C   UNL     1       9.725   5.894  55.430  1.00  0.00     0.012 C 
ATOM     12  C   UNL     1      11.579   6.082  53.720  1.00  0.00     0.012 C 
ENDBRANCH   6  10
TORSDOF 2
ENDMDL
MODEL 6
REMARK VINA RESULT:    -5.240      1.667      2.915
REMARK INTER + INTRA:          -6.063
REMARK INTER:                  -5.846
REMARK INTRA:                  -0.217
REMARK UNBOUND:                -0.210
REMARK SMILES CC(C)c1ccc(C(=O)[O-])cc1
REMARK SMILES IDX 7 1 6 2 11 3 5 4 12 5 4 6 8 7 9 8 10 9 2 10 1 11 3 12
REMARK H PARENT
REMARK Flexibility Score: inf
ROOT
ATOM      1  C   UNL     1      11.668   4.264  55.869  1.00  0.00    -0.003 A 
ATOM      2  C   UNL     1      12.804   4.539  55.089  1.00  0.00     0.010 A 
ATOM      3  C   UNL     1      11.761   3.304  56.891  1.00  0.00     0.010 A 
ATOM      4  C   UNL     1      14.008   3.870  55.325  1.00  0.00     0.004 A 
ATOM      5  C   UNL     1      12.965   2.634  57.128  1.00  0.00     0.004 A 
ATOM      6  C   UNL     1      14.102   2.909  56.346  1.00  0.00    -0.045 A 
ENDROOT
BRANCH   1   7
ATOM      7  C   UNL     1      10.392   4.971  55.622  1.00  0.00     0.071 C 
ATOM      8  O   UNL     1       9.301   4.343  55.625  1.00  0.00    -0.545 OA
ATOM      9  O   UNL     1      10.380   6.341  55.384  1.00  0.00    -0.545 OA
ENDBRANCH   1   7
BRANCH   6  10
ATOM     10  C   UNL     1      15.415   2.190  56.593  1.00  0.00     0.013 C 
ATOM     11  C   UNL     1      16.337   2.291  55.371  1.00  0.00     0.012 C 
ATOM     12  C   UNL     1      15.180   0.728  56.987  1.00  0.00     0.012 C 
ENDBRANCH   6  10
TORSDOF 2
ENDMDL
MODEL 7
REMARK VINA RESULT:    -5.222      2.593      5.562
REMARK INTER + INTRA:          -6.042
REMARK INTER:                  -5.826
REMARK INTRA:                  -0.216
REMARK UNBOUND:                -0.210
REMARK SMILES CC(C)c1ccc(C(=O)[O-])cc1
REMARK SMILES IDX 7 1 6 2 11 3 5 4 12 5 4 6 8 7 9 8 10 9 2 10 1 11 3 12
REMARK H PARENT
REMARK Flexibility Score: inf
ROOT
ATOM      1  C   UNL     1      14.261   2.581  56.378  1.00  0.00    -0.003 A 
ATOM      2  C   UNL     1      14.203   3.713  55.547  1.00  0.00     0.010 A 
ATOM      3  C   UNL     1      13.145   2.259  57.168  1.00  0.00     0.010 A 
ATOM      4  C   UNL     1      13.053   4.507  55.507  1.00  0.00     0.004 A 
ATOM      5  C   UNL     1      11.995   3.052  57.128  1.00  0.00     0.004 A 
ATOM      6  C   UNL     1      11.936   4.187  56.297  1.00  0.00    -0.045 A 
ENDROOT
BRANCH   1   7
ATOM      7  C   UNL     1      15.476   1.739  56.423  1.00  0.00     0.071 C 
ATOM      8  O   UNL     1      15.522   0.719  57.160  1.00  0.00    -0.545 OA
ATOM      9  O   UNL     1      16.586   2.061  55.649  1.00  0.00    -0.545 OA
ENDBRANCH   1   7
BRANCH   6  10
ATOM     10  C   UNL     1      10.694   5.056  56.243  1.00  0.00     0.013 C 
ATOM     11  C   UNL     1       9.522   4.304  55.598  1.00  0.00     0.012 C 
ATOM     12  C   UNL     1      10.972   6.374  55.514  1.00  0.00     0.012 C 
ENDBRANCH   6  10
TORSDOF 2
ENDMDL
MODEL 8
REMARK VINA RESULT:    -5.218      4.428      7.897
REMARK INTER + INTRA:          -6.038
REMARK INTER:                  -5.821
REMARK INTRA:                  -0.217
REMARK UNBOUND:                -0.210
REMARK SMILES CC(C)c1ccc(C(=O)[O-])cc1
REMARK SMILES IDX 7 1 6 2 11 3 5 4 12 5 4 6 8 7 9 8 10 9 2 10 1 11 3 12
REMARK H PARENT
REMARK Flexibility Score: inf
ROOT
ATOM      1  C   UNL     1      11.644   5.133  54.556  1.00  0.00    -0.003 A 
ATOM      2  C   UNL     1      12.105   5.723  53.367  1.00  0.00     0.010 A 
ATOM      3  C   UNL     1      10.442   5.591  55.122  1.00  0.00     0.010 A 
ATOM      4  C   UNL     1      11.379   6.749  52.755  1.00  0.00     0.004 A 
ATOM      5  C   UNL     1       9.717   6.617  54.511  1.00  0.00     0.004 A 
ATOM      6  C   UNL     1      10.177   7.209  53.320  1.00  0.00    -0.045 A 
ENDROOT
BRANCH   1   7
ATOM      7  C   UNL     1      12.409   4.046  55.206  1.00  0.00     0.071 C 
ATOM      8  O   UNL     1      11.813   3.082  55.753  1.00  0.00    -0.545 OA
ATOM      9  O   UNL     1      13.799   4.073  55.220  1.00  0.00    -0.545 OA
ENDBRANCH   1   7
BRANCH   6  10
ATOM     10  C   UNL     1       9.399   8.323  52.645  1.00  0.00     0.013 C 
ATOM     11  C   UNL     1       7.955   8.376  53.160  1.00  0.00     0.012 C 
ATOM     12  C   UNL     1       9.437   8.180  51.120  1.00  0.00     0.012 C 
ENDBRANCH   6  10
TORSDOF 2
ENDMDL
MODEL 9
REMARK VINA RESULT:    -5.217      3.906      5.787
REMARK INTER + INTRA:          -6.037
REMARK INTER:                  -5.823
REMARK INTRA:                  -0.215
REMARK UNBOUND:                -0.210
REMARK SMILES CC(C)c1ccc(C(=O)[O-])cc1
REMARK SMILES IDX 7 1 6 2 11 3 5 4 12 5 4 6 8 7 9 8 10 9 2 10 1 11 3 12
REMARK H PARENT
REMARK Flexibility Score: inf
ROOT
ATOM      1  C   UNL     1      10.716   6.789  53.253  1.00  0.00    -0.003 A 
ATOM      2  C   UNL     1      10.180   6.455  54.508  1.00  0.00     0.010 A 
ATOM      3  C   UNL     1      11.843   6.091  52.786  1.00  0.00     0.010 A 
ATOM      4  C   UNL     1      10.757   5.444  55.280  1.00  0.00     0.004 A 
ATOM      5  C   UNL     1      12.420   5.079  53.559  1.00  0.00     0.004 A 
ATOM      6  C   UNL     1      11.884   4.744  54.816  1.00  0.00    -0.045 A 
ENDROOT
BRANCH   1   7
ATOM      7  C   UNL     1      10.108   7.859  52.432  1.00  0.00     0.071 C 
ATOM      8  O   UNL     1       9.882   8.995  52.926  1.00  0.00    -0.545 OA
ATOM      9  O   UNL     1       9.778   7.626  51.101  1.00  0.00    -0.545 OA
ENDBRANCH   1   7
BRANCH   6  10
ATOM     10  C   UNL     1      12.500   3.648  55.664  1.00  0.00     0.013 C 
ATOM     11  C   UNL     1      11.926   3.662  57.087  1.00  0.00     0.012 C 
ATOM     12  C   UNL     1      14.028   3.757  55.685  1.00  0.00     0.012 C 
ENDBRANCH   6  10
TORSDOF 2
ENDMDL
