MODEL 1
REMARK VINA RESULT:    -2.667      0.000      0.000
REMARK INTER + INTRA:          -2.999
REMARK INTER:                  -2.979
REMARK INTRA:                  -0.020
REMARK UNBOUND:                -0.020
REMARK SMILES CCCC(=O)[O-]
REMARK SMILES IDX 3 1 4 2 5 3 6 4 2 5 1 6
REMARK H PARENT
REMARK Flexibility Score: inf
ROOT
ATOM      1  C   UNL     1      31.629   8.132  29.838  1.00  0.00     0.052 C 
ENDROOT
BRANCH   1   2
ATOM      2  C   UNL     1      32.691   8.404  28.820  1.00  0.00     0.041 C 
ATOM      3  O   UNL     1      33.810   8.856  29.177  1.00  0.00    -0.550 OA
ATOM      4  O   UNL     1      32.462   8.111  27.482  1.00  0.00    -0.550 OA
ENDBRANCH   1   2
BRANCH   1   5
ATOM      5  C   UNL     1      30.424   7.449  29.185  1.00  0.00     0.003 C 
ATOM      6  C   UNL     1      29.931   6.279  30.030  1.00  0.00     0.004 C 
ENDBRANCH   1   5
TORSDOF 2
ENDMDL
MODEL 2
REMARK VINA RESULT:    -2.655      2.533      3.430
REMARK INTER + INTRA:          -2.986
REMARK INTER:                  -2.960
REMARK INTRA:                  -0.026
REMARK UNBOUND:                -0.020
REMARK SMILES CCCC(=O)[O-]
REMARK SMILES IDX 3 1 4 2 5 3 6 4 2 5 1 6
REMARK H PARENT
REMARK Flexibility Score: inf
ROOT
ATOM      1  C   UNL     1      30.985   8.489  28.494  1.00  0.00     0.052 C 
ENDROOT
BRANCH   1   2
ATOM      2  C   UNL     1      30.425   9.842  28.191  1.00  0.00     0.041 C 
ATOM      3  O   UNL     1      29.502   9.971  27.344  1.00  0.00    -0.550 OA
ATOM      4  O   UNL     1      30.888  10.956  28.879  1.00  0.00    -0.550 OA
ENDBRANCH   1   2
BRANCH   1   5
ATOM      5  C   UNL     1      32.411   8.366  27.951  1.00  0.00     0.003 C 
ATOM      6  C   UNL     1      33.441   8.593  29.053  1.00  0.00     0.004 C 
ENDBRANCH   1   5
TORSDOF 2
ENDMDL
MODEL 3
REMARK VINA RESULT:    -2.637     11.605     12.359
REMARK INTER + INTRA:          -2.965
REMARK INTER:                  -2.958
REMARK INTRA:                  -0.007
REMARK UNBOUND:                -0.020
REMARK SMILES CCCC(=O)[O-]
REMARK SMILES IDX 3 1 4 2 5 3 6 4 2 5 1 6
REMARK H PARENT
REMARK Flexibility Score: inf
ROOT
ATOM      1  C   UNL     1      28.810  16.723  21.846  1.00  0.00     0.052 C 
ENDROOT
BRANCH   1   2
ATOM      2  C   UNL     1      28.119  16.727  20.519  1.00  0.00     0.041 C 
ATOM      3  O   UNL     1      26.959  16.251  20.407  1.00  0.00    -0.550 OA
ATOM      4  O   UNL     1      28.737  17.301  19.415  1.00  0.00    -0.550 OA
ENDBRANCH   1   2
BRANCH   1   5
ATOM      5  C   UNL     1      30.015  15.778  21.819  1.00  0.00     0.003 C 
ATOM      6  C   UNL     1      30.954  16.050  22.990  1.00  0.00     0.004 C 
ENDBRANCH   1   5
TORSDOF 2
ENDMDL
MODEL 4
REMARK VINA RESULT:    -2.629     11.327     11.832
REMARK INTER + INTRA:          -2.956
REMARK INTER:                  -2.933
REMARK INTRA:                  -0.023
REMARK UNBOUND:                -0.020
REMARK SMILES CCCC(=O)[O-]
REMARK SMILES IDX 3 1 4 2 5 3 6 4 2 5 1 6
REMARK H PARENT
REMARK Flexibility Score: inf
ROOT
ATOM      1  C   UNL     1      29.031  17.536  21.694  1.00  0.00     0.052 C 
ENDROOT
BRANCH   1   2
ATOM      2  C   UNL     1      29.691  16.831  22.836  1.00  0.00     0.041 C 
ATOM      3  O   UNL     1      29.687  17.344  23.986  1.00  0.00    -0.550 OA
ATOM      4  O   UNL     1      30.270  15.584  22.642  1.00  0.00    -0.550 OA
ENDBRANCH   1   2
BRANCH   1   5
ATOM      5  C   UNL     1      28.509  16.524  20.670  1.00  0.00     0.003 C 
ATOM      6  C   UNL     1      26.988  16.574  20.573  1.00  0.00     0.004 C 
ENDBRANCH   1   5
TORSDOF 2
ENDMDL
MODEL 5
REMARK VINA RESULT:    -2.600      3.769      4.438
REMARK INTER + INTRA:          -2.924
REMARK INTER:                  -2.916
REMARK INTRA:                  -0.008
REMARK UNBOUND:                -0.020
REMARK SMILES CCCC(=O)[O-]
REMARK SMILES IDX 3 1 4 2 5 3 6 4 2 5 1 6
REMARK H PARENT
REMARK Flexibility Score: inf
ROOT
ATOM      1  C   UNL     1      30.347  10.589  28.615  1.00  0.00     0.052 C 
ENDROOT
BRANCH   1   2
ATOM      2  C   UNL     1      29.014  10.989  28.065  1.00  0.00     0.041 C 
ATOM      3  O   UNL     1      28.840  11.072  26.821  1.00  0.00    -0.550 OA
ATOM      4  O   UNL     1      27.949  11.222  28.926  1.00  0.00    -0.550 OA
ENDBRANCH   1   2
BRANCH   1   5
ATOM      5  C   UNL     1      30.947   9.449  27.787  1.00  0.00     0.003 C 
ATOM      6  C   UNL     1      32.218   8.909  28.434  1.00  0.00     0.004 C 
ENDBRANCH   1   5
TORSDOF 2
ENDMDL
MODEL 6
REMARK VINA RESULT:    -2.591     10.017     11.060
REMARK INTER + INTRA:          -2.914
REMARK INTER:                  -2.908
REMARK INTRA:                  -0.005
REMARK UNBOUND:                -0.020
REMARK SMILES CCCC(=O)[O-]
REMARK SMILES IDX 3 1 4 2 5 3 6 4 2 5 1 6
REMARK H PARENT
REMARK Flexibility Score: inf
ROOT
ATOM      1  C   UNL     1      22.839   3.729  25.782  1.00  0.00     0.052 C 
ENDROOT
BRANCH   1   2
ATOM      2  C   UNL     1      21.955   4.000  24.607  1.00  0.00     0.041 C 
ATOM      3  O   UNL     1      22.428   4.526  23.565  1.00  0.00    -0.550 OA
ATOM      4  O   UNL     1      20.617   3.627  24.642  1.00  0.00    -0.550 OA
ENDBRANCH   1   2
BRANCH   1   5
ATOM      5  C   UNL     1      22.770   4.888  26.781  1.00  0.00     0.003 C 
ATOM      6  C   UNL     1      23.418   4.508  28.109  1.00  0.00     0.004 C 
ENDBRANCH   1   5
TORSDOF 2
ENDMDL
MODEL 7
REMARK VINA RESULT:    -2.574      9.244     10.088
REMARK INTER + INTRA:          -2.895
REMARK INTER:                  -2.869
REMARK INTRA:                  -0.025
REMARK UNBOUND:                -0.020
REMARK SMILES CCCC(=O)[O-]
REMARK SMILES IDX 3 1 4 2 5 3 6 4 2 5 1 6
REMARK H PARENT
REMARK Flexibility Score: inf
ROOT
ATOM      1  C   UNL     1      22.788   4.706  26.321  1.00  0.00     0.052 C 
ENDROOT
BRANCH   1   2
ATOM      2  C   UNL     1      23.653   4.082  27.369  1.00  0.00     0.041 C 
ATOM      3  O   UNL     1      23.681   4.559  28.534  1.00  0.00    -0.550 OA
ATOM      4  O   UNL     1      24.392   2.944  27.074  1.00  0.00    -0.550 OA
ENDBRANCH   1   2
BRANCH   1   5
ATOM      5  C   UNL     1      22.363   3.661  25.286  1.00  0.00     0.003 C 
ATOM      6  C   UNL     1      22.473   4.213  23.868  1.00  0.00     0.004 C 
ENDBRANCH   1   5
TORSDOF 2
ENDMDL
MODEL 8
REMARK VINA RESULT:    -2.568      1.884      2.168
REMARK INTER + INTRA:          -2.889
REMARK INTER:                  -2.875
REMARK INTRA:                  -0.014
REMARK UNBOUND:                -0.020
REMARK SMILES CCCC(=O)[O-]
REMARK SMILES IDX 3 1 4 2 5 3 6 4 2 5 1 6
REMARK H PARENT
REMARK Flexibility Score: inf
ROOT
ATOM      1  C   UNL     1      30.253   8.806  29.452  1.00  0.00     0.052 C 
ENDROOT
BRANCH   1   2
ATOM      2  C   UNL     1      30.549   9.380  28.103  1.00  0.00     0.041 C 
ATOM      3  O   UNL     1      31.696   9.254  27.599  1.00  0.00    -0.550 OA
ATOM      4  O   UNL     1      29.546  10.012  27.381  1.00  0.00    -0.550 OA
ENDBRANCH   1   2
BRANCH   1   5
ATOM      5  C   UNL     1      30.897   7.425  29.600  1.00  0.00     0.003 C 
ATOM      6  C   UNL     1      29.863   6.375  29.994  1.00  0.00     0.004 C 
ENDBRANCH   1   5
TORSDOF 2
ENDMDL
MODEL 9
REMARK VINA RESULT:    -2.554      4.217      4.784
REMARK INTER + INTRA:          -2.873
REMARK INTER:                  -2.835
REMARK INTRA:                  -0.038
REMARK UNBOUND:                -0.020
REMARK SMILES CCCC(=O)[O-]
REMARK SMILES IDX 3 1 4 2 5 3 6 4 2 5 1 6
REMARK H PARENT
REMARK Flexibility Score: inf
ROOT
ATOM      1  C   UNL     1      29.109  10.521  29.248  1.00  0.00     0.052 C 
ENDROOT
BRANCH   1   2
ATOM      2  C   UNL     1      29.414  10.433  27.786  1.00  0.00     0.041 C 
ATOM      3  O   UNL     1      28.711  11.063  26.953  1.00  0.00    -0.550 OA
ATOM      4  O   UNL     1      30.504   9.693  27.347  1.00  0.00    -0.550 OA
ENDBRANCH   1   2
BRANCH   1   5
ATOM      5  C   UNL     1      27.959  11.502  29.496  1.00  0.00     0.003 C 
ATOM      6  C   UNL     1      28.451  12.760  30.204  1.00  0.00     0.004 C 
ENDBRANCH   1   5
TORSDOF 2
ENDMDL
