MODEL 1
REMARK VINA RESULT:    -3.373      0.000      0.000
REMARK INTER + INTRA:          -4.399
REMARK INTER:                  -4.162
REMARK INTRA:                  -0.236
REMARK UNBOUND:                -0.236
REMARK SMILES CCCCCC(=O)[O-]
REMARK SMILES IDX 4 1 5 2 6 3 7 4 8 5 3 6 2 7 1 8
REMARK H PARENT
REMARK Flexibility Score: inf
ROOT
ATOM      1  C   UNL     1      -4.780   7.958  -7.714  1.00  0.00     0.006 C 
ENDROOT
BRANCH   1   2
ATOM      2  C   UNL     1      -3.602   7.512  -6.838  1.00  0.00     0.053 C 
BRANCH   2   3
ATOM      3  C   UNL     1      -3.946   6.308  -6.016  1.00  0.00     0.041 C 
ATOM      4  O   UNL     1      -3.889   6.360  -4.759  1.00  0.00    -0.550 OA
ATOM      5  O   UNL     1      -4.363   5.138  -6.637  1.00  0.00    -0.550 OA
ENDBRANCH   2   3
ENDBRANCH   1   2
BRANCH   1   6
ATOM      6  C   UNL     1      -6.045   8.236  -6.889  1.00  0.00     0.000 C 
BRANCH   6   7
ATOM      7  C   UNL     1      -7.304   7.810  -7.656  1.00  0.00    -0.003 C 
ATOM      8  C   UNL     1      -7.591   6.325  -7.462  1.00  0.00     0.004 C 
ENDBRANCH   6   7
ENDBRANCH   1   6
TORSDOF 4
ENDMDL
MODEL 2
REMARK VINA RESULT:    -3.346      0.117      1.150
REMARK INTER + INTRA:          -4.364
REMARK INTER:                  -4.132
REMARK INTRA:                  -0.232
REMARK UNBOUND:                -0.236
REMARK SMILES CCCCCC(=O)[O-]
REMARK SMILES IDX 4 1 5 2 6 3 7 4 8 5 3 6 2 7 1 8
REMARK H PARENT
REMARK Flexibility Score: inf
ROOT
ATOM      1  C   UNL     1      -4.831   7.813  -7.796  1.00  0.00     0.006 C 
ENDROOT
BRANCH   1   2
ATOM      2  C   UNL     1      -3.664   7.481  -6.856  1.00  0.00     0.053 C 
BRANCH   2   3
ATOM      3  C   UNL     1      -3.944   6.261  -6.034  1.00  0.00     0.041 C 
ATOM      4  O   UNL     1      -4.319   5.194  -6.588  1.00  0.00    -0.550 OA
ATOM      5  O   UNL     1      -3.758   6.292  -4.658  1.00  0.00    -0.550 OA
ENDBRANCH   2   3
ENDBRANCH   1   2
BRANCH   1   6
ATOM      6  C   UNL     1      -6.078   8.281  -7.031  1.00  0.00     0.000 C 
BRANCH   6   7
ATOM      7  C   UNL     1      -7.359   7.791  -7.718  1.00  0.00    -0.003 C 
ATOM      8  C   UNL     1      -7.601   6.311  -7.440  1.00  0.00     0.004 C 
ENDBRANCH   6   7
ENDBRANCH   1   6
TORSDOF 4
ENDMDL
MODEL 3
REMARK VINA RESULT:    -3.193      1.961      3.517
REMARK INTER + INTRA:          -4.175
REMARK INTER:                  -3.943
REMARK INTRA:                  -0.233
REMARK UNBOUND:                -0.236
REMARK SMILES CCCCCC(=O)[O-]
REMARK SMILES IDX 4 1 5 2 6 3 7 4 8 5 3 6 2 7 1 8
REMARK H PARENT
REMARK Flexibility Score: inf
ROOT
ATOM      1  C   UNL     1      -6.008   7.904  -6.698  1.00  0.00     0.006 C 
ENDROOT
BRANCH   1   2
ATOM      2  C   UNL     1      -7.083   6.935  -7.207  1.00  0.00     0.053 C 
BRANCH   2   3
ATOM      3  C   UNL     1      -6.567   6.064  -8.311  1.00  0.00     0.041 C 
ATOM      4  O   UNL     1      -6.308   6.556  -9.441  1.00  0.00    -0.550 OA
ATOM      5  O   UNL     1      -6.339   4.713  -8.082  1.00  0.00    -0.550 OA
ENDBRANCH   2   3
ENDBRANCH   1   2
BRANCH   1   6
ATOM      6  C   UNL     1      -4.723   7.176  -6.277  1.00  0.00     0.000 C 
BRANCH   6   7
ATOM      7  C   UNL     1      -3.500   7.767  -6.989  1.00  0.00    -0.003 C 
ATOM      8  C   UNL     1      -3.919   8.684  -8.134  1.00  0.00     0.004 C 
ENDBRANCH   6   7
ENDBRANCH   1   6
TORSDOF 4
ENDMDL
MODEL 4
REMARK VINA RESULT:    -3.159      1.739      3.463
REMARK INTER + INTRA:          -4.134
REMARK INTER:                  -3.922
REMARK INTRA:                  -0.212
REMARK UNBOUND:                -0.236
REMARK SMILES CCCCCC(=O)[O-]
REMARK SMILES IDX 4 1 5 2 6 3 7 4 8 5 3 6 2 7 1 8
REMARK H PARENT
REMARK Flexibility Score: inf
ROOT
ATOM      1  C   UNL     1      -5.943   7.713  -6.688  1.00  0.00     0.006 C 
ENDROOT
BRANCH   1   2
ATOM      2  C   UNL     1      -7.074   7.232  -7.607  1.00  0.00     0.053 C 
BRANCH   2   3
ATOM      3  C   UNL     1      -7.269   5.750  -7.518  1.00  0.00     0.041 C 
ATOM      4  O   UNL     1      -8.367   5.277  -7.124  1.00  0.00    -0.550 OA
ATOM      5  O   UNL     1      -6.248   4.890  -7.902  1.00  0.00    -0.550 OA
ENDBRANCH   2   3
ENDBRANCH   1   2
BRANCH   1   6
ATOM      6  C   UNL     1      -4.643   7.985  -7.460  1.00  0.00     0.000 C 
BRANCH   6   7
ATOM      7  C   UNL     1      -3.436   7.379  -6.733  1.00  0.00    -0.003 C 
ATOM      8  C   UNL     1      -3.873   6.299  -5.747  1.00  0.00     0.004 C 
ENDBRANCH   6   7
ENDBRANCH   1   6
TORSDOF 4
ENDMDL
MODEL 5
REMARK VINA RESULT:    -3.152      1.688      3.343
REMARK INTER + INTRA:          -4.125
REMARK INTER:                  -3.893
REMARK INTRA:                  -0.232
REMARK UNBOUND:                -0.236
REMARK SMILES CCCCCC(=O)[O-]
REMARK SMILES IDX 4 1 5 2 6 3 7 4 8 5 3 6 2 7 1 8
REMARK H PARENT
REMARK Flexibility Score: inf
ROOT
ATOM      1  C   UNL     1      -6.290   7.455  -6.946  1.00  0.00     0.006 C 
ENDROOT
BRANCH   1   2
ATOM      2  C   UNL     1      -7.367   6.514  -7.502  1.00  0.00     0.053 C 
BRANCH   2   3
ATOM      3  C   UNL     1      -6.778   5.231  -8.003  1.00  0.00     0.041 C 
ATOM      4  O   UNL     1      -5.699   4.796  -7.518  1.00  0.00    -0.550 OA
ATOM      5  O   UNL     1      -7.437   4.499  -8.982  1.00  0.00    -0.550 OA
ENDBRANCH   2   3
ENDBRANCH   1   2
BRANCH   1   6
ATOM      6  C   UNL     1      -5.748   8.414  -8.016  1.00  0.00     0.000 C 
BRANCH   6   7
ATOM      7  C   UNL     1      -4.223   8.298  -8.135  1.00  0.00    -0.003 C 
ATOM      8  C   UNL     1      -3.630   7.574  -6.930  1.00  0.00     0.004 C 
ENDBRANCH   6   7
ENDBRANCH   1   6
TORSDOF 4
ENDMDL
MODEL 6
REMARK VINA RESULT:    -3.028      2.284      3.780
REMARK INTER + INTRA:          -3.972
REMARK INTER:                  -3.805
REMARK INTRA:                  -0.167
REMARK UNBOUND:                -0.236
REMARK SMILES CCCCCC(=O)[O-]
REMARK SMILES IDX 4 1 5 2 6 3 7 4 8 5 3 6 2 7 1 8
REMARK H PARENT
REMARK Flexibility Score: inf
ROOT
ATOM      1  C   UNL     1      -4.681   8.009  -7.624  1.00  0.00     0.006 C 
ENDROOT
BRANCH   1   2
ATOM      2  C   UNL     1      -5.955   8.300  -6.820  1.00  0.00     0.053 C 
BRANCH   2   3
ATOM      3  C   UNL     1      -7.172   7.736  -7.485  1.00  0.00     0.041 C 
ATOM      4  O   UNL     1      -7.477   6.523  -7.328  1.00  0.00    -0.550 OA
ATOM      5  O   UNL     1      -7.989   8.556  -8.252  1.00  0.00    -0.550 OA
ENDBRANCH   2   3
ENDBRANCH   1   2
BRANCH   1   6
ATOM      6  C   UNL     1      -3.595   7.338  -6.770  1.00  0.00     0.000 C 
BRANCH   6   7
ATOM      7  C   UNL     1      -4.063   5.967  -6.266  1.00  0.00    -0.003 C 
ATOM      8  C   UNL     1      -3.485   5.660  -4.888  1.00  0.00     0.004 C 
ENDBRANCH   6   7
ENDBRANCH   1   6
TORSDOF 4
ENDMDL
MODEL 7
REMARK VINA RESULT:    -2.993      1.533      2.218
REMARK INTER + INTRA:          -3.929
REMARK INTER:                  -3.769
REMARK INTRA:                  -0.160
REMARK UNBOUND:                -0.236
REMARK SMILES CCCCCC(=O)[O-]
REMARK SMILES IDX 4 1 5 2 6 3 7 4 8 5 3 6 2 7 1 8
REMARK H PARENT
REMARK Flexibility Score: inf
ROOT
ATOM      1  C   UNL     1      -6.173   7.008  -7.786  1.00  0.00     0.006 C 
ENDROOT
BRANCH   1   2
ATOM      2  C   UNL     1      -5.641   7.534  -6.446  1.00  0.00     0.053 C 
BRANCH   2   3
ATOM      3  C   UNL     1      -4.202   7.174  -6.240  1.00  0.00     0.041 C 
ATOM      4  O   UNL     1      -3.332   7.532  -7.077  1.00  0.00    -0.550 OA
ATOM      5  O   UNL     1      -3.817   6.471  -5.106  1.00  0.00    -0.550 OA
ENDBRANCH   2   3
ENDBRANCH   1   2
BRANCH   1   6
ATOM      6  C   UNL     1      -6.214   5.473  -7.832  1.00  0.00     0.000 C 
BRANCH   6   7
ATOM      7  C   UNL     1      -7.594   4.975  -8.281  1.00  0.00    -0.003 C 
ATOM      8  C   UNL     1      -8.600   5.034  -7.135  1.00  0.00     0.004 C 
ENDBRANCH   6   7
ENDBRANCH   1   6
TORSDOF 4
ENDMDL
MODEL 8
REMARK VINA RESULT:    -2.917     20.460     21.788
REMARK INTER + INTRA:          -3.836
REMARK INTER:                  -3.697
REMARK INTRA:                  -0.139
REMARK UNBOUND:                -0.236
REMARK SMILES CCCCCC(=O)[O-]
REMARK SMILES IDX 4 1 5 2 6 3 7 4 8 5 3 6 2 7 1 8
REMARK H PARENT
REMARK Flexibility Score: inf
ROOT
ATOM      1  C   UNL     1       7.216   0.334   9.364  1.00  0.00     0.006 C 
ENDROOT
BRANCH   1   2
ATOM      2  C   UNL     1       8.085   1.586   9.543  1.00  0.00     0.053 C 
BRANCH   2   3
ATOM      3  C   UNL     1       8.173   2.386   8.280  1.00  0.00     0.041 C 
ATOM      4  O   UNL     1       8.841   3.453   8.250  1.00  0.00    -0.550 OA
ATOM      5  O   UNL     1       7.544   1.936   7.127  1.00  0.00    -0.550 OA
ENDBRANCH   2   3
ENDBRANCH   1   2
BRANCH   1   6
ATOM      6  C   UNL     1       8.019  -0.962   9.552  1.00  0.00     0.000 C 
BRANCH   6   7
ATOM      7  C   UNL     1       9.526  -0.688   9.495  1.00  0.00    -0.003 C 
ATOM      8  C   UNL     1      10.120  -1.145   8.166  1.00  0.00     0.004 C 
ENDBRANCH   6   7
ENDBRANCH   1   6
TORSDOF 4
ENDMDL
MODEL 9
REMARK VINA RESULT:    -2.889      2.481      2.754
REMARK INTER + INTRA:          -3.801
REMARK INTER:                  -3.546
REMARK INTRA:                  -0.255
REMARK UNBOUND:                -0.236
REMARK SMILES CCCCCC(=O)[O-]
REMARK SMILES IDX 4 1 5 2 6 3 7 4 8 5 3 6 2 7 1 8
REMARK H PARENT
REMARK Flexibility Score: inf
ROOT
ATOM      1  C   UNL     1      -4.647   7.022  -6.742  1.00  0.00     0.006 C 
ENDROOT
BRANCH   1   2
ATOM      2  C   UNL     1      -3.518   7.944  -7.221  1.00  0.00     0.053 C 
BRANCH   2   3
ATOM      3  C   UNL     1      -3.858   8.610  -8.518  1.00  0.00     0.041 C 
ATOM      4  O   UNL     1      -3.870   9.867  -8.603  1.00  0.00    -0.550 OA
ATOM      5  O   UNL     1      -4.130   7.843  -9.643  1.00  0.00    -0.550 OA
ENDBRANCH   2   3
ENDBRANCH   1   2
BRANCH   1   6
ATOM      6  C   UNL     1      -6.010   7.731  -6.729  1.00  0.00     0.000 C 
BRANCH   6   7
ATOM      7  C   UNL     1      -7.109   6.815  -7.283  1.00  0.00    -0.003 C 
ATOM      8  C   UNL     1      -6.514   5.667  -8.092  1.00  0.00     0.004 C 
ENDBRANCH   6   7
ENDBRANCH   1   6
TORSDOF 4
ENDMDL
