MODEL 1
REMARK VINA RESULT:    -3.096      0.000      0.000
REMARK INTER + INTRA:          -4.674
REMARK INTER:                  -4.272
REMARK INTRA:                  -0.402
REMARK UNBOUND:                -0.402
REMARK SMILES CCCCCCCCO
REMARK SMILES IDX 5 1 4 2 3 3 2 4 1 5 6 6 7 7 8 8 9 9
REMARK H PARENT 9 10
REMARK Flexibility Score: inf
ROOT
ATOM      1  C   UNL     1     128.379 143.392 119.574  1.00  0.00     0.000 C 
ENDROOT
BRANCH   1   2
ATOM      2  C   UNL     1     127.952 144.522 118.621  1.00  0.00    -0.000 C 
BRANCH   2   3
ATOM      3  C   UNL     1     127.180 145.643 119.331  1.00  0.00    -0.000 C 
BRANCH   3   4
ATOM      4  C   UNL     1     127.908 146.089 120.605  1.00  0.00    -0.003 C 
ATOM      5  C   UNL     1     126.946 146.184 121.785  1.00  0.00     0.004 C 
ENDBRANCH   3   4
ENDBRANCH   2   3
ENDBRANCH   1   2
BRANCH   1   6
ATOM      6  C   UNL     1     127.221 142.571 120.176  1.00  0.00     0.002 C 
BRANCH   6   7
ATOM      7  C   UNL     1     127.568 141.802 121.463  1.00  0.00     0.028 C 
BRANCH   7   8
ATOM      8  C   UNL     1     128.095 142.709 122.577  1.00  0.00     0.156 C 
BRANCH   8   9
ATOM      9  O   UNL     1     127.522 142.328 123.796  1.00  0.00    -0.396 OA
ATOM     10  H   UNL     1     126.938 143.081 124.075  1.00  0.00     0.210 HD
ENDBRANCH   8   9
ENDBRANCH   7   8
ENDBRANCH   6   7
ENDBRANCH   1   6
TORSDOF 7
ENDMDL
MODEL 2
REMARK VINA RESULT:    -3.064      1.604      1.703
REMARK INTER + INTRA:          -4.631
REMARK INTER:                  -4.359
REMARK INTRA:                  -0.272
REMARK UNBOUND:                -0.402
REMARK SMILES CCCCCCCCO
REMARK SMILES IDX 5 1 4 2 3 3 2 4 1 5 6 6 7 7 8 8 9 9
REMARK H PARENT 9 10
REMARK Flexibility Score: inf
ROOT
ATOM      1  C   UNL     1     128.184 143.377 119.594  1.00  0.00     0.000 C 
ENDROOT
BRANCH   1   2
ATOM      2  C   UNL     1     127.645 144.682 118.983  1.00  0.00    -0.000 C 
BRANCH   2   3
ATOM      3  C   UNL     1     128.067 145.930 119.771  1.00  0.00    -0.000 C 
BRANCH   3   4
ATOM      4  C   UNL     1     126.878 146.527 120.533  1.00  0.00    -0.003 C 
ATOM      5  C   UNL     1     126.983 146.243 122.029  1.00  0.00     0.004 C 
ENDBRANCH   3   4
ENDBRANCH   2   3
ENDBRANCH   1   2
BRANCH   1   6
ATOM      6  C   UNL     1     127.326 142.782 120.728  1.00  0.00     0.002 C 
BRANCH   6   7
ATOM      7  C   UNL     1     126.954 141.299 120.554  1.00  0.00     0.028 C 
BRANCH   7   8
ATOM      8  C   UNL     1     127.504 140.410 121.671  1.00  0.00     0.156 C 
BRANCH   8   9
ATOM      9  O   UNL     1     126.875 139.160 121.624  1.00  0.00    -0.396 OA
ATOM     10  H   UNL     1     127.018 138.814 120.705  1.00  0.00     0.210 HD
ENDBRANCH   8   9
ENDBRANCH   7   8
ENDBRANCH   6   7
ENDBRANCH   1   6
TORSDOF 7
ENDMDL
MODEL 3
REMARK VINA RESULT:    -3.006     16.831     17.694
REMARK INTER + INTRA:          -4.550
REMARK INTER:                  -4.118
REMARK INTRA:                  -0.432
REMARK UNBOUND:                -0.402
REMARK SMILES CCCCCCCCO
REMARK SMILES IDX 5 1 4 2 3 3 2 4 1 5 6 6 7 7 8 8 9 9
REMARK H PARENT 9 10
REMARK Flexibility Score: inf
ROOT
ATOM      1  C   UNL     1     143.433 143.097 119.941  1.00  0.00     0.000 C 
ENDROOT
BRANCH   1   2
ATOM      2  C   UNL     1     143.783 141.903 119.035  1.00  0.00    -0.000 C 
BRANCH   2   3
ATOM      3  C   UNL     1     145.274 141.846 118.670  1.00  0.00    -0.000 C 
BRANCH   3   4
ATOM      4  C   UNL     1     146.051 140.984 119.672  1.00  0.00    -0.003 C 
ATOM      5  C   UNL     1     145.172 139.878 120.247  1.00  0.00     0.004 C 
ENDBRANCH   3   4
ENDBRANCH   2   3
ENDBRANCH   1   2
BRANCH   1   6
ATOM      6  C   UNL     1     144.262 144.372 119.691  1.00  0.00     0.002 C 
BRANCH   6   7
ATOM      7  C   UNL     1     145.056 144.881 120.907  1.00  0.00     0.028 C 
BRANCH   7   8
ATOM      8  C   UNL     1     145.187 143.835 122.015  1.00  0.00     0.156 C 
BRANCH   8   9
ATOM      9  O   UNL     1     146.313 144.123 122.796  1.00  0.00    -0.396 OA
ATOM     10  H   UNL     1     147.102 143.887 122.241  1.00  0.00     0.210 HD
ENDBRANCH   8   9
ENDBRANCH   7   8
ENDBRANCH   6   7
ENDBRANCH   1   6
TORSDOF 7
ENDMDL
MODEL 4
REMARK VINA RESULT:    -2.967      2.350      3.766
REMARK INTER + INTRA:          -4.496
REMARK INTER:                  -4.140
REMARK INTRA:                  -0.356
REMARK UNBOUND:                -0.402
REMARK SMILES CCCCCCCCO
REMARK SMILES IDX 5 1 4 2 3 3 2 4 1 5 6 6 7 7 8 8 9 9
REMARK H PARENT 9 10
REMARK Flexibility Score: inf
ROOT
ATOM      1  C   UNL     1     126.943 146.464 120.416  1.00  0.00     0.000 C 
ENDROOT
BRANCH   1   2
ATOM      2  C   UNL     1     127.218 145.518 119.234  1.00  0.00    -0.000 C 
BRANCH   2   3
ATOM      3  C   UNL     1     127.606 144.101 119.680  1.00  0.00    -0.000 C 
BRANCH   3   4
ATOM      4  C   UNL     1     128.982 143.709 119.129  1.00  0.00    -0.003 C 
ATOM      5  C   UNL     1     130.096 144.478 119.832  1.00  0.00     0.004 C 
ENDBRANCH   3   4
ENDBRANCH   2   3
ENDBRANCH   1   2
BRANCH   1   6
ATOM      6  C   UNL     1     127.171 145.850 121.811  1.00  0.00     0.002 C 
BRANCH   6   7
ATOM      7  C   UNL     1     127.098 146.848 122.981  1.00  0.00     0.028 C 
BRANCH   7   8
ATOM      8  C   UNL     1     128.392 146.908 123.796  1.00  0.00     0.156 C 
BRANCH   8   9
ATOM      9  O   UNL     1     129.490 146.796 122.935  1.00  0.00    -0.396 OA
ATOM     10  H   UNL     1     130.027 146.032 123.271  1.00  0.00     0.210 HD
ENDBRANCH   8   9
ENDBRANCH   7   8
ENDBRANCH   6   7
ENDBRANCH   1   6
TORSDOF 7
ENDMDL
MODEL 5
REMARK VINA RESULT:    -2.930     16.921     17.467
REMARK INTER + INTRA:          -4.446
REMARK INTER:                  -4.203
REMARK INTRA:                  -0.242
REMARK UNBOUND:                -0.402
REMARK SMILES CCCCCCCCO
REMARK SMILES IDX 5 1 4 2 3 3 2 4 1 5 6 6 7 7 8 8 9 9
REMARK H PARENT 9 10
REMARK Flexibility Score: inf
ROOT
ATOM      1  C   UNL     1     144.286 142.976 119.887  1.00  0.00     0.000 C 
ENDROOT
BRANCH   1   2
ATOM      2  C   UNL     1     144.962 144.201 120.527  1.00  0.00    -0.000 C 
BRANCH   2   3
ATOM      3  C   UNL     1     144.929 145.442 119.624  1.00  0.00    -0.000 C 
BRANCH   3   4
ATOM      4  C   UNL     1     143.539 146.090 119.631  1.00  0.00    -0.003 C 
ATOM      5  C   UNL     1     143.239 146.737 120.979  1.00  0.00     0.004 C 
ENDBRANCH   3   4
ENDBRANCH   2   3
ENDBRANCH   1   2
BRANCH   1   6
ATOM      6  C   UNL     1     145.239 142.011 119.155  1.00  0.00     0.002 C 
BRANCH   6   7
ATOM      7  C   UNL     1     145.315 140.594 119.752  1.00  0.00     0.028 C 
BRANCH   7   8
ATOM      8  C   UNL     1     146.642 140.315 120.460  1.00  0.00     0.156 C 
BRANCH   8   9
ATOM      9  O   UNL     1     146.676 141.011 121.675  1.00  0.00    -0.396 OA
ATOM     10  H   UNL     1     146.025 141.755 121.585  1.00  0.00     0.210 HD
ENDBRANCH   8   9
ENDBRANCH   7   8
ENDBRANCH   6   7
ENDBRANCH   1   6
TORSDOF 7
ENDMDL
MODEL 6
REMARK VINA RESULT:    -2.921      3.033      3.956
REMARK INTER + INTRA:          -4.433
REMARK INTER:                  -4.105
REMARK INTRA:                  -0.328
REMARK UNBOUND:                -0.402
REMARK SMILES CCCCCCCCO
REMARK SMILES IDX 5 1 4 2 3 3 2 4 1 5 6 6 7 7 8 8 9 9
REMARK H PARENT 9 10
REMARK Flexibility Score: inf
ROOT
ATOM      1  C   UNL     1     129.562 144.963 119.566  1.00  0.00     0.000 C 
ENDROOT
BRANCH   1   2
ATOM      2  C   UNL     1     128.145 144.998 118.965  1.00  0.00    -0.000 C 
BRANCH   2   3
ATOM      3  C   UNL     1     127.164 145.835 119.799  1.00  0.00    -0.000 C 
BRANCH   3   4
ATOM      4  C   UNL     1     127.112 145.338 121.249  1.00  0.00    -0.003 C 
ATOM      5  C   UNL     1     127.284 146.491 122.233  1.00  0.00     0.004 C 
ENDBRANCH   3   4
ENDBRANCH   2   3
ENDBRANCH   1   2
BRANCH   1   6
ATOM      6  C   UNL     1     130.269 146.329 119.655  1.00  0.00     0.002 C 
BRANCH   6   7
ATOM      7  C   UNL     1     131.783 146.262 119.920  1.00  0.00     0.028 C 
BRANCH   7   8
ATOM      8  C   UNL     1     132.170 146.774 121.309  1.00  0.00     0.156 C 
BRANCH   8   9
ATOM      9  O   UNL     1     131.021 146.881 122.102  1.00  0.00    -0.396 OA
ATOM     10  H   UNL     1     130.250 146.799 121.482  1.00  0.00     0.210 HD
ENDBRANCH   8   9
ENDBRANCH   7   8
ENDBRANCH   6   7
ENDBRANCH   1   6
TORSDOF 7
ENDMDL
MODEL 7
REMARK VINA RESULT:    -2.894      4.638      5.362
REMARK INTER + INTRA:          -4.395
REMARK INTER:                  -4.286
REMARK INTRA:                  -0.110
REMARK UNBOUND:                -0.402
REMARK SMILES CCCCCCCCO
REMARK SMILES IDX 5 1 4 2 3 3 2 4 1 5 6 6 7 7 8 8 9 9
REMARK H PARENT 9 10
REMARK Flexibility Score: inf
ROOT
ATOM      1  C   UNL     1     131.080 145.499 119.970  1.00  0.00     0.000 C 
ENDROOT
BRANCH   1   2
ATOM      2  C   UNL     1     129.652 146.006 119.704  1.00  0.00    -0.000 C 
BRANCH   2   3
ATOM      3  C   UNL     1     128.714 144.906 119.186  1.00  0.00    -0.000 C 
BRANCH   3   4
ATOM      4  C   UNL     1     127.290 145.443 118.996  1.00  0.00    -0.003 C 
ATOM      5  C   UNL     1     126.883 146.347 120.154  1.00  0.00     0.004 C 
ENDBRANCH   3   4
ENDBRANCH   2   3
ENDBRANCH   1   2
BRANCH   1   6
ATOM      6  C   UNL     1     132.113 146.596 120.296  1.00  0.00     0.002 C 
BRANCH   6   7
ATOM      7  C   UNL     1     133.550 146.091 120.518  1.00  0.00     0.028 C 
BRANCH   7   8
ATOM      8  C   UNL     1     134.074 146.381 121.925  1.00  0.00     0.156 C 
BRANCH   8   9
ATOM      9  O   UNL     1     135.265 147.113 121.836  1.00  0.00    -0.396 OA
ATOM     10  H   UNL     1     135.718 147.010 122.713  1.00  0.00     0.210 HD
ENDBRANCH   8   9
ENDBRANCH   7   8
ENDBRANCH   6   7
ENDBRANCH   1   6
TORSDOF 7
ENDMDL
MODEL 8
REMARK VINA RESULT:    -2.875      2.012      2.648
REMARK INTER + INTRA:          -4.370
REMARK INTER:                  -4.076
REMARK INTRA:                  -0.294
REMARK UNBOUND:                -0.402
REMARK SMILES CCCCCCCCO
REMARK SMILES IDX 5 1 4 2 3 3 2 4 1 5 6 6 7 7 8 8 9 9
REMARK H PARENT 9 10
REMARK Flexibility Score: inf
ROOT
ATOM      1  C   UNL     1     127.257 144.801 120.979  1.00  0.00     0.000 C 
ENDROOT
BRANCH   1   2
ATOM      2  C   UNL     1     127.796 145.971 120.138  1.00  0.00    -0.000 C 
BRANCH   2   3
ATOM      3  C   UNL     1     129.056 145.604 119.340  1.00  0.00    -0.000 C 
BRANCH   3   4
ATOM      4  C   UNL     1     130.324 146.033 120.087  1.00  0.00    -0.003 C 
ATOM      5  C   UNL     1     131.368 144.921 120.084  1.00  0.00     0.004 C 
ENDBRANCH   3   4
ENDBRANCH   2   3
ENDBRANCH   1   2
BRANCH   1   6
ATOM      6  C   UNL     1     127.299 143.424 120.286  1.00  0.00     0.002 C 
BRANCH   6   7
ATOM      7  C   UNL     1     127.487 142.225 121.232  1.00  0.00     0.028 C 
BRANCH   7   8
ATOM      8  C   UNL     1     126.946 140.917 120.653  1.00  0.00     0.156 C 
BRANCH   8   9
ATOM      9  O   UNL     1     126.875 139.954 121.667  1.00  0.00    -0.396 OA
ATOM     10  H   UNL     1     125.981 139.532 121.586  1.00  0.00     0.210 HD
ENDBRANCH   8   9
ENDBRANCH   7   8
ENDBRANCH   6   7
ENDBRANCH   1   6
TORSDOF 7
ENDMDL
MODEL 9
REMARK VINA RESULT:    -2.863     15.491     16.078
REMARK INTER + INTRA:          -4.353
REMARK INTER:                  -3.960
REMARK INTRA:                  -0.393
REMARK UNBOUND:                -0.402
REMARK SMILES CCCCCCCCO
REMARK SMILES IDX 5 1 4 2 3 3 2 4 1 5 6 6 7 7 8 8 9 9
REMARK H PARENT 9 10
REMARK Flexibility Score: inf
ROOT
ATOM      1  C   UNL     1     143.718 146.105 120.646  1.00  0.00     0.000 C 
ENDROOT
BRANCH   1   2
ATOM      2  C   UNL     1     142.972 147.033 119.671  1.00  0.00    -0.000 C 
BRANCH   2   3
ATOM      3  C   UNL     1     141.528 146.582 119.405  1.00  0.00    -0.000 C 
BRANCH   3   4
ATOM      4  C   UNL     1     141.196 145.310 120.193  1.00  0.00    -0.003 C 
ATOM      5  C   UNL     1     140.979 144.123 119.259  1.00  0.00     0.004 C 
ENDBRANCH   3   4
ENDBRANCH   2   3
ENDBRANCH   1   2
BRANCH   1   6
ATOM      6  C   UNL     1     144.843 145.262 120.015  1.00  0.00     0.002 C 
BRANCH   6   7
ATOM      7  C   UNL     1     144.883 143.790 120.463  1.00  0.00     0.028 C 
BRANCH   7   8
ATOM      8  C   UNL     1     144.908 143.629 121.984  1.00  0.00     0.156 C 
BRANCH   8   9
ATOM      9  O   UNL     1     146.149 144.049 122.476  1.00  0.00    -0.396 OA
ATOM     10  H   UNL     1     146.041 145.005 122.719  1.00  0.00     0.210 HD
ENDBRANCH   8   9
ENDBRANCH   7   8
ENDBRANCH   6   7
ENDBRANCH   1   6
TORSDOF 7
ENDMDL
