MODEL 1
REMARK VINA RESULT:    -2.678      0.000      0.000
REMARK INTER + INTRA:          -3.977
REMARK INTER:                  -3.618
REMARK INTRA:                  -0.359
REMARK UNBOUND:                -0.359
REMARK SMILES C=C1C(=O)O[C@H]2[C@@H]1CCC(C)=CCC[C@]1(C)O[C@@H]21
REMARK SMILES IDX 6 1 7 2 2 3 1 4 3 5 4 6 5 7 8 8 9 9 10 10 11 11 12 12 18 14
REMARK SMILES IDX 15 15 17 16 16 17 14 18 13 19
REMARK H PARENT
REMARK Flexibility Score: 70.00
ROOT
ATOM      1  C   UNL     1      90.980  86.941  89.360  1.00  0.00     0.216 C 
ATOM      2  C   UNL     1      91.114  86.858  90.945  1.00  0.00     0.070 C 
ATOM      3  C   UNL     1      90.619  88.196  91.410  1.00  0.00     0.037 C 
ATOM      4  C   UNL     1      90.573  88.630  92.670  1.00  0.00     0.021 C 
ATOM      5  C   UNL     1      90.379  89.006  90.240  1.00  0.00     0.334 C 
ATOM      6  O   UNL     1      90.009  90.210  90.248  1.00  0.00    -0.247 OA
ATOM      7  O   UNL     1      90.636  88.298  89.085  1.00  0.00    -0.455 OA
ENDROOT
BRANCH   2   8
ATOM      8  C   UNL     1      90.506  85.645  91.738  1.00  0.00     0.017 C 
BRANCH   8   9
ATOM      9  C   UNL     1      91.275  84.305  91.642  1.00  0.00     0.031 C 
BRANCH   9  10
ATOM     10  C   UNL     1      90.397  83.065  91.746  1.00  0.00    -0.077 C 
ATOM     11  C   UNL     1      90.139  82.500  93.123  1.00  0.00     0.039 C 
ATOM     12  C   UNL     1      89.713  82.503  90.711  1.00  0.00    -0.028 CG0
ATOM     13  G   UNL     1      89.913  82.713  89.221  1.00  0.00     0.000 G0
ENDBRANCH   9  10
ENDBRANCH   8   9
ENDBRANCH   2   8
BRANCH   1  14
ATOM     14  C   UNL     1      89.903  86.051  88.728  1.00  0.00     0.192 C 
ATOM     15  C   UNL     1      89.509  84.866  87.847  1.00  0.00     0.096 C 
ATOM     16  O   UNL     1      90.783  85.020  88.269  1.00  0.00    -0.362 OA
ATOM     17  C   UNL     1      89.384  85.093  86.346  1.00  0.00     0.045 C 
BRANCH  15  18
ATOM     18  C   UNL     1      88.868  83.607  88.507  1.00  0.00     0.042 C 
BRANCH  18  19
ATOM     19  C   UNL     1      89.890  82.673  89.215  1.00  0.00     0.030 CG0
ATOM     20  G   UNL     1      89.721  82.511  90.716  1.00  0.00     0.000 G0
ENDBRANCH  18  19
ENDBRANCH  15  18
ENDBRANCH   1  14
TORSDOF 0
ENDMDL
MODEL 2
REMARK VINA RESULT:    -2.537     12.898     13.520
REMARK INTER + INTRA:          -3.785
REMARK INTER:                  -3.461
REMARK INTRA:                  -0.325
REMARK UNBOUND:                -0.359
REMARK SMILES C=C1C(=O)O[C@H]2[C@@H]1CCC(C)=CCC[C@]1(C)O[C@@H]21
REMARK SMILES IDX 6 1 7 2 2 3 1 4 3 5 4 6 5 7 8 8 9 9 10 10 11 11 12 12 18 14
REMARK SMILES IDX 15 15 17 16 16 17 14 18 13 19
REMARK H PARENT
REMARK Flexibility Score: 70.00
ROOT
ATOM      1  C   UNL     1      75.698  88.243  91.378  1.00  0.00     0.216 C 
ATOM      2  C   UNL     1      76.919  89.262  91.284  1.00  0.00     0.070 C 
ATOM      3  C   UNL     1      76.460  90.436  92.096  1.00  0.00     0.037 C 
ATOM      4  C   UNL     1      77.125  91.576  92.287  1.00  0.00     0.021 C 
ATOM      5  C   UNL     1      75.090  90.197  92.480  1.00  0.00     0.334 C 
ATOM      6  O   UNL     1      74.361  90.997  93.124  1.00  0.00    -0.247 OA
ATOM      7  O   UNL     1      74.654  88.971  92.024  1.00  0.00    -0.455 OA
ENDROOT
BRANCH   2   8
ATOM      8  C   UNL     1      78.382  88.792  91.615  1.00  0.00     0.017 C 
BRANCH   8   9
ATOM      9  C   UNL     1      79.066  87.882  90.567  1.00  0.00     0.031 C 
BRANCH   9  10
ATOM     10  C   UNL     1      80.103  86.926  91.143  1.00  0.00    -0.077 C 
ATOM     11  C   UNL     1      81.521  87.427  91.283  1.00  0.00     0.039 C 
ATOM     12  C   UNL     1      79.828  85.700  91.671  1.00  0.00    -0.028 CG0
ATOM     13  G   UNL     1      78.573  84.860  91.506  1.00  0.00     0.000 G0
ENDBRANCH   9  10
ENDBRANCH   8   9
ENDBRANCH   2   8
BRANCH   1  14
ATOM     14  C   UNL     1      75.947  86.968  92.193  1.00  0.00     0.192 C 
ATOM     15  C   UNL     1      76.159  85.456  92.259  1.00  0.00     0.096 C 
ATOM     16  O   UNL     1      76.245  86.114  91.084  1.00  0.00    -0.362 OA
ATOM     17  C   UNL     1      74.930  84.557  92.311  1.00  0.00     0.045 C 
BRANCH  15  18
ATOM     18  C   UNL     1      77.556  84.900  92.674  1.00  0.00     0.042 C 
BRANCH  18  19
ATOM     19  C   UNL     1      78.583  84.837  91.508  1.00  0.00     0.030 CG0
ATOM     20  G   UNL     1      79.822  85.702  91.660  1.00  0.00     0.000 G0
ENDBRANCH  18  19
ENDBRANCH  15  18
ENDBRANCH   1  14
TORSDOF 0
ENDMDL
MODEL 3
REMARK VINA RESULT:    -2.459     18.405     20.778
REMARK INTER + INTRA:          -3.680
REMARK INTER:                  -3.335
REMARK INTRA:                  -0.345
REMARK UNBOUND:                -0.359
REMARK SMILES C=C1C(=O)O[C@H]2[C@@H]1CCC(C)=CCC[C@]1(C)O[C@@H]21
REMARK SMILES IDX 6 1 7 2 2 3 1 4 3 5 4 6 5 7 8 8 9 9 10 10 11 11 12 12 18 14
REMARK SMILES IDX 15 15 17 16 16 17 14 18 13 19
REMARK H PARENT
REMARK Flexibility Score: 70.00
ROOT
ATOM      1  C   UNL     1      75.864  91.563  76.891  1.00  0.00     0.216 C 
ATOM      2  C   UNL     1      76.903  90.540  77.532  1.00  0.00     0.070 C 
ATOM      3  C   UNL     1      76.300  90.219  78.868  1.00  0.00     0.037 C 
ATOM      4  C   UNL     1      76.825  89.428  79.805  1.00  0.00     0.021 C 
ATOM      5  C   UNL     1      75.145  91.066  79.043  1.00  0.00     0.334 C 
ATOM      6  O   UNL     1      74.421  91.110  80.073  1.00  0.00    -0.247 OA
ATOM      7  O   UNL     1      74.938  91.859  77.935  1.00  0.00    -0.455 OA
ENDROOT
BRANCH   2   8
ATOM      8  C   UNL     1      77.383  89.277  76.730  1.00  0.00     0.017 C 
BRANCH   8   9
ATOM      9  C   UNL     1      78.395  89.530  75.588  1.00  0.00     0.031 C 
BRANCH   9  10
ATOM     10  C   UNL     1      78.298  88.546  74.429  1.00  0.00    -0.077 C 
ATOM     11  C   UNL     1      79.119  87.281  74.511  1.00  0.00     0.039 C 
ATOM     12  C   UNL     1      77.426  88.648  73.388  1.00  0.00    -0.028 CG0
ATOM     13  G   UNL     1      76.634  89.862  72.935  1.00  0.00     0.000 G0
ENDBRANCH   9  10
ENDBRANCH   8   9
ENDBRANCH   2   8
BRANCH   1  14
ATOM     14  C   UNL     1      75.062  91.044  75.691  1.00  0.00     0.192 C 
ATOM     15  C   UNL     1      74.720  91.091  74.202  1.00  0.00     0.096 C 
ATOM     16  O   UNL     1      75.822  91.710  74.678  1.00  0.00    -0.362 OA
ATOM     17  C   UNL     1      73.672  92.093  73.735  1.00  0.00     0.045 C 
BRANCH  15  18
ATOM     18  C   UNL     1      75.123  89.892  73.290  1.00  0.00     0.042 C 
BRANCH  18  19
ATOM     19  C   UNL     1      76.630  89.865  72.908  1.00  0.00     0.030 CG0
ATOM     20  G   UNL     1      77.419  88.657  73.382  1.00  0.00     0.000 G0
ENDBRANCH  18  19
ENDBRANCH  15  18
ENDBRANCH   1  14
TORSDOF 0
ENDMDL
MODEL 4
REMARK VINA RESULT:    -2.373     13.212     16.070
REMARK INTER + INTRA:          -3.564
REMARK INTER:                  -3.227
REMARK INTRA:                  -0.337
REMARK UNBOUND:                -0.359
REMARK SMILES C=C1C(=O)O[C@H]2[C@@H]1CCC(C)=CCC[C@]1(C)O[C@@H]21
REMARK SMILES IDX 6 1 7 2 2 3 1 4 3 5 4 6 5 7 8 8 9 9 10 10 11 11 12 12 18 14
REMARK SMILES IDX 15 15 17 16 16 17 14 18 13 19
REMARK H PARENT
REMARK Flexibility Score: 70.00
ROOT
ATOM      1  C   UNL     1      85.415  88.240  77.479  1.00  0.00     0.216 C 
ATOM      2  C   UNL     1      84.880  89.741  77.482  1.00  0.00     0.070 C 
ATOM      3  C   UNL     1      85.862  90.461  78.359  1.00  0.00     0.037 C 
ATOM      4  C   UNL     1      85.818  91.748  78.706  1.00  0.00     0.021 C 
ATOM      5  C   UNL     1      86.756  89.477  78.919  1.00  0.00     0.334 C 
ATOM      6  O   UNL     1      87.675  89.712  79.747  1.00  0.00    -0.247 OA
ATOM      7  O   UNL     1      86.460  88.214  78.451  1.00  0.00    -0.455 OA
ENDROOT
BRANCH   2   8
ATOM      8  C   UNL     1      84.569  90.483  76.132  1.00  0.00     0.017 C 
BRANCH   8   9
ATOM      9  C   UNL     1      83.268  90.069  75.403  1.00  0.00     0.031 C 
BRANCH   9  10
ATOM     10  C   UNL     1      83.335  90.173  73.885  1.00  0.00    -0.077 C 
ATOM     11  C   UNL     1      82.955  91.490  73.252  1.00  0.00     0.039 C 
ATOM     12  C   UNL     1      83.843  89.216  73.058  1.00  0.00    -0.028 CG0
ATOM     13  G   UNL     1      84.114  87.753  73.361  1.00  0.00     0.000 G0
ENDBRANCH   9  10
ENDBRANCH   8   9
ENDBRANCH   2   8
BRANCH   1  14
ATOM     14  C   UNL     1      86.000  87.737  76.154  1.00  0.00     0.192 C 
ATOM     15  C   UNL     1      85.952  86.787  74.958  1.00  0.00     0.096 C 
ATOM     16  O   UNL     1      84.887  86.920  75.777  1.00  0.00    -0.362 OA
ATOM     17  C   UNL     1      86.600  85.415  75.100  1.00  0.00     0.045 C 
BRANCH  15  18
ATOM     18  C   UNL     1      85.625  87.358  73.545  1.00  0.00     0.042 C 
BRANCH  18  19
ATOM     19  C   UNL     1      84.129  87.734  73.344  1.00  0.00     0.030 CG0
ATOM     20  G   UNL     1      83.838  89.198  73.066  1.00  0.00     0.000 G0
ENDBRANCH  18  19
ENDBRANCH  15  18
ENDBRANCH   1  14
TORSDOF 0
ENDMDL
MODEL 5
REMARK VINA RESULT:    -2.211     15.153     16.318
REMARK INTER + INTRA:          -3.346
REMARK INTER:                  -3.030
REMARK INTRA:                  -0.316
REMARK UNBOUND:                -0.359
REMARK SMILES C=C1C(=O)O[C@H]2[C@@H]1CCC(C)=CCC[C@]1(C)O[C@@H]21
REMARK SMILES IDX 6 1 7 2 2 3 1 4 3 5 4 6 5 7 8 8 9 9 10 10 11 11 12 12 18 14
REMARK SMILES IDX 15 15 17 16 16 17 14 18 13 19
REMARK H PARENT
REMARK Flexibility Score: 70.00
ROOT
ATOM      1  C   UNL     1      74.863  86.956  87.745  1.00  0.00     0.216 C 
ATOM      2  C   UNL     1      73.484  86.374  88.289  1.00  0.00     0.070 C 
ATOM      3  C   UNL     1      73.341  85.070  87.561  1.00  0.00     0.037 C 
ATOM      4  C   UNL     1      72.316  84.222  87.648  1.00  0.00     0.021 C 
ATOM      5  C   UNL     1      74.417  84.982  86.603  1.00  0.00     0.334 C 
ATOM      6  O   UNL     1      74.584  84.047  85.776  1.00  0.00    -0.247 OA
ATOM      7  O   UNL     1      75.244  86.082  86.683  1.00  0.00    -0.455 OA
ENDROOT
BRANCH   2   8
ATOM      8  C   UNL     1      73.210  86.274  89.833  1.00  0.00     0.017 C 
BRANCH   8   9
ATOM      9  C   UNL     1      72.929  87.605  90.570  1.00  0.00     0.031 C 
BRANCH   9  10
ATOM     10  C   UNL     1      73.329  87.609  92.040  1.00  0.00    -0.077 C 
ATOM     11  C   UNL     1      72.316  87.118  93.046  1.00  0.00     0.039 C 
ATOM     12  C   UNL     1      74.577  87.890  92.509  1.00  0.00    -0.028 CG0
ATOM     13  G   UNL     1      75.722  88.583  91.792  1.00  0.00     0.000 G0
ENDBRANCH   9  10
ENDBRANCH   8   9
ENDBRANCH   2   8
BRANCH   1  14
ATOM     14  C   UNL     1      76.019  86.997  88.751  1.00  0.00     0.192 C 
ATOM     15  C   UNL     1      76.976  87.789  89.642  1.00  0.00     0.096 C 
ATOM     16  O   UNL     1      75.881  88.375  89.112  1.00  0.00    -0.362 OA
ATOM     17  C   UNL     1      78.258  88.330  89.023  1.00  0.00     0.045 C 
BRANCH  15  18
ATOM     18  C   UNL     1      76.836  87.682  91.192  1.00  0.00     0.042 C 
BRANCH  18  19
ATOM     19  C   UNL     1      75.732  88.596  91.794  1.00  0.00     0.030 CG0
ATOM     20  G   UNL     1      74.588  87.889  92.500  1.00  0.00     0.000 G0
ENDBRANCH  18  19
ENDBRANCH  15  18
ENDBRANCH   1  14
TORSDOF 0
ENDMDL
MODEL 6
REMARK VINA RESULT:    -2.191     16.203     17.818
REMARK INTER + INTRA:          -3.318
REMARK INTER:                  -2.992
REMARK INTRA:                  -0.326
REMARK UNBOUND:                -0.359
REMARK SMILES C=C1C(=O)O[C@H]2[C@@H]1CCC(C)=CCC[C@]1(C)O[C@@H]21
REMARK SMILES IDX 6 1 7 2 2 3 1 4 3 5 4 6 5 7 8 8 9 9 10 10 11 11 12 12 18 14
REMARK SMILES IDX 15 15 17 16 16 17 14 18 13 19
REMARK H PARENT
REMARK Flexibility Score: 70.00
ROOT
ATOM      1  C   UNL     1      75.619  89.268  80.423  1.00  0.00     0.216 C 
ATOM      2  C   UNL     1      76.621  88.320  81.221  1.00  0.00     0.070 C 
ATOM      3  C   UNL     1      77.902  89.100  81.240  1.00  0.00     0.037 C 
ATOM      4  C   UNL     1      79.063  88.704  81.763  1.00  0.00     0.021 C 
ATOM      5  C   UNL     1      77.713  90.274  80.423  1.00  0.00     0.334 C 
ATOM      6  O   UNL     1      78.596  91.134  80.165  1.00  0.00    -0.247 OA
ATOM      7  O   UNL     1      76.429  90.332  79.925  1.00  0.00    -0.455 OA
ENDROOT
BRANCH   2   8
ATOM      8  C   UNL     1      76.218  87.724  82.618  1.00  0.00     0.017 C 
BRANCH   8   9
ATOM      9  C   UNL     1      75.168  86.587  82.605  1.00  0.00     0.031 C 
BRANCH   9  10
ATOM     10  C   UNL     1      74.315  86.502  83.864  1.00  0.00    -0.077 C 
ATOM     11  C   UNL     1      74.851  85.695  85.023  1.00  0.00     0.039 C 
ATOM     12  C   UNL     1      73.170  87.207  84.082  1.00  0.00    -0.028 CG0
ATOM     13  G   UNL     1      72.298  87.929  83.070  1.00  0.00     0.000 G0
ENDBRANCH   9  10
ENDBRANCH   8   9
ENDBRANCH   2   8
BRANCH   1  14
ATOM     14  C   UNL     1      74.485  89.892  81.245  1.00  0.00     0.192 C 
ATOM     15  C   UNL     1      73.001  89.998  81.592  1.00  0.00     0.096 C 
ATOM     16  O   UNL     1      73.467  88.962  80.862  1.00  0.00    -0.362 OA
ATOM     17  C   UNL     1      72.129  90.927  80.757  1.00  0.00     0.045 C 
BRANCH  15  18
ATOM     18  C   UNL     1      72.507  89.500  82.986  1.00  0.00     0.042 C 
BRANCH  18  19
ATOM     19  C   UNL     1      72.298  87.962  83.071  1.00  0.00     0.030 CG0
ATOM     20  G   UNL     1      73.167  87.222  84.073  1.00  0.00     0.000 G0
ENDBRANCH  18  19
ENDBRANCH  15  18
ENDBRANCH   1  14
TORSDOF 0
ENDMDL
MODEL 7
REMARK VINA RESULT:    -2.175     13.595     14.735
REMARK INTER + INTRA:          -3.296
REMARK INTER:                  -3.022
REMARK INTRA:                  -0.274
REMARK UNBOUND:                -0.359
REMARK SMILES C=C1C(=O)O[C@H]2[C@@H]1CCC(C)=CCC[C@]1(C)O[C@@H]21
REMARK SMILES IDX 6 1 7 2 2 3 1 4 3 5 4 6 5 7 8 8 9 9 10 10 11 11 12 12 18 14
REMARK SMILES IDX 15 15 17 16 16 17 14 18 13 19
REMARK H PARENT
REMARK Flexibility Score: 70.00
ROOT
ATOM      1  C   UNL     1      78.275  88.155  89.783  1.00  0.00     0.216 C 
ATOM      2  C   UNL     1      77.388  87.079  89.012  1.00  0.00     0.070 C 
ATOM      3  C   UNL     1      78.311  85.906  88.862  1.00  0.00     0.037 C 
ATOM      4  C   UNL     1      78.038  84.759  88.239  1.00  0.00     0.021 C 
ATOM      5  C   UNL     1      79.611  86.306  89.342  1.00  0.00     0.334 C 
ATOM      6  O   UNL     1      80.649  85.593  89.319  1.00  0.00    -0.247 OA
ATOM      7  O   UNL     1      79.589  87.600  89.816  1.00  0.00    -0.455 OA
ENDROOT
BRANCH   2   8
ATOM      8  C   UNL     1      75.955  86.700  89.534  1.00  0.00     0.017 C 
BRANCH   8   9
ATOM      9  C   UNL     1      74.851  87.770  89.356  1.00  0.00     0.031 C 
BRANCH   9  10
ATOM     10  C   UNL     1      73.727  87.693  90.381  1.00  0.00    -0.077 C 
ATOM     11  C   UNL     1      72.577  86.757  90.095  1.00  0.00     0.039 C 
ATOM     12  C   UNL     1      73.740  88.297  91.602  1.00  0.00    -0.028 CG0
ATOM     13  G   UNL     1      74.635  89.424  92.089  1.00  0.00     0.000 G0
ENDBRANCH   9  10
ENDBRANCH   8   9
ENDBRANCH   2   8
BRANCH   1  14
ATOM     14  C   UNL     1      77.861  88.456  91.229  1.00  0.00     0.192 C 
ATOM     15  C   UNL     1      77.230  89.388  92.262  1.00  0.00     0.096 C 
ATOM     16  O   UNL     1      77.061  89.606  90.940  1.00  0.00    -0.362 OA
ATOM     17  C   UNL     1      78.107  90.457  92.900  1.00  0.00     0.045 C 
BRANCH  15  18
ATOM     18  C   UNL     1      75.875  88.986  92.923  1.00  0.00     0.042 C 
BRANCH  18  19
ATOM     19  C   UNL     1      74.622  89.416  92.109  1.00  0.00     0.030 CG0
ATOM     20  G   UNL     1      73.728  88.293  91.613  1.00  0.00     0.000 G0
ENDBRANCH  18  19
ENDBRANCH  15  18
ENDBRANCH   1  14
TORSDOF 0
ENDMDL
MODEL 8
REMARK VINA RESULT:    -2.167     18.966     20.508
REMARK INTER + INTRA:          -3.286
REMARK INTER:                  -3.210
REMARK INTRA:                  -0.076
REMARK UNBOUND:                -0.359
REMARK SMILES C=C1C(=O)O[C@H]2[C@@H]1CCC(C)=CCC[C@]1(C)O[C@@H]21
REMARK SMILES IDX 6 1 7 2 2 3 1 4 3 5 4 6 5 7 8 8 9 9 10 10 11 11 12 12 18 14
REMARK SMILES IDX 15 15 17 16 16 17 14 18 13 19
REMARK H PARENT
REMARK Flexibility Score: 70.00
ROOT
ATOM      1  C   UNL     1      76.416  90.500  76.908  1.00  0.00     0.216 C 
ATOM      2  C   UNL     1      76.432  89.221  77.858  1.00  0.00     0.070 C 
ATOM      3  C   UNL     1      75.588  89.641  79.026  1.00  0.00     0.037 C 
ATOM      4  C   UNL     1      75.333  88.919  80.118  1.00  0.00     0.021 C 
ATOM      5  C   UNL     1      75.258  91.034  78.851  1.00  0.00     0.334 C 
ATOM      6  O   UNL     1      74.605  91.738  79.666  1.00  0.00    -0.247 OA
ATOM      7  O   UNL     1      75.775  91.523  77.670  1.00  0.00    -0.455 OA
ENDROOT
BRANCH   2   8
ATOM      8  C   UNL     1      76.075  87.799  77.293  1.00  0.00     0.017 C 
BRANCH   8   9
ATOM      9  C   UNL     1      77.156  87.112  76.424  1.00  0.00     0.031 C 
BRANCH   9  10
ATOM     10  C   UNL     1      76.611  86.361  75.216  1.00  0.00    -0.077 C 
ATOM     11  C   UNL     1      76.247  84.907  75.398  1.00  0.00     0.039 C 
ATOM     12  C   UNL     1      76.294  86.930  74.019  1.00  0.00    -0.028 CG0
ATOM     13  G   UNL     1      76.712  88.286  73.478  1.00  0.00     0.000 G0
ENDBRANCH   9  10
ENDBRANCH   8   9
ENDBRANCH   2   8
BRANCH   1  14
ATOM     14  C   UNL     1      75.646  90.350  75.591  1.00  0.00     0.192 C 
ATOM     15  C   UNL     1      75.559  90.531  74.076  1.00  0.00     0.096 C 
ATOM     16  O   UNL     1      76.740  90.651  74.719  1.00  0.00    -0.362 OA
ATOM     17  C   UNL     1      75.076  91.872  73.537  1.00  0.00     0.045 C 
BRANCH  15  18
ATOM     18  C   UNL     1      75.567  89.271  73.157  1.00  0.00     0.042 C 
BRANCH  18  19
ATOM     19  C   UNL     1      76.721  88.274  73.460  1.00  0.00     0.030 CG0
ATOM     20  G   UNL     1      76.309  86.925  74.022  1.00  0.00     0.000 G0
ENDBRANCH  18  19
ENDBRANCH  15  18
ENDBRANCH   1  14
TORSDOF 0
ENDMDL
MODEL 9
REMARK VINA RESULT:    -2.154     19.080     21.428
REMARK INTER + INTRA:          -3.268
REMARK INTER:                  -2.941
REMARK INTRA:                  -0.327
REMARK UNBOUND:                -0.359
REMARK SMILES C=C1C(=O)O[C@H]2[C@@H]1CCC(C)=CCC[C@]1(C)O[C@@H]21
REMARK SMILES IDX 6 1 7 2 2 3 1 4 3 5 4 6 5 7 8 8 9 9 10 10 11 11 12 12 18 14
REMARK SMILES IDX 15 15 17 16 16 17 14 18 13 19
REMARK H PARENT
REMARK Flexibility Score: 70.00
ROOT
ATOM      1  C   UNL     1      75.790  73.032  81.065  1.00  0.00     0.216 C 
ATOM      2  C   UNL     1      76.125  74.078  82.220  1.00  0.00     0.070 C 
ATOM      3  C   UNL     1      77.601  74.301  82.073  1.00  0.00     0.037 C 
ATOM      4  C   UNL     1      78.366  75.074  82.846  1.00  0.00     0.021 C 
ATOM      5  C   UNL     1      78.086  73.386  81.069  1.00  0.00     0.334 C 
ATOM      6  O   UNL     1      79.289  73.253  80.722  1.00  0.00    -0.247 OA
ATOM      7  O   UNL     1      77.056  72.637  80.541  1.00  0.00    -0.455 OA
ENDROOT
BRANCH   2   8
ATOM      8  C   UNL     1      75.292  75.403  82.368  1.00  0.00     0.017 C 
BRANCH   8   9
ATOM      9  C   UNL     1      73.871  75.260  82.964  1.00  0.00     0.031 C 
BRANCH   9  10
ATOM     10  C   UNL     1      72.862  76.273  82.438  1.00  0.00    -0.077 C 
ATOM     11  C   UNL     1      72.752  77.595  83.160  1.00  0.00     0.039 C 
ATOM     12  C   UNL     1      72.147  76.138  81.286  1.00  0.00    -0.028 CG0
ATOM     13  G   UNL     1      71.900  74.882  80.469  1.00  0.00     0.000 G0
ENDBRANCH   9  10
ENDBRANCH   8   9
ENDBRANCH   2   8
BRANCH   1  14
ATOM     14  C   UNL     1      74.949  73.565  79.899  1.00  0.00     0.192 C 
ATOM     15  C   UNL     1      73.665  73.545  79.070  1.00  0.00     0.096 C 
ATOM     16  O   UNL     1      73.721  72.934  80.273  1.00  0.00    -0.362 OA
ATOM     17  C   UNL     1      73.557  72.537  77.933  1.00  0.00     0.045 C 
BRANCH  15  18
ATOM     18  C   UNL     1      72.702  74.770  79.128  1.00  0.00     0.042 C 
BRANCH  18  19
ATOM     19  C   UNL     1      71.890  74.876  80.450  1.00  0.00     0.030 CG0
ATOM     20  G   UNL     1      72.133  76.119  81.288  1.00  0.00     0.000 G0
ENDBRANCH  18  19
ENDBRANCH  15  18
ENDBRANCH   1  14
TORSDOF 0
ENDMDL
