MODEL 1
REMARK VINA RESULT:    -3.305      0.000      0.000
REMARK INTER + INTRA:          -6.125
REMARK INTER:                  -5.043
REMARK INTRA:                  -1.082
REMARK UNBOUND:                -1.082
REMARK SMILES CCCCCCCCCCC(=O)[O-]
REMARK SMILES IDX 7 1 8 2 9 3 10 4 11 5 12 6 13 7 6 8 5 9 4 10 3 11 2 12 1 13
REMARK H PARENT
REMARK Flexibility Score: inf
ROOT
ATOM      1  C   UNL     1      68.423  14.428  76.239  1.00  0.00     0.000 C 
ENDROOT
BRANCH   1   2
ATOM      2  C   UNL     1      69.938  14.683  76.188  1.00  0.00     0.000 C 
BRANCH   2   3
ATOM      3  C   UNL     1      70.422  15.602  77.319  1.00  0.00     0.006 C 
BRANCH   3   4
ATOM      4  C   UNL     1      71.111  14.796  78.422  1.00  0.00     0.053 C 
BRANCH   4   5
ATOM      5  C   UNL     1      70.848  15.408  79.763  1.00  0.00     0.041 C 
ATOM      6  O   UNL     1      71.805  15.823  80.469  1.00  0.00    -0.550 OA
ATOM      7  O   UNL     1      69.543  15.568  80.210  1.00  0.00    -0.550 OA
ENDBRANCH   4   5
ENDBRANCH   3   4
ENDBRANCH   2   3
ENDBRANCH   1   2
BRANCH   1   8
ATOM      8  C   UNL     1      67.662  15.528  76.992  1.00  0.00     0.000 C 
BRANCH   8   9
ATOM      9  C   UNL     1      66.820  16.372  76.028  1.00  0.00    -0.000 C 
BRANCH   9  10
ATOM     10  C   UNL     1      67.013  17.870  76.294  1.00  0.00    -0.000 C 
BRANCH  10  11
ATOM     11  C   UNL     1      67.756  18.104  77.617  1.00  0.00    -0.000 C 
BRANCH  11  12
ATOM     12  C   UNL     1      69.003  18.986  77.446  1.00  0.00    -0.003 C 
ATOM     13  C   UNL     1      69.540  18.980  76.015  1.00  0.00     0.004 C 
ENDBRANCH  11  12
ENDBRANCH  10  11
ENDBRANCH   9  10
ENDBRANCH   8   9
ENDBRANCH   1   8
TORSDOF 9
ENDMDL
MODEL 2
REMARK VINA RESULT:    -3.182      2.016      3.693
REMARK INTER + INTRA:          -5.938
REMARK INTER:                  -5.245
REMARK INTRA:                  -0.693
REMARK UNBOUND:                -1.082
REMARK SMILES CCCCCCCCCCC(=O)[O-]
REMARK SMILES IDX 7 1 8 2 9 3 10 4 11 5 12 6 13 7 6 8 5 9 4 10 3 11 2 12 1 13
REMARK H PARENT
REMARK Flexibility Score: inf
ROOT
ATOM      1  C   UNL     1      70.153  15.782  77.340  1.00  0.00     0.000 C 
ENDROOT
BRANCH   1   2
ATOM      2  C   UNL     1      71.126  15.225  78.391  1.00  0.00     0.000 C 
BRANCH   2   3
ATOM      3  C   UNL     1      70.647  15.467  79.830  1.00  0.00     0.006 C 
BRANCH   3   4
ATOM      4  C   UNL     1      69.145  15.760  79.866  1.00  0.00     0.053 C 
BRANCH   4   5
ATOM      5  C   UNL     1      68.723  16.171  81.241  1.00  0.00     0.041 C 
ATOM      6  O   UNL     1      69.482  16.879  81.953  1.00  0.00    -0.550 OA
ATOM      7  O   UNL     1      67.467  15.815  81.718  1.00  0.00    -0.550 OA
ENDBRANCH   4   5
ENDBRANCH   3   4
ENDBRANCH   2   3
ENDBRANCH   1   2
BRANCH   1   8
ATOM      8  C   UNL     1      69.896  14.798  76.190  1.00  0.00     0.000 C 
BRANCH   8   9
ATOM      9  C   UNL     1      68.421  14.382  76.142  1.00  0.00    -0.000 C 
BRANCH   9  10
ATOM     10  C   UNL     1      67.503  15.559  76.492  1.00  0.00    -0.000 C 
BRANCH  10  11
ATOM     11  C   UNL     1      66.101  15.067  76.879  1.00  0.00    -0.000 C 
BRANCH  11  12
ATOM     12  C   UNL     1      65.677  13.815  76.096  1.00  0.00    -0.003 C 
ATOM     13  C   UNL     1      64.173  13.552  76.173  1.00  0.00     0.004 C 
ENDBRANCH  11  12
ENDBRANCH  10  11
ENDBRANCH   9  10
ENDBRANCH   8   9
ENDBRANCH   1   8
TORSDOF 9
ENDMDL
MODEL 3
REMARK VINA RESULT:    -3.181      1.878      3.434
REMARK INTER + INTRA:          -5.937
REMARK INTER:                  -4.845
REMARK INTRA:                  -1.092
REMARK UNBOUND:                -1.082
REMARK SMILES CCCCCCCCCCC(=O)[O-]
REMARK SMILES IDX 7 1 8 2 9 3 10 4 11 5 12 6 13 7 6 8 5 9 4 10 3 11 2 12 1 13
REMARK H PARENT
REMARK Flexibility Score: inf
ROOT
ATOM      1  C   UNL     1      70.274  16.840  77.908  1.00  0.00     0.000 C 
ENDROOT
BRANCH   1   2
ATOM      2  C   UNL     1      71.170  15.756  78.529  1.00  0.00     0.000 C 
BRANCH   2   3
ATOM      3  C   UNL     1      70.867  15.518  80.016  1.00  0.00     0.006 C 
BRANCH   3   4
ATOM      4  C   UNL     1      69.358  15.499  80.271  1.00  0.00     0.053 C 
BRANCH   4   5
ATOM      5  C   UNL     1      69.004  16.418  81.398  1.00  0.00     0.041 C 
ATOM      6  O   UNL     1      67.952  16.230  82.064  1.00  0.00    -0.550 OA
ATOM      7  O   UNL     1      69.862  17.454  81.745  1.00  0.00    -0.550 OA
ENDBRANCH   4   5
ENDBRANCH   3   4
ENDBRANCH   2   3
ENDBRANCH   1   2
BRANCH   1   8
ATOM      8  C   UNL     1      69.725  16.437  76.532  1.00  0.00     0.000 C 
BRANCH   8   9
ATOM      9  C   UNL     1      69.814  14.920  76.328  1.00  0.00    -0.000 C 
BRANCH   9  10
ATOM     10  C   UNL     1      68.418  14.291  76.241  1.00  0.00    -0.000 C 
BRANCH  10  11
ATOM     11  C   UNL     1      67.344  15.365  76.015  1.00  0.00    -0.000 C 
BRANCH  11  12
ATOM     12  C   UNL     1      66.158  15.227  76.983  1.00  0.00    -0.003 C 
ATOM     13  C   UNL     1      66.362  16.008  78.282  1.00  0.00     0.004 C 
ENDBRANCH  11  12
ENDBRANCH  10  11
ENDBRANCH   9  10
ENDBRANCH   8   9
ENDBRANCH   1   8
TORSDOF 9
ENDMDL
MODEL 4
REMARK VINA RESULT:    -3.154      3.026      4.373
REMARK INTER + INTRA:          -5.896
REMARK INTER:                  -4.715
REMARK INTRA:                  -1.181
REMARK UNBOUND:                -1.082
REMARK SMILES CCCCCCCCCCC(=O)[O-]
REMARK SMILES IDX 7 1 8 2 9 3 10 4 11 5 12 6 13 7 6 8 5 9 4 10 3 11 2 12 1 13
REMARK H PARENT
REMARK Flexibility Score: inf
ROOT
ATOM      1  C   UNL     1      69.969  15.018  76.045  1.00  0.00     0.000 C 
ENDROOT
BRANCH   1   2
ATOM      2  C   UNL     1      68.601  14.351  76.260  1.00  0.00     0.000 C 
BRANCH   2   3
ATOM      3  C   UNL     1      67.429  15.265  75.875  1.00  0.00     0.006 C 
BRANCH   3   4
ATOM      4  C   UNL     1      66.562  15.586  77.095  1.00  0.00     0.053 C 
BRANCH   4   5
ATOM      5  C   UNL     1      65.215  14.946  76.966  1.00  0.00     0.041 C 
ATOM      6  O   UNL     1      64.185  15.551  77.361  1.00  0.00    -0.550 OA
ATOM      7  O   UNL     1      65.093  13.701  76.360  1.00  0.00    -0.550 OA
ENDBRANCH   4   5
ENDBRANCH   3   4
ENDBRANCH   2   3
ENDBRANCH   1   2
BRANCH   1   8
ATOM      8  C   UNL     1      70.930  14.792  77.221  1.00  0.00     0.000 C 
BRANCH   8   9
ATOM      9  C   UNL     1      70.253  15.128  78.555  1.00  0.00    -0.000 C 
BRANCH   9  10
ATOM     10  C   UNL     1      70.793  16.441  79.134  1.00  0.00    -0.000 C 
BRANCH  10  11
ATOM     11  C   UNL     1      69.776  17.578  78.960  1.00  0.00    -0.000 C 
BRANCH  11  12
ATOM     12  C   UNL     1      70.149  18.536  77.817  1.00  0.00    -0.003 C 
ATOM     13  C   UNL     1      69.114  18.545  76.692  1.00  0.00     0.004 C 
ENDBRANCH  11  12
ENDBRANCH  10  11
ENDBRANCH   9  10
ENDBRANCH   8   9
ENDBRANCH   1   8
TORSDOF 9
ENDMDL
MODEL 5
REMARK VINA RESULT:    -3.125      1.360      2.218
REMARK INTER + INTRA:          -5.852
REMARK INTER:                  -4.668
REMARK INTRA:                  -1.184
REMARK UNBOUND:                -1.082
REMARK SMILES CCCCCCCCCCC(=O)[O-]
REMARK SMILES IDX 7 1 8 2 9 3 10 4 11 5 12 6 13 7 6 8 5 9 4 10 3 11 2 12 1 13
REMARK H PARENT
REMARK Flexibility Score: inf
ROOT
ATOM      1  C   UNL     1      70.103  14.688  77.779  1.00  0.00     0.000 C 
ENDROOT
BRANCH   1   2
ATOM      2  C   UNL     1      71.555  15.031  78.148  1.00  0.00     0.000 C 
BRANCH   2   3
ATOM      3  C   UNL     1      71.660  15.849  79.443  1.00  0.00     0.006 C 
BRANCH   3   4
ATOM      4  C   UNL     1      70.373  15.742  80.265  1.00  0.00     0.053 C 
BRANCH   4   5
ATOM      5  C   UNL     1      70.110  17.020  80.998  1.00  0.00     0.041 C 
ATOM      6  O   UNL     1      70.332  18.128  80.443  1.00  0.00    -0.550 OA
ATOM      7  O   UNL     1      69.571  16.988  82.279  1.00  0.00    -0.550 OA
ENDBRANCH   4   5
ENDBRANCH   3   4
ENDBRANCH   2   3
ENDBRANCH   1   2
BRANCH   1   8
ATOM      8  C   UNL     1      69.863  14.679  76.263  1.00  0.00     0.000 C 
BRANCH   8   9
ATOM      9  C   UNL     1      68.364  14.710  75.944  1.00  0.00    -0.000 C 
BRANCH   9  10
ATOM     10  C   UNL     1      67.593  15.523  76.990  1.00  0.00    -0.000 C 
BRANCH  10  11
ATOM     11  C   UNL     1      67.486  16.997  76.572  1.00  0.00    -0.000 C 
BRANCH  11  12
ATOM     12  C   UNL     1      68.329  17.926  77.461  1.00  0.00    -0.003 C 
ATOM     13  C   UNL     1      69.679  18.276  76.836  1.00  0.00     0.004 C 
ENDBRANCH  11  12
ENDBRANCH  10  11
ENDBRANCH   9  10
ENDBRANCH   8   9
ENDBRANCH   1   8
TORSDOF 9
ENDMDL
MODEL 6
REMARK VINA RESULT:    -3.122      3.310      5.031
REMARK INTER + INTRA:          -5.847
REMARK INTER:                  -4.962
REMARK INTRA:                  -0.885
REMARK UNBOUND:                -1.082
REMARK SMILES CCCCCCCCCCC(=O)[O-]
REMARK SMILES IDX 7 1 8 2 9 3 10 4 11 5 12 6 13 7 6 8 5 9 4 10 3 11 2 12 1 13
REMARK H PARENT
REMARK Flexibility Score: inf
ROOT
ATOM      1  C   UNL     1      69.894  14.765  76.231  1.00  0.00     0.000 C 
ENDROOT
BRANCH   1   2
ATOM      2  C   UNL     1      68.403  14.392  76.239  1.00  0.00     0.000 C 
BRANCH   2   3
ATOM      3  C   UNL     1      67.484  15.622  76.274  1.00  0.00     0.006 C 
BRANCH   3   4
ATOM      4  C   UNL     1      66.479  15.523  77.425  1.00  0.00     0.053 C 
BRANCH   4   5
ATOM      5  C   UNL     1      65.144  15.074  76.918  1.00  0.00     0.041 C 
ATOM      6  O   UNL     1      64.395  15.879  76.304  1.00  0.00    -0.550 OA
ATOM      7  O   UNL     1      64.747  13.752  77.081  1.00  0.00    -0.550 OA
ENDBRANCH   4   5
ENDBRANCH   3   4
ENDBRANCH   2   3
ENDBRANCH   1   2
BRANCH   1   8
ATOM      8  C   UNL     1      70.279  15.690  77.394  1.00  0.00     0.000 C 
BRANCH   8   9
ATOM      9  C   UNL     1      71.048  14.921  78.475  1.00  0.00    -0.000 C 
BRANCH   9  10
ATOM     10  C   UNL     1      70.765  15.496  79.868  1.00  0.00    -0.000 C 
BRANCH  10  11
ATOM     11  C   UNL     1      69.428  16.250  79.892  1.00  0.00    -0.000 C 
BRANCH  11  12
ATOM     12  C   UNL     1      68.343  15.506  80.685  1.00  0.00    -0.003 C 
ATOM     13  C   UNL     1      67.634  16.402  81.701  1.00  0.00     0.004 C 
ENDBRANCH  11  12
ENDBRANCH  10  11
ENDBRANCH   9  10
ENDBRANCH   8   9
ENDBRANCH   1   8
TORSDOF 9
ENDMDL
MODEL 7
REMARK VINA RESULT:    -3.086      2.918      4.625
REMARK INTER + INTRA:          -5.792
REMARK INTER:                  -4.746
REMARK INTRA:                  -1.046
REMARK UNBOUND:                -1.082
REMARK SMILES CCCCCCCCCCC(=O)[O-]
REMARK SMILES IDX 7 1 8 2 9 3 10 4 11 5 12 6 13 7 6 8 5 9 4 10 3 11 2 12 1 13
REMARK H PARENT
REMARK Flexibility Score: inf
ROOT
ATOM      1  C   UNL     1      70.242  15.737  77.295  1.00  0.00     0.000 C 
ENDROOT
BRANCH   1   2
ATOM      2  C   UNL     1      69.860  14.834  76.111  1.00  0.00     0.000 C 
BRANCH   2   3
ATOM      3  C   UNL     1      68.421  14.307  76.208  1.00  0.00     0.006 C 
BRANCH   3   4
ATOM      4  C   UNL     1      67.445  15.438  76.542  1.00  0.00     0.053 C 
BRANCH   4   5
ATOM      5  C   UNL     1      66.067  14.894  76.761  1.00  0.00     0.041 C 
ATOM      6  O   UNL     1      65.652  13.923  76.077  1.00  0.00    -0.550 OA
ATOM      7  O   UNL     1      65.260  15.429  77.758  1.00  0.00    -0.550 OA
ENDBRANCH   4   5
ENDBRANCH   3   4
ENDBRANCH   2   3
ENDBRANCH   1   2
BRANCH   1   8
ATOM      8  C   UNL     1      70.909  14.961  78.439  1.00  0.00     0.000 C 
BRANCH   8   9
ATOM      9  C   UNL     1      71.399  15.914  79.536  1.00  0.00    -0.000 C 
BRANCH   9  10
ATOM     10  C   UNL     1      70.223  16.621  80.219  1.00  0.00    -0.000 C 
BRANCH  10  11
ATOM     11  C   UNL     1      69.187  15.606  80.722  1.00  0.00    -0.000 C 
BRANCH  11  12
ATOM     12  C   UNL     1      67.758  15.945  80.270  1.00  0.00    -0.003 C 
ATOM     13  C   UNL     1      67.636  17.362  79.710  1.00  0.00     0.004 C 
ENDBRANCH  11  12
ENDBRANCH  10  11
ENDBRANCH   9  10
ENDBRANCH   8   9
ENDBRANCH   1   8
TORSDOF 9
ENDMDL
MODEL 8
REMARK VINA RESULT:    -3.060      1.781      3.628
REMARK INTER + INTRA:          -5.753
REMARK INTER:                  -4.493
REMARK INTRA:                  -1.260
REMARK UNBOUND:                -1.082
REMARK SMILES CCCCCCCCCCC(=O)[O-]
REMARK SMILES IDX 7 1 8 2 9 3 10 4 11 5 12 6 13 7 6 8 5 9 4 10 3 11 2 12 1 13
REMARK H PARENT
REMARK Flexibility Score: inf
ROOT
ATOM      1  C   UNL     1      67.637  16.663  76.594  1.00  0.00     0.000 C 
ENDROOT
BRANCH   1   2
ATOM      2  C   UNL     1      67.175  17.376  77.874  1.00  0.00     0.000 C 
BRANCH   2   3
ATOM      3  C   UNL     1      67.304  16.492  79.124  1.00  0.00     0.006 C 
BRANCH   3   4
ATOM      4  C   UNL     1      67.708  17.324  80.344  1.00  0.00     0.053 C 
BRANCH   4   5
ATOM      5  C   UNL     1      68.271  16.445  81.416  1.00  0.00     0.041 C 
ATOM      6  O   UNL     1      68.344  15.200  81.242  1.00  0.00    -0.550 OA
ATOM      7  O   UNL     1      68.763  17.006  82.588  1.00  0.00    -0.550 OA
ENDBRANCH   4   5
ENDBRANCH   3   4
ENDBRANCH   2   3
ENDBRANCH   1   2
BRANCH   1   8
ATOM      8  C   UNL     1      67.469  15.139  76.671  1.00  0.00     0.000 C 
BRANCH   8   9
ATOM      9  C   UNL     1      68.729  14.421  76.174  1.00  0.00    -0.000 C 
BRANCH   9  10
ATOM     10  C   UNL     1      69.964  15.320  76.304  1.00  0.00    -0.000 C 
BRANCH  10  11
ATOM     11  C   UNL     1      70.996  14.703  77.260  1.00  0.00    -0.000 C 
BRANCH  11  12
ATOM     12  C   UNL     1      70.813  15.174  78.711  1.00  0.00    -0.003 C 
ATOM     13  C   UNL     1      71.065  16.672  78.882  1.00  0.00     0.004 C 
ENDBRANCH  11  12
ENDBRANCH  10  11
ENDBRANCH   9  10
ENDBRANCH   8   9
ENDBRANCH   1   8
TORSDOF 9
ENDMDL
MODEL 9
REMARK VINA RESULT:    -3.040      1.644      2.407
REMARK INTER + INTRA:          -5.721
REMARK INTER:                  -4.459
REMARK INTRA:                  -1.262
REMARK UNBOUND:                -1.082
REMARK SMILES CCCCCCCCCCC(=O)[O-]
REMARK SMILES IDX 7 1 8 2 9 3 10 4 11 5 12 6 13 7 6 8 5 9 4 10 3 11 2 12 1 13
REMARK H PARENT
REMARK Flexibility Score: inf
ROOT
ATOM      1  C   UNL     1      67.950  14.398  76.418  1.00  0.00     0.000 C 
ENDROOT
BRANCH   1   2
ATOM      2  C   UNL     1      69.391  14.681  75.964  1.00  0.00     0.000 C 
BRANCH   2   3
ATOM      3  C   UNL     1      70.124  15.660  76.893  1.00  0.00     0.006 C 
BRANCH   3   4
ATOM      4  C   UNL     1      70.475  14.993  78.225  1.00  0.00     0.053 C 
BRANCH   4   5
ATOM      5  C   UNL     1      70.901  16.017  79.229  1.00  0.00     0.041 C 
ATOM      6  O   UNL     1      70.974  17.232  78.905  1.00  0.00    -0.550 OA
ATOM      7  O   UNL     1      71.167  15.638  80.539  1.00  0.00    -0.550 OA
ENDBRANCH   4   5
ENDBRANCH   3   4
ENDBRANCH   2   3
ENDBRANCH   1   2
BRANCH   1   8
ATOM      8  C   UNL     1      66.969  15.500  75.995  1.00  0.00     0.000 C 
BRANCH   8   9
ATOM      9  C   UNL     1      66.304  16.144  77.217  1.00  0.00    -0.000 C 
BRANCH   9  10
ATOM     10  C   UNL     1      67.031  17.429  77.629  1.00  0.00    -0.000 C 
BRANCH  10  11
ATOM     11  C   UNL     1      67.403  17.398  79.119  1.00  0.00    -0.000 C 
BRANCH  11  12
ATOM     12  C   UNL     1      67.266  15.996  79.733  1.00  0.00    -0.003 C 
ATOM     13  C   UNL     1      67.560  15.978  81.233  1.00  0.00     0.004 C 
ENDBRANCH  11  12
ENDBRANCH  10  11
ENDBRANCH   9  10
ENDBRANCH   8   9
ENDBRANCH   1   8
TORSDOF 9
ENDMDL
