MODEL 1
REMARK VINA RESULT:    -5.402      0.000      0.000
REMARK INTER + INTRA:          -7.953
REMARK INTER:                  -7.296
REMARK INTRA:                  -0.657
REMARK UNBOUND:                -0.657
REMARK SMILES CC(=O)CCC=C(C)CCC=C(C)C
REMARK SMILES IDX 7 1 6 2 8 3 9 4 10 5 11 6 13 7 12 8 14 9 5 10 4 11 2 12 3 13
REMARK SMILES IDX 1 14
REMARK H PARENT
REMARK Flexibility Score: inf
ROOT
ATOM      1  C   UNL     1      23.560  28.523  39.773  1.00  0.00    -0.077 C 
ATOM      2  C   UNL     1      23.347  29.302  38.690  1.00  0.00    -0.028 C 
ATOM      3  C   UNL     1      22.416  27.861  40.504  1.00  0.00     0.039 C 
ENDROOT
BRANCH   1   4
ATOM      4  C   UNL     1      24.976  28.310  40.268  1.00  0.00     0.034 C 
BRANCH   4   5
ATOM      5  C   UNL     1      25.006  27.663  41.660  1.00  0.00     0.032 C 
BRANCH   5   6
ATOM      6  C   UNL     1      26.215  26.774  41.839  1.00  0.00    -0.028 C 
ATOM      7  C   UNL     1      27.487  24.799  42.555  1.00  0.00     0.039 C 
ATOM      8  C   UNL     1      26.188  25.546  42.401  1.00  0.00    -0.080 C 
ATOM      9  C   UNL     1      24.899  24.901  42.856  1.00  0.00     0.039 C 
ENDBRANCH   5   6
ENDBRANCH   4   5
ENDBRANCH   1   4
BRANCH   2  10
ATOM     10  C   UNL     1      21.972  29.578  38.131  1.00  0.00     0.035 C 
BRANCH  10  11
ATOM     11  C   UNL     1      21.871  29.140  36.667  1.00  0.00     0.079 C 
BRANCH  11  12
ATOM     12  C   UNL     1      20.856  28.037  36.510  1.00  0.00     0.130 C 
ATOM     13  O   UNL     1      19.881  28.215  35.797  1.00  0.00    -0.300 OA
ATOM     14  C   UNL     1      21.011  26.725  37.222  1.00  0.00     0.087 C 
ENDBRANCH  11  12
ENDBRANCH  10  11
ENDBRANCH   2  10
TORSDOF 6
ENDMDL
MODEL 2
REMARK VINA RESULT:    -5.372      2.460      4.105
REMARK INTER + INTRA:          -7.914
REMARK INTER:                  -7.467
REMARK INTRA:                  -0.447
REMARK UNBOUND:                -0.657
REMARK SMILES CC(=O)CCC=C(C)CCC=C(C)C
REMARK SMILES IDX 7 1 6 2 8 3 9 4 10 5 11 6 13 7 12 8 14 9 5 10 4 11 2 12 3 13
REMARK SMILES IDX 1 14
REMARK H PARENT
REMARK Flexibility Score: inf
ROOT
ATOM      1  C   UNL     1      21.163  27.936  37.138  1.00  0.00    -0.077 C 
ATOM      2  C   UNL     1      20.531  29.021  36.639  1.00  0.00    -0.028 C 
ATOM      3  C   UNL     1      20.553  26.557  37.042  1.00  0.00     0.039 C 
ENDROOT
BRANCH   1   4
ATOM      4  C   UNL     1      22.510  28.105  37.811  1.00  0.00     0.034 C 
BRANCH   4   5
ATOM      5  C   UNL     1      22.401  28.899  39.121  1.00  0.00     0.032 C 
BRANCH   5   6
ATOM      6  C   UNL     1      22.963  28.126  40.292  1.00  0.00    -0.028 C 
ATOM      7  C   UNL     1      24.684  27.241  41.803  1.00  0.00     0.039 C 
ATOM      8  C   UNL     1      24.269  28.099  40.637  1.00  0.00    -0.080 C 
ATOM      9  C   UNL     1      25.309  28.916  39.905  1.00  0.00     0.039 C 
ENDBRANCH   5   6
ENDBRANCH   4   5
ENDBRANCH   1   4
BRANCH   2  10
ATOM     10  C   UNL     1      19.184  28.951  35.960  1.00  0.00     0.035 C 
BRANCH  10  11
ATOM     11  C   UNL     1      18.060  29.363  36.915  1.00  0.00     0.079 C 
BRANCH  11  12
ATOM     12  C   UNL     1      16.761  29.527  36.170  1.00  0.00     0.130 C 
ATOM     13  O   UNL     1      16.738  29.361  34.960  1.00  0.00    -0.300 OA
ATOM     14  C   UNL     1      15.494  29.902  36.881  1.00  0.00     0.087 C 
ENDBRANCH  11  12
ENDBRANCH  10  11
ENDBRANCH   2  10
TORSDOF 6
ENDMDL
MODEL 3
REMARK VINA RESULT:    -5.322      2.574      6.815
REMARK INTER + INTRA:          -7.846
REMARK INTER:                  -7.421
REMARK INTRA:                  -0.425
REMARK UNBOUND:                -0.657
REMARK SMILES CC(=O)CCC=C(C)CCC=C(C)C
REMARK SMILES IDX 7 1 6 2 8 3 9 4 10 5 11 6 13 7 12 8 14 9 5 10 4 11 2 12 3 13
REMARK SMILES IDX 1 14
REMARK H PARENT
REMARK Flexibility Score: inf
ROOT
ATOM      1  C   UNL     1      23.957  28.562  40.046  1.00  0.00    -0.077 C 
ATOM      2  C   UNL     1      24.115  27.816  41.160  1.00  0.00    -0.028 C 
ATOM      3  C   UNL     1      25.096  29.374  39.474  1.00  0.00     0.039 C 
ENDROOT
BRANCH   1   4
ATOM      4  C   UNL     1      22.609  28.588  39.354  1.00  0.00     0.034 C 
BRANCH   4   5
ATOM      5  C   UNL     1      22.746  28.510  37.827  1.00  0.00     0.032 C 
BRANCH   5   6
ATOM      6  C   UNL     1      21.449  28.849  37.131  1.00  0.00    -0.028 C 
ATOM      7  C   UNL     1      19.291  28.430  36.034  1.00  0.00     0.039 C 
ATOM      8  C   UNL     1      20.514  27.944  36.768  1.00  0.00    -0.080 C 
ATOM      9  C   UNL     1      20.651  26.474  37.094  1.00  0.00     0.039 C 
ENDBRANCH   5   6
ENDBRANCH   4   5
ENDBRANCH   1   4
BRANCH   2  10
ATOM     10  C   UNL     1      25.418  27.735  41.920  1.00  0.00     0.035 C 
BRANCH  10  11
ATOM     11  C   UNL     1      26.190  26.462  41.564  1.00  0.00     0.079 C 
BRANCH  11  12
ATOM     12  C   UNL     1      25.895  25.365  42.553  1.00  0.00     0.130 C 
ATOM     13  O   UNL     1      24.808  24.809  42.527  1.00  0.00    -0.300 OA
ATOM     14  C   UNL     1      26.905  24.946  43.580  1.00  0.00     0.087 C 
ENDBRANCH  11  12
ENDBRANCH  10  11
ENDBRANCH   2  10
TORSDOF 6
ENDMDL
MODEL 4
REMARK VINA RESULT:    -5.156      3.163      5.717
REMARK INTER + INTRA:          -7.622
REMARK INTER:                  -6.578
REMARK INTRA:                  -1.045
REMARK UNBOUND:                -0.657
REMARK SMILES CC(=O)CCC=C(C)CCC=C(C)C
REMARK SMILES IDX 7 1 6 2 8 3 9 4 10 5 11 6 13 7 12 8 14 9 5 10 4 11 2 12 3 13
REMARK SMILES IDX 1 14
REMARK H PARENT
REMARK Flexibility Score: inf
ROOT
ATOM      1  C   UNL     1      19.021  29.043  36.509  1.00  0.00    -0.077 C 
ATOM      2  C   UNL     1      19.114  29.916  37.537  1.00  0.00    -0.028 C 
ATOM      3  C   UNL     1      18.018  29.241  35.397  1.00  0.00     0.039 C 
ENDROOT
BRANCH   1   4
ATOM      4  C   UNL     1      19.941  27.840  36.472  1.00  0.00     0.034 C 
BRANCH   4   5
ATOM      5  C   UNL     1      21.416  28.241  36.627  1.00  0.00     0.032 C 
BRANCH   5   6
ATOM      6  C   UNL     1      21.956  27.869  37.989  1.00  0.00    -0.028 C 
ATOM      7  C   UNL     1      23.053  28.210  40.159  1.00  0.00     0.039 C 
ATOM      8  C   UNL     1      22.514  28.741  38.857  1.00  0.00    -0.080 C 
ATOM      9  C   UNL     1      22.591  30.223  38.567  1.00  0.00     0.039 C 
ENDBRANCH   5   6
ENDBRANCH   4   5
ENDBRANCH   1   4
BRANCH   2  10
ATOM     10  C   UNL     1      18.234  31.137  37.663  1.00  0.00     0.035 C 
BRANCH  10  11
ATOM     11  C   UNL     1      19.065  32.423  37.640  1.00  0.00     0.079 C 
BRANCH  11  12
ATOM     12  C   UNL     1      19.531  32.732  36.242  1.00  0.00     0.130 C 
ATOM     13  O   UNL     1      18.772  33.291  35.465  1.00  0.00    -0.300 OA
ATOM     14  C   UNL     1      20.907  32.358  35.776  1.00  0.00     0.087 C 
ENDBRANCH  11  12
ENDBRANCH  10  11
ENDBRANCH   2  10
TORSDOF 6
ENDMDL
MODEL 5
REMARK VINA RESULT:    -5.123      2.648      6.706
REMARK INTER + INTRA:          -7.577
REMARK INTER:                  -6.546
REMARK INTRA:                  -1.031
REMARK UNBOUND:                -0.657
REMARK SMILES CC(=O)CCC=C(C)CCC=C(C)C
REMARK SMILES IDX 7 1 6 2 8 3 9 4 10 5 11 6 13 7 12 8 14 9 5 10 4 11 2 12 3 13
REMARK SMILES IDX 1 14
REMARK H PARENT
REMARK Flexibility Score: inf
ROOT
ATOM      1  C   UNL     1      22.367  28.191  38.521  1.00  0.00    -0.077 C 
ATOM      2  C   UNL     1      23.295  29.103  38.156  1.00  0.00    -0.028 C 
ATOM      3  C   UNL     1      22.062  27.916  39.975  1.00  0.00     0.039 C 
ENDROOT
BRANCH   1   4
ATOM      4  C   UNL     1      21.618  27.425  37.450  1.00  0.00     0.034 C 
BRANCH   4   5
ATOM      5  C   UNL     1      21.102  28.350  36.338  1.00  0.00     0.032 C 
BRANCH   5   6
ATOM      6  C   UNL     1      19.594  28.457  36.353  1.00  0.00    -0.028 C 
ATOM      7  C   UNL     1      17.396  29.374  36.950  1.00  0.00     0.039 C 
ATOM      8  C   UNL     1      18.901  29.430  36.982  1.00  0.00    -0.080 C 
ATOM      9  C   UNL     1      19.588  30.574  37.693  1.00  0.00     0.039 C 
ENDBRANCH   5   6
ENDBRANCH   4   5
ENDBRANCH   1   4
BRANCH   2  10
ATOM     10  C   UNL     1      24.096  29.907  39.152  1.00  0.00     0.035 C 
BRANCH  10  11
ATOM     11  C   UNL     1      25.591  29.593  39.043  1.00  0.00     0.079 C 
BRANCH  11  12
ATOM     12  C   UNL     1      25.875  28.188  39.507  1.00  0.00     0.130 C 
ATOM     13  O   UNL     1      26.365  27.385  38.726  1.00  0.00    -0.300 OA
ATOM     14  C   UNL     1      25.559  27.747  40.905  1.00  0.00     0.087 C 
ENDBRANCH  11  12
ENDBRANCH  10  11
ENDBRANCH   2  10
TORSDOF 6
ENDMDL
MODEL 6
REMARK VINA RESULT:    -5.110     10.098     12.351
REMARK INTER + INTRA:          -7.559
REMARK INTER:                  -6.486
REMARK INTRA:                  -1.074
REMARK UNBOUND:                -0.657
REMARK SMILES CC(=O)CCC=C(C)CCC=C(C)C
REMARK SMILES IDX 7 1 6 2 8 3 9 4 10 5 11 6 13 7 12 8 14 9 5 10 4 11 2 12 3 13
REMARK SMILES IDX 1 14
REMARK H PARENT
REMARK Flexibility Score: inf
ROOT
ATOM      1  C   UNL     1      23.671  23.681  27.634  1.00  0.00    -0.077 C 
ATOM      2  C   UNL     1      22.800  22.664  27.813  1.00  0.00    -0.028 C 
ATOM      3  C   UNL     1      23.202  25.116  27.569  1.00  0.00     0.039 C 
ENDROOT
BRANCH   1   4
ATOM      4  C   UNL     1      25.148  23.377  27.494  1.00  0.00     0.034 C 
BRANCH   4   5
ATOM      5  C   UNL     1      25.746  22.823  28.795  1.00  0.00     0.032 C 
BRANCH   5   6
ATOM      6  C   UNL     1      26.088  23.926  29.769  1.00  0.00    -0.028 C 
ATOM      7  C   UNL     1      25.793  25.414  31.700  1.00  0.00     0.039 C 
ATOM      8  C   UNL     1      25.347  24.253  30.850  1.00  0.00    -0.080 C 
ATOM      9  C   UNL     1      24.106  23.481  31.234  1.00  0.00     0.039 C 
ENDBRANCH   5   6
ENDBRANCH   4   5
ENDBRANCH   1   4
BRANCH   2  10
ATOM     10  C   UNL     1      21.310  22.869  27.953  1.00  0.00     0.035 C 
BRANCH  10  11
ATOM     11  C   UNL     1      20.539  22.077  26.893  1.00  0.00     0.079 C 
BRANCH  11  12
ATOM     12  C   UNL     1      19.538  22.959  26.193  1.00  0.00     0.130 C 
ATOM     13  O   UNL     1      18.354  22.660  26.215  1.00  0.00    -0.300 OA
ATOM     14  C   UNL     1      19.966  24.194  25.456  1.00  0.00     0.087 C 
ENDBRANCH  11  12
ENDBRANCH  10  11
ENDBRANCH   2  10
TORSDOF 6
ENDMDL
MODEL 7
REMARK VINA RESULT:    -5.101      3.567      5.052
REMARK INTER + INTRA:          -7.547
REMARK INTER:                  -6.793
REMARK INTRA:                  -0.754
REMARK UNBOUND:                -0.657
REMARK SMILES CC(=O)CCC=C(C)CCC=C(C)C
REMARK SMILES IDX 7 1 6 2 8 3 9 4 10 5 11 6 13 7 12 8 14 9 5 10 4 11 2 12 3 13
REMARK SMILES IDX 1 14
REMARK H PARENT
REMARK Flexibility Score: inf
ROOT
ATOM      1  C   UNL     1      21.136  27.767  37.119  1.00  0.00    -0.077 C 
ATOM      2  C   UNL     1      20.477  28.790  36.531  1.00  0.00    -0.028 C 
ATOM      3  C   UNL     1      20.549  26.376  37.165  1.00  0.00     0.039 C 
ENDROOT
BRANCH   1   4
ATOM      4  C   UNL     1      22.491  28.020  37.746  1.00  0.00     0.034 C 
BRANCH   4   5
ATOM      5  C   UNL     1      22.379  28.829  39.047  1.00  0.00     0.032 C 
BRANCH   5   6
ATOM      6  C   UNL     1      23.622  29.650  39.304  1.00  0.00    -0.028 C 
ATOM      7  C   UNL     1      25.064  31.637  39.296  1.00  0.00     0.039 C 
ATOM      8  C   UNL     1      23.742  30.966  39.029  1.00  0.00    -0.080 C 
ATOM      9  C   UNL     1      22.590  31.780  38.483  1.00  0.00     0.039 C 
ENDBRANCH   5   6
ENDBRANCH   4   5
ENDBRANCH   1   4
BRANCH   2  10
ATOM     10  C   UNL     1      19.119  28.635  35.889  1.00  0.00     0.035 C 
BRANCH  10  11
ATOM     11  C   UNL     1      18.062  29.469  36.617  1.00  0.00     0.079 C 
BRANCH  11  12
ATOM     12  C   UNL     1      18.542  30.883  36.815  1.00  0.00     0.130 C 
ATOM     13  O   UNL     1      18.714  31.601  35.841  1.00  0.00    -0.300 OA
ATOM     14  C   UNL     1      18.824  31.429  38.183  1.00  0.00     0.087 C 
ENDBRANCH  11  12
ENDBRANCH  10  11
ENDBRANCH   2  10
TORSDOF 6
ENDMDL
MODEL 8
REMARK VINA RESULT:    -5.067      2.616      4.592
REMARK INTER + INTRA:          -7.501
REMARK INTER:                  -6.881
REMARK INTRA:                  -0.620
REMARK UNBOUND:                -0.657
REMARK SMILES CC(=O)CCC=C(C)CCC=C(C)C
REMARK SMILES IDX 7 1 6 2 8 3 9 4 10 5 11 6 13 7 12 8 14 9 5 10 4 11 2 12 3 13
REMARK SMILES IDX 1 14
REMARK H PARENT
REMARK Flexibility Score: inf
ROOT
ATOM      1  C   UNL     1      20.724  28.727  36.617  1.00  0.00    -0.077 C 
ATOM      2  C   UNL     1      19.470  28.285  36.378  1.00  0.00    -0.028 C 
ATOM      3  C   UNL     1      21.139  30.140  36.277  1.00  0.00     0.039 C 
ENDROOT
BRANCH   1   4
ATOM      4  C   UNL     1      21.737  27.788  37.238  1.00  0.00     0.034 C 
BRANCH   4   5
ATOM      5  C   UNL     1      22.046  28.159  38.696  1.00  0.00     0.032 C 
BRANCH   5   6
ATOM      6  C   UNL     1      23.471  28.632  38.863  1.00  0.00    -0.028 C 
ATOM      7  C   UNL     1      25.594  29.056  40.022  1.00  0.00     0.039 C 
ATOM      8  C   UNL     1      24.200  28.486  39.991  1.00  0.00    -0.080 C 
ATOM      9  C   UNL     1      23.667  27.754  41.201  1.00  0.00     0.039 C 
ENDBRANCH   5   6
ENDBRANCH   4   5
ENDBRANCH   1   4
BRANCH   2  10
ATOM     10  C   UNL     1      18.397  29.146  35.755  1.00  0.00     0.035 C 
BRANCH  10  11
ATOM     11  C   UNL     1      17.297  29.479  36.767  1.00  0.00     0.079 C 
BRANCH  11  12
ATOM     12  C   UNL     1      17.363  30.930  37.168  1.00  0.00     0.130 C 
ATOM     13  O   UNL     1      16.532  31.712  36.732  1.00  0.00    -0.300 OA
ATOM     14  C   UNL     1      18.436  31.439  38.084  1.00  0.00     0.087 C 
ENDBRANCH  11  12
ENDBRANCH  10  11
ENDBRANCH   2  10
TORSDOF 6
ENDMDL
MODEL 9
REMARK VINA RESULT:    -4.948      3.196      5.652
REMARK INTER + INTRA:          -7.341
REMARK INTER:                  -6.450
REMARK INTRA:                  -0.891
REMARK UNBOUND:                -0.657
REMARK SMILES CC(=O)CCC=C(C)CCC=C(C)C
REMARK SMILES IDX 7 1 6 2 8 3 9 4 10 5 11 6 13 7 12 8 14 9 5 10 4 11 2 12 3 13
REMARK SMILES IDX 1 14
REMARK H PARENT
REMARK Flexibility Score: inf
ROOT
ATOM      1  C   UNL     1      23.336  30.421  38.871  1.00  0.00    -0.077 C 
ATOM      2  C   UNL     1      22.212  30.849  38.257  1.00  0.00    -0.028 C 
ATOM      3  C   UNL     1      23.458  29.008  39.393  1.00  0.00     0.039 C 
ENDROOT
BRANCH   1   4
ATOM      4  C   UNL     1      24.498  31.377  39.043  1.00  0.00     0.034 C 
BRANCH   4   5
ATOM      5  C   UNL     1      24.124  32.813  38.647  1.00  0.00     0.032 C 
BRANCH   5   6
ATOM      6  C   UNL     1      24.136  33.743  39.837  1.00  0.00    -0.028 C 
ATOM      7  C   UNL     1      23.226  35.314  41.491  1.00  0.00     0.039 C 
ATOM      8  C   UNL     1      23.047  34.376  40.327  1.00  0.00    -0.080 C 
ATOM      9  C   UNL     1      21.665  34.153  39.755  1.00  0.00     0.039 C 
ENDBRANCH   5   6
ENDBRANCH   4   5
ENDBRANCH   1   4
BRANCH   2  10
ATOM     10  C   UNL     1      21.001  29.972  38.048  1.00  0.00     0.035 C 
BRANCH  10  11
ATOM     11  C   UNL     1      20.806  29.639  36.566  1.00  0.00     0.079 C 
BRANCH  11  12
ATOM     12  C   UNL     1      20.469  28.182  36.387  1.00  0.00     0.130 C 
ATOM     13  O   UNL     1      19.590  27.860  35.602  1.00  0.00    -0.300 OA
ATOM     14  C   UNL     1      21.185  27.113  37.160  1.00  0.00     0.087 C 
ENDBRANCH  11  12
ENDBRANCH  10  11
ENDBRANCH   2  10
TORSDOF 6
ENDMDL
