MODEL 1
REMARK VINA RESULT:    -4.004      0.000      0.000
REMARK INTER + INTRA:          -9.708
REMARK INTER:                  -7.516
REMARK INTRA:                  -2.192
REMARK UNBOUND:                -2.192
REMARK SMILES O=C([O-])CCCCCCCCCCCCCCC(=O)[O-]
REMARK SMILES IDX 10 1 9 2 8 3 7 4 6 5 5 6 4 7 2 8 1 9 3 10 11 11 12 12 13 13
REMARK SMILES IDX 14 14 15 15 16 16 17 17 18 18 19 19 20 20
REMARK H PARENT
REMARK Flexibility Score: inf
ROOT
ATOM      1  C   UNL     1       0.027  22.929  -1.007  1.00  0.00     0.000 C 
ENDROOT
BRANCH   1   2
ATOM      2  C   UNL     1      -1.116  21.945  -1.313  1.00  0.00     0.000 C 
BRANCH   2   3
ATOM      3  C   UNL     1      -1.837  21.384  -0.074  1.00  0.00     0.000 C 
BRANCH   3   4
ATOM      4  C   UNL     1      -3.365  21.354  -0.232  1.00  0.00     0.000 C 
BRANCH   4   5
ATOM      5  C   UNL     1      -3.971  22.743   0.021  1.00  0.00     0.000 C 
BRANCH   5   6
ATOM      6  C   UNL     1      -4.499  23.406  -1.264  1.00  0.00     0.006 C 
BRANCH   6   7
ATOM      7  C   UNL     1      -5.025  24.836  -1.068  1.00  0.00     0.053 C 
BRANCH   7   8
ATOM      8  C   UNL     1      -6.520  24.902  -1.150  1.00  0.00     0.041 C 
ATOM      9  O   UNL     1      -7.228  24.138  -0.443  1.00  0.00    -0.550 OA
ATOM     10  O   UNL     1      -7.130  25.830  -1.983  1.00  0.00    -0.550 OA
ENDBRANCH   7   8
ENDBRANCH   6   7
ENDBRANCH   5   6
ENDBRANCH   4   5
ENDBRANCH   3   4
ENDBRANCH   2   3
ENDBRANCH   1   2
BRANCH   1  11
ATOM     11  C   UNL     1      -0.347  23.964   0.069  1.00  0.00     0.000 C 
BRANCH  11  12
ATOM     12  C   UNL     1      -1.189  25.120  -0.492  1.00  0.00     0.000 C 
BRANCH  12  13
ATOM     13  C   UNL     1      -1.557  26.157   0.584  1.00  0.00     0.000 C 
BRANCH  13  14
ATOM     14  C   UNL     1      -2.483  25.579   1.665  1.00  0.00     0.000 C 
BRANCH  14  15
ATOM     15  C   UNL     1      -2.958  26.647   2.666  1.00  0.00     0.000 C 
BRANCH  15  16
ATOM     16  C   UNL     1      -4.274  26.262   3.367  1.00  0.00     0.006 C 
BRANCH  16  17
ATOM     17  C   UNL     1      -5.372  25.762   2.414  1.00  0.00     0.053 C 
BRANCH  17  18
ATOM     18  C   UNL     1      -6.273  26.871   1.967  1.00  0.00     0.041 C 
ATOM     19  O   UNL     1      -7.409  27.017   2.493  1.00  0.00    -0.550 OA
ATOM     20  O   UNL     1      -5.846  27.766   0.993  1.00  0.00    -0.550 OA
ENDBRANCH  17  18
ENDBRANCH  16  17
ENDBRANCH  15  16
ENDBRANCH  14  15
ENDBRANCH  13  14
ENDBRANCH  12  13
ENDBRANCH  11  12
ENDBRANCH   1  11
TORSDOF 15
ENDMDL
MODEL 2
REMARK VINA RESULT:    -3.836      2.765      4.118
REMARK INTER + INTRA:          -9.393
REMARK INTER:                  -7.202
REMARK INTRA:                  -2.191
REMARK UNBOUND:                -2.192
REMARK SMILES O=C([O-])CCCCCCCCCCCCCCC(=O)[O-]
REMARK SMILES IDX 10 1 9 2 8 3 7 4 6 5 5 6 4 7 2 8 1 9 3 10 11 11 12 12 13 13
REMARK SMILES IDX 14 14 15 15 16 16 17 17 18 18 19 19 20 20
REMARK H PARENT
REMARK Flexibility Score: inf
ROOT
ATOM      1  C   UNL     1      -4.831  25.354  -0.848  1.00  0.00     0.000 C 
ENDROOT
BRANCH   1   2
ATOM      2  C   UNL     1      -5.148  23.872  -0.582  1.00  0.00     0.000 C 
BRANCH   2   3
ATOM      3  C   UNL     1      -4.089  23.122   0.247  1.00  0.00     0.000 C 
BRANCH   3   4
ATOM      4  C   UNL     1      -3.513  21.899  -0.482  1.00  0.00     0.000 C 
BRANCH   4   5
ATOM      5  C   UNL     1      -2.086  21.594  -0.002  1.00  0.00     0.000 C 
BRANCH   5   6
ATOM      6  C   UNL     1      -1.011  22.330  -0.821  1.00  0.00     0.006 C 
BRANCH   6   7
ATOM      7  C   UNL     1      -0.347  23.504  -0.084  1.00  0.00     0.053 C 
BRANCH   7   8
ATOM      8  C   UNL     1       0.522  24.318  -0.994  1.00  0.00     0.041 C 
ATOM      9  O   UNL     1       1.772  24.163  -0.984  1.00  0.00    -0.550 OA
ATOM     10  O   UNL     1      -0.051  25.225  -1.876  1.00  0.00    -0.550 OA
ENDBRANCH   7   8
ENDBRANCH   6   7
ENDBRANCH   5   6
ENDBRANCH   4   5
ENDBRANCH   3   4
ENDBRANCH   2   3
ENDBRANCH   1   2
BRANCH   1  11
ATOM     11  C   UNL     1      -3.332  25.677  -0.722  1.00  0.00     0.000 C 
BRANCH  11  12
ATOM     12  C   UNL     1      -3.049  26.760   0.331  1.00  0.00     0.000 C 
BRANCH  12  13
ATOM     13  C   UNL     1      -2.229  26.226   1.519  1.00  0.00     0.000 C 
BRANCH  13  14
ATOM     14  C   UNL     1      -2.964  26.382   2.859  1.00  0.00     0.000 C 
BRANCH  14  15
ATOM     15  C   UNL     1      -4.270  25.571   2.913  1.00  0.00     0.000 C 
BRANCH  15  16
ATOM     16  C   UNL     1      -5.508  26.452   3.162  1.00  0.00     0.006 C 
BRANCH  16  17
ATOM     17  C   UNL     1      -6.578  26.360   2.063  1.00  0.00     0.053 C 
BRANCH  17  18
ATOM     18  C   UNL     1      -7.580  25.283   2.344  1.00  0.00     0.041 C 
ATOM     19  O   UNL     1      -8.779  25.581   2.591  1.00  0.00    -0.550 OA
ATOM     20  O   UNL     1      -7.198  23.948   2.298  1.00  0.00    -0.550 OA
ENDBRANCH  17  18
ENDBRANCH  16  17
ENDBRANCH  15  16
ENDBRANCH  14  15
ENDBRANCH  13  14
ENDBRANCH  12  13
ENDBRANCH  11  12
ENDBRANCH   1  11
TORSDOF 15
ENDMDL
MODEL 3
REMARK VINA RESULT:    -3.793      3.470      5.145
REMARK INTER + INTRA:          -9.311
REMARK INTER:                  -7.608
REMARK INTRA:                  -1.703
REMARK UNBOUND:                -2.192
REMARK SMILES O=C([O-])CCCCCCCCCCCCCCC(=O)[O-]
REMARK SMILES IDX 10 1 9 2 8 3 7 4 6 5 5 6 4 7 2 8 1 9 3 10 11 11 12 12 13 13
REMARK SMILES IDX 14 14 15 15 16 16 17 17 18 18 19 19 20 20
REMARK H PARENT
REMARK Flexibility Score: inf
ROOT
ATOM      1  C   UNL     1      -2.024  26.896   0.399  1.00  0.00     0.000 C 
ENDROOT
BRANCH   1   2
ATOM      2  C   UNL     1      -3.084  25.953   0.998  1.00  0.00     0.000 C 
BRANCH   2   3
ATOM      3  C   UNL     1      -3.050  25.834   2.533  1.00  0.00     0.000 C 
BRANCH   3   4
ATOM      4  C   UNL     1      -4.340  26.334   3.201  1.00  0.00     0.000 C 
BRANCH   4   5
ATOM      5  C   UNL     1      -5.320  26.891   2.157  1.00  0.00     0.000 C 
BRANCH   5   6
ATOM      6  C   UNL     1      -6.788  26.793   2.606  1.00  0.00     0.006 C 
BRANCH   6   7
ATOM      7  C   UNL     1      -7.248  25.372   2.965  1.00  0.00     0.053 C 
BRANCH   7   8
ATOM      8  C   UNL     1      -7.601  24.571   1.749  1.00  0.00     0.041 C 
ATOM      9  O   UNL     1      -6.823  23.672   1.335  1.00  0.00    -0.550 OA
ATOM     10  O   UNL     1      -8.804  24.796   1.093  1.00  0.00    -0.550 OA
ENDBRANCH   7   8
ENDBRANCH   6   7
ENDBRANCH   5   6
ENDBRANCH   4   5
ENDBRANCH   3   4
ENDBRANCH   2   3
ENDBRANCH   1   2
BRANCH   1  11
ATOM     11  C   UNL     1      -1.429  27.863   1.437  1.00  0.00     0.000 C 
BRANCH  11  12
ATOM     12  C   UNL     1      -1.798  29.328   1.157  1.00  0.00     0.000 C 
BRANCH  12  13
ATOM     13  C   UNL     1      -3.098  29.754   1.864  1.00  0.00     0.000 C 
BRANCH  13  14
ATOM     14  C   UNL     1      -3.979  30.652   0.983  1.00  0.00     0.000 C 
BRANCH  14  15
ATOM     15  C   UNL     1      -5.176  29.896   0.381  1.00  0.00     0.000 C 
BRANCH  15  16
ATOM     16  C   UNL     1      -5.471  30.309  -1.072  1.00  0.00     0.006 C 
BRANCH  16  17
ATOM     17  C   UNL     1      -5.712  31.815  -1.262  1.00  0.00     0.053 C 
BRANCH  17  18
ATOM     18  C   UNL     1      -7.162  32.130  -1.463  1.00  0.00     0.041 C 
ATOM     19  O   UNL     1      -7.506  33.194  -2.044  1.00  0.00    -0.550 OA
ATOM     20  O   UNL     1      -8.134  31.231  -1.041  1.00  0.00    -0.550 OA
ENDBRANCH  17  18
ENDBRANCH  16  17
ENDBRANCH  15  16
ENDBRANCH  14  15
ENDBRANCH  13  14
ENDBRANCH  12  13
ENDBRANCH  11  12
ENDBRANCH   1  11
TORSDOF 15
ENDMDL
MODEL 4
REMARK VINA RESULT:    -3.754      2.268      4.078
REMARK INTER + INTRA:          -9.239
REMARK INTER:                  -7.705
REMARK INTRA:                  -1.534
REMARK UNBOUND:                -2.192
REMARK SMILES O=C([O-])CCCCCCCCCCCCCCC(=O)[O-]
REMARK SMILES IDX 10 1 9 2 8 3 7 4 6 5 5 6 4 7 2 8 1 9 3 10 11 11 12 12 13 13
REMARK SMILES IDX 14 14 15 15 16 16 17 17 18 18 19 19 20 20
REMARK H PARENT
REMARK Flexibility Score: inf
ROOT
ATOM      1  C   UNL     1      -3.076  21.880  -0.170  1.00  0.00     0.000 C 
ENDROOT
BRANCH   1   2
ATOM      2  C   UNL     1      -3.820  23.049   0.500  1.00  0.00     0.000 C 
BRANCH   2   3
ATOM      3  C   UNL     1      -4.673  23.905  -0.454  1.00  0.00     0.000 C 
BRANCH   3   4
ATOM      4  C   UNL     1      -5.132  25.229   0.177  1.00  0.00     0.000 C 
BRANCH   4   5
ATOM      5  C   UNL     1      -6.642  25.436  -0.021  1.00  0.00     0.000 C 
BRANCH   5   6
ATOM      6  C   UNL     1      -7.488  24.691   1.026  1.00  0.00     0.006 C 
BRANCH   6   7
ATOM      7  C   UNL     1      -6.902  24.713   2.447  1.00  0.00     0.053 C 
BRANCH   7   8
ATOM      8  C   UNL     1      -7.692  25.591   3.367  1.00  0.00     0.041 C 
ATOM      9  O   UNL     1      -8.896  25.858   3.111  1.00  0.00    -0.550 OA
ATOM     10  O   UNL     1      -7.109  26.088   4.526  1.00  0.00    -0.550 OA
ENDBRANCH   7   8
ENDBRANCH   6   7
ENDBRANCH   5   6
ENDBRANCH   4   5
ENDBRANCH   3   4
ENDBRANCH   2   3
ENDBRANCH   1   2
BRANCH   1  11
ATOM     11  C   UNL     1      -1.583  22.172  -0.396  1.00  0.00     0.000 C 
BRANCH  11  12
ATOM     12  C   UNL     1      -1.097  23.401   0.390  1.00  0.00     0.000 C 
BRANCH  12  13
ATOM     13  C   UNL     1      -0.226  24.339  -0.464  1.00  0.00     0.000 C 
BRANCH  13  14
ATOM     14  C   UNL     1      -0.673  25.806  -0.368  1.00  0.00     0.000 C 
BRANCH  14  15
ATOM     15  C   UNL     1      -1.589  26.065   0.841  1.00  0.00     0.000 C 
BRANCH  15  16
ATOM     16  C   UNL     1      -1.586  27.539   1.285  1.00  0.00     0.006 C 
BRANCH  16  17
ATOM     17  C   UNL     1      -2.497  27.837   2.487  1.00  0.00     0.053 C 
BRANCH  17  18
ATOM     18  C   UNL     1      -1.856  28.781   3.456  1.00  0.00     0.041 C 
ATOM     19  O   UNL     1      -2.525  29.267   4.406  1.00  0.00    -0.550 OA
ATOM     20  O   UNL     1      -0.508  29.096   3.332  1.00  0.00    -0.550 OA
ENDBRANCH  17  18
ENDBRANCH  16  17
ENDBRANCH  15  16
ENDBRANCH  14  15
ENDBRANCH  13  14
ENDBRANCH  12  13
ENDBRANCH  11  12
ENDBRANCH   1  11
TORSDOF 15
ENDMDL
MODEL 5
REMARK VINA RESULT:    -3.750      3.344      4.880
REMARK INTER + INTRA:          -9.230
REMARK INTER:                  -6.913
REMARK INTRA:                  -2.317
REMARK UNBOUND:                -2.192
REMARK SMILES O=C([O-])CCCCCCCCCCCCCCC(=O)[O-]
REMARK SMILES IDX 10 1 9 2 8 3 7 4 6 5 5 6 4 7 2 8 1 9 3 10 11 11 12 12 13 13
REMARK SMILES IDX 14 14 15 15 16 16 17 17 18 18 19 19 20 20
REMARK H PARENT
REMARK Flexibility Score: inf
ROOT
ATOM      1  C   UNL     1      -1.720  26.887  -1.149  1.00  0.00     0.000 C 
ENDROOT
BRANCH   1   2
ATOM      2  C   UNL     1      -1.303  27.107   0.316  1.00  0.00     0.000 C 
BRANCH   2   3
ATOM      3  C   UNL     1      -2.064  26.249   1.342  1.00  0.00     0.000 C 
BRANCH   3   4
ATOM      4  C   UNL     1      -2.517  27.047   2.574  1.00  0.00     0.000 C 
BRANCH   4   5
ATOM      5  C   UNL     1      -3.790  26.442   3.184  1.00  0.00     0.000 C 
BRANCH   5   6
ATOM      6  C   UNL     1      -4.433  25.372   2.284  1.00  0.00     0.006 C 
BRANCH   6   7
ATOM      7  C   UNL     1      -5.966  25.444   2.209  1.00  0.00     0.053 C 
BRANCH   7   8
ATOM      8  C   UNL     1      -6.580  24.100   1.960  1.00  0.00     0.041 C 
ATOM      9  O   UNL     1      -6.307  23.129   2.714  1.00  0.00    -0.550 OA
ATOM     10  O   UNL     1      -7.480  23.929   0.916  1.00  0.00    -0.550 OA
ENDBRANCH   7   8
ENDBRANCH   6   7
ENDBRANCH   5   6
ENDBRANCH   4   5
ENDBRANCH   3   4
ENDBRANCH   2   3
ENDBRANCH   1   2
BRANCH   1  11
ATOM     11  C   UNL     1      -3.234  26.666  -1.313  1.00  0.00     0.000 C 
BRANCH  11  12
ATOM     12  C   UNL     1      -4.023  27.984  -1.335  1.00  0.00     0.000 C 
BRANCH  12  13
ATOM     13  C   UNL     1      -5.302  27.919  -0.481  1.00  0.00     0.000 C 
BRANCH  13  14
ATOM     14  C   UNL     1      -5.253  28.869   0.725  1.00  0.00     0.000 C 
BRANCH  14  15
ATOM     15  C   UNL     1      -4.283  30.044   0.512  1.00  0.00     0.000 C 
BRANCH  15  16
ATOM     16  C   UNL     1      -5.008  31.392   0.345  1.00  0.00     0.006 C 
BRANCH  16  17
ATOM     17  C   UNL     1      -5.337  31.754  -1.112  1.00  0.00     0.053 C 
BRANCH  17  18
ATOM     18  C   UNL     1      -6.813  31.836  -1.350  1.00  0.00     0.041 C 
ATOM     19  O   UNL     1      -7.594  31.035  -0.772  1.00  0.00    -0.550 OA
ATOM     20  O   UNL     1      -7.329  32.821  -2.183  1.00  0.00    -0.550 OA
ENDBRANCH  17  18
ENDBRANCH  16  17
ENDBRANCH  15  16
ENDBRANCH  14  15
ENDBRANCH  13  14
ENDBRANCH  12  13
ENDBRANCH  11  12
ENDBRANCH   1  11
TORSDOF 15
ENDMDL
MODEL 6
REMARK VINA RESULT:    -3.695      1.232      4.118
REMARK INTER + INTRA:          -9.127
REMARK INTER:                  -6.734
REMARK INTRA:                  -2.393
REMARK UNBOUND:                -2.192
REMARK SMILES O=C([O-])CCCCCCCCCCCCCCC(=O)[O-]
REMARK SMILES IDX 10 1 9 2 8 3 7 4 6 5 5 6 4 7 2 8 1 9 3 10 11 11 12 12 13 13
REMARK SMILES IDX 14 14 15 15 16 16 17 17 18 18 19 19 20 20
REMARK H PARENT
REMARK Flexibility Score: inf
ROOT
ATOM      1  C   UNL     1      -1.359  26.286  -0.915  1.00  0.00     0.000 C 
ENDROOT
BRANCH   1   2
ATOM      2  C   UNL     1      -1.275  26.583   0.593  1.00  0.00     0.000 C 
BRANCH   2   3
ATOM      3  C   UNL     1      -2.626  26.860   1.275  1.00  0.00     0.000 C 
BRANCH   3   4
ATOM      4  C   UNL     1      -3.088  25.708   2.182  1.00  0.00     0.000 C 
BRANCH   4   5
ATOM      5  C   UNL     1      -3.978  26.228   3.321  1.00  0.00     0.000 C 
BRANCH   5   6
ATOM      6  C   UNL     1      -5.479  26.050   3.033  1.00  0.00     0.006 C 
BRANCH   6   7
ATOM      7  C   UNL     1      -5.831  24.762   2.273  1.00  0.00     0.053 C 
BRANCH   7   8
ATOM      8  C   UNL     1      -7.208  24.814   1.686  1.00  0.00     0.041 C 
ATOM      9  O   UNL     1      -7.677  23.815   1.080  1.00  0.00    -0.550 OA
ATOM     10  O   UNL     1      -7.987  25.954   1.838  1.00  0.00    -0.550 OA
ENDBRANCH   7   8
ENDBRANCH   6   7
ENDBRANCH   5   6
ENDBRANCH   4   5
ENDBRANCH   3   4
ENDBRANCH   2   3
ENDBRANCH   1   2
BRANCH   1  11
ATOM     11  C   UNL     1      -0.828  24.889  -1.280  1.00  0.00     0.000 C 
BRANCH  11  12
ATOM     12  C   UNL     1      -0.483  24.047  -0.042  1.00  0.00     0.000 C 
BRANCH  12  13
ATOM     13  C   UNL     1      -1.177  22.673  -0.052  1.00  0.00     0.000 C 
BRANCH  13  14
ATOM     14  C   UNL     1      -2.401  22.639  -0.979  1.00  0.00     0.000 C 
BRANCH  14  15
ATOM     15  C   UNL     1      -3.712  22.950  -0.237  1.00  0.00     0.000 C 
BRANCH  15  16
ATOM     16  C   UNL     1      -4.767  23.610  -1.143  1.00  0.00     0.006 C 
BRANCH  16  17
ATOM     17  C   UNL     1      -4.700  25.145  -1.174  1.00  0.00     0.053 C 
BRANCH  17  18
ATOM     18  C   UNL     1      -5.863  25.744  -1.902  1.00  0.00     0.041 C 
ATOM     19  O   UNL     1      -6.132  25.378  -3.077  1.00  0.00    -0.550 OA
ATOM     20  O   UNL     1      -6.673  26.679  -1.270  1.00  0.00    -0.550 OA
ENDBRANCH  17  18
ENDBRANCH  16  17
ENDBRANCH  15  16
ENDBRANCH  14  15
ENDBRANCH  13  14
ENDBRANCH  12  13
ENDBRANCH  11  12
ENDBRANCH   1  11
TORSDOF 15
ENDMDL
MODEL 7
REMARK VINA RESULT:    -3.659      1.561      2.192
REMARK INTER + INTRA:          -9.061
REMARK INTER:                  -7.261
REMARK INTRA:                  -1.800
REMARK UNBOUND:                -2.192
REMARK SMILES O=C([O-])CCCCCCCCCCCCCCC(=O)[O-]
REMARK SMILES IDX 10 1 9 2 8 3 7 4 6 5 5 6 4 7 2 8 1 9 3 10 11 11 12 12 13 13
REMARK SMILES IDX 14 14 15 15 16 16 17 17 18 18 19 19 20 20
REMARK H PARENT
REMARK Flexibility Score: inf
ROOT
ATOM      1  C   UNL     1      -1.056  22.521  -0.895  1.00  0.00     0.000 C 
ENDROOT
BRANCH   1   2
ATOM      2  C   UNL     1      -1.959  21.602  -0.052  1.00  0.00     0.000 C 
BRANCH   2   3
ATOM      3  C   UNL     1      -3.462  21.707  -0.367  1.00  0.00     0.000 C 
BRANCH   3   4
ATOM      4  C   UNL     1      -3.986  23.151  -0.316  1.00  0.00     0.000 C 
BRANCH   4   5
ATOM      5  C   UNL     1      -4.474  23.508   1.097  1.00  0.00     0.000 C 
BRANCH   5   6
ATOM      6  C   UNL     1      -5.172  24.878   1.158  1.00  0.00     0.006 C 
BRANCH   6   7
ATOM      7  C   UNL     1      -6.666  24.812   1.513  1.00  0.00     0.053 C 
BRANCH   7   8
ATOM      8  C   UNL     1      -7.514  24.510   0.315  1.00  0.00     0.041 C 
ATOM      9  O   UNL     1      -8.472  23.697   0.406  1.00  0.00    -0.550 OA
ATOM     10  O   UNL     1      -7.268  25.152  -0.892  1.00  0.00    -0.550 OA
ENDBRANCH   7   8
ENDBRANCH   6   7
ENDBRANCH   5   6
ENDBRANCH   4   5
ENDBRANCH   3   4
ENDBRANCH   2   3
ENDBRANCH   1   2
BRANCH   1  11
ATOM     11  C   UNL     1      -0.339  23.590  -0.053  1.00  0.00     0.000 C 
BRANCH  11  12
ATOM     12  C   UNL     1       0.032  24.836  -0.873  1.00  0.00     0.000 C 
BRANCH  12  13
ATOM     13  C   UNL     1      -0.701  26.099  -0.388  1.00  0.00     0.000 C 
BRANCH  13  14
ATOM     14  C   UNL     1      -1.623  25.822   0.808  1.00  0.00     0.000 C 
BRANCH  14  15
ATOM     15  C   UNL     1      -1.968  27.097   1.596  1.00  0.00     0.000 C 
BRANCH  15  16
ATOM     16  C   UNL     1      -2.849  28.072   0.794  1.00  0.00     0.006 C 
BRANCH  16  17
ATOM     17  C   UNL     1      -4.066  28.604   1.569  1.00  0.00     0.053 C 
BRANCH  17  18
ATOM     18  C   UNL     1      -5.152  29.074   0.652  1.00  0.00     0.041 C 
ATOM     19  O   UNL     1      -5.249  30.295   0.358  1.00  0.00    -0.550 OA
ATOM     20  O   UNL     1      -6.036  28.159   0.092  1.00  0.00    -0.550 OA
ENDBRANCH  17  18
ENDBRANCH  16  17
ENDBRANCH  15  16
ENDBRANCH  14  15
ENDBRANCH  13  14
ENDBRANCH  12  13
ENDBRANCH  11  12
ENDBRANCH   1  11
TORSDOF 15
ENDMDL
MODEL 8
REMARK VINA RESULT:    -3.652      3.740      5.407
REMARK INTER + INTRA:          -9.047
REMARK INTER:                  -8.071
REMARK INTRA:                  -0.975
REMARK UNBOUND:                -2.192
REMARK SMILES O=C([O-])CCCCCCCCCCCCCCC(=O)[O-]
REMARK SMILES IDX 10 1 9 2 8 3 7 4 6 5 5 6 4 7 2 8 1 9 3 10 11 11 12 12 13 13
REMARK SMILES IDX 14 14 15 15 16 16 17 17 18 18 19 19 20 20
REMARK H PARENT
REMARK Flexibility Score: inf
ROOT
ATOM      1  C   UNL     1      -2.760  27.892   3.380  1.00  0.00     0.000 C 
ENDROOT
BRANCH   1   2
ATOM      2  C   UNL     1      -2.496  26.916   2.221  1.00  0.00     0.000 C 
BRANCH   2   3
ATOM      3  C   UNL     1      -3.242  25.573   2.323  1.00  0.00     0.000 C 
BRANCH   3   4
ATOM      4  C   UNL     1      -3.330  24.833   0.979  1.00  0.00     0.000 C 
BRANCH   4   5
ATOM      5  C   UNL     1      -4.756  24.319   0.728  1.00  0.00     0.000 C 
BRANCH   5   6
ATOM      6  C   UNL     1      -5.616  24.297   2.004  1.00  0.00     0.006 C 
BRANCH   6   7
ATOM      7  C   UNL     1      -7.105  24.599   1.771  1.00  0.00     0.053 C 
BRANCH   7   8
ATOM      8  C   UNL     1      -7.510  25.916   2.358  1.00  0.00     0.041 C 
ATOM      9  O   UNL     1      -8.350  25.960   3.295  1.00  0.00    -0.550 OA
ATOM     10  O   UNL     1      -6.934  27.092   1.894  1.00  0.00    -0.550 OA
ENDBRANCH   7   8
ENDBRANCH   6   7
ENDBRANCH   5   6
ENDBRANCH   4   5
ENDBRANCH   3   4
ENDBRANCH   2   3
ENDBRANCH   1   2
BRANCH   1  11
ATOM     11  C   UNL     1      -1.973  29.208   3.245  1.00  0.00     0.000 C 
BRANCH  11  12
ATOM     12  C   UNL     1      -2.831  30.353   2.687  1.00  0.00     0.000 C 
BRANCH  12  13
ATOM     13  C   UNL     1      -3.041  30.245   1.166  1.00  0.00     0.000 C 
BRANCH  13  14
ATOM     14  C   UNL     1      -4.477  30.589   0.745  1.00  0.00     0.000 C 
BRANCH  14  15
ATOM     15  C   UNL     1      -4.556  31.884  -0.082  1.00  0.00     0.000 C 
BRANCH  15  16
ATOM     16  C   UNL     1      -4.923  31.629  -1.555  1.00  0.00     0.006 C 
BRANCH  16  17
ATOM     17  C   UNL     1      -6.342  31.074  -1.763  1.00  0.00     0.053 C 
BRANCH  17  18
ATOM     18  C   UNL     1      -7.392  32.020  -1.269  1.00  0.00     0.041 C 
ATOM     19  O   UNL     1      -8.179  31.670  -0.349  1.00  0.00    -0.550 OA
ATOM     20  O   UNL     1      -7.479  33.301  -1.800  1.00  0.00    -0.550 OA
ENDBRANCH  17  18
ENDBRANCH  16  17
ENDBRANCH  15  16
ENDBRANCH  14  15
ENDBRANCH  13  14
ENDBRANCH  12  13
ENDBRANCH  11  12
ENDBRANCH   1  11
TORSDOF 15
ENDMDL
MODEL 9
REMARK VINA RESULT:    -3.638      3.216      4.830
REMARK INTER + INTRA:          -9.021
REMARK INTER:                  -6.642
REMARK INTRA:                  -2.378
REMARK UNBOUND:                -2.192
REMARK SMILES O=C([O-])CCCCCCCCCCCCCCC(=O)[O-]
REMARK SMILES IDX 10 1 9 2 8 3 7 4 6 5 5 6 4 7 2 8 1 9 3 10 11 11 12 12 13 13
REMARK SMILES IDX 14 14 15 15 16 16 17 17 18 18 19 19 20 20
REMARK H PARENT
REMARK Flexibility Score: inf
ROOT
ATOM      1  C   UNL     1      -1.808  29.650   2.269  1.00  0.00     0.000 C 
ENDROOT
BRANCH   1   2
ATOM      2  C   UNL     1      -1.952  28.549   3.336  1.00  0.00     0.000 C 
BRANCH   2   3
ATOM      3  C   UNL     1      -3.274  27.763   3.280  1.00  0.00     0.000 C 
BRANCH   3   4
ATOM      4  C   UNL     1      -3.072  26.272   2.970  1.00  0.00     0.000 C 
BRANCH   4   5
ATOM      5  C   UNL     1      -4.418  25.577   2.713  1.00  0.00     0.000 C 
BRANCH   5   6
ATOM      6  C   UNL     1      -5.605  26.557   2.711  1.00  0.00     0.006 C 
BRANCH   6   7
ATOM      7  C   UNL     1      -6.984  25.882   2.639  1.00  0.00     0.053 C 
BRANCH   7   8
ATOM      8  C   UNL     1      -7.150  25.076   1.387  1.00  0.00     0.041 C 
ATOM      9  O   UNL     1      -7.332  25.652   0.282  1.00  0.00    -0.550 OA
ATOM     10  O   UNL     1      -7.071  23.690   1.436  1.00  0.00    -0.550 OA
ENDBRANCH   7   8
ENDBRANCH   6   7
ENDBRANCH   5   6
ENDBRANCH   4   5
ENDBRANCH   3   4
ENDBRANCH   2   3
ENDBRANCH   1   2
BRANCH   1  11
ATOM     11  C   UNL     1      -0.644  29.392   1.297  1.00  0.00     0.000 C 
BRANCH  11  12
ATOM     12  C   UNL     1      -0.833  28.105   0.479  1.00  0.00     0.000 C 
BRANCH  12  13
ATOM     13  C   UNL     1      -2.020  28.198  -0.498  1.00  0.00     0.000 C 
BRANCH  13  14
ATOM     14  C   UNL     1      -2.846  26.904  -0.542  1.00  0.00     0.000 C 
BRANCH  14  15
ATOM     15  C   UNL     1      -4.350  27.170  -0.732  1.00  0.00     0.000 C 
BRANCH  15  16
ATOM     16  C   UNL     1      -4.678  28.669  -0.848  1.00  0.00     0.006 C 
BRANCH  16  17
ATOM     17  C   UNL     1      -5.209  29.301   0.449  1.00  0.00     0.053 C 
BRANCH  17  18
ATOM     18  C   UNL     1      -5.598  30.734   0.258  1.00  0.00     0.041 C 
ATOM     19  O   UNL     1      -6.803  31.042   0.053  1.00  0.00    -0.550 OA
ATOM     20  O   UNL     1      -4.636  31.733   0.341  1.00  0.00    -0.550 OA
ENDBRANCH  17  18
ENDBRANCH  16  17
ENDBRANCH  15  16
ENDBRANCH  14  15
ENDBRANCH  13  14
ENDBRANCH  12  13
ENDBRANCH  11  12
ENDBRANCH   1  11
TORSDOF 15
ENDMDL
