MODEL 1
REMARK VINA RESULT:    -4.831      0.000      0.000
REMARK INTER + INTRA:          -9.150
REMARK INTER:                  -8.219
REMARK INTRA:                  -0.930
REMARK UNBOUND:                -0.930
REMARK SMILES CCCCCCCCCCCCCC(=O)[O-]
REMARK SMILES IDX 8 1 9 2 10 3 11 4 12 5 13 6 14 7 15 8 16 9 7 10 6 11 5 12
REMARK SMILES IDX 4 13 3 14 2 15 1 16
REMARK H PARENT
REMARK Flexibility Score: inf
ROOT
ATOM      1  C   UNL     1      48.079  31.852  18.097  1.00  0.00     0.000 C 
ENDROOT
BRANCH   1   2
ATOM      2  C   UNL     1      49.130  32.755  17.427  1.00  0.00     0.000 C 
BRANCH   2   3
ATOM      3  C   UNL     1      48.523  34.057  16.878  1.00  0.00     0.000 C 
BRANCH   3   4
ATOM      4  C   UNL     1      47.649  33.825  15.633  1.00  0.00     0.000 C 
BRANCH   4   5
ATOM      5  C   UNL     1      48.449  33.268  14.441  1.00  0.00     0.006 C 
BRANCH   5   6
ATOM      6  C   UNL     1      48.833  34.324  13.391  1.00  0.00     0.053 C 
BRANCH   6   7
ATOM      7  C   UNL     1      49.161  33.705  12.068  1.00  0.00     0.041 C 
ATOM      8  O   UNL     1      48.288  33.047  11.442  1.00  0.00    -0.550 OA
ATOM      9  O   UNL     1      50.441  33.826  11.540  1.00  0.00    -0.550 OA
ENDBRANCH   6   7
ENDBRANCH   5   6
ENDBRANCH   4   5
ENDBRANCH   3   4
ENDBRANCH   2   3
ENDBRANCH   1   2
BRANCH   1  10
ATOM     10  C   UNL     1      47.844  30.546  17.323  1.00  0.00     0.000 C 
BRANCH  10  11
ATOM     11  C   UNL     1      49.023  30.174  16.411  1.00  0.00    -0.000 C 
BRANCH  11  12
ATOM     12  C   UNL     1      48.595  29.153  15.347  1.00  0.00    -0.000 C 
BRANCH  12  13
ATOM     13  C   UNL     1      48.285  27.765  15.936  1.00  0.00    -0.000 C 
BRANCH  13  14
ATOM     14  C   UNL     1      48.631  26.577  15.020  1.00  0.00    -0.000 C 
BRANCH  14  15
ATOM     15  C   UNL     1      49.064  25.326  15.799  1.00  0.00    -0.003 C 
ATOM     16  C   UNL     1      48.679  25.435  17.271  1.00  0.00     0.004 C 
ENDBRANCH  14  15
ENDBRANCH  13  14
ENDBRANCH  12  13
ENDBRANCH  11  12
ENDBRANCH  10  11
ENDBRANCH   1  10
TORSDOF 12
ENDMDL
MODEL 2
REMARK VINA RESULT:    -4.812      5.509      8.625
REMARK INTER + INTRA:          -9.118
REMARK INTER:                  -8.417
REMARK INTRA:                  -0.701
REMARK UNBOUND:                -0.930
REMARK SMILES CCCCCCCCCCCCCC(=O)[O-]
REMARK SMILES IDX 8 1 9 2 10 3 11 4 12 5 13 6 14 7 15 8 16 9 7 10 6 11 5 12
REMARK SMILES IDX 4 13 3 14 2 15 1 16
REMARK H PARENT
REMARK Flexibility Score: inf
ROOT
ATOM      1  C   UNL     1      46.169  35.709  12.770  1.00  0.00     0.000 C 
ENDROOT
BRANCH   1   2
ATOM      2  C   UNL     1      46.663  34.454  12.030  1.00  0.00     0.000 C 
BRANCH   2   3
ATOM      3  C   UNL     1      48.188  34.279  12.120  1.00  0.00     0.000 C 
BRANCH   3   4
ATOM      4  C   UNL     1      48.732  34.533  13.538  1.00  0.00     0.000 C 
BRANCH   4   5
ATOM      5  C   UNL     1      48.499  33.342  14.485  1.00  0.00     0.006 C 
BRANCH   5   6
ATOM      6  C   UNL     1      47.524  33.633  15.637  1.00  0.00     0.053 C 
BRANCH   6   7
ATOM      7  C   UNL     1      48.199  33.572  16.972  1.00  0.00     0.041 C 
ATOM      8  O   UNL     1      47.844  32.713  17.822  1.00  0.00    -0.550 OA
ATOM      9  O   UNL     1      49.197  34.485  17.291  1.00  0.00    -0.550 OA
ENDBRANCH   6   7
ENDBRANCH   5   6
ENDBRANCH   4   5
ENDBRANCH   3   4
ENDBRANCH   2   3
ENDBRANCH   1   2
BRANCH   1  10
ATOM     10  C   UNL     1      44.650  35.697  13.003  1.00  0.00     0.000 C 
BRANCH  10  11
ATOM     11  C   UNL     1      43.909  36.738  12.150  1.00  0.00    -0.000 C 
BRANCH  11  12
ATOM     12  C   UNL     1      42.448  36.324  11.923  1.00  0.00    -0.000 C 
BRANCH  12  13
ATOM     13  C   UNL     1      41.460  37.085  12.825  1.00  0.00    -0.000 C 
BRANCH  13  14
ATOM     14  C   UNL     1      40.164  36.324  13.157  1.00  0.00    -0.000 C 
BRANCH  14  15
ATOM     15  C   UNL     1      39.454  35.776  11.911  1.00  0.00    -0.003 C 
ATOM     16  C   UNL     1      39.257  34.266  12.009  1.00  0.00     0.004 C 
ENDBRANCH  14  15
ENDBRANCH  13  14
ENDBRANCH  12  13
ENDBRANCH  11  12
ENDBRANCH  10  11
ENDBRANCH   1  10
TORSDOF 12
ENDMDL
MODEL 3
REMARK VINA RESULT:    -4.748     12.980     15.161
REMARK INTER + INTRA:          -9.009
REMARK INTER:                  -7.117
REMARK INTRA:                  -1.892
REMARK UNBOUND:                -0.930
REMARK SMILES CCCCCCCCCCCCCC(=O)[O-]
REMARK SMILES IDX 8 1 9 2 10 3 11 4 12 5 13 6 14 7 15 8 16 9 7 10 6 11 5 12
REMARK SMILES IDX 4 13 3 14 2 15 1 16
REMARK H PARENT
REMARK Flexibility Score: inf
ROOT
ATOM      1  C   UNL     1      38.739  38.641  21.637  1.00  0.00     0.000 C 
ENDROOT
BRANCH   1   2
ATOM      2  C   UNL     1      39.566  39.887  21.274  1.00  0.00     0.000 C 
BRANCH   2   3
ATOM      3  C   UNL     1      38.991  41.174  21.888  1.00  0.00     0.000 C 
BRANCH   3   4
ATOM      4  C   UNL     1      40.039  41.968  22.690  1.00  0.00     0.000 C 
BRANCH   4   5
ATOM      5  C   UNL     1      41.017  41.056  23.453  1.00  0.00     0.006 C 
BRANCH   5   6
ATOM      6  C   UNL     1      40.614  40.780  24.911  1.00  0.00     0.053 C 
BRANCH   6   7
ATOM      7  C   UNL     1      41.308  41.699  25.869  1.00  0.00     0.041 C 
ATOM      8  O   UNL     1      41.302  41.449  27.103  1.00  0.00    -0.550 OA
ATOM      9  O   UNL     1      41.931  42.850  25.402  1.00  0.00    -0.550 OA
ENDBRANCH   6   7
ENDBRANCH   5   6
ENDBRANCH   4   5
ENDBRANCH   3   4
ENDBRANCH   2   3
ENDBRANCH   1   2
BRANCH   1  10
ATOM     10  C   UNL     1      37.842  38.864  22.864  1.00  0.00     0.000 C 
BRANCH  10  11
ATOM     11  C   UNL     1      38.144  37.884  24.008  1.00  0.00    -0.000 C 
BRANCH  11  12
ATOM     12  C   UNL     1      38.690  36.556  23.463  1.00  0.00    -0.000 C 
BRANCH  12  13
ATOM     13  C   UNL     1      40.026  36.144  24.108  1.00  0.00    -0.000 C 
BRANCH  13  14
ATOM     14  C   UNL     1      41.135  37.210  24.045  1.00  0.00    -0.000 C 
BRANCH  14  15
ATOM     15  C   UNL     1      41.877  37.224  22.701  1.00  0.00    -0.003 C 
ATOM     16  C   UNL     1      43.216  37.947  22.819  1.00  0.00     0.004 C 
ENDBRANCH  14  15
ENDBRANCH  13  14
ENDBRANCH  12  13
ENDBRANCH  11  12
ENDBRANCH  10  11
ENDBRANCH   1  10
TORSDOF 12
ENDMDL
MODEL 4
REMARK VINA RESULT:    -4.683      4.454      8.271
REMARK INTER + INTRA:          -8.898
REMARK INTER:                  -8.294
REMARK INTRA:                  -0.604
REMARK UNBOUND:                -0.930
REMARK SMILES CCCCCCCCCCCCCC(=O)[O-]
REMARK SMILES IDX 8 1 9 2 10 3 11 4 12 5 13 6 14 7 15 8 16 9 7 10 6 11 5 12
REMARK SMILES IDX 4 13 3 14 2 15 1 16
REMARK H PARENT
REMARK Flexibility Score: inf
ROOT
ATOM      1  C   UNL     1      48.397  34.207  12.221  1.00  0.00     0.000 C 
ENDROOT
BRANCH   1   2
ATOM      2  C   UNL     1      48.996  34.515  13.605  1.00  0.00     0.000 C 
BRANCH   2   3
ATOM      3  C   UNL     1      48.328  33.706  14.729  1.00  0.00     0.000 C 
BRANCH   3   4
ATOM      4  C   UNL     1      48.656  34.254  16.130  1.00  0.00     0.000 C 
BRANCH   4   5
ATOM      5  C   UNL     1      48.027  33.415  17.258  1.00  0.00     0.006 C 
BRANCH   5   6
ATOM      6  C   UNL     1      48.757  32.091  17.541  1.00  0.00     0.053 C 
BRANCH   6   7
ATOM      7  C   UNL     1      47.810  30.934  17.616  1.00  0.00     0.041 C 
ATOM      8  O   UNL     1      47.447  30.484  18.735  1.00  0.00    -0.550 OA
ATOM      9  O   UNL     1      47.355  30.330  16.451  1.00  0.00    -0.550 OA
ENDBRANCH   6   7
ENDBRANCH   5   6
ENDBRANCH   4   5
ENDBRANCH   3   4
ENDBRANCH   2   3
ENDBRANCH   1   2
BRANCH   1  10
ATOM     10  C   UNL     1      46.865  34.325  12.202  1.00  0.00     0.000 C 
BRANCH  10  11
ATOM     11  C   UNL     1      46.372  35.727  12.590  1.00  0.00    -0.000 C 
BRANCH  11  12
ATOM     12  C   UNL     1      44.975  35.662  13.224  1.00  0.00    -0.000 C 
BRANCH  12  13
ATOM     13  C   UNL     1      43.842  35.901  12.209  1.00  0.00    -0.000 C 
BRANCH  13  14
ATOM     14  C   UNL     1      43.214  37.306  12.253  1.00  0.00    -0.000 C 
BRANCH  14  15
ATOM     15  C   UNL     1      42.871  37.853  10.860  1.00  0.00    -0.003 C 
ATOM     16  C   UNL     1      41.951  36.898  10.105  1.00  0.00     0.004 C 
ENDBRANCH  14  15
ENDBRANCH  13  14
ENDBRANCH  12  13
ENDBRANCH  11  12
ENDBRANCH  10  11
ENDBRANCH   1  10
TORSDOF 12
ENDMDL
MODEL 5
REMARK VINA RESULT:    -4.653      4.294      7.168
REMARK INTER + INTRA:          -8.848
REMARK INTER:                  -7.476
REMARK INTRA:                  -1.372
REMARK UNBOUND:                -0.930
REMARK SMILES CCCCCCCCCCCCCC(=O)[O-]
REMARK SMILES IDX 8 1 9 2 10 3 11 4 12 5 13 6 14 7 15 8 16 9 7 10 6 11 5 12
REMARK SMILES IDX 4 13 3 14 2 15 1 16
REMARK H PARENT
REMARK Flexibility Score: inf
ROOT
ATOM      1  C   UNL     1      48.549  26.084  19.477  1.00  0.00     0.000 C 
ENDROOT
BRANCH   1   2
ATOM      2  C   UNL     1      49.302  24.985  18.706  1.00  0.00     0.000 C 
BRANCH   2   3
ATOM      3  C   UNL     1      50.052  25.534  17.480  1.00  0.00     0.000 C 
BRANCH   3   4
ATOM      4  C   UNL     1      49.381  25.143  16.151  1.00  0.00     0.000 C 
BRANCH   4   5
ATOM      5  C   UNL     1      48.173  26.036  15.811  1.00  0.00     0.006 C 
BRANCH   5   6
ATOM      6  C   UNL     1      48.545  27.377  15.158  1.00  0.00     0.053 C 
BRANCH   6   7
ATOM      7  C   UNL     1      47.979  28.542  15.909  1.00  0.00     0.041 C 
ATOM      8  O   UNL     1      47.177  29.331  15.343  1.00  0.00    -0.550 OA
ATOM      9  O   UNL     1      48.364  28.777  17.223  1.00  0.00    -0.550 OA
ENDBRANCH   6   7
ENDBRANCH   5   6
ENDBRANCH   4   5
ENDBRANCH   3   4
ENDBRANCH   2   3
ENDBRANCH   1   2
BRANCH   1  10
ATOM     10  C   UNL     1      48.125  25.633  20.884  1.00  0.00     0.000 C 
BRANCH  10  11
ATOM     11  C   UNL     1      48.088  26.790  21.893  1.00  0.00    -0.000 C 
BRANCH  11  12
ATOM     12  C   UNL     1      49.410  26.886  22.669  1.00  0.00    -0.000 C 
BRANCH  12  13
ATOM     13  C   UNL     1      50.165  25.546  22.738  1.00  0.00    -0.000 C 
BRANCH  13  14
ATOM     14  C   UNL     1      51.650  25.614  22.338  1.00  0.00    -0.000 C 
BRANCH  14  15
ATOM     15  C   UNL     1      52.050  26.976  21.752  1.00  0.00    -0.003 C 
ATOM     16  C   UNL     1      52.486  26.841  20.296  1.00  0.00     0.004 C 
ENDBRANCH  14  15
ENDBRANCH  13  14
ENDBRANCH  12  13
ENDBRANCH  11  12
ENDBRANCH  10  11
ENDBRANCH   1  10
TORSDOF 12
ENDMDL
MODEL 6
REMARK VINA RESULT:    -4.631     13.155     15.426
REMARK INTER + INTRA:          -8.810
REMARK INTER:                  -6.599
REMARK INTRA:                  -2.211
REMARK UNBOUND:                -0.930
REMARK SMILES CCCCCCCCCCCCCC(=O)[O-]
REMARK SMILES IDX 8 1 9 2 10 3 11 4 12 5 13 6 14 7 15 8 16 9 7 10 6 11 5 12
REMARK SMILES IDX 4 13 3 14 2 15 1 16
REMARK H PARENT
REMARK Flexibility Score: inf
ROOT
ATOM      1  C   UNL     1      38.662  36.808  23.013  1.00  0.00     0.000 C 
ENDROOT
BRANCH   1   2
ATOM      2  C   UNL     1      37.637  37.648  23.795  1.00  0.00     0.000 C 
BRANCH   2   3
ATOM      3  C   UNL     1      38.300  38.747  24.643  1.00  0.00     0.000 C 
BRANCH   3   4
ATOM      4  C   UNL     1      37.755  40.151  24.325  1.00  0.00     0.000 C 
BRANCH   4   5
ATOM      5  C   UNL     1      38.688  41.274  24.813  1.00  0.00     0.006 C 
BRANCH   5   6
ATOM      6  C   UNL     1      39.985  40.776  25.470  1.00  0.00     0.053 C 
BRANCH   6   7
ATOM      7  C   UNL     1      41.119  41.733  25.271  1.00  0.00     0.041 C 
ATOM      8  O   UNL     1      41.411  42.138  24.115  1.00  0.00    -0.550 OA
ATOM      9  O   UNL     1      41.876  42.152  26.358  1.00  0.00    -0.550 OA
ENDBRANCH   6   7
ENDBRANCH   5   6
ENDBRANCH   4   5
ENDBRANCH   3   4
ENDBRANCH   2   3
ENDBRANCH   1   2
BRANCH   1  10
ATOM     10  C   UNL     1      39.919  36.492  23.838  1.00  0.00     0.000 C 
BRANCH  10  11
ATOM     11  C   UNL     1      41.220  36.828  23.093  1.00  0.00    -0.000 C 
BRANCH  11  12
ATOM     12  C   UNL     1      41.834  38.134  23.618  1.00  0.00    -0.000 C 
BRANCH  12  13
ATOM     13  C   UNL     1      42.277  39.086  22.493  1.00  0.00    -0.000 C 
BRANCH  13  14
ATOM     14  C   UNL     1      41.321  39.160  21.289  1.00  0.00    -0.000 C 
BRANCH  14  15
ATOM     15  C   UNL     1      40.135  40.108  21.523  1.00  0.00    -0.003 C 
ATOM     16  C   UNL     1      38.914  39.670  20.720  1.00  0.00     0.004 C 
ENDBRANCH  14  15
ENDBRANCH  13  14
ENDBRANCH  12  13
ENDBRANCH  11  12
ENDBRANCH  10  11
ENDBRANCH   1  10
TORSDOF 12
ENDMDL
MODEL 7
REMARK VINA RESULT:    -4.625      4.018      6.709
REMARK INTER + INTRA:          -8.800
REMARK INTER:                  -7.735
REMARK INTRA:                  -1.066
REMARK UNBOUND:                -0.930
REMARK SMILES CCCCCCCCCCCCCC(=O)[O-]
REMARK SMILES IDX 8 1 9 2 10 3 11 4 12 5 13 6 14 7 15 8 16 9 7 10 6 11 5 12
REMARK SMILES IDX 4 13 3 14 2 15 1 16
REMARK H PARENT
REMARK Flexibility Score: inf
ROOT
ATOM      1  C   UNL     1      49.675  25.512  18.461  1.00  0.00     0.000 C 
ENDROOT
BRANCH   1   2
ATOM      2  C   UNL     1      49.482  25.237  16.959  1.00  0.00     0.000 C 
BRANCH   2   3
ATOM      3  C   UNL     1      48.241  25.943  16.386  1.00  0.00     0.000 C 
BRANCH   3   4
ATOM      4  C   UNL     1      48.592  27.236  15.628  1.00  0.00     0.000 C 
BRANCH   4   5
ATOM      5  C   UNL     1      49.097  28.352  16.561  1.00  0.00     0.006 C 
BRANCH   5   6
ATOM      6  C   UNL     1      47.999  29.004  17.417  1.00  0.00     0.053 C 
BRANCH   6   7
ATOM      7  C   UNL     1      47.876  30.472  17.150  1.00  0.00     0.041 C 
ATOM      8  O   UNL     1      47.790  31.285  18.108  1.00  0.00    -0.550 OA
ATOM      9  O   UNL     1      47.822  30.940  15.843  1.00  0.00    -0.550 OA
ENDBRANCH   6   7
ENDBRANCH   5   6
ENDBRANCH   4   5
ENDBRANCH   3   4
ENDBRANCH   2   3
ENDBRANCH   1   2
BRANCH   1  10
ATOM     10  C   UNL     1      48.342  25.666  19.209  1.00  0.00     0.000 C 
BRANCH  10  11
ATOM     11  C   UNL     1      48.470  25.388  20.714  1.00  0.00    -0.000 C 
BRANCH  11  12
ATOM     12  C   UNL     1      48.330  26.683  21.527  1.00  0.00    -0.000 C 
BRANCH  12  13
ATOM     13  C   UNL     1      49.496  26.909  22.506  1.00  0.00    -0.000 C 
BRANCH  13  14
ATOM     14  C   UNL     1      50.413  25.690  22.717  1.00  0.00    -0.000 C 
BRANCH  14  15
ATOM     15  C   UNL     1      51.874  25.966  22.334  1.00  0.00    -0.003 C 
ATOM     16  C   UNL     1      52.195  27.455  22.427  1.00  0.00     0.004 C 
ENDBRANCH  14  15
ENDBRANCH  13  14
ENDBRANCH  12  13
ENDBRANCH  11  12
ENDBRANCH  10  11
ENDBRANCH   1  10
TORSDOF 12
ENDMDL
MODEL 8
REMARK VINA RESULT:    -4.557      6.110      7.893
REMARK INTER + INTRA:          -8.684
REMARK INTER:                  -7.349
REMARK INTRA:                  -1.335
REMARK UNBOUND:                -0.930
REMARK SMILES CCCCCCCCCCCCCC(=O)[O-]
REMARK SMILES IDX 8 1 9 2 10 3 11 4 12 5 13 6 14 7 15 8 16 9 7 10 6 11 5 12
REMARK SMILES IDX 4 13 3 14 2 15 1 16
REMARK H PARENT
REMARK Flexibility Score: inf
ROOT
ATOM      1  C   UNL     1      48.569  27.135  21.612  1.00  0.00     0.000 C 
ENDROOT
BRANCH   1   2
ATOM      2  C   UNL     1      48.088  25.757  21.125  1.00  0.00     0.000 C 
BRANCH   2   3
ATOM      3  C   UNL     1      48.159  25.614  19.595  1.00  0.00     0.000 C 
BRANCH   3   4
ATOM      4  C   UNL     1      49.557  25.197  19.103  1.00  0.00     0.000 C 
BRANCH   4   5
ATOM      5  C   UNL     1      49.589  24.896  17.594  1.00  0.00     0.006 C 
BRANCH   5   6
ATOM      6  C   UNL     1      48.441  25.539  16.798  1.00  0.00     0.053 C 
BRANCH   6   7
ATOM      7  C   UNL     1      48.808  25.759  15.363  1.00  0.00     0.041 C 
ATOM      8  O   UNL     1      49.793  26.485  15.065  1.00  0.00    -0.550 OA
ATOM      9  O   UNL     1      48.041  25.190  14.353  1.00  0.00    -0.550 OA
ENDBRANCH   6   7
ENDBRANCH   5   6
ENDBRANCH   4   5
ENDBRANCH   3   4
ENDBRANCH   2   3
ENDBRANCH   1   2
BRANCH   1  10
ATOM     10  C   UNL     1      49.720  27.035  22.625  1.00  0.00     0.000 C 
BRANCH  10  11
ATOM     11  C   UNL     1      50.230  25.597  22.804  1.00  0.00    -0.000 C 
BRANCH  11  12
ATOM     12  C   UNL     1      51.678  25.461  22.311  1.00  0.00    -0.000 C 
BRANCH  12  13
ATOM     13  C   UNL     1      52.172  26.704  21.549  1.00  0.00    -0.000 C 
BRANCH  13  14
ATOM     14  C   UNL     1      53.012  26.407  20.294  1.00  0.00    -0.000 C 
BRANCH  14  15
ATOM     15  C   UNL     1      52.666  27.323  19.110  1.00  0.00    -0.003 C 
ATOM     16  C   UNL     1      53.462  28.623  19.170  1.00  0.00     0.004 C 
ENDBRANCH  14  15
ENDBRANCH  13  14
ENDBRANCH  12  13
ENDBRANCH  11  12
ENDBRANCH  10  11
ENDBRANCH   1  10
TORSDOF 12
ENDMDL
MODEL 9
REMARK VINA RESULT:    -4.537     13.124     15.243
REMARK INTER + INTRA:          -8.650
REMARK INTER:                  -6.685
REMARK INTRA:                  -1.965
REMARK UNBOUND:                -0.930
REMARK SMILES CCCCCCCCCCCCCC(=O)[O-]
REMARK SMILES IDX 8 1 9 2 10 3 11 4 12 5 13 6 14 7 15 8 16 9 7 10 6 11 5 12
REMARK SMILES IDX 4 13 3 14 2 15 1 16
REMARK H PARENT
REMARK Flexibility Score: inf
ROOT
ATOM      1  C   UNL     1      38.786  39.026  21.356  1.00  0.00     0.000 C 
ENDROOT
BRANCH   1   2
ATOM      2  C   UNL     1      38.111  39.125  22.736  1.00  0.00     0.000 C 
BRANCH   2   3
ATOM      3  C   UNL     1      38.674  40.276  23.586  1.00  0.00     0.000 C 
BRANCH   3   4
ATOM      4  C   UNL     1      39.114  39.818  24.988  1.00  0.00     0.000 C 
BRANCH   4   5
ATOM      5  C   UNL     1      40.460  40.429  25.417  1.00  0.00     0.006 C 
BRANCH   5   6
ATOM      6  C   UNL     1      40.364  41.879  25.917  1.00  0.00     0.053 C 
BRANCH   6   7
ATOM      7  C   UNL     1      41.712  42.519  26.048  1.00  0.00     0.041 C 
ATOM      8  O   UNL     1      42.096  43.365  25.199  1.00  0.00    -0.550 OA
ATOM      9  O   UNL     1      42.558  42.154  27.088  1.00  0.00    -0.550 OA
ENDBRANCH   6   7
ENDBRANCH   5   6
ENDBRANCH   4   5
ENDBRANCH   3   4
ENDBRANCH   2   3
ENDBRANCH   1   2
BRANCH   1  10
ATOM     10  C   UNL     1      39.901  40.068  21.169  1.00  0.00     0.000 C 
BRANCH  10  11
ATOM     11  C   UNL     1      41.283  39.428  20.968  1.00  0.00    -0.000 C 
BRANCH  11  12
ATOM     12  C   UNL     1      42.159  39.606  22.217  1.00  0.00    -0.000 C 
BRANCH  12  13
ATOM     13  C   UNL     1      42.737  38.279  22.740  1.00  0.00    -0.000 C 
BRANCH  13  14
ATOM     14  C   UNL     1      41.748  37.099  22.753  1.00  0.00    -0.000 C 
BRANCH  14  15
ATOM     15  C   UNL     1      41.023  36.939  24.098  1.00  0.00    -0.003 C 
ATOM     16  C   UNL     1      39.755  36.105  23.944  1.00  0.00     0.004 C 
ENDBRANCH  14  15
ENDBRANCH  13  14
ENDBRANCH  12  13
ENDBRANCH  11  12
ENDBRANCH  10  11
ENDBRANCH   1  10
TORSDOF 12
ENDMDL
