MODEL 1
REMARK VINA RESULT:    -5.759      0.000      0.000
REMARK INTER + INTRA:          -5.759
REMARK INTER:                  -5.759
REMARK INTRA:                   0.000
REMARK UNBOUND:                 0.000
REMARK SMILES CC1=CC[C@@]2(C)CCCC(C)(C)[C@@]23C[C@@H]13
REMARK SMILES IDX 1 1 2 2 3 3 4 4 5 5 7 6 8 7 9 8 10 9 13 10 15 11 14 12 11 13
REMARK SMILES IDX 12 14 6 15
REMARK H PARENT
REMARK Flexibility Score: inf
ROOT
ATOM      1  C   UNL     1      10.077   9.683  30.811  1.00  0.00     0.039 C 
ATOM      2  C   UNL     1       9.802   8.303  30.283  1.00  0.00    -0.074 C 
ATOM      3  C   UNL     1       9.326   7.363  31.124  1.00  0.00    -0.027 C 
ATOM      4  C   UNL     1       9.003   5.963  30.664  1.00  0.00     0.034 C 
ATOM      5  C   UNL     1       9.990   5.477  29.559  1.00  0.00    -0.022 C 
ATOM      6  C   UNL     1       9.484   4.121  28.967  1.00  0.00     0.008 C 
ATOM      7  C   UNL     1       9.756   3.935  27.458  1.00  0.00     0.001 C 
ATOM      8  C   UNL     1      11.079   4.572  27.010  1.00  0.00     0.007 C 
ATOM      9  C   UNL     1      11.071   6.129  27.161  1.00  0.00    -0.029 C 
ATOM     10  C   UNL     1      10.145   6.532  28.393  1.00  0.00    -0.012 C 
ATOM     11  C   UNL     1      10.096   8.006  28.823  1.00  0.00     0.022 C 
ATOM     12  C   UNL     1       8.907   7.415  28.071  1.00  0.00     0.017 C 
ATOM     13  C   UNL     1      10.605   6.725  25.805  1.00  0.00     0.012 C 
ATOM     14  C   UNL     1      12.521   6.621  27.384  1.00  0.00     0.012 C 
ATOM     15  C   UNL     1      11.356   5.251  30.268  1.00  0.00     0.012 C 
ENDROOT
TORSDOF 0
ENDMDL
MODEL 2
REMARK VINA RESULT:    -5.348      4.254      7.152
REMARK INTER + INTRA:          -5.348
REMARK INTER:                  -5.348
REMARK INTRA:                   0.000
REMARK UNBOUND:                 0.000
REMARK SMILES CC1=CC[C@@]2(C)CCCC(C)(C)[C@@]23C[C@@H]13
REMARK SMILES IDX 1 1 2 2 3 3 4 4 5 5 7 6 8 7 9 8 10 9 13 10 15 11 14 12 11 13
REMARK SMILES IDX 12 14 6 15
REMARK H PARENT
REMARK Flexibility Score: inf
ROOT
ATOM      1  C   UNL     1      17.430   9.805  25.915  1.00  0.00     0.039 C 
ATOM      2  C   UNL     1      16.340   9.366  24.979  1.00  0.00    -0.074 C 
ATOM      3  C   UNL     1      16.060  10.123  23.898  1.00  0.00    -0.027 C 
ATOM      4  C   UNL     1      14.997   9.736  22.900  1.00  0.00     0.034 C 
ATOM      5  C   UNL     1      13.790   9.026  23.587  1.00  0.00    -0.022 C 
ATOM      6  C   UNL     1      12.829   8.456  22.495  1.00  0.00     0.008 C 
ATOM      7  C   UNL     1      12.148   7.121  22.868  1.00  0.00     0.001 C 
ATOM      8  C   UNL     1      11.826   7.018  24.366  1.00  0.00     0.007 C 
ATOM      9  C   UNL     1      13.115   6.998  25.251  1.00  0.00    -0.029 C 
ATOM     10  C   UNL     1      14.254   7.855  24.541  1.00  0.00    -0.012 C 
ATOM     11  C   UNL     1      15.570   8.096  25.295  1.00  0.00     0.022 C 
ATOM     12  C   UNL     1      15.551   7.093  24.145  1.00  0.00     0.017 C 
ATOM     13  C   UNL     1      13.499   5.511  25.480  1.00  0.00     0.012 C 
ATOM     14  C   UNL     1      12.779   7.584  26.644  1.00  0.00     0.012 C 
ATOM     15  C   UNL     1      13.049  10.125  24.403  1.00  0.00     0.012 C 
ENDROOT
TORSDOF 0
ENDMDL
MODEL 3
REMARK VINA RESULT:    -5.146     12.113     14.683
REMARK INTER + INTRA:          -5.146
REMARK INTER:                  -5.146
REMARK INTRA:                   0.000
REMARK UNBOUND:                 0.000
REMARK SMILES CC1=CC[C@@]2(C)CCCC(C)(C)[C@@]23C[C@@H]13
REMARK SMILES IDX 1 1 2 2 3 3 4 4 5 5 7 6 8 7 9 8 10 9 13 10 15 11 14 12 11 13
REMARK SMILES IDX 12 14 6 15
REMARK H PARENT
REMARK Flexibility Score: inf
ROOT
ATOM      1  C   UNL     1       6.914   8.633  18.369  1.00  0.00     0.039 C 
ATOM      2  C   UNL     1       6.195   8.375  17.075  1.00  0.00    -0.074 C 
ATOM      3  C   UNL     1       4.856   8.528  17.027  1.00  0.00    -0.027 C 
ATOM      4  C   UNL     1       4.067   8.312  15.761  1.00  0.00     0.034 C 
ATOM      5  C   UNL     1       4.670   7.164  14.894  1.00  0.00    -0.022 C 
ATOM      6  C   UNL     1       3.954   7.129  13.504  1.00  0.00     0.008 C 
ATOM      7  C   UNL     1       4.865   6.736  12.320  1.00  0.00     0.001 C 
ATOM      8  C   UNL     1       5.932   5.703  12.709  1.00  0.00     0.007 C 
ATOM      9  C   UNL     1       6.956   6.269  13.748  1.00  0.00    -0.029 C 
ATOM     10  C   UNL     1       6.226   7.336  14.678  1.00  0.00    -0.012 C 
ATOM     11  C   UNL     1       6.998   7.924  15.868  1.00  0.00     0.022 C 
ATOM     12  C   UNL     1       6.775   8.790  14.630  1.00  0.00     0.017 C 
ATOM     13  C   UNL     1       8.155   6.849  12.950  1.00  0.00     0.012 C 
ATOM     14  C   UNL     1       7.514   5.100  14.594  1.00  0.00     0.012 C 
ATOM     15  C   UNL     1       4.374   5.843  15.660  1.00  0.00     0.012 C 
ENDROOT
TORSDOF 0
ENDMDL
MODEL 4
REMARK VINA RESULT:    -5.098     10.805     13.117
REMARK INTER + INTRA:          -5.098
REMARK INTER:                  -5.098
REMARK INTRA:                   0.000
REMARK UNBOUND:                 0.000
REMARK SMILES CC1=CC[C@@]2(C)CCCC(C)(C)[C@@]23C[C@@H]13
REMARK SMILES IDX 1 1 2 2 3 3 4 4 5 5 7 6 8 7 9 8 10 9 13 10 15 11 14 12 11 13
REMARK SMILES IDX 12 14 6 15
REMARK H PARENT
REMARK Flexibility Score: inf
ROOT
ATOM      1  C   UNL     1       0.765   9.368  16.012  1.00  0.00     0.039 C 
ATOM      2  C   UNL     1       1.791   8.844  16.977  1.00  0.00    -0.074 C 
ATOM      3  C   UNL     1       1.528   8.884  18.299  1.00  0.00    -0.027 C 
ATOM      4  C   UNL     1       2.497   8.356  19.327  1.00  0.00     0.034 C 
ATOM      5  C   UNL     1       3.978   8.593  18.901  1.00  0.00    -0.022 C 
ATOM      6  C   UNL     1       4.931   7.838  19.884  1.00  0.00     0.008 C 
ATOM      7  C   UNL     1       6.204   7.258  19.229  1.00  0.00     0.001 C 
ATOM      8  C   UNL     1       6.742   8.140  18.094  1.00  0.00     0.007 C 
ATOM      9  C   UNL     1       5.752   8.226  16.887  1.00  0.00    -0.029 C 
ATOM     10  C   UNL     1       4.257   8.107  17.424  1.00  0.00    -0.012 C 
ATOM     11  C   UNL     1       3.102   8.307  16.431  1.00  0.00     0.022 C 
ATOM     12  C   UNL     1       3.430   6.895  16.910  1.00  0.00     0.017 C 
ATOM     13  C   UNL     1       6.148   7.111  15.881  1.00  0.00     0.012 C 
ATOM     14  C   UNL     1       5.964   9.574  16.156  1.00  0.00     0.012 C 
ATOM     15  C   UNL     1       4.222  10.125  19.021  1.00  0.00     0.012 C 
ENDROOT
TORSDOF 0
ENDMDL
MODEL 5
REMARK VINA RESULT:    -5.023     10.500     12.692
REMARK INTER + INTRA:          -5.023
REMARK INTER:                  -5.023
REMARK INTRA:                   0.000
REMARK UNBOUND:                 0.000
REMARK SMILES CC1=CC[C@@]2(C)CCCC(C)(C)[C@@]23C[C@@H]13
REMARK SMILES IDX 1 1 2 2 3 3 4 4 5 5 7 6 8 7 9 8 10 9 13 10 15 11 14 12 11 13
REMARK SMILES IDX 12 14 6 15
REMARK H PARENT
REMARK Flexibility Score: inf
ROOT
ATOM      1  C   UNL     1       5.553   7.087  21.588  1.00  0.00     0.039 C 
ATOM      2  C   UNL     1       4.729   7.912  20.641  1.00  0.00    -0.074 C 
ATOM      3  C   UNL     1       3.734   8.677  21.133  1.00  0.00    -0.027 C 
ATOM      4  C   UNL     1       2.879   9.550  20.249  1.00  0.00     0.034 C 
ATOM      5  C   UNL     1       2.632   8.896  18.856  1.00  0.00    -0.022 C 
ATOM      6  C   UNL     1       1.934   9.928  17.911  1.00  0.00     0.008 C 
ATOM      7  C   UNL     1       2.355   9.831  16.428  1.00  0.00     0.001 C 
ATOM      8  C   UNL     1       2.640   8.389  15.985  1.00  0.00     0.007 C 
ATOM      9  C   UNL     1       3.873   7.773  16.725  1.00  0.00    -0.029 C 
ATOM     10  C   UNL     1       3.974   8.397  18.187  1.00  0.00    -0.012 C 
ATOM     11  C   UNL     1       5.027   7.836  19.154  1.00  0.00     0.022 C 
ATOM     12  C   UNL     1       5.266   9.200  18.510  1.00  0.00     0.017 C 
ATOM     13  C   UNL     1       5.123   8.034  15.843  1.00  0.00     0.012 C 
ATOM     14  C   UNL     1       3.699   6.236  16.799  1.00  0.00     0.012 C 
ATOM     15  C   UNL     1       1.674   7.696  19.106  1.00  0.00     0.012 C 
ENDROOT
TORSDOF 0
ENDMDL
MODEL 6
REMARK VINA RESULT:    -5.015      5.112      7.198
REMARK INTER + INTRA:          -5.015
REMARK INTER:                  -5.015
REMARK INTRA:                   0.000
REMARK UNBOUND:                 0.000
REMARK SMILES CC1=CC[C@@]2(C)CCCC(C)(C)[C@@]23C[C@@H]13
REMARK SMILES IDX 1 1 2 2 3 3 4 4 5 5 7 6 8 7 9 8 10 9 13 10 15 11 14 12 11 13
REMARK SMILES IDX 12 14 6 15
REMARK H PARENT
REMARK Flexibility Score: inf
ROOT
ATOM      1  C   UNL     1      15.880   7.509  23.862  1.00  0.00     0.039 C 
ATOM      2  C   UNL     1      14.502   8.107  23.842  1.00  0.00    -0.074 C 
ATOM      3  C   UNL     1      13.910   8.428  25.010  1.00  0.00    -0.027 C 
ATOM      4  C   UNL     1      12.539   9.054  25.071  1.00  0.00     0.034 C 
ATOM      5  C   UNL     1      11.608   8.518  23.941  1.00  0.00    -0.022 C 
ATOM      6  C   UNL     1      10.286   9.352  23.913  1.00  0.00     0.008 C 
ATOM      7  C   UNL     1       9.693   9.574  22.505  1.00  0.00     0.001 C 
ATOM      8  C   UNL     1       9.915   8.375  21.572  1.00  0.00     0.007 C 
ATOM      9  C   UNL     1      11.429   8.133  21.265  1.00  0.00    -0.029 C 
ATOM     10  C   UNL     1      12.299   8.584  22.520  1.00  0.00    -0.012 C 
ATOM     11  C   UNL     1      13.810   8.308  22.506  1.00  0.00     0.022 C 
ATOM     12  C   UNL     1      13.316   9.735  22.283  1.00  0.00     0.017 C 
ATOM     13  C   UNL     1      11.767   8.902  19.959  1.00  0.00     0.012 C 
ATOM     14  C   UNL     1      11.648   6.632  20.960  1.00  0.00     0.012 C 
ATOM     15  C   UNL     1      11.280   7.044  24.314  1.00  0.00     0.012 C 
ENDROOT
TORSDOF 0
ENDMDL
MODEL 7
REMARK VINA RESULT:    -4.992     13.314     15.501
REMARK INTER + INTRA:          -4.992
REMARK INTER:                  -4.992
REMARK INTRA:                   0.000
REMARK UNBOUND:                 0.000
REMARK SMILES CC1=CC[C@@]2(C)CCCC(C)(C)[C@@]23C[C@@H]13
REMARK SMILES IDX 1 1 2 2 3 3 4 4 5 5 7 6 8 7 9 8 10 9 13 10 15 11 14 12 11 13
REMARK SMILES IDX 12 14 6 15
REMARK H PARENT
REMARK Flexibility Score: inf
ROOT
ATOM      1  C   UNL     1       4.808   9.664  16.122  1.00  0.00     0.039 C 
ATOM      2  C   UNL     1       5.453   8.427  15.564  1.00  0.00    -0.074 C 
ATOM      3  C   UNL     1       6.108   7.596  16.400  1.00  0.00    -0.027 C 
ATOM      4  C   UNL     1       6.760   6.324  15.919  1.00  0.00     0.034 C 
ATOM      5  C   UNL     1       7.354   6.485  14.487  1.00  0.00    -0.022 C 
ATOM      6  C   UNL     1       7.818   5.090  13.954  1.00  0.00     0.008 C 
ATOM      7  C   UNL     1       7.623   4.882  12.436  1.00  0.00     0.001 C 
ATOM      8  C   UNL     1       7.837   6.171  11.629  1.00  0.00     0.007 C 
ATOM      9  C   UNL     1       6.767   7.263  11.959  1.00  0.00    -0.029 C 
ATOM     10  C   UNL     1       6.312   7.111  13.477  1.00  0.00    -0.012 C 
ATOM     11  C   UNL     1       5.368   8.167  14.071  1.00  0.00     0.022 C 
ATOM     12  C   UNL     1       4.811   6.790  13.723  1.00  0.00     0.017 C 
ATOM     13  C   UNL     1       5.609   7.103  10.938  1.00  0.00     0.012 C 
ATOM     14  C   UNL     1       7.382   8.661  11.711  1.00  0.00     0.012 C 
ATOM     15  C   UNL     1       8.591   7.417  14.634  1.00  0.00     0.012 C 
ENDROOT
TORSDOF 0
ENDMDL
MODEL 8
REMARK VINA RESULT:    -4.938     11.135     13.569
REMARK INTER + INTRA:          -4.938
REMARK INTER:                  -4.938
REMARK INTRA:                   0.000
REMARK UNBOUND:                 0.000
REMARK SMILES CC1=CC[C@@]2(C)CCCC(C)(C)[C@@]23C[C@@H]13
REMARK SMILES IDX 1 1 2 2 3 3 4 4 5 5 7 6 8 7 9 8 10 9 13 10 15 11 14 12 11 13
REMARK SMILES IDX 12 14 6 15
REMARK H PARENT
REMARK Flexibility Score: inf
ROOT
ATOM      1  C   UNL     1       7.073   7.666  19.768  1.00  0.00     0.039 C 
ATOM      2  C   UNL     1       6.027   7.823  18.701  1.00  0.00    -0.074 C 
ATOM      3  C   UNL     1       4.729   7.891  19.061  1.00  0.00    -0.027 C 
ATOM      4  C   UNL     1       3.624   8.072  18.051  1.00  0.00     0.034 C 
ATOM      5  C   UNL     1       3.940   7.338  16.711  1.00  0.00    -0.022 C 
ATOM      6  C   UNL     1       2.878   7.736  15.635  1.00  0.00     0.008 C 
ATOM      7  C   UNL     1       3.426   7.839  14.195  1.00  0.00     0.001 C 
ATOM      8  C   UNL     1       4.529   6.811  13.905  1.00  0.00     0.007 C 
ATOM      9  C   UNL     1       5.809   7.052  14.771  1.00  0.00    -0.029 C 
ATOM     10  C   UNL     1       5.385   7.680  16.172  1.00  0.00    -0.012 C 
ATOM     11  C   UNL     1       6.464   7.873  17.248  1.00  0.00     0.022 C 
ATOM     12  C   UNL     1       5.943   9.094  16.496  1.00  0.00     0.017 C 
ATOM     13  C   UNL     1       6.767   7.952  13.945  1.00  0.00     0.012 C 
ATOM     14  C   UNL     1       6.540   5.703  14.977  1.00  0.00     0.012 C 
ATOM     15  C   UNL     1       3.822   5.817  17.014  1.00  0.00     0.012 C 
ENDROOT
TORSDOF 0
ENDMDL
MODEL 9
REMARK VINA RESULT:    -4.808      8.619     11.188
REMARK INTER + INTRA:          -4.808
REMARK INTER:                  -4.808
REMARK INTRA:                   0.000
REMARK UNBOUND:                 0.000
REMARK SMILES CC1=CC[C@@]2(C)CCCC(C)(C)[C@@]23C[C@@H]13
REMARK SMILES IDX 1 1 2 2 3 3 4 4 5 5 7 6 8 7 9 8 10 9 13 10 15 11 14 12 11 13
REMARK SMILES IDX 12 14 6 15
REMARK H PARENT
REMARK Flexibility Score: inf
ROOT
ATOM      1  C   UNL     1       1.509   8.215  18.788  1.00  0.00     0.039 C 
ATOM      2  C   UNL     1       2.891   8.780  18.965  1.00  0.00    -0.074 C 
ATOM      3  C   UNL     1       3.496   9.370  17.914  1.00  0.00    -0.027 C 
ATOM      4  C   UNL     1       4.871   9.982  18.019  1.00  0.00     0.034 C 
ATOM      5  C   UNL     1       5.787   9.181  18.994  1.00  0.00    -0.022 C 
ATOM      6  C   UNL     1       7.113   9.973  19.234  1.00  0.00     0.008 C 
ATOM      7  C   UNL     1       7.693   9.842  20.660  1.00  0.00     0.001 C 
ATOM      8  C   UNL     1       7.455   8.454  21.272  1.00  0.00     0.007 C 
ATOM      9  C   UNL     1       5.936   8.157  21.498  1.00  0.00    -0.029 C 
ATOM     10  C   UNL     1       5.082   8.906  20.382  1.00  0.00    -0.012 C 
ATOM     11  C   UNL     1       3.570   8.646  20.316  1.00  0.00     0.022 C 
ATOM     12  C   UNL     1       4.068   9.973  20.882  1.00  0.00     0.017 C 
ATOM     13  C   UNL     1       5.589   8.589  22.948  1.00  0.00     0.012 C 
ATOM     14  C   UNL     1       5.706   6.628  21.427  1.00  0.00     0.012 C 
ATOM     15  C   UNL     1       6.111   7.838  18.277  1.00  0.00     0.012 C 
ENDROOT
TORSDOF 0
ENDMDL
