MODEL 1
REMARK VINA RESULT:    -2.485      0.000      0.000
REMARK INTER + INTRA:          -2.485
REMARK INTER:                  -2.485
REMARK INTRA:                   0.000
REMARK UNBOUND:                 0.000
REMARK SMILES O=C1CCCCC1
REMARK SMILES IDX 5 1 4 2 3 3 2 4 1 5 7 6 6 7
REMARK H PARENT
REMARK Flexibility Score: inf
ROOT
ATOM      1  C   UNL     1     132.093 136.875 144.557  1.00  0.00     0.001 C 
ATOM      2  C   UNL     1     133.127 135.987 143.850  1.00  0.00     0.008 C 
ATOM      3  C   UNL     1     134.560 136.431 144.169  1.00  0.00     0.075 C 
ATOM      4  C   UNL     1     134.714 137.908 143.933  1.00  0.00     0.132 C 
ATOM      5  O   UNL     1     135.708 138.343 143.369  1.00  0.00    -0.300 OA
ATOM      6  C   UNL     1     133.680 138.852 144.483  1.00  0.00     0.075 C 
ATOM      7  C   UNL     1     132.269 138.347 144.156  1.00  0.00     0.008 C 
ENDROOT
TORSDOF 0
ENDMDL
MODEL 2
REMARK VINA RESULT:    -2.481     10.131     11.596
REMARK INTER + INTRA:          -2.481
REMARK INTER:                  -2.481
REMARK INTRA:                   0.000
REMARK UNBOUND:                 0.000
REMARK SMILES O=C1CCCCC1
REMARK SMILES IDX 5 1 4 2 3 3 2 4 1 5 7 6 6 7
REMARK H PARENT
REMARK Flexibility Score: inf
ROOT
ATOM      1  C   UNL     1     138.956 148.024 144.582  1.00  0.00     0.001 C 
ATOM      2  C   UNL     1     138.331 149.376 144.206  1.00  0.00     0.008 C 
ATOM      3  C   UNL     1     136.829 149.405 144.518  1.00  0.00     0.075 C 
ATOM      4  C   UNL     1     136.150 148.199 143.931  1.00  0.00     0.132 C 
ATOM      5  O   UNL     1     135.077 148.313 143.358  1.00  0.00    -0.300 OA
ATOM      6  C   UNL     1     136.757 146.840 144.140  1.00  0.00     0.075 C 
ATOM      7  C   UNL     1     138.261 146.874 143.839  1.00  0.00     0.008 C 
ENDROOT
TORSDOF 0
ENDMDL
MODEL 3
REMARK VINA RESULT:    -2.475      9.885     11.199
REMARK INTER + INTRA:          -2.475
REMARK INTER:                  -2.475
REMARK INTRA:                   0.000
REMARK UNBOUND:                 0.000
REMARK SMILES O=C1CCCCC1
REMARK SMILES IDX 5 1 4 2 3 3 2 4 1 5 7 6 6 7
REMARK H PARENT
REMARK Flexibility Score: inf
ROOT
ATOM      1  C   UNL     1     144.716 132.148 144.601  1.00  0.00     0.001 C 
ATOM      2  C   UNL     1     145.598 133.197 143.907  1.00  0.00     0.008 C 
ATOM      3  C   UNL     1     145.124 134.622 144.221  1.00  0.00     0.075 C 
ATOM      4  C   UNL     1     143.649 134.752 143.962  1.00  0.00     0.132 C 
ATOM      5  O   UNL     1     143.206 135.738 143.393  1.00  0.00    -0.300 OA
ATOM      6  C   UNL     1     142.715 133.702 144.498  1.00  0.00     0.075 C 
ATOM      7  C   UNL     1     143.247 132.300 144.178  1.00  0.00     0.008 C 
ENDROOT
TORSDOF 0
ENDMDL
MODEL 4
REMARK VINA RESULT:    -2.473      9.914     11.221
REMARK INTER + INTRA:          -2.473
REMARK INTER:                  -2.473
REMARK INTRA:                   0.000
REMARK UNBOUND:                 0.000
REMARK SMILES O=C1CCCCC1
REMARK SMILES IDX 5 1 4 2 3 3 2 4 1 5 7 6 6 7
REMARK H PARENT
REMARK Flexibility Score: inf
ROOT
ATOM      1  C   UNL     1     136.921 149.482 144.595  1.00  0.00     0.001 C 
ATOM      2  C   UNL     1     136.019 148.474 143.867  1.00  0.00     0.008 C 
ATOM      3  C   UNL     1     136.437 147.029 144.166  1.00  0.00     0.075 C 
ATOM      4  C   UNL     1     137.912 146.854 143.936  1.00  0.00     0.132 C 
ATOM      5  O   UNL     1     138.333 145.862 143.359  1.00  0.00    -0.300 OA
ATOM      6  C   UNL     1     138.870 147.863 144.506  1.00  0.00     0.075 C 
ATOM      7  C   UNL     1     138.392 149.287 144.199  1.00  0.00     0.008 C 
ENDROOT
TORSDOF 0
ENDMDL
MODEL 5
REMARK VINA RESULT:    -2.467     14.822     16.032
REMARK INTER + INTRA:          -2.467
REMARK INTER:                  -2.467
REMARK INTRA:                   0.000
REMARK UNBOUND:                 0.000
REMARK SMILES O=C1CCCCC1
REMARK SMILES IDX 5 1 4 2 3 3 2 4 1 5 7 6 6 7
REMARK H PARENT
REMARK Flexibility Score: inf
ROOT
ATOM      1  C   UNL     1     147.996 142.649 144.677  1.00  0.00     0.001 C 
ATOM      2  C   UNL     1     149.344 143.258 144.262  1.00  0.00     0.008 C 
ATOM      3  C   UNL     1     149.383 144.768 144.531  1.00  0.00     0.075 C 
ATOM      4  C   UNL     1     148.170 145.435 143.945  1.00  0.00     0.132 C 
ATOM      5  O   UNL     1     148.278 146.492 143.341  1.00  0.00    -0.300 OA
ATOM      6  C   UNL     1     146.812 144.839 144.194  1.00  0.00     0.075 C 
ATOM      7  C   UNL     1     146.836 143.328 143.933  1.00  0.00     0.008 C 
ENDROOT
TORSDOF 0
ENDMDL
MODEL 6
REMARK VINA RESULT:    -2.464     10.412     11.455
REMARK INTER + INTRA:          -2.464
REMARK INTER:                  -2.464
REMARK INTRA:                   0.000
REMARK UNBOUND:                 0.000
REMARK SMILES O=C1CCCCC1
REMARK SMILES IDX 5 1 4 2 3 3 2 4 1 5 7 6 6 7
REMARK H PARENT
REMARK Flexibility Score: inf
ROOT
ATOM      1  C   UNL     1     142.657 133.550 144.596  1.00  0.00     0.001 C 
ATOM      2  C   UNL     1     143.311 132.223 144.180  1.00  0.00     0.008 C 
ATOM      3  C   UNL     1     144.808 132.208 144.510  1.00  0.00     0.075 C 
ATOM      4  C   UNL     1     145.474 133.446 143.976  1.00  0.00     0.132 C 
ATOM      5  O   UNL     1     146.556 133.372 143.414  1.00  0.00    -0.300 OA
ATOM      6  C   UNL     1     144.840 134.787 144.227  1.00  0.00     0.075 C 
ATOM      7  C   UNL     1     143.342 134.738 143.905  1.00  0.00     0.008 C 
ENDROOT
TORSDOF 0
ENDMDL
MODEL 7
REMARK VINA RESULT:    -2.462     14.469     15.872
REMARK INTER + INTRA:          -2.462
REMARK INTER:                  -2.462
REMARK INTRA:                   0.000
REMARK UNBOUND:                 0.000
REMARK SMILES O=C1CCCCC1
REMARK SMILES IDX 5 1 4 2 3 3 2 4 1 5 7 6 6 7
REMARK H PARENT
REMARK Flexibility Score: inf
ROOT
ATOM      1  C   UNL     1     149.486 144.706 144.643  1.00  0.00     0.001 C 
ATOM      2  C   UNL     1     148.453 145.615 143.961  1.00  0.00     0.008 C 
ATOM      3  C   UNL     1     147.019 145.160 144.263  1.00  0.00     0.075 C 
ATOM      4  C   UNL     1     146.867 143.691 143.981  1.00  0.00     0.132 C 
ATOM      5  O   UNL     1     145.875 143.273 143.402  1.00  0.00    -0.300 OA
ATOM      6  C   UNL     1     147.901 142.732 144.504  1.00  0.00     0.075 C 
ATOM      7  C   UNL     1     149.312 143.247 144.196  1.00  0.00     0.008 C 
ENDROOT
TORSDOF 0
ENDMDL
MODEL 8
REMARK VINA RESULT:    -2.447      1.586      2.792
REMARK INTER + INTRA:          -2.447
REMARK INTER:                  -2.447
REMARK INTRA:                   0.000
REMARK UNBOUND:                 0.000
REMARK SMILES O=C1CCCCC1
REMARK SMILES IDX 5 1 4 2 3 3 2 4 1 5 7 6 6 7
REMARK H PARENT
REMARK Flexibility Score: inf
ROOT
ATOM      1  C   UNL     1     133.722 138.825 144.696  1.00  0.00     0.001 C 
ATOM      2  C   UNL     1     132.327 138.348 144.265  1.00  0.00     0.008 C 
ATOM      3  C   UNL     1     132.162 136.837 144.472  1.00  0.00     0.075 C 
ATOM      4  C   UNL     1     133.313 136.096 143.852  1.00  0.00     0.132 C 
ATOM      5  O   UNL     1     133.116 135.078 143.205  1.00  0.00    -0.300 OA
ATOM      6  C   UNL     1     134.717 136.566 144.116  1.00  0.00     0.075 C 
ATOM      7  C   UNL     1     134.819 138.083 143.919  1.00  0.00     0.008 C 
ENDROOT
TORSDOF 0
ENDMDL
MODEL 9
REMARK VINA RESULT:    -2.364     10.420     11.677
REMARK INTER + INTRA:          -2.364
REMARK INTER:                  -2.364
REMARK INTRA:                   0.000
REMARK UNBOUND:                 0.000
REMARK SMILES O=C1CCCCC1
REMARK SMILES IDX 5 1 4 2 3 3 2 4 1 5 7 6 6 7
REMARK H PARENT
REMARK Flexibility Score: inf
ROOT
ATOM      1  C   UNL     1     143.602 134.796 143.971  1.00  0.00     0.001 C 
ATOM      2  C   UNL     1     145.065 134.602 144.396  1.00  0.00     0.008 C 
ATOM      3  C   UNL     1     145.608 133.244 143.935  1.00  0.00     0.075 C 
ATOM      4  C   UNL     1     144.671 132.141 144.341  1.00  0.00     0.132 C 
ATOM      5  O   UNL     1     145.108 131.100 144.807  1.00  0.00    -0.300 OA
ATOM      6  C   UNL     1     143.198 132.295 144.077  1.00  0.00     0.075 C 
ATOM      7  C   UNL     1     142.715 133.676 144.535  1.00  0.00     0.008 C 
ENDROOT
TORSDOF 0
ENDMDL
