MODEL 1
REMARK VINA RESULT:    -3.445      0.000      0.000
REMARK INTER + INTRA:          -4.205
REMARK INTER:                  -3.949
REMARK INTRA:                  -0.256
REMARK UNBOUND:                -0.256
REMARK SMILES CC=Cc1ccc(O)c(OC)c1
REMARK SMILES IDX 4 1 12 2 9 3 7 4 6 5 5 6 3 7 1 8 2 9 10 10 11 11 8 12
REMARK H PARENT 8 13
REMARK Flexibility Score: inf
ROOT
ATOM      1  C   UNL     1     136.893 148.290 144.286  1.00  0.00    -0.022 A 
ATOM      2  C   UNL     1     136.133 147.112 144.283  1.00  0.00     0.058 A 
ATOM      3  C   UNL     1     136.725 145.874 143.957  1.00  0.00     0.161 A 
ATOM      4  C   UNL     1     138.089 145.837 143.611  1.00  0.00     0.157 A 
ATOM      5  C   UNL     1     138.838 147.017 143.586  1.00  0.00     0.051 A 
ATOM      6  C   UNL     1     138.244 148.238 143.911  1.00  0.00     0.012 A 
ENDROOT
BRANCH   1   7
ATOM      7  C   UNL     1     136.233 149.572 144.606  1.00  0.00     0.003 C 
ATOM      8  C   UNL     1     136.897 149.552 147.027  1.00  0.00     0.035 C 
ATOM      9  C   UNL     1     136.247 150.151 145.815  1.00  0.00    -0.030 C 
ENDBRANCH   1   7
BRANCH   3  10
ATOM     10  O   UNL     1     135.995 144.675 143.963  1.00  0.00    -0.493 OA
ATOM     11  C   UNL     1     135.636 143.955 145.138  1.00  0.00     0.278 C 
ENDBRANCH   3  10
BRANCH   4  12
ATOM     12  O   UNL     1     138.716 144.635 143.282  1.00  0.00    -0.504 OA
ATOM     13  H   UNL     1     138.841 143.889 143.956  1.00  0.00     0.293 HD
ENDBRANCH   4  12
TORSDOF 3
ENDMDL
MODEL 2
REMARK VINA RESULT:    -3.433      8.949     10.830
REMARK INTER + INTRA:          -4.191
REMARK INTER:                  -3.933
REMARK INTRA:                  -0.258
REMARK UNBOUND:                -0.256
REMARK SMILES CC=Cc1ccc(O)c(OC)c1
REMARK SMILES IDX 4 1 12 2 9 3 7 4 6 5 5 6 3 7 1 8 2 9 10 10 11 11 8 12
REMARK H PARENT 8 13
REMARK Flexibility Score: inf
ROOT
ATOM      1  C   UNL     1     148.286 144.690 144.308  1.00  0.00    -0.022 A 
ATOM      2  C   UNL     1     147.105 145.445 144.329  1.00  0.00     0.058 A 
ATOM      3  C   UNL     1     145.868 144.854 144.000  1.00  0.00     0.161 A 
ATOM      4  C   UNL     1     145.833 143.498 143.625  1.00  0.00     0.157 A 
ATOM      5  C   UNL     1     147.016 142.755 143.576  1.00  0.00     0.051 A 
ATOM      6  C   UNL     1     148.237 143.346 143.905  1.00  0.00     0.012 A 
ENDROOT
BRANCH   1   7
ATOM      7  C   UNL     1     149.568 145.348 144.633  1.00  0.00     0.003 C 
ATOM      8  C   UNL     1     149.548 144.669 147.049  1.00  0.00     0.035 C 
ATOM      9  C   UNL     1     150.147 145.326 145.841  1.00  0.00    -0.030 C 
ENDBRANCH   1   7
BRANCH   3  10
ATOM     10  O   UNL     1     144.666 145.580 144.030  1.00  0.00    -0.493 OA
ATOM     11  C   UNL     1     143.933 145.880 145.213  1.00  0.00     0.278 C 
ENDBRANCH   3  10
BRANCH   4  12
ATOM     12  O   UNL     1     144.631 142.873 143.292  1.00  0.00    -0.504 OA
ATOM     13  H   UNL     1     144.473 141.886 143.452  1.00  0.00     0.293 HD
ENDBRANCH   4  12
TORSDOF 3
ENDMDL
MODEL 3
REMARK VINA RESULT:    -3.429      8.936     10.802
REMARK INTER + INTRA:          -4.186
REMARK INTER:                  -3.928
REMARK INTRA:                  -0.258
REMARK UNBOUND:                -0.256
REMARK SMILES CC=Cc1ccc(O)c(OC)c1
REMARK SMILES IDX 4 1 12 2 9 3 7 4 6 5 5 6 3 7 1 8 2 9 10 10 11 11 8 12
REMARK H PARENT 8 13
REMARK Flexibility Score: inf
ROOT
ATOM      1  C   UNL     1     133.267 136.936 144.343  1.00  0.00    -0.022 A 
ATOM      2  C   UNL     1     134.446 136.176 144.351  1.00  0.00     0.058 A 
ATOM      3  C   UNL     1     135.681 136.760 144.000  1.00  0.00     0.161 A 
ATOM      4  C   UNL     1     135.715 138.114 143.620  1.00  0.00     0.157 A 
ATOM      5  C   UNL     1     134.535 138.862 143.585  1.00  0.00     0.051 A 
ATOM      6  C   UNL     1     133.317 138.277 143.934  1.00  0.00     0.012 A 
ENDROOT
BRANCH   1   7
ATOM      7  C   UNL     1     131.988 136.285 144.689  1.00  0.00     0.003 C 
ATOM      8  C   UNL     1     132.068 136.937 147.112  1.00  0.00     0.035 C 
ATOM      9  C   UNL     1     131.436 136.298 145.911  1.00  0.00    -0.030 C 
ENDBRANCH   1   7
BRANCH   3  10
ATOM     10  O   UNL     1     136.880 136.029 144.016  1.00  0.00    -0.493 OA
ATOM     11  C   UNL     1     137.605 135.694 145.194  1.00  0.00     0.278 C 
ENDBRANCH   3  10
BRANCH   4  12
ATOM     12  O   UNL     1     136.915 138.732 143.266  1.00  0.00    -0.504 OA
ATOM     13  H   UNL     1     137.050 139.173 142.364  1.00  0.00     0.293 HD
ENDBRANCH   4  12
TORSDOF 3
ENDMDL
MODEL 4
REMARK VINA RESULT:    -3.416     12.936     15.323
REMARK INTER + INTRA:          -4.171
REMARK INTER:                  -3.914
REMARK INTRA:                  -0.257
REMARK UNBOUND:                -0.256
REMARK SMILES CC=Cc1ccc(O)c(OC)c1
REMARK SMILES IDX 4 1 12 2 9 3 7 4 6 5 5 6 3 7 1 8 2 9 10 10 11 11 8 12
REMARK H PARENT 8 13
REMARK Flexibility Score: inf
ROOT
ATOM      1  C   UNL     1     144.657 133.268 144.382  1.00  0.00    -0.022 A 
ATOM      2  C   UNL     1     145.424 134.442 144.380  1.00  0.00     0.058 A 
ATOM      3  C   UNL     1     144.848 135.677 144.019  1.00  0.00     0.161 A 
ATOM      4  C   UNL     1     143.494 135.717 143.637  1.00  0.00     0.157 A 
ATOM      5  C   UNL     1     142.739 134.541 143.611  1.00  0.00     0.051 A 
ATOM      6  C   UNL     1     143.316 133.322 143.971  1.00  0.00     0.012 A 
ENDROOT
BRANCH   1   7
ATOM      7  C   UNL     1     145.301 131.988 144.739  1.00  0.00     0.003 C 
ATOM      8  C   UNL     1     144.600 132.065 147.148  1.00  0.00     0.035 C 
ATOM      9  C   UNL     1     145.263 131.434 145.960  1.00  0.00    -0.030 C 
ENDBRANCH   1   7
BRANCH   3  10
ATOM     10  O   UNL     1     145.586 136.872 144.025  1.00  0.00    -0.493 OA
ATOM     11  C   UNL     1     145.915 137.611 145.197  1.00  0.00     0.278 C 
ENDBRANCH   3  10
BRANCH   4  12
ATOM     12  O   UNL     1     142.884 136.917 143.273  1.00  0.00    -0.504 OA
ATOM     13  H   UNL     1     141.894 137.084 143.412  1.00  0.00     0.293 HD
ENDBRANCH   4  12
TORSDOF 3
ENDMDL
MODEL 5
REMARK VINA RESULT:    -3.365      9.387     10.764
REMARK INTER + INTRA:          -4.113
REMARK INTER:                  -3.883
REMARK INTRA:                  -0.230
REMARK UNBOUND:                -0.256
REMARK SMILES CC=Cc1ccc(O)c(OC)c1
REMARK SMILES IDX 4 1 12 2 9 3 7 4 6 5 5 6 3 7 1 8 2 9 10 10 11 11 8 12
REMARK H PARENT 8 13
REMARK Flexibility Score: inf
ROOT
ATOM      1  C   UNL     1     134.800 137.993 143.985  1.00  0.00    -0.022 A 
ATOM      2  C   UNL     1     134.568 136.610 143.951  1.00  0.00     0.058 A 
ATOM      3  C   UNL     1     133.259 136.098 144.066  1.00  0.00     0.161 A 
ATOM      4  C   UNL     1     132.186 136.991 144.238  1.00  0.00     0.157 A 
ATOM      5  C   UNL     1     132.423 138.367 144.300  1.00  0.00     0.051 A 
ATOM      6  C   UNL     1     133.721 138.867 144.185  1.00  0.00     0.012 A 
ENDROOT
BRANCH   1   7
ATOM      7  C   UNL     1     136.187 138.492 143.889  1.00  0.00     0.003 C 
ATOM      8  C   UNL     1     136.557 138.565 146.370  1.00  0.00     0.035 C 
ATOM      9  C   UNL     1     136.983 138.729 144.942  1.00  0.00    -0.030 C 
ENDBRANCH   1   7
BRANCH   3  10
ATOM     10  O   UNL     1     132.993 134.720 144.018  1.00  0.00    -0.493 OA
ATOM     11  C   UNL     1     133.424 133.780 144.997  1.00  0.00     0.278 C 
ENDBRANCH   3  10
BRANCH   4  12
ATOM     12  O   UNL     1     130.875 136.528 144.355  1.00  0.00    -0.504 OA
ATOM     13  H   UNL     1     130.636 135.720 144.916  1.00  0.00     0.293 HD
ENDBRANCH   4  12
TORSDOF 3
ENDMDL
MODEL 6
REMARK VINA RESULT:    -3.356      2.569      4.046
REMARK INTER + INTRA:          -4.103
REMARK INTER:                  -3.874
REMARK INTRA:                  -0.229
REMARK UNBOUND:                -0.256
REMARK SMILES CC=Cc1ccc(O)c(OC)c1
REMARK SMILES IDX 4 1 12 2 9 3 7 4 6 5 5 6 3 7 1 8 2 9 10 10 11 11 8 12
REMARK H PARENT 8 13
REMARK Flexibility Score: inf
ROOT
ATOM      1  C   UNL     1     137.924 146.812 144.001  1.00  0.00    -0.022 A 
ATOM      2  C   UNL     1     136.544 147.054 143.941  1.00  0.00     0.058 A 
ATOM      3  C   UNL     1     136.038 148.366 144.047  1.00  0.00     0.161 A 
ATOM      4  C   UNL     1     136.935 149.434 144.235  1.00  0.00     0.157 A 
ATOM      5  C   UNL     1     138.308 149.187 144.323  1.00  0.00     0.051 A 
ATOM      6  C   UNL     1     138.801 147.886 144.217  1.00  0.00     0.012 A 
ENDROOT
BRANCH   1   7
ATOM      7  C   UNL     1     138.416 145.422 143.914  1.00  0.00     0.003 C 
ATOM      8  C   UNL     1     138.465 145.061 146.397  1.00  0.00     0.035 C 
ATOM      9  C   UNL     1     138.640 144.629 144.972  1.00  0.00    -0.030 C 
ENDBRANCH   1   7
BRANCH   3  10
ATOM     10  O   UNL     1     134.663 148.641 143.973  1.00  0.00    -0.493 OA
ATOM     11  C   UNL     1     133.703 148.221 144.937  1.00  0.00     0.278 C 
ENDBRANCH   3  10
BRANCH   4  12
ATOM     12  O   UNL     1     136.478 150.747 144.344  1.00  0.00    -0.504 OA
ATOM     13  H   UNL     1     136.554 151.276 145.204  1.00  0.00     0.293 HD
ENDBRANCH   4  12
TORSDOF 3
ENDMDL
MODEL 7
REMARK VINA RESULT:    -3.354      7.703      9.105
REMARK INTER + INTRA:          -4.101
REMARK INTER:                  -3.860
REMARK INTRA:                  -0.240
REMARK UNBOUND:                -0.256
REMARK SMILES CC=Cc1ccc(O)c(OC)c1
REMARK SMILES IDX 4 1 12 2 9 3 7 4 6 5 5 6 3 7 1 8 2 9 10 10 11 11 8 12
REMARK H PARENT 8 13
REMARK Flexibility Score: inf
ROOT
ATOM      1  C   UNL     1     134.659 139.599 144.875  1.00  0.00    -0.022 A 
ATOM      2  C   UNL     1     133.551 138.769 144.653  1.00  0.00     0.058 A 
ATOM      3  C   UNL     1     133.719 137.467 144.136  1.00  0.00     0.161 A 
ATOM      4  C   UNL     1     135.015 137.015 143.825  1.00  0.00     0.157 A 
ATOM      5  C   UNL     1     136.115 137.855 144.021  1.00  0.00     0.051 A 
ATOM      6  C   UNL     1     135.941 139.141 144.533  1.00  0.00     0.012 A 
ENDROOT
BRANCH   1   7
ATOM      7  C   UNL     1     134.443 140.966 145.392  1.00  0.00     0.003 C 
ATOM      8  C   UNL     1     134.762 140.335 147.800  1.00  0.00     0.035 C 
ATOM      9  C   UNL     1     134.508 141.307 146.686  1.00  0.00    -0.030 C 
ENDBRANCH   1   7
BRANCH   3  10
ATOM     10  O   UNL     1     132.631 136.607 143.919  1.00  0.00    -0.493 OA
ATOM     11  C   UNL     1     131.487 136.524 144.763  1.00  0.00     0.278 C 
ENDBRANCH   3  10
BRANCH   4  12
ATOM     12  O   UNL     1     135.227 135.735 143.313  1.00  0.00    -0.504 OA
ATOM     13  H   UNL     1     134.704 134.930 143.637  1.00  0.00     0.293 HD
ENDBRANCH   4  12
TORSDOF 3
ENDMDL
MODEL 8
REMARK VINA RESULT:    -3.346      9.665     11.530
REMARK INTER + INTRA:          -4.091
REMARK INTER:                  -3.861
REMARK INTRA:                  -0.230
REMARK UNBOUND:                -0.256
REMARK SMILES CC=Cc1ccc(O)c(OC)c1
REMARK SMILES IDX 4 1 12 2 9 3 7 4 6 5 5 6 3 7 1 8 2 9 10 10 11 11 8 12
REMARK H PARENT 8 13
REMARK Flexibility Score: inf
ROOT
ATOM      1  C   UNL     1     146.809 143.598 144.062  1.00  0.00    -0.022 A 
ATOM      2  C   UNL     1     147.042 144.978 143.966  1.00  0.00     0.058 A 
ATOM      3  C   UNL     1     148.349 145.496 144.072  1.00  0.00     0.161 A 
ATOM      4  C   UNL     1     149.421 144.613 144.297  1.00  0.00     0.157 A 
ATOM      5  C   UNL     1     149.183 143.241 144.421  1.00  0.00     0.051 A 
ATOM      6  C   UNL     1     147.887 142.735 144.315  1.00  0.00     0.012 A 
ENDROOT
BRANCH   1   7
ATOM      7  C   UNL     1     145.424 143.093 143.974  1.00  0.00     0.003 C 
ATOM      8  C   UNL     1     145.019 143.158 146.450  1.00  0.00     0.035 C 
ATOM      9  C   UNL     1     144.614 142.915 145.027  1.00  0.00    -0.030 C 
ENDBRANCH   1   7
BRANCH   3  10
ATOM     10  O   UNL     1     148.615 146.870 143.962  1.00  0.00    -0.493 OA
ATOM     11  C   UNL     1     148.206 147.850 144.911  1.00  0.00     0.278 C 
ENDBRANCH   3  10
BRANCH   4  12
ATOM     12  O   UNL     1     150.730 145.082 144.407  1.00  0.00    -0.504 OA
ATOM     13  H   UNL     1     151.456 144.553 144.875  1.00  0.00     0.293 HD
ENDBRANCH   4  12
TORSDOF 3
ENDMDL
MODEL 9
REMARK VINA RESULT:    -3.332     13.548     15.004
REMARK INTER + INTRA:          -4.075
REMARK INTER:                  -3.856
REMARK INTRA:                  -0.218
REMARK UNBOUND:                -0.256
REMARK SMILES CC=Cc1ccc(O)c(OC)c1
REMARK SMILES IDX 4 1 12 2 9 3 7 4 6 5 5 6 3 7 1 8 2 9 10 10 11 11 8 12
REMARK H PARENT 8 13
REMARK Flexibility Score: inf
ROOT
ATOM      1  C   UNL     1     144.873 135.506 144.138  1.00  0.00    -0.022 A 
ATOM      2  C   UNL     1     145.582 134.314 144.341  1.00  0.00     0.058 A 
ATOM      3  C   UNL     1     144.948 133.064 144.182  1.00  0.00     0.161 A 
ATOM      4  C   UNL     1     143.585 133.026 143.836  1.00  0.00     0.157 A 
ATOM      5  C   UNL     1     142.873 134.216 143.663  1.00  0.00     0.051 A 
ATOM      6  C   UNL     1     143.507 135.450 143.821  1.00  0.00     0.012 A 
ENDROOT
BRANCH   1   7
ATOM      7  C   UNL     1     145.563 136.797 144.340  1.00  0.00     0.003 C 
ATOM      8  C   UNL     1     144.854 137.041 146.735  1.00  0.00     0.035 C 
ATOM      9  C   UNL     1     145.578 137.476 145.496  1.00  0.00    -0.030 C 
ENDBRANCH   1   7
BRANCH   3  10
ATOM     10  O   UNL     1     145.636 131.853 144.360  1.00  0.00    -0.493 OA
ATOM     11  C   UNL     1     145.737 131.157 145.598  1.00  0.00     0.278 C 
ENDBRANCH   3  10
BRANCH   4  12
ATOM     12  O   UNL     1     142.918 131.812 143.668  1.00  0.00    -0.504 OA
ATOM     13  H   UNL     1     142.750 131.411 142.753  1.00  0.00     0.293 HD
ENDBRANCH   4  12
TORSDOF 3
ENDMDL
