MODEL 1
REMARK VINA RESULT:    -2.002      0.000      0.000
REMARK INTER + INTRA:          -2.969
REMARK INTER:                  -2.646
REMARK INTRA:                  -0.322
REMARK UNBOUND:                -0.322
REMARK SMILES C=C[C@@H](O)CCCCC
REMARK SMILES IDX 6 1 7 2 8 3 9 4 5 5 3 6 2 7 1 8 4 9
REMARK H PARENT 4 10
REMARK Flexibility Score: inf
ROOT
ATOM      1  C   UNL     1     -38.558  21.893   7.478  1.00  0.00     0.003 C 
ENDROOT
BRANCH   1   2
ATOM      2  C   UNL     1     -37.131  22.167   7.978  1.00  0.00    -0.000 C 
BRANCH   2   3
ATOM      3  C   UNL     1     -36.530  23.446   7.378  1.00  0.00    -0.003 C 
ATOM      4  C   UNL     1     -35.126  23.191   6.836  1.00  0.00     0.004 C 
ENDBRANCH   2   3
ENDBRANCH   1   2
BRANCH   1   5
ATOM      5  C   UNL     1     -39.052  22.963   6.484  1.00  0.00     0.036 C 
BRANCH   5   6
ATOM      6  C   UNL     1     -38.973  22.520   5.006  1.00  0.00     0.136 C 
BRANCH   6   7
ATOM      7  C   UNL     1     -38.728  23.675   4.059  1.00  0.00    -0.004 C 
ATOM      8  C   UNL     1     -39.125  24.919   4.348  1.00  0.00     0.007 C 
ENDBRANCH   6   7
BRANCH   6   9
ATOM      9  O   UNL     1     -38.012  21.508   4.833  1.00  0.00    -0.389 OA
ATOM     10  H   UNL     1     -37.280  21.871   4.268  1.00  0.00     0.211 HD
ENDBRANCH   6   9
ENDBRANCH   5   6
ENDBRANCH   1   5
TORSDOF 6
ENDMDL
MODEL 2
REMARK VINA RESULT:    -1.964      1.689      3.980
REMARK INTER + INTRA:          -2.918
REMARK INTER:                  -2.930
REMARK INTRA:                   0.013
REMARK UNBOUND:                -0.322
REMARK SMILES C=C[C@@H](O)CCCCC
REMARK SMILES IDX 6 1 7 2 8 3 9 4 5 5 3 6 2 7 1 8 4 9
REMARK H PARENT 4 10
REMARK Flexibility Score: inf
ROOT
ATOM      1  C   UNL     1     -38.878  24.048   7.039  1.00  0.00     0.003 C 
ENDROOT
BRANCH   1   2
ATOM      2  C   UNL     1     -39.022  25.391   6.305  1.00  0.00    -0.000 C 
BRANCH   2   3
ATOM      3  C   UNL     1     -39.116  25.224   4.782  1.00  0.00    -0.003 C 
ATOM      4  C   UNL     1     -38.707  23.817   4.357  1.00  0.00     0.004 C 
ENDBRANCH   2   3
ENDBRANCH   1   2
BRANCH   1   5
ATOM      5  C   UNL     1     -37.406  23.667   7.290  1.00  0.00     0.036 C 
BRANCH   5   6
ATOM      6  C   UNL     1     -37.227  22.296   7.980  1.00  0.00     0.136 C 
BRANCH   6   7
ATOM      7  C   UNL     1     -38.125  21.224   7.399  1.00  0.00    -0.004 C 
ATOM      8  C   UNL     1     -38.529  20.176   8.125  1.00  0.00     0.007 C 
ENDBRANCH   6   7
BRANCH   6   9
ATOM      9  O   UNL     1     -35.879  21.894   7.961  1.00  0.00    -0.389 OA
ATOM     10  H   UNL     1     -35.512  22.088   7.059  1.00  0.00     0.211 HD
ENDBRANCH   6   9
ENDBRANCH   5   6
ENDBRANCH   1   5
TORSDOF 6
ENDMDL
MODEL 3
REMARK VINA RESULT:    -1.943      1.540      3.774
REMARK INTER + INTRA:          -2.890
REMARK INTER:                  -3.356
REMARK INTRA:                   0.466
REMARK UNBOUND:                -0.322
REMARK SMILES C=C[C@@H](O)CCCCC
REMARK SMILES IDX 6 1 7 2 8 3 9 4 5 5 3 6 2 7 1 8 4 9
REMARK H PARENT 4 10
REMARK Flexibility Score: inf
ROOT
ATOM      1  C   UNL     1     -38.062  21.533   5.552  1.00  0.00     0.003 C 
ENDROOT
BRANCH   1   2
ATOM      2  C   UNL     1     -39.083  22.286   4.683  1.00  0.00    -0.000 C 
BRANCH   2   3
ATOM      3  C   UNL     1     -39.124  23.790   4.990  1.00  0.00    -0.003 C 
ATOM      4  C   UNL     1     -39.117  24.613   3.705  1.00  0.00     0.004 C 
ENDBRANCH   2   3
ENDBRANCH   1   2
BRANCH   1   5
ATOM      5  C   UNL     1     -38.652  21.087   6.904  1.00  0.00     0.036 C 
BRANCH   5   6
ATOM      6  C   UNL     1     -38.298  22.028   8.077  1.00  0.00     0.136 C 
BRANCH   6   7
ATOM      7  C   UNL     1     -36.831  22.404   8.107  1.00  0.00    -0.004 C 
ATOM      8  C   UNL     1     -36.283  23.172   7.161  1.00  0.00     0.007 C 
ENDBRANCH   6   7
BRANCH   6   9
ATOM      9  O   UNL     1     -39.115  23.173   8.071  1.00  0.00    -0.389 OA
ATOM     10  H   UNL     1     -39.617  23.189   7.214  1.00  0.00     0.211 HD
ENDBRANCH   6   9
ENDBRANCH   5   6
ENDBRANCH   1   5
TORSDOF 6
ENDMDL
MODEL 4
REMARK VINA RESULT:    -1.756      1.981      4.145
REMARK INTER + INTRA:          -2.643
REMARK INTER:                  -2.668
REMARK INTRA:                   0.025
REMARK UNBOUND:                -0.322
REMARK SMILES C=C[C@@H](O)CCCCC
REMARK SMILES IDX 6 1 7 2 8 3 9 4 5 5 3 6 2 7 1 8 4 9
REMARK H PARENT 4 10
REMARK Flexibility Score: inf
ROOT
ATOM      1  C   UNL     1     -38.123  22.690   4.925  1.00  0.00     0.003 C 
ENDROOT
BRANCH   1   2
ATOM      2  C   UNL     1     -38.812  23.197   3.648  1.00  0.00    -0.000 C 
BRANCH   2   3
ATOM      3  C   UNL     1     -39.041  24.715   3.664  1.00  0.00    -0.003 C 
ATOM      4  C   UNL     1     -39.125  25.243   5.093  1.00  0.00     0.004 C 
ENDBRANCH   2   3
ENDBRANCH   1   2
BRANCH   1   5
ATOM      5  C   UNL     1     -39.118  22.068   5.925  1.00  0.00     0.036 C 
BRANCH   5   6
ATOM      6  C   UNL     1     -38.741  22.304   7.405  1.00  0.00     0.136 C 
BRANCH   6   7
ATOM      7  C   UNL     1     -38.344  21.031   8.122  1.00  0.00    -0.004 C 
ATOM      8  C   UNL     1     -39.077  19.916   8.034  1.00  0.00     0.007 C 
ENDBRANCH   6   7
BRANCH   6   9
ATOM      9  O   UNL     1     -37.739  23.285   7.520  1.00  0.00    -0.389 OA
ATOM     10  H   UNL     1     -38.121  24.153   7.224  1.00  0.00     0.211 HD
ENDBRANCH   6   9
ENDBRANCH   5   6
ENDBRANCH   1   5
TORSDOF 6
ENDMDL
MODEL 5
REMARK VINA RESULT:     0.361     20.674     22.072
REMARK INTER + INTRA:           0.155
REMARK INTER:                  -0.045
REMARK INTRA:                   0.200
REMARK UNBOUND:                -0.322
REMARK SMILES C=C[C@@H](O)CCCCC
REMARK SMILES IDX 6 1 7 2 8 3 9 4 5 5 3 6 2 7 1 8 4 9
REMARK H PARENT 4 10
REMARK Flexibility Score: inf
ROOT
ATOM      1  C   UNL     1     -20.085  24.039  -6.192  1.00  0.00     0.003 C 
ENDROOT
BRANCH   1   2
ATOM      2  C   UNL     1     -19.355  22.746  -5.794  1.00  0.00    -0.000 C 
BRANCH   2   3
ATOM      3  C   UNL     1     -18.876  21.940  -7.011  1.00  0.00    -0.003 C 
ATOM      4  C   UNL     1     -18.879  22.798  -8.273  1.00  0.00     0.004 C 
ENDBRANCH   2   3
ENDBRANCH   1   2
BRANCH   1   5
ATOM      5  C   UNL     1     -19.153  25.267  -6.193  1.00  0.00     0.036 C 
BRANCH   5   6
ATOM      6  C   UNL     1     -19.522  26.329  -5.133  1.00  0.00     0.136 C 
BRANCH   6   7
ATOM      7  C   UNL     1     -21.017  26.473  -4.941  1.00  0.00    -0.004 C 
ATOM      8  C   UNL     1     -21.813  26.912  -5.922  1.00  0.00     0.007 C 
ENDBRANCH   6   7
BRANCH   6   9
ATOM      9  O   UNL     1     -18.876  26.067  -3.911  1.00  0.00    -0.389 OA
ATOM     10  H   UNL     1     -19.269  25.240  -3.525  1.00  0.00     0.211 HD
ENDBRANCH   6   9
ENDBRANCH   5   6
ENDBRANCH   1   5
TORSDOF 6
ENDMDL
MODEL 6
REMARK VINA RESULT:     0.526     20.780     22.191
REMARK INTER + INTRA:           0.373
REMARK INTER:                  -0.080
REMARK INTRA:                   0.453
REMARK UNBOUND:                -0.322
REMARK SMILES C=C[C@@H](O)CCCCC
REMARK SMILES IDX 6 1 7 2 8 3 9 4 5 5 3 6 2 7 1 8 4 9
REMARK H PARENT 4 10
REMARK Flexibility Score: inf
ROOT
ATOM      1  C   UNL     1     -18.955  24.864  -7.011  1.00  0.00     0.003 C 
ENDROOT
BRANCH   1   2
ATOM      2  C   UNL     1     -19.464  23.604  -6.291  1.00  0.00    -0.000 C 
BRANCH   2   3
ATOM      3  C   UNL     1     -18.906  22.310  -6.900  1.00  0.00    -0.003 C 
ATOM      4  C   UNL     1     -19.125  22.274  -8.409  1.00  0.00     0.004 C 
ENDBRANCH   2   3
ENDBRANCH   1   2
BRANCH   1   5
ATOM      5  C   UNL     1     -19.867  26.084  -6.781  1.00  0.00     0.036 C 
BRANCH   5   6
ATOM      6  C   UNL     1     -20.860  25.907  -5.612  1.00  0.00     0.136 C 
BRANCH   6   7
ATOM      7  C   UNL     1     -20.185  25.936  -4.257  1.00  0.00    -0.004 C 
ATOM      8  C   UNL     1     -18.885  26.219  -4.125  1.00  0.00     0.007 C 
ENDBRANCH   6   7
BRANCH   6   9
ATOM      9  O   UNL     1     -21.897  26.855  -5.683  1.00  0.00    -0.389 OA
ATOM     10  H   UNL     1     -22.704  26.463  -5.258  1.00  0.00     0.211 HD
ENDBRANCH   6   9
ENDBRANCH   5   6
ENDBRANCH   1   5
TORSDOF 6
ENDMDL
