MODEL 1
REMARK VINA RESULT:    -3.578      0.000      0.000
REMARK INTER + INTRA:          -9.055
REMARK INTER:                  -6.506
REMARK INTRA:                  -2.548
REMARK UNBOUND:                -2.548
REMARK SMILES CCCCCCCCCCCCCC[C@@H](C)C(=O)[O-]
REMARK SMILES IDX 9 1 10 2 11 3 12 4 13 5 14 6 15 7 16 8 17 9 18 10 19 11 8 12
REMARK SMILES IDX 7 13 6 14 5 15 4 16 3 17 2 18 1 19
REMARK H PARENT
REMARK Flexibility Score: inf
ROOT
ATOM      1  C   UNL     1      35.884 -50.326 -17.007  1.00  0.00     0.000 C 
ENDROOT
BRANCH   1   2
ATOM      2  C   UNL     1      35.695 -49.359 -15.828  1.00  0.00     0.000 C 
BRANCH   2   3
ATOM      3  C   UNL     1      35.647 -47.888 -16.269  1.00  0.00     0.000 C 
BRANCH   3   4
ATOM      4  C   UNL     1      35.676 -47.771 -17.797  1.00  0.00     0.000 C 
BRANCH   4   5
ATOM      5  C   UNL     1      36.871 -46.924 -18.261  1.00  0.00     0.001 C 
BRANCH   5   6
ATOM      6  C   UNL     1      36.819 -46.589 -19.764  1.00  0.00     0.009 C 
BRANCH   6   7
ATOM      7  C   UNL     1      38.204 -46.477 -20.438  1.00  0.00     0.032 C 
ATOM      8  C   UNL     1      39.317 -46.539 -19.387  1.00  0.00     0.014 C 
BRANCH   7   9
ATOM      9  C   UNL     1      38.410 -47.566 -21.456  1.00  0.00     0.044 C 
ATOM     10  O   UNL     1      37.905 -47.459 -22.606  1.00  0.00    -0.550 OA
ATOM     11  O   UNL     1      39.158 -48.694 -21.138  1.00  0.00    -0.550 OA
ENDBRANCH   7   9
ENDBRANCH   6   7
ENDBRANCH   5   6
ENDBRANCH   4   5
ENDBRANCH   3   4
ENDBRANCH   2   3
ENDBRANCH   1   2
BRANCH   1  12
ATOM     12  C   UNL     1      36.623 -51.614 -16.602  1.00  0.00     0.000 C 
BRANCH  12  13
ATOM     13  C   UNL     1      38.046 -51.681 -17.178  1.00  0.00    -0.000 C 
BRANCH  13  14
ATOM     14  C   UNL     1      38.316 -50.574 -18.214  1.00  0.00    -0.000 C 
BRANCH  14  15
ATOM     15  C   UNL     1      39.468 -49.643 -17.798  1.00  0.00    -0.000 C 
BRANCH  15  16
ATOM     16  C   UNL     1      40.323 -50.165 -16.628  1.00  0.00    -0.000 C 
BRANCH  16  17
ATOM     17  C   UNL     1      40.462 -49.160 -15.462  1.00  0.00    -0.000 C 
BRANCH  17  18
ATOM     18  C   UNL     1      39.118 -48.566 -15.000  1.00  0.00    -0.003 C 
ATOM     19  C   UNL     1      39.072 -47.044 -15.145  1.00  0.00     0.004 C 
ENDBRANCH  17  18
ENDBRANCH  16  17
ENDBRANCH  15  16
ENDBRANCH  14  15
ENDBRANCH  13  14
ENDBRANCH  12  13
ENDBRANCH   1  12
TORSDOF 14
ENDMDL
MODEL 2
REMARK VINA RESULT:    -3.538      3.247      5.506
REMARK INTER + INTRA:          -8.981
REMARK INTER:                  -6.327
REMARK INTRA:                  -2.654
REMARK UNBOUND:                -2.548
REMARK SMILES CCCCCCCCCCCCCC[C@@H](C)C(=O)[O-]
REMARK SMILES IDX 9 1 10 2 11 3 12 4 13 5 14 6 15 7 16 8 17 9 18 10 19 11 8 12
REMARK SMILES IDX 7 13 6 14 5 15 4 16 3 17 2 18 1 19
REMARK H PARENT
REMARK Flexibility Score: inf
ROOT
ATOM      1  C   UNL     1      36.476 -52.062 -16.706  1.00  0.00     0.000 C 
ENDROOT
BRANCH   1   2
ATOM      2  C   UNL     1      37.383 -51.433 -17.776  1.00  0.00     0.000 C 
BRANCH   2   3
ATOM      3  C   UNL     1      38.669 -50.834 -17.186  1.00  0.00     0.000 C 
BRANCH   3   4
ATOM      4  C   UNL     1      38.932 -49.433 -17.753  1.00  0.00     0.000 C 
BRANCH   4   5
ATOM      5  C   UNL     1      39.615 -48.537 -16.709  1.00  0.00     0.001 C 
BRANCH   5   6
ATOM      6  C   UNL     1      39.355 -48.998 -15.262  1.00  0.00     0.009 C 
BRANCH   6   7
ATOM      7  C   UNL     1      39.578 -47.902 -14.197  1.00  0.00     0.032 C 
ATOM      8  C   UNL     1      39.010 -46.564 -14.679  1.00  0.00     0.014 C 
BRANCH   7   9
ATOM      9  C   UNL     1      38.946 -48.276 -12.883  1.00  0.00     0.044 C 
ATOM     10  O   UNL     1      38.869 -47.427 -11.955  1.00  0.00    -0.550 OA
ATOM     11  O   UNL     1      38.442 -49.556 -12.684  1.00  0.00    -0.550 OA
ENDBRANCH   7   9
ENDBRANCH   6   7
ENDBRANCH   5   6
ENDBRANCH   4   5
ENDBRANCH   3   4
ENDBRANCH   2   3
ENDBRANCH   1   2
BRANCH   1  12
ATOM     12  C   UNL     1      36.521 -51.300 -15.370  1.00  0.00     0.000 C 
BRANCH  12  13
ATOM     13  C   UNL     1      35.333 -50.339 -15.202  1.00  0.00    -0.000 C 
BRANCH  13  14
ATOM     14  C   UNL     1      35.643 -48.923 -15.721  1.00  0.00    -0.000 C 
BRANCH  14  15
ATOM     15  C   UNL     1      34.883 -48.589 -17.017  1.00  0.00    -0.000 C 
BRANCH  15  16
ATOM     16  C   UNL     1      35.692 -47.767 -18.039  1.00  0.00    -0.000 C 
BRANCH  16  17
ATOM     17  C   UNL     1      36.478 -46.593 -17.410  1.00  0.00    -0.000 C 
BRANCH  17  18
ATOM     18  C   UNL     1      37.065 -45.621 -18.450  1.00  0.00    -0.003 C 
ATOM     19  C   UNL     1      37.458 -46.323 -19.749  1.00  0.00     0.004 C 
ENDBRANCH  17  18
ENDBRANCH  16  17
ENDBRANCH  15  16
ENDBRANCH  14  15
ENDBRANCH  13  14
ENDBRANCH  12  13
ENDBRANCH   1  12
TORSDOF 14
ENDMDL
MODEL 3
REMARK VINA RESULT:    -3.443      3.881      6.385
REMARK INTER + INTRA:          -8.809
REMARK INTER:                  -6.115
REMARK INTRA:                  -2.694
REMARK UNBOUND:                -2.548
REMARK SMILES CCCCCCCCCCCCCC[C@@H](C)C(=O)[O-]
REMARK SMILES IDX 9 1 10 2 11 3 12 4 13 5 14 6 15 7 16 8 17 9 18 10 19 11 8 12
REMARK SMILES IDX 7 13 6 14 5 15 4 16 3 17 2 18 1 19
REMARK H PARENT
REMARK Flexibility Score: inf
ROOT
ATOM      1  C   UNL     1      39.229 -49.397 -17.468  1.00  0.00     0.000 C 
ENDROOT
BRANCH   1   2
ATOM      2  C   UNL     1      39.824 -48.857 -16.157  1.00  0.00     0.000 C 
BRANCH   2   3
ATOM      3  C   UNL     1      39.099 -47.601 -15.648  1.00  0.00     0.000 C 
BRANCH   3   4
ATOM      4  C   UNL     1      38.352 -47.890 -14.341  1.00  0.00     0.000 C 
BRANCH   4   5
ATOM      5  C   UNL     1      38.830 -49.207 -13.713  1.00  0.00     0.001 C 
BRANCH   5   6
ATOM      6  C   UNL     1      39.047 -49.100 -12.191  1.00  0.00     0.009 C 
BRANCH   6   7
ATOM      7  C   UNL     1      40.514 -48.850 -11.776  1.00  0.00     0.032 C 
ATOM      8  C   UNL     1      41.462 -49.192 -12.929  1.00  0.00     0.014 C 
BRANCH   7   9
ATOM      9  C   UNL     1      40.729 -47.422 -11.350  1.00  0.00     0.044 C 
ATOM     10  O   UNL     1      39.743 -46.695 -11.058  1.00  0.00    -0.550 OA
ATOM     11  O   UNL     1      42.014 -46.897 -11.275  1.00  0.00    -0.550 OA
ENDBRANCH   7   9
ENDBRANCH   6   7
ENDBRANCH   5   6
ENDBRANCH   4   5
ENDBRANCH   3   4
ENDBRANCH   2   3
ENDBRANCH   1   2
BRANCH   1  12
ATOM     12  C   UNL     1      38.897 -50.897 -17.392  1.00  0.00     0.000 C 
BRANCH  12  13
ATOM     13  C   UNL     1      37.385 -51.167 -17.439  1.00  0.00    -0.000 C 
BRANCH  13  14
ATOM     14  C   UNL     1      36.766 -51.301 -16.036  1.00  0.00    -0.000 C 
BRANCH  14  15
ATOM     15  C   UNL     1      35.789 -50.159 -15.709  1.00  0.00    -0.000 C 
BRANCH  15  16
ATOM     16  C   UNL     1      35.244 -49.411 -16.940  1.00  0.00    -0.000 C 
BRANCH  16  17
ATOM     17  C   UNL     1      35.616 -47.911 -16.971  1.00  0.00    -0.000 C 
BRANCH  17  18
ATOM     18  C   UNL     1      36.219 -47.455 -18.313  1.00  0.00    -0.003 C 
ATOM     19  C   UNL     1      36.910 -46.095 -18.210  1.00  0.00     0.004 C 
ENDBRANCH  17  18
ENDBRANCH  16  17
ENDBRANCH  15  16
ENDBRANCH  14  15
ENDBRANCH  13  14
ENDBRANCH  12  13
ENDBRANCH   1  12
TORSDOF 14
ENDMDL
MODEL 4
REMARK VINA RESULT:    -3.416      2.797      5.361
REMARK INTER + INTRA:          -8.761
REMARK INTER:                  -6.156
REMARK INTRA:                  -2.605
REMARK UNBOUND:                -2.548
REMARK SMILES CCCCCCCCCCCCCC[C@@H](C)C(=O)[O-]
REMARK SMILES IDX 9 1 10 2 11 3 12 4 13 5 14 6 15 7 16 8 17 9 18 10 19 11 8 12
REMARK SMILES IDX 7 13 6 14 5 15 4 16 3 17 2 18 1 19
REMARK H PARENT
REMARK Flexibility Score: inf
ROOT
ATOM      1  C   UNL     1      35.757 -50.601 -17.077  1.00  0.00     0.000 C 
ENDROOT
BRANCH   1   2
ATOM      2  C   UNL     1      37.036 -51.370 -16.706  1.00  0.00     0.000 C 
BRANCH   2   3
ATOM      3  C   UNL     1      38.115 -51.289 -17.797  1.00  0.00     0.000 C 
BRANCH   3   4
ATOM      4  C   UNL     1      38.804 -49.919 -17.787  1.00  0.00     0.000 C 
BRANCH   4   5
ATOM      5  C   UNL     1      39.312 -49.569 -16.380  1.00  0.00     0.001 C 
BRANCH   5   6
ATOM      6  C   UNL     1      39.104 -48.085 -16.022  1.00  0.00     0.009 C 
BRANCH   6   7
ATOM      7  C   UNL     1      38.420 -47.852 -14.657  1.00  0.00     0.032 C 
ATOM      8  C   UNL     1      38.226 -49.182 -13.921  1.00  0.00     0.014 C 
BRANCH   7   9
ATOM      9  C   UNL     1      39.217 -46.910 -13.796  1.00  0.00     0.044 C 
ATOM     10  O   UNL     1      40.159 -46.241 -14.297  1.00  0.00    -0.550 OA
ATOM     11  O   UNL     1      38.921 -46.771 -12.444  1.00  0.00    -0.550 OA
ENDBRANCH   7   9
ENDBRANCH   6   7
ENDBRANCH   5   6
ENDBRANCH   4   5
ENDBRANCH   3   4
ENDBRANCH   2   3
ENDBRANCH   1   2
BRANCH   1  12
ATOM     12  C   UNL     1      35.268 -49.685 -15.941  1.00  0.00     0.000 C 
BRANCH  12  13
ATOM     13  C   UNL     1      35.195 -48.210 -16.368  1.00  0.00    -0.000 C 
BRANCH  13  14
ATOM     14  C   UNL     1      35.349 -48.028 -17.889  1.00  0.00    -0.000 C 
BRANCH  14  15
ATOM     15  C   UNL     1      36.536 -47.122 -18.258  1.00  0.00    -0.000 C 
BRANCH  15  16
ATOM     16  C   UNL     1      36.714 -46.884 -19.770  1.00  0.00    -0.000 C 
BRANCH  16  17
ATOM     17  C   UNL     1      38.185 -46.942 -20.240  1.00  0.00    -0.000 C 
BRANCH  17  18
ATOM     18  C   UNL     1      39.117 -45.995 -19.461  1.00  0.00    -0.003 C 
ATOM     19  C   UNL     1      38.899 -44.528 -19.831  1.00  0.00     0.004 C 
ENDBRANCH  17  18
ENDBRANCH  16  17
ENDBRANCH  15  16
ENDBRANCH  14  15
ENDBRANCH  13  14
ENDBRANCH  12  13
ENDBRANCH   1  12
TORSDOF 14
ENDMDL
MODEL 5
REMARK VINA RESULT:    -3.415      3.147      5.308
REMARK INTER + INTRA:          -8.758
REMARK INTER:                  -6.116
REMARK INTRA:                  -2.643
REMARK UNBOUND:                -2.548
REMARK SMILES CCCCCCCCCCCCCC[C@@H](C)C(=O)[O-]
REMARK SMILES IDX 9 1 10 2 11 3 12 4 13 5 14 6 15 7 16 8 17 9 18 10 19 11 8 12
REMARK SMILES IDX 7 13 6 14 5 15 4 16 3 17 2 18 1 19
REMARK H PARENT
REMARK Flexibility Score: inf
ROOT
ATOM      1  C   UNL     1      38.200 -46.679 -20.303  1.00  0.00     0.000 C 
ENDROOT
BRANCH   1   2
ATOM      2  C   UNL     1      36.775 -46.492 -19.757  1.00  0.00     0.000 C 
BRANCH   2   3
ATOM      3  C   UNL     1      36.514 -47.316 -18.487  1.00  0.00     0.000 C 
BRANCH   3   4
ATOM      4  C   UNL     1      37.130 -46.640 -17.256  1.00  0.00     0.000 C 
BRANCH   4   5
ATOM      5  C   UNL     1      38.287 -47.477 -16.690  1.00  0.00     0.001 C 
BRANCH   5   6
ATOM      6  C   UNL     1      37.967 -48.084 -15.311  1.00  0.00     0.009 C 
BRANCH   6   7
ATOM      7  C   UNL     1      39.086 -48.981 -14.737  1.00  0.00     0.032 C 
ATOM      8  C   UNL     1      40.313 -48.957 -15.654  1.00  0.00     0.014 C 
BRANCH   7   9
ATOM      9  C   UNL     1      39.481 -48.548 -13.351  1.00  0.00     0.044 C 
ATOM     10  O   UNL     1      38.866 -47.605 -12.785  1.00  0.00    -0.550 OA
ATOM     11  O   UNL     1      40.523 -49.184 -12.686  1.00  0.00    -0.550 OA
ENDBRANCH   7   9
ENDBRANCH   6   7
ENDBRANCH   5   6
ENDBRANCH   4   5
ENDBRANCH   3   4
ENDBRANCH   2   3
ENDBRANCH   1   2
BRANCH   1  12
ATOM     12  C   UNL     1      38.253 -47.648 -21.498  1.00  0.00     0.000 C 
BRANCH  12  13
ATOM     13  C   UNL     1      39.209 -48.827 -21.256  1.00  0.00    -0.000 C 
BRANCH  13  14
ATOM     14  C   UNL     1      39.636 -48.947 -19.781  1.00  0.00    -0.000 C 
BRANCH  14  15
ATOM     15  C   UNL     1      39.460 -50.372 -19.229  1.00  0.00    -0.000 C 
BRANCH  15  16
ATOM     16  C   UNL     1      38.106 -50.629 -18.540  1.00  0.00    -0.000 C 
BRANCH  16  17
ATOM     17  C   UNL     1      38.209 -51.518 -17.280  1.00  0.00    -0.000 C 
BRANCH  17  18
ATOM     18  C   UNL     1      36.892 -51.618 -16.489  1.00  0.00    -0.003 C 
ATOM     19  C   UNL     1      35.828 -50.647 -17.001  1.00  0.00     0.004 C 
ENDBRANCH  17  18
ENDBRANCH  16  17
ENDBRANCH  15  16
ENDBRANCH  14  15
ENDBRANCH  13  14
ENDBRANCH  12  13
ENDBRANCH   1  12
TORSDOF 14
ENDMDL
MODEL 6
REMARK VINA RESULT:    -3.402      3.540      5.724
REMARK INTER + INTRA:          -8.735
REMARK INTER:                  -6.499
REMARK INTRA:                  -2.235
REMARK UNBOUND:                -2.548
REMARK SMILES CCCCCCCCCCCCCC[C@@H](C)C(=O)[O-]
REMARK SMILES IDX 9 1 10 2 11 3 12 4 13 5 14 6 15 7 16 8 17 9 18 10 19 11 8 12
REMARK SMILES IDX 7 13 6 14 5 15 4 16 3 17 2 18 1 19
REMARK H PARENT
REMARK Flexibility Score: inf
ROOT
ATOM      1  C   UNL     1      37.290 -51.730 -17.158  1.00  0.00     0.000 C 
ENDROOT
BRANCH   1   2
ATOM      2  C   UNL     1      36.366 -50.509 -17.023  1.00  0.00     0.000 C 
BRANCH   2   3
ATOM      3  C   UNL     1      35.775 -50.364 -15.612  1.00  0.00     0.000 C 
BRANCH   3   4
ATOM      4  C   UNL     1      36.877 -50.108 -14.578  1.00  0.00     0.000 C 
BRANCH   4   5
ATOM      5  C   UNL     1      37.620 -48.797 -14.878  1.00  0.00     0.001 C 
BRANCH   5   6
ATOM      6  C   UNL     1      39.148 -48.929 -14.734  1.00  0.00     0.009 C 
BRANCH   6   7
ATOM      7  C   UNL     1      39.780 -47.929 -13.741  1.00  0.00     0.032 C 
ATOM      8  C   UNL     1      38.862 -46.718 -13.545  1.00  0.00     0.014 C 
BRANCH   7   9
ATOM      9  C   UNL     1      40.056 -48.575 -12.410  1.00  0.00     0.044 C 
ATOM     10  O   UNL     1      41.184 -48.442 -11.866  1.00  0.00    -0.550 OA
ATOM     11  O   UNL     1      39.070 -49.319 -11.772  1.00  0.00    -0.550 OA
ENDBRANCH   7   9
ENDBRANCH   6   7
ENDBRANCH   5   6
ENDBRANCH   4   5
ENDBRANCH   3   4
ENDBRANCH   2   3
ENDBRANCH   1   2
BRANCH   1  12
ATOM     12  C   UNL     1      38.689 -51.358 -17.680  1.00  0.00     0.000 C 
BRANCH  12  13
ATOM     13  C   UNL     1      38.668 -50.110 -18.578  1.00  0.00    -0.000 C 
BRANCH  13  14
ATOM     14  C   UNL     1      39.726 -49.070 -18.168  1.00  0.00    -0.000 C 
BRANCH  14  15
ATOM     15  C   UNL     1      39.250 -47.624 -18.385  1.00  0.00    -0.000 C 
BRANCH  15  16
ATOM     16  C   UNL     1      37.720 -47.445 -18.367  1.00  0.00    -0.000 C 
BRANCH  16  17
ATOM     17  C   UNL     1      37.151 -46.829 -19.666  1.00  0.00    -0.000 C 
BRANCH  17  18
ATOM     18  C   UNL     1      38.213 -46.612 -20.760  1.00  0.00    -0.003 C 
ATOM     19  C   UNL     1      38.079 -47.611 -21.909  1.00  0.00     0.004 C 
ENDBRANCH  17  18
ENDBRANCH  16  17
ENDBRANCH  15  16
ENDBRANCH  14  15
ENDBRANCH  13  14
ENDBRANCH  12  13
ENDBRANCH   1  12
TORSDOF 14
ENDMDL
MODEL 7
REMARK VINA RESULT:    -3.398      1.993      3.455
REMARK INTER + INTRA:          -8.727
REMARK INTER:                  -6.237
REMARK INTRA:                  -2.490
REMARK UNBOUND:                -2.548
REMARK SMILES CCCCCCCCCCCCCC[C@@H](C)C(=O)[O-]
REMARK SMILES IDX 9 1 10 2 11 3 12 4 13 5 14 6 15 7 16 8 17 9 18 10 19 11 8 12
REMARK SMILES IDX 7 13 6 14 5 15 4 16 3 17 2 18 1 19
REMARK H PARENT
REMARK Flexibility Score: inf
ROOT
ATOM      1  C   UNL     1      37.423 -49.884 -14.009  1.00  0.00     0.000 C 
ENDROOT
BRANCH   1   2
ATOM      2  C   UNL     1      37.517 -48.726 -15.015  1.00  0.00     0.000 C 
BRANCH   2   3
ATOM      3  C   UNL     1      38.901 -48.625 -15.677  1.00  0.00     0.000 C 
BRANCH   3   4
ATOM      4  C   UNL     1      38.802 -47.972 -17.060  1.00  0.00     0.000 C 
BRANCH   4   5
ATOM      5  C   UNL     1      37.336 -47.838 -17.502  1.00  0.00     0.001 C 
BRANCH   5   6
ATOM      6  C   UNL     1      37.150 -46.834 -18.656  1.00  0.00     0.009 C 
BRANCH   6   7
ATOM      7  C   UNL     1      38.436 -46.545 -19.461  1.00  0.00     0.032 C 
ATOM      8  C   UNL     1      38.204 -46.812 -20.952  1.00  0.00     0.014 C 
BRANCH   7   9
ATOM      9  C   UNL     1      38.899 -45.127 -19.266  1.00  0.00     0.044 C 
ATOM     10  O   UNL     1      38.914 -44.328 -20.240  1.00  0.00    -0.550 OA
ATOM     11  O   UNL     1      39.313 -44.688 -18.014  1.00  0.00    -0.550 OA
ENDBRANCH   7   9
ENDBRANCH   6   7
ENDBRANCH   5   6
ENDBRANCH   4   5
ENDBRANCH   3   4
ENDBRANCH   2   3
ENDBRANCH   1   2
BRANCH   1  12
ATOM     12  C   UNL     1      36.205 -50.790 -14.262  1.00  0.00     0.000 C 
BRANCH  12  13
ATOM     13  C   UNL     1      35.299 -50.255 -15.383  1.00  0.00    -0.000 C 
BRANCH  13  14
ATOM     14  C   UNL     1      35.115 -51.269 -16.526  1.00  0.00    -0.000 C 
BRANCH  14  15
ATOM     15  C   UNL     1      36.393 -52.076 -16.813  1.00  0.00    -0.000 C 
BRANCH  15  16
ATOM     16  C   UNL     1      37.391 -51.379 -17.758  1.00  0.00    -0.000 C 
BRANCH  16  17
ATOM     17  C   UNL     1      38.833 -51.926 -17.652  1.00  0.00    -0.000 C 
BRANCH  17  18
ATOM     18  C   UNL     1      39.848 -51.154 -18.514  1.00  0.00    -0.003 C 
ATOM     19  C   UNL     1      39.197 -50.489 -19.727  1.00  0.00     0.004 C 
ENDBRANCH  17  18
ENDBRANCH  16  17
ENDBRANCH  15  16
ENDBRANCH  14  15
ENDBRANCH  13  14
ENDBRANCH  12  13
ENDBRANCH   1  12
TORSDOF 14
ENDMDL
MODEL 8
REMARK VINA RESULT:    -3.398      2.581      3.514
REMARK INTER + INTRA:          -8.727
REMARK INTER:                  -6.262
REMARK INTRA:                  -2.465
REMARK UNBOUND:                -2.548
REMARK SMILES CCCCCCCCCCCCCC[C@@H](C)C(=O)[O-]
REMARK SMILES IDX 9 1 10 2 11 3 12 4 13 5 14 6 15 7 16 8 17 9 18 10 19 11 8 12
REMARK SMILES IDX 7 13 6 14 5 15 4 16 3 17 2 18 1 19
REMARK H PARENT
REMARK Flexibility Score: inf
ROOT
ATOM      1  C   UNL     1      36.341 -47.937 -15.630  1.00  0.00     0.000 C 
ENDROOT
BRANCH   1   2
ATOM      2  C   UNL     1      36.665 -47.066 -16.854  1.00  0.00     0.000 C 
BRANCH   2   3
ATOM      3  C   UNL     1      35.968 -47.556 -18.133  1.00  0.00     0.000 C 
BRANCH   3   4
ATOM      4  C   UNL     1      36.706 -47.062 -19.383  1.00  0.00     0.000 C 
BRANCH   4   5
ATOM      5  C   UNL     1      37.983 -46.299 -19.004  1.00  0.00     0.001 C 
BRANCH   5   6
ATOM      6  C   UNL     1      38.271 -45.111 -19.942  1.00  0.00     0.009 C 
BRANCH   6   7
ATOM      7  C   UNL     1      38.298 -43.737 -19.237  1.00  0.00     0.032 C 
ATOM      8  C   UNL     1      38.825 -42.659 -20.189  1.00  0.00     0.014 C 
BRANCH   7   9
ATOM      9  C   UNL     1      36.933 -43.348 -18.739  1.00  0.00     0.044 C 
ATOM     10  O   UNL     1      36.108 -42.802 -19.518  1.00  0.00    -0.550 OA
ATOM     11  O   UNL     1      36.572 -43.588 -17.417  1.00  0.00    -0.550 OA
ENDBRANCH   7   9
ENDBRANCH   6   7
ENDBRANCH   5   6
ENDBRANCH   4   5
ENDBRANCH   3   4
ENDBRANCH   2   3
ENDBRANCH   1   2
BRANCH   1  12
ATOM     12  C   UNL     1      35.592 -49.229 -16.005  1.00  0.00     0.000 C 
BRANCH  12  13
ATOM     13  C   UNL     1      36.023 -50.428 -15.145  1.00  0.00    -0.000 C 
BRANCH  13  14
ATOM     14  C   UNL     1      36.328 -51.679 -15.989  1.00  0.00    -0.000 C 
BRANCH  14  15
ATOM     15  C   UNL     1      36.747 -51.334 -17.428  1.00  0.00    -0.000 C 
BRANCH  15  16
ATOM     16  C   UNL     1      38.268 -51.329 -17.668  1.00  0.00    -0.000 C 
BRANCH  16  17
ATOM     17  C   UNL     1      38.769 -50.102 -18.464  1.00  0.00    -0.000 C 
BRANCH  17  18
ATOM     18  C   UNL     1      39.645 -49.147 -17.633  1.00  0.00    -0.003 C 
ATOM     19  C   UNL     1      39.689 -49.532 -16.154  1.00  0.00     0.004 C 
ENDBRANCH  17  18
ENDBRANCH  16  17
ENDBRANCH  15  16
ENDBRANCH  14  15
ENDBRANCH  13  14
ENDBRANCH  12  13
ENDBRANCH   1  12
TORSDOF 14
ENDMDL
MODEL 9
REMARK VINA RESULT:    -3.349      2.251      3.122
REMARK INTER + INTRA:          -8.638
REMARK INTER:                  -5.982
REMARK INTRA:                  -2.655
REMARK UNBOUND:                -2.548
REMARK SMILES CCCCCCCCCCCCCC[C@@H](C)C(=O)[O-]
REMARK SMILES IDX 9 1 10 2 11 3 12 4 13 5 14 6 15 7 16 8 17 9 18 10 19 11 8 12
REMARK SMILES IDX 7 13 6 14 5 15 4 16 3 17 2 18 1 19
REMARK H PARENT
REMARK Flexibility Score: inf
ROOT
ATOM      1  C   UNL     1      36.775 -51.593 -17.165  1.00  0.00     0.000 C 
ENDROOT
BRANCH   1   2
ATOM      2  C   UNL     1      36.406 -51.138 -15.744  1.00  0.00     0.000 C 
BRANCH   2   3
ATOM      3  C   UNL     1      35.537 -49.871 -15.733  1.00  0.00     0.000 C 
BRANCH   3   4
ATOM      4  C   UNL     1      34.876 -49.646 -17.098  1.00  0.00     0.000 C 
BRANCH   4   5
ATOM      5  C   UNL     1      35.081 -48.201 -17.577  1.00  0.00     0.001 C 
BRANCH   5   6
ATOM      6  C   UNL     1      36.244 -47.492 -16.857  1.00  0.00     0.009 C 
BRANCH   6   7
ATOM      7  C   UNL     1      37.082 -46.565 -17.766  1.00  0.00     0.032 C 
ATOM      8  C   UNL     1      36.843 -46.903 -19.241  1.00  0.00     0.014 C 
BRANCH   7   9
ATOM      9  C   UNL     1      36.758 -45.116 -17.520  1.00  0.00     0.044 C 
ATOM     10  O   UNL     1      36.442 -44.726 -16.365  1.00  0.00    -0.550 OA
ATOM     11  O   UNL     1      36.807 -44.198 -18.564  1.00  0.00    -0.550 OA
ENDBRANCH   7   9
ENDBRANCH   6   7
ENDBRANCH   5   6
ENDBRANCH   4   5
ENDBRANCH   3   4
ENDBRANCH   2   3
ENDBRANCH   1   2
BRANCH   1  12
ATOM     12  C   UNL     1      38.271 -51.404 -17.476  1.00  0.00     0.000 C 
BRANCH  12  13
ATOM     13  C   UNL     1      38.550 -50.104 -18.248  1.00  0.00    -0.000 C 
BRANCH  13  14
ATOM     14  C   UNL     1      39.698 -49.286 -17.630  1.00  0.00    -0.000 C 
BRANCH  14  15
ATOM     15  C   UNL     1      39.863 -49.544 -16.122  1.00  0.00    -0.000 C 
BRANCH  15  16
ATOM     16  C   UNL     1      39.147 -48.524 -15.216  1.00  0.00    -0.000 C 
BRANCH  16  17
ATOM     17  C   UNL     1      38.794 -49.076 -13.817  1.00  0.00    -0.000 C 
BRANCH  17  18
ATOM     18  C   UNL     1      38.938 -48.035 -12.691  1.00  0.00    -0.003 C 
ATOM     19  C   UNL     1      39.420 -46.679 -13.208  1.00  0.00     0.004 C 
ENDBRANCH  17  18
ENDBRANCH  16  17
ENDBRANCH  15  16
ENDBRANCH  14  15
ENDBRANCH  13  14
ENDBRANCH  12  13
ENDBRANCH   1  12
TORSDOF 14
ENDMDL
