MODEL 1
REMARK VINA RESULT:    -4.013      0.000      0.000
REMARK INTER + INTRA:          -4.848
REMARK INTER:                  -4.716
REMARK INTRA:                  -0.132
REMARK UNBOUND:                -0.132
REMARK SMILES O=C([O-])C=Cc1ccc(O)c(O)c1
REMARK SMILES IDX 6 1 13 2 7 3 11 4 8 5 9 6 5 7 4 8 2 9 1 10 3 11 12 12 10 14
REMARK H PARENT 12 13 10 15
REMARK Flexibility Score: inf
ROOT
ATOM      1  C   UNL     1       6.424 -15.010   5.839  1.00  0.00    -0.022 A 
ATOM      2  C   UNL     1       5.817 -15.150   7.098  1.00  0.00     0.058 A 
ATOM      3  C   UNL     1       5.835 -14.148   4.893  1.00  0.00     0.012 A 
ATOM      4  C   UNL     1       4.633 -14.464   7.404  1.00  0.00     0.157 A 
ATOM      5  C   UNL     1       4.654 -13.464   5.198  1.00  0.00     0.051 A 
ATOM      6  C   UNL     1       4.049 -13.621   6.450  1.00  0.00     0.157 A 
ENDROOT
BRANCH   1   7
ATOM      7  C   UNL     1       7.682 -15.750   5.571  1.00  0.00     0.010 C 
ATOM      8  C   UNL     1       8.458 -16.273   6.529  1.00  0.00     0.025 C 
BRANCH   8   9
ATOM      9  C   UNL     1       9.705 -16.988   6.217  1.00  0.00     0.064 C 
ATOM     10  O   UNL     1       9.665 -18.215   5.938  1.00  0.00    -0.545 OA
ATOM     11  O   UNL     1      10.931 -16.330   6.222  1.00  0.00    -0.545 OA
ENDBRANCH   8   9
ENDBRANCH   1   7
BRANCH   4  12
ATOM     12  O   UNL     1       4.031 -14.615   8.652  1.00  0.00    -0.504 OA
ATOM     13  H   UNL     1       3.040 -14.803   8.744  1.00  0.00     0.293 HD
ENDBRANCH   4  12
BRANCH   6  14
ATOM     14  O   UNL     1       2.871 -12.942   6.755  1.00  0.00    -0.504 OA
ATOM     15  H   UNL     1       2.378 -13.101   7.625  1.00  0.00     0.293 HD
ENDBRANCH   6  14
TORSDOF 4
ENDMDL
MODEL 2
REMARK VINA RESULT:    -3.909      3.707      5.953
REMARK INTER + INTRA:          -4.726
REMARK INTER:                  -4.593
REMARK INTRA:                  -0.133
REMARK UNBOUND:                -0.132
REMARK SMILES O=C([O-])C=Cc1ccc(O)c(O)c1
REMARK SMILES IDX 6 1 13 2 7 3 11 4 8 5 9 6 5 7 4 8 2 9 1 10 3 11 12 12 10 14
REMARK H PARENT 12 13 10 15
REMARK Flexibility Score: inf
ROOT
ATOM      1  C   UNL     1      10.401 -16.513   8.418  1.00  0.00    -0.022 A 
ATOM      2  C   UNL     1      10.762 -17.300   7.312  1.00  0.00     0.058 A 
ATOM      3  C   UNL     1       9.241 -15.716   8.335  1.00  0.00     0.012 A 
ATOM      4  C   UNL     1       9.999 -17.277   6.135  1.00  0.00     0.157 A 
ATOM      5  C   UNL     1       8.481 -15.693   7.162  1.00  0.00     0.051 A 
ATOM      6  C   UNL     1       8.858 -16.470   6.060  1.00  0.00     0.157 A 
ENDROOT
BRANCH   1   7
ATOM      7  C   UNL     1      11.236 -16.583   9.643  1.00  0.00     0.010 C 
ATOM      8  C   UNL     1      12.474 -17.092   9.672  1.00  0.00     0.025 C 
BRANCH   8   9
ATOM      9  C   UNL     1      13.262 -17.152  10.914  1.00  0.00     0.064 C 
ATOM     10  O   UNL     1      14.512 -17.016  10.864  1.00  0.00    -0.545 OA
ATOM     11  O   UNL     1      12.647 -17.353  12.144  1.00  0.00    -0.545 OA
ENDBRANCH   8   9
ENDBRANCH   1   7
BRANCH   4  12
ATOM     12  O   UNL     1      10.369 -18.053   5.039  1.00  0.00    -0.504 OA
ATOM     13  H   UNL     1      10.958 -17.684   4.301  1.00  0.00     0.293 HD
ENDBRANCH   4  12
BRANCH   6  14
ATOM     14  O   UNL     1       8.102 -16.447   4.889  1.00  0.00    -0.504 OA
ATOM     15  H   UNL     1       7.471 -15.683   4.681  1.00  0.00     0.293 HD
ENDBRANCH   6  14
TORSDOF 4
ENDMDL
MODEL 3
REMARK VINA RESULT:    -3.888      1.173      1.911
REMARK INTER + INTRA:          -4.702
REMARK INTER:                  -4.570
REMARK INTRA:                  -0.132
REMARK UNBOUND:                -0.132
REMARK SMILES O=C([O-])C=Cc1ccc(O)c(O)c1
REMARK SMILES IDX 6 1 13 2 7 3 11 4 8 5 9 6 5 7 4 8 2 9 1 10 3 11 12 12 10 14
REMARK H PARENT 12 13 10 15
REMARK Flexibility Score: inf
ROOT
ATOM      1  C   UNL     1       6.735 -15.014   6.978  1.00  0.00    -0.022 A 
ATOM      2  C   UNL     1       5.764 -15.466   6.068  1.00  0.00     0.058 A 
ATOM      3  C   UNL     1       6.408 -13.957   7.851  1.00  0.00     0.012 A 
ATOM      4  C   UNL     1       4.500 -14.861   6.009  1.00  0.00     0.157 A 
ATOM      5  C   UNL     1       5.148 -13.355   7.792  1.00  0.00     0.051 A 
ATOM      6  C   UNL     1       4.193 -13.802   6.871  1.00  0.00     0.157 A 
ENDROOT
BRANCH   1   7
ATOM      7  C   UNL     1       8.053 -15.695   7.008  1.00  0.00     0.010 C 
ATOM      8  C   UNL     1       8.528 -16.443   6.003  1.00  0.00     0.025 C 
BRANCH   8   9
ATOM      9  C   UNL     1       9.837 -17.110   6.081  1.00  0.00     0.064 C 
ATOM     10  O   UNL     1      10.865 -16.434   6.345  1.00  0.00    -0.545 OA
ATOM     11  O   UNL     1       9.958 -18.480   5.870  1.00  0.00    -0.545 OA
ENDBRANCH   8   9
ENDBRANCH   1   7
BRANCH   4  12
ATOM     12  O   UNL     1       3.546 -15.308   5.096  1.00  0.00    -0.504 OA
ATOM     13  H   UNL     1       2.609 -15.560   5.389  1.00  0.00     0.293 HD
ENDBRANCH   4  12
BRANCH   6  14
ATOM     14  O   UNL     1       2.936 -13.202   6.809  1.00  0.00    -0.504 OA
ATOM     15  H   UNL     1       2.522 -12.931   5.925  1.00  0.00     0.293 HD
ENDBRANCH   6  14
TORSDOF 4
ENDMDL
MODEL 4
REMARK VINA RESULT:    -3.855      1.450      1.677
REMARK INTER + INTRA:          -4.663
REMARK INTER:                  -4.528
REMARK INTRA:                  -0.135
REMARK UNBOUND:                -0.132
REMARK SMILES O=C([O-])C=Cc1ccc(O)c(O)c1
REMARK SMILES IDX 6 1 13 2 7 3 11 4 8 5 9 6 5 7 4 8 2 9 1 10 3 11 12 12 10 14
REMARK H PARENT 12 13 10 15
REMARK Flexibility Score: inf
ROOT
ATOM      1  C   UNL     1       7.013 -15.304   6.731  1.00  0.00    -0.022 A 
ATOM      2  C   UNL     1       6.123 -15.148   7.806  1.00  0.00     0.058 A 
ATOM      3  C   UNL     1       6.604 -14.898   5.445  1.00  0.00     0.012 A 
ATOM      4  C   UNL     1       4.839 -14.621   7.603  1.00  0.00     0.157 A 
ATOM      5  C   UNL     1       5.325 -14.372   5.243  1.00  0.00     0.051 A 
ATOM      6  C   UNL     1       4.439 -14.234   6.319  1.00  0.00     0.157 A 
ENDROOT
BRANCH   1   7
ATOM      7  C   UNL     1       8.364 -15.857   7.001  1.00  0.00     0.010 C 
ATOM      8  C   UNL     1       8.947 -15.842   8.207  1.00  0.00     0.025 C 
BRANCH   8   9
ATOM      9  C   UNL     1      10.295 -16.391   8.426  1.00  0.00     0.064 C 
ATOM     10  O   UNL     1      11.033 -16.642   7.438  1.00  0.00    -0.545 OA
ATOM     11  O   UNL     1      10.769 -16.637   9.710  1.00  0.00    -0.545 OA
ENDBRANCH   8   9
ENDBRANCH   1   7
BRANCH   4  12
ATOM     12  O   UNL     1       3.958 -14.477   8.673  1.00  0.00    -0.504 OA
ATOM     13  H   UNL     1       4.268 -14.572   9.633  1.00  0.00     0.293 HD
ENDBRANCH   4  12
BRANCH   6  14
ATOM     14  O   UNL     1       3.162 -13.712   6.119  1.00  0.00    -0.504 OA
ATOM     15  H   UNL     1       3.006 -12.909   5.524  1.00  0.00     0.293 HD
ENDBRANCH   6  14
TORSDOF 4
ENDMDL
MODEL 5
REMARK VINA RESULT:    -3.844     14.870     16.453
REMARK INTER + INTRA:          -4.650
REMARK INTER:                  -4.520
REMARK INTRA:                  -0.130
REMARK UNBOUND:                -0.132
REMARK SMILES O=C([O-])C=Cc1ccc(O)c(O)c1
REMARK SMILES IDX 6 1 13 2 7 3 11 4 8 5 9 6 5 7 4 8 2 9 1 10 3 11 12 12 10 14
REMARK H PARENT 12 13 10 15
REMARK Flexibility Score: inf
ROOT
ATOM      1  C   UNL     1       3.534 -11.005  21.742  1.00  0.00    -0.022 A 
ATOM      2  C   UNL     1       3.352  -9.899  22.589  1.00  0.00     0.058 A 
ATOM      3  C   UNL     1       2.699 -12.129  21.901  1.00  0.00     0.012 A 
ATOM      4  C   UNL     1       2.374  -9.920  23.594  1.00  0.00     0.157 A 
ATOM      5  C   UNL     1       1.724 -12.149  22.903  1.00  0.00     0.051 A 
ATOM      6  C   UNL     1       1.560 -11.047  23.753  1.00  0.00     0.157 A 
ENDROOT
BRANCH   1   7
ATOM      7  C   UNL     1       4.576 -10.928  20.687  1.00  0.00     0.010 C 
ATOM      8  C   UNL     1       5.573 -11.813  20.560  1.00  0.00     0.025 C 
BRANCH   8   9
ATOM      9  C   UNL     1       6.592 -11.690  19.505  1.00  0.00     0.064 C 
ATOM     10  O   UNL     1       6.669 -12.572  18.610  1.00  0.00    -0.545 OA
ATOM     11  O   UNL     1       7.472 -10.614  19.479  1.00  0.00    -0.545 OA
ENDBRANCH   8   9
ENDBRANCH   1   7
BRANCH   4  12
ATOM     12  O   UNL     1       2.205  -8.823  24.437  1.00  0.00    -0.504 OA
ATOM     13  H   UNL     1       2.840  -8.033  24.414  1.00  0.00     0.293 HD
ENDBRANCH   4  12
BRANCH   6  14
ATOM     14  O   UNL     1       0.591 -11.066  24.754  1.00  0.00    -0.504 OA
ATOM     15  H   UNL     1      -0.033 -10.282  24.902  1.00  0.00     0.293 HD
ENDBRANCH   6  14
TORSDOF 4
ENDMDL
MODEL 6
REMARK VINA RESULT:    -3.726      1.421      5.980
REMARK INTER + INTRA:          -4.512
REMARK INTER:                  -4.379
REMARK INTRA:                  -0.133
REMARK UNBOUND:                -0.132
REMARK SMILES O=C([O-])C=Cc1ccc(O)c(O)c1
REMARK SMILES IDX 6 1 13 2 7 3 11 4 8 5 9 6 5 7 4 8 2 9 1 10 3 11 12 12 10 14
REMARK H PARENT 12 13 10 15
REMARK Flexibility Score: inf
ROOT
ATOM      1  C   UNL     1       7.497 -15.434   7.224  1.00  0.00    -0.022 A 
ATOM      2  C   UNL     1       8.005 -16.033   6.060  1.00  0.00     0.058 A 
ATOM      3  C   UNL     1       8.326 -15.347   8.361  1.00  0.00     0.012 A 
ATOM      4  C   UNL     1       9.304 -16.559   6.032  1.00  0.00     0.157 A 
ATOM      5  C   UNL     1       9.621 -15.871   8.333  1.00  0.00     0.051 A 
ATOM      6  C   UNL     1      10.113 -16.480   7.172  1.00  0.00     0.157 A 
ENDROOT
BRANCH   1   7
ATOM      7  C   UNL     1       6.119 -14.882   7.198  1.00  0.00     0.010 C 
ATOM      8  C   UNL     1       5.236 -15.133   6.222  1.00  0.00     0.025 C 
BRANCH   8   9
ATOM      9  C   UNL     1       3.883 -14.554   6.231  1.00  0.00     0.064 C 
ATOM     10  O   UNL     1       3.241 -14.458   5.152  1.00  0.00    -0.545 OA
ATOM     11  O   UNL     1       3.299 -14.112   7.413  1.00  0.00    -0.545 OA
ENDBRANCH   8   9
ENDBRANCH   1   7
BRANCH   4  12
ATOM     12  O   UNL     1       9.798 -17.161   4.876  1.00  0.00    -0.504 OA
ATOM     13  H   UNL     1       9.188 -17.414   4.107  1.00  0.00     0.293 HD
ENDBRANCH   4  12
BRANCH   6  14
ATOM     14  O   UNL     1      11.404 -17.006   7.143  1.00  0.00    -0.504 OA
ATOM     15  H   UNL     1      12.092 -16.758   7.843  1.00  0.00     0.293 HD
ENDBRANCH   6  14
TORSDOF 4
ENDMDL
MODEL 7
REMARK VINA RESULT:    -3.702     10.310     11.183
REMARK INTER + INTRA:          -4.483
REMARK INTER:                  -4.348
REMARK INTRA:                  -0.135
REMARK UNBOUND:                -0.132
REMARK SMILES O=C([O-])C=Cc1ccc(O)c(O)c1
REMARK SMILES IDX 6 1 13 2 7 3 11 4 8 5 9 6 5 7 4 8 2 9 1 10 3 11 12 12 10 14
REMARK H PARENT 12 13 10 15
REMARK Flexibility Score: inf
ROOT
ATOM      1  C   UNL     1      12.324  -8.624  11.421  1.00  0.00    -0.022 A 
ATOM      2  C   UNL     1      13.709  -8.425  11.296  1.00  0.00     0.058 A 
ATOM      3  C   UNL     1      11.452  -7.839  10.642  1.00  0.00     0.012 A 
ATOM      4  C   UNL     1      14.217  -7.445  10.432  1.00  0.00     0.157 A 
ATOM      5  C   UNL     1      11.959  -6.861   9.780  1.00  0.00     0.051 A 
ATOM      6  C   UNL     1      13.340  -6.660   9.675  1.00  0.00     0.157 A 
ENDROOT
BRANCH   1   7
ATOM      7  C   UNL     1      11.838  -9.683  12.341  1.00  0.00     0.010 C 
ATOM      8  C   UNL     1      12.617 -10.311  13.231  1.00  0.00     0.025 C 
BRANCH   8   9
ATOM      9  C   UNL     1      12.094 -11.364  14.116  1.00  0.00     0.064 C 
ATOM     10  O   UNL     1      10.874 -11.369  14.423  1.00  0.00    -0.545 OA
ATOM     11  O   UNL     1      12.928 -12.358  14.619  1.00  0.00    -0.545 OA
ENDBRANCH   8   9
ENDBRANCH   1   7
BRANCH   4  12
ATOM     12  O   UNL     1      15.592  -7.246  10.322  1.00  0.00    -0.504 OA
ATOM     13  H   UNL     1      16.227  -8.015  10.141  1.00  0.00     0.293 HD
ENDBRANCH   4  12
BRANCH   6  14
ATOM     14  O   UNL     1      13.848  -5.685   8.818  1.00  0.00    -0.504 OA
ATOM     15  H   UNL     1      13.245  -5.159   8.197  1.00  0.00     0.293 HD
ENDBRANCH   6  14
TORSDOF 4
ENDMDL
MODEL 8
REMARK VINA RESULT:    -3.659     10.448     12.067
REMARK INTER + INTRA:          -4.433
REMARK INTER:                  -4.293
REMARK INTRA:                  -0.140
REMARK UNBOUND:                -0.132
REMARK SMILES O=C([O-])C=Cc1ccc(O)c(O)c1
REMARK SMILES IDX 6 1 13 2 7 3 11 4 8 5 9 6 5 7 4 8 2 9 1 10 3 11 12 12 10 14
REMARK H PARENT 12 13 10 15
REMARK Flexibility Score: inf
ROOT
ATOM      1  C   UNL     1      11.898  -6.599   9.789  1.00  0.00    -0.022 A 
ATOM      2  C   UNL     1      12.846  -5.986   8.953  1.00  0.00     0.058 A 
ATOM      3  C   UNL     1      12.343  -7.508  10.769  1.00  0.00     0.012 A 
ATOM      4  C   UNL     1      14.210  -6.290   9.071  1.00  0.00     0.157 A 
ATOM      5  C   UNL     1      13.703  -7.812  10.886  1.00  0.00     0.051 A 
ATOM      6  C   UNL     1      14.638  -7.207  10.038  1.00  0.00     0.157 A 
ENDROOT
BRANCH   1   7
ATOM      7  C   UNL     1      10.468  -6.233   9.630  1.00  0.00     0.010 C 
ATOM      8  C   UNL     1       9.454  -6.970  10.103  1.00  0.00     0.025 C 
BRANCH   8   9
ATOM      9  C   UNL     1       8.050  -6.574   9.912  1.00  0.00     0.064 C 
ATOM     10  O   UNL     1       7.724  -5.910   8.893  1.00  0.00    -0.545 OA
ATOM     11  O   UNL     1       7.073  -6.924  10.838  1.00  0.00    -0.545 OA
ENDBRANCH   8   9
ENDBRANCH   1   7
BRANCH   4  12
ATOM     12  O   UNL     1      15.144  -5.686   8.232  1.00  0.00    -0.504 OA
ATOM     13  H   UNL     1      14.871  -5.261   7.353  1.00  0.00     0.293 HD
ENDBRANCH   4  12
BRANCH   6  14
ATOM     14  O   UNL     1      15.994  -7.510  10.153  1.00  0.00    -0.504 OA
ATOM     15  H   UNL     1      16.677  -6.801  10.392  1.00  0.00     0.293 HD
ENDBRANCH   6  14
TORSDOF 4
ENDMDL
MODEL 9
REMARK VINA RESULT:    -3.626      2.112      5.840
REMARK INTER + INTRA:          -4.393
REMARK INTER:                  -4.262
REMARK INTRA:                  -0.132
REMARK UNBOUND:                -0.132
REMARK SMILES O=C([O-])C=Cc1ccc(O)c(O)c1
REMARK SMILES IDX 6 1 13 2 7 3 11 4 8 5 9 6 5 7 4 8 2 9 1 10 3 11 12 12 10 14
REMARK H PARENT 12 13 10 15
REMARK Flexibility Score: inf
ROOT
ATOM      1  C   UNL     1       8.336 -15.965   6.888  1.00  0.00    -0.022 A 
ATOM      2  C   UNL     1       8.583 -15.562   8.211  1.00  0.00     0.058 A 
ATOM      3  C   UNL     1       9.258 -16.824   6.257  1.00  0.00     0.012 A 
ATOM      4  C   UNL     1       9.738 -15.983   8.885  1.00  0.00     0.157 A 
ATOM      5  C   UNL     1      10.409 -17.244   6.930  1.00  0.00     0.051 A 
ATOM      6  C   UNL     1      10.653 -16.824   8.243  1.00  0.00     0.157 A 
ENDROOT
BRANCH   1   7
ATOM      7  C   UNL     1       7.094 -15.500   6.223  1.00  0.00     0.010 C 
ATOM      8  C   UNL     1       6.002 -15.094   6.884  1.00  0.00     0.025 C 
BRANCH   8   9
ATOM      9  C   UNL     1       4.787 -14.651   6.182  1.00  0.00     0.064 C 
ATOM     10  O   UNL     1       4.014 -15.508   5.678  1.00  0.00    -0.545 OA
ATOM     11  O   UNL     1       4.476 -13.301   6.067  1.00  0.00    -0.545 OA
ENDBRANCH   8   9
ENDBRANCH   1   7
BRANCH   4  12
ATOM     12  O   UNL     1       9.981 -15.570  10.194  1.00  0.00    -0.504 OA
ATOM     13  H   UNL     1      10.416 -14.678  10.397  1.00  0.00     0.293 HD
ENDBRANCH   4  12
BRANCH   6  14
ATOM     14  O   UNL     1      11.801 -17.240   8.914  1.00  0.00    -0.504 OA
ATOM     15  H   UNL     1      12.454 -16.574   9.310  1.00  0.00     0.293 HD
ENDBRANCH   6  14
TORSDOF 4
ENDMDL
