MODEL 1
REMARK VINA RESULT:    -3.378      0.000      0.000
REMARK INTER + INTRA:          -4.267
REMARK INTER:                  -3.970
REMARK INTRA:                  -0.296
REMARK UNBOUND:                -0.296
REMARK SMILES O=c1cc(-c2ccc(O)c(O)c2)oc2cc(O)cc(O)c12
REMARK SMILES IDX 4 1 3 2 2 3 1 4 21 5 19 6 18 7 16 8 15 9 14 10 13 11 5 12
REMARK SMILES IDX 6 13 7 14 8 15 12 16 10 17 9 18 11 20 20 22 17 24
REMARK H PARENT 9 19 11 21 20 23 17 25
REMARK Flexibility Score: inf
ROOT
ATOM      1  C   UNL     1      22.091  44.532  29.933  1.00  0.00     0.138 A 
ATOM      2  C   UNL     1      22.583  45.235  28.822  1.00  0.00     0.100 A 
ATOM      3  C   UNL     1      22.608  44.614  27.573  1.00  0.00     0.197 A 
ATOM      4  O   UNL     1      23.052  45.253  26.580  1.00  0.00    -0.289 OA
ATOM      5  C   UNL     1      22.145  43.289  27.445  1.00  0.00     0.107 A 
ATOM      6  C   UNL     1      22.136  42.587  26.217  1.00  0.00     0.134 A 
ATOM      7  C   UNL     1      21.664  41.267  26.174  1.00  0.00     0.093 A 
ATOM      8  C   UNL     1      21.203  40.637  27.333  1.00  0.00     0.123 A 
ATOM      9  C   UNL     1      21.210  41.327  28.551  1.00  0.00     0.094 A 
ATOM     10  C   UNL     1      21.676  42.643  28.613  1.00  0.00     0.146 A 
ATOM     11  O   UNL     1      21.670  43.278  29.781  1.00  0.00    -0.456 OA
ENDROOT
BRANCH   1  12
ATOM     12  C   UNL     1      22.041  45.141  31.286  1.00  0.00     0.021 A 
ATOM     13  C   UNL     1      23.125  45.915  31.738  1.00  0.00     0.016 A 
ATOM     14  C   UNL     1      23.105  46.492  33.010  1.00  0.00     0.051 A 
ATOM     15  C   UNL     1      22.006  46.299  33.857  1.00  0.00     0.157 A 
ATOM     16  C   UNL     1      20.945  44.940  32.148  1.00  0.00     0.062 A 
ATOM     17  C   UNL     1      20.923  45.516  33.425  1.00  0.00     0.158 A 
BRANCH  15  18
ATOM     18  O   UNL     1      21.989  46.879  35.125  1.00  0.00    -0.504 OA
ATOM     19  H   UNL     1      22.486  46.465  35.905  1.00  0.00     0.293 HD
ENDBRANCH  15  18
BRANCH  17  20
ATOM     20  O   UNL     1      19.820  45.296  34.248  1.00  0.00    -0.504 OA
ATOM     21  H   UNL     1      19.066  45.967  34.328  1.00  0.00     0.293 HD
ENDBRANCH  17  20
ENDBRANCH   1  12
BRANCH   6  22
ATOM     22  O   UNL     1      22.590  43.188  25.042  1.00  0.00    -0.507 OA
ATOM     23  H   UNL     1      22.107  43.069  24.160  1.00  0.00     0.293 HD
ENDBRANCH   6  22
BRANCH   8  24
ATOM     24  O   UNL     1      20.740  39.325  27.264  1.00  0.00    -0.508 OA
ATOM     25  H   UNL     1      20.320  38.956  26.418  1.00  0.00     0.293 HD
ENDBRANCH   8  24
TORSDOF 5
ENDMDL
MODEL 2
REMARK VINA RESULT:    -2.780      1.977      2.630
REMARK INTER + INTRA:          -3.563
REMARK INTER:                  -3.260
REMARK INTRA:                  -0.303
REMARK UNBOUND:                -0.296
REMARK SMILES O=c1cc(-c2ccc(O)c(O)c2)oc2cc(O)cc(O)c12
REMARK SMILES IDX 4 1 3 2 2 3 1 4 21 5 19 6 18 7 16 8 15 9 14 10 13 11 5 12
REMARK SMILES IDX 6 13 7 14 8 15 12 16 10 17 9 18 11 20 20 22 17 24
REMARK H PARENT 9 19 11 21 20 23 17 25
REMARK Flexibility Score: inf
ROOT
ATOM      1  C   UNL     1      22.481  45.524  28.640  1.00  0.00     0.138 A 
ATOM      2  C   UNL     1      22.755  46.732  27.978  1.00  0.00     0.100 A 
ATOM      3  C   UNL     1      22.878  46.741  26.588  1.00  0.00     0.197 A 
ATOM      4  O   UNL     1      23.125  47.830  26.003  1.00  0.00    -0.289 OA
ATOM      5  C   UNL     1      22.731  45.538  25.869  1.00  0.00     0.107 A 
ATOM      6  C   UNL     1      22.840  45.459  24.460  1.00  0.00     0.134 A 
ATOM      7  C   UNL     1      22.686  44.221  23.819  1.00  0.00     0.093 A 
ATOM      8  C   UNL     1      22.426  43.064  24.557  1.00  0.00     0.123 A 
ATOM      9  C   UNL     1      22.318  43.135  25.951  1.00  0.00     0.094 A 
ATOM     10  C   UNL     1      22.468  44.360  26.608  1.00  0.00     0.146 A 
ATOM     11  O   UNL     1      22.358  44.402  27.932  1.00  0.00    -0.456 OA
ENDROOT
BRANCH   1  12
ATOM     12  C   UNL     1      22.340  45.453  30.116  1.00  0.00     0.021 A 
ATOM     13  C   UNL     1      23.125  46.292  30.927  1.00  0.00     0.016 A 
ATOM     14  C   UNL     1      23.016  46.239  32.319  1.00  0.00     0.051 A 
ATOM     15  C   UNL     1      22.129  45.341  32.925  1.00  0.00     0.157 A 
ATOM     16  C   UNL     1      21.459  44.543  30.733  1.00  0.00     0.062 A 
ATOM     17  C   UNL     1      21.350  44.487  32.128  1.00  0.00     0.158 A 
BRANCH  15  18
ATOM     18  O   UNL     1      22.022  45.293  34.315  1.00  0.00    -0.504 OA
ATOM     19  H   UNL     1      21.450  44.599  34.779  1.00  0.00     0.293 HD
ENDBRANCH  15  18
BRANCH  17  20
ATOM     20  O   UNL     1      20.466  43.574  32.702  1.00  0.00    -0.504 OA
ATOM     21  H   UNL     1      20.360  42.632  32.346  1.00  0.00     0.293 HD
ENDBRANCH  17  20
ENDBRANCH   1  12
BRANCH   6  22
ATOM     22  O   UNL     1      23.099  46.597  23.695  1.00  0.00    -0.507 OA
ATOM     23  H   UNL     1      22.625  46.769  22.817  1.00  0.00     0.293 HD
ENDBRANCH   6  22
BRANCH   8  24
ATOM     24  O   UNL     1      22.279  41.847  23.896  1.00  0.00    -0.508 OA
ATOM     25  H   UNL     1      23.033  41.446  23.349  1.00  0.00     0.293 HD
ENDBRANCH   8  24
TORSDOF 5
ENDMDL
MODEL 3
REMARK VINA RESULT:    -1.287      1.454      3.031
REMARK INTER + INTRA:          -1.809
REMARK INTER:                  -1.537
REMARK INTRA:                  -0.272
REMARK UNBOUND:                -0.296
REMARK SMILES O=c1cc(-c2ccc(O)c(O)c2)oc2cc(O)cc(O)c12
REMARK SMILES IDX 4 1 3 2 2 3 1 4 21 5 19 6 18 7 16 8 15 9 14 10 13 11 5 12
REMARK SMILES IDX 6 13 7 14 8 15 12 16 10 17 9 18 11 20 20 22 17 24
REMARK H PARENT 9 19 11 21 20 23 17 25
REMARK Flexibility Score: inf
ROOT
ATOM      1  C   UNL     1      22.125  44.605  29.495  1.00  0.00     0.138 A 
ATOM      2  C   UNL     1      21.914  43.249  29.196  1.00  0.00     0.100 A 
ATOM      3  C   UNL     1      21.993  42.818  27.871  1.00  0.00     0.197 A 
ATOM      4  O   UNL     1      21.802  41.599  27.612  1.00  0.00    -0.289 OA
ATOM      5  C   UNL     1      22.279  43.749  26.853  1.00  0.00     0.107 A 
ATOM      6  C   UNL     1      22.378  43.396  25.486  1.00  0.00     0.134 A 
ATOM      7  C   UNL     1      22.660  44.385  24.531  1.00  0.00     0.093 A 
ATOM      8  C   UNL     1      22.844  45.715  24.916  1.00  0.00     0.123 A 
ATOM      9  C   UNL     1      22.747  46.070  26.266  1.00  0.00     0.094 A 
ATOM     10  C   UNL     1      22.467  45.100  27.232  1.00  0.00     0.146 A 
ATOM     11  O   UNL     1      22.383  45.461  28.508  1.00  0.00    -0.456 OA
ENDROOT
BRANCH   1  12
ATOM     12  C   UNL     1      22.052  45.120  30.885  1.00  0.00     0.021 A 
ATOM     13  C   UNL     1      23.125  45.867  31.404  1.00  0.00     0.016 A 
ATOM     14  C   UNL     1      23.084  46.357  32.711  1.00  0.00     0.051 A 
ATOM     15  C   UNL     1      21.975  46.102  33.528  1.00  0.00     0.157 A 
ATOM     16  C   UNL     1      20.945  44.857  31.716  1.00  0.00     0.062 A 
ATOM     17  C   UNL     1      20.902  45.346  33.028  1.00  0.00     0.158 A 
BRANCH  15  18
ATOM     18  O   UNL     1      21.937  46.595  34.831  1.00  0.00    -0.504 OA
ATOM     19  H   UNL     1      22.619  47.265  35.165  1.00  0.00     0.293 HD
ENDBRANCH  15  18
BRANCH  17  20
ATOM     20  O   UNL     1      19.788  45.065  33.819  1.00  0.00    -0.504 OA
ATOM     21  H   UNL     1      18.946  45.626  33.780  1.00  0.00     0.293 HD
ENDBRANCH  17  20
ENDBRANCH   1  12
BRANCH   6  22
ATOM     22  O   UNL     1      22.199  42.076  25.070  1.00  0.00    -0.507 OA
ATOM     23  H   UNL     1      21.348  41.771  24.613  1.00  0.00     0.293 HD
ENDBRANCH   6  22
BRANCH   8  24
ATOM     24  O   UNL     1      23.122  46.677  23.948  1.00  0.00    -0.508 OA
ATOM     25  H   UNL     1      22.591  46.729  23.085  1.00  0.00     0.293 HD
ENDBRANCH   8  24
TORSDOF 5
ENDMDL
MODEL 4
REMARK VINA RESULT:    -0.792      2.058      7.216
REMARK INTER + INTRA:          -1.227
REMARK INTER:                  -0.910
REMARK INTRA:                  -0.318
REMARK UNBOUND:                -0.296
REMARK SMILES O=c1cc(-c2ccc(O)c(O)c2)oc2cc(O)cc(O)c12
REMARK SMILES IDX 4 1 3 2 2 3 1 4 21 5 19 6 18 7 16 8 15 9 14 10 13 11 5 12
REMARK SMILES IDX 6 13 7 14 8 15 12 16 10 17 9 18 11 20 20 22 17 24
REMARK H PARENT 9 19 11 21 20 23 17 25
REMARK Flexibility Score: inf
ROOT
ATOM      1  C   UNL     1      21.837  43.071  27.510  1.00  0.00     0.138 A 
ATOM      2  C   UNL     1      21.376  41.818  27.947  1.00  0.00     0.100 A 
ATOM      3  C   UNL     1      21.083  41.628  29.298  1.00  0.00     0.197 A 
ATOM      4  O   UNL     1      20.670  40.501  29.682  1.00  0.00    -0.289 OA
ATOM      5  C   UNL     1      21.259  42.693  30.205  1.00  0.00     0.107 A 
ATOM      6  C   UNL     1      20.985  42.585  31.589  1.00  0.00     0.134 A 
ATOM      7  C   UNL     1      21.192  43.691  32.426  1.00  0.00     0.093 A 
ATOM      8  C   UNL     1      21.667  44.899  31.908  1.00  0.00     0.123 A 
ATOM      9  C   UNL     1      21.939  45.011  30.541  1.00  0.00     0.094 A 
ATOM     10  C   UNL     1      21.739  43.921  29.690  1.00  0.00     0.146 A 
ATOM     11  O   UNL     1      22.002  44.053  28.394  1.00  0.00    -0.456 OA
ENDROOT
BRANCH   1  12
ATOM     12  C   UNL     1      22.166  43.331  26.085  1.00  0.00     0.021 A 
ATOM     13  C   UNL     1      22.183  42.262  25.172  1.00  0.00     0.016 A 
ATOM     14  C   UNL     1      22.496  42.479  23.829  1.00  0.00     0.051 A 
ATOM     15  C   UNL     1      22.807  43.767  23.375  1.00  0.00     0.157 A 
ATOM     16  C   UNL     1      22.492  44.621  25.625  1.00  0.00     0.062 A 
ATOM     17  C   UNL     1      22.808  44.842  24.278  1.00  0.00     0.158 A 
BRANCH  15  18
ATOM     18  O   UNL     1      23.117  43.980  22.032  1.00  0.00    -0.504 OA
ATOM     19  H   UNL     1      23.958  43.601  21.615  1.00  0.00     0.293 HD
ENDBRANCH  15  18
BRANCH  17  20
ATOM     20  O   UNL     1      23.125  46.134  23.860  1.00  0.00    -0.504 OA
ATOM     21  H   UNL     1      22.760  46.526  23.001  1.00  0.00     0.293 HD
ENDBRANCH  17  20
ENDBRANCH   1  12
BRANCH   6  22
ATOM     22  O   UNL     1      20.511  41.392  32.136  1.00  0.00    -0.507 OA
ATOM     23  H   UNL     1      19.613  41.339  32.601  1.00  0.00     0.293 HD
ENDBRANCH   6  22
BRANCH   8  24
ATOM     24  O   UNL     1      21.864  45.981  32.762  1.00  0.00    -0.508 OA
ATOM     25  H   UNL     1      21.161  46.704  32.874  1.00  0.00     0.293 HD
ENDBRANCH   8  24
TORSDOF 5
ENDMDL
