MODEL 1
REMARK VINA RESULT:    -6.250      0.000      0.000
REMARK INTER + INTRA:          -7.852
REMARK INTER:                  -7.529
REMARK INTRA:                  -0.323
REMARK UNBOUND:                -0.323
REMARK SMILES O=c1c(O)c(-c2ccc(O)c(O)c2)oc2cc(O)cc(O)c12
REMARK SMILES IDX 5 1 3 2 2 3 1 4 22 5 20 6 19 7 17 8 16 9 15 10 14 11 6 12
REMARK SMILES IDX 7 13 8 14 9 15 13 16 11 17 10 18 12 20 4 22 21 24 18 26
REMARK H PARENT 10 19 12 21 4 23 21 25 18 27
REMARK Flexibility Score: inf
ROOT
ATOM      1  C   UNL     1      48.671 -27.391   5.449  1.00  0.00     0.180 A 
ATOM      2  C   UNL     1      49.761 -28.254   5.237  1.00  0.00     0.208 A 
ATOM      3  C   UNL     1      50.675 -27.960   4.212  1.00  0.00     0.238 A 
ATOM      4  O   UNL     1      51.676 -28.707   4.063  1.00  0.00    -0.285 OA
ATOM      5  C   UNL     1      50.478 -26.817   3.400  1.00  0.00     0.111 A 
ATOM      6  C   UNL     1      51.317 -26.445   2.308  1.00  0.00     0.134 A 
ATOM      7  C   UNL     1      51.104 -25.223   1.658  1.00  0.00     0.093 A 
ATOM      8  C   UNL     1      50.044 -24.392   2.016  1.00  0.00     0.123 A 
ATOM      9  C   UNL     1      49.181 -24.775   3.044  1.00  0.00     0.094 A 
ATOM     10  C   UNL     1      49.389 -25.970   3.736  1.00  0.00     0.146 A 
ATOM     11  O   UNL     1      48.552 -26.291   4.714  1.00  0.00    -0.452 OA
ENDROOT
BRANCH   1  12
ATOM     12  C   UNL     1      47.654 -27.647   6.493  1.00  0.00     0.025 A 
ATOM     13  C   UNL     1      46.541 -28.448   6.192  1.00  0.00     0.016 A 
ATOM     14  C   UNL     1      45.578 -28.720   7.168  1.00  0.00     0.051 A 
ATOM     15  C   UNL     1      45.724 -28.208   8.464  1.00  0.00     0.157 A 
ATOM     16  C   UNL     1      47.806 -27.152   7.801  1.00  0.00     0.062 A 
ATOM     17  C   UNL     1      46.842 -27.426   8.782  1.00  0.00     0.158 A 
BRANCH  15  18
ATOM     18  O   UNL     1      44.765 -28.475   9.440  1.00  0.00    -0.504 OA
ATOM     19  H   UNL     1      43.775 -28.459   9.229  1.00  0.00     0.293 HD
ENDBRANCH  15  18
BRANCH  17  20
ATOM     20  O   UNL     1      46.990 -26.929  10.075  1.00  0.00    -0.504 OA
ATOM     21  H   UNL     1      46.240 -26.984  10.754  1.00  0.00     0.293 HD
ENDBRANCH  17  20
ENDBRANCH   1  12
BRANCH   2  22
ATOM     22  O   UNL     1      49.948 -29.366   6.064  1.00  0.00    -0.502 OA
ATOM     23  H   UNL     1      49.320 -30.160   6.058  1.00  0.00     0.293 HD
ENDBRANCH   2  22
BRANCH   6  24
ATOM     24  O   UNL     1      52.349 -27.245   1.809  1.00  0.00    -0.507 OA
ATOM     25  H   UNL     1      52.828 -27.961   2.336  1.00  0.00     0.293 HD
ENDBRANCH   6  24
BRANCH   8  26
ATOM     26  O   UNL     1      49.853 -23.191   1.337  1.00  0.00    -0.508 OA
ATOM     27  H   UNL     1      49.056 -23.048   0.727  1.00  0.00     0.293 HD
ENDBRANCH   8  26
TORSDOF 6
ENDMDL
MODEL 2
REMARK VINA RESULT:    -6.051      1.506      3.408
REMARK INTER + INTRA:          -7.612
REMARK INTER:                  -7.283
REMARK INTRA:                  -0.329
REMARK UNBOUND:                -0.323
REMARK SMILES O=c1c(O)c(-c2ccc(O)c(O)c2)oc2cc(O)cc(O)c12
REMARK SMILES IDX 5 1 3 2 2 3 1 4 22 5 20 6 19 7 17 8 16 9 15 10 14 11 6 12
REMARK SMILES IDX 7 13 8 14 9 15 13 16 11 17 10 18 12 20 4 22 21 24 18 26
REMARK H PARENT 10 19 12 21 4 23 21 25 18 27
REMARK Flexibility Score: inf
ROOT
ATOM      1  C   UNL     1      48.937 -27.884   5.634  1.00  0.00     0.180 A 
ATOM      2  C   UNL     1      49.029 -26.910   4.624  1.00  0.00     0.208 A 
ATOM      3  C   UNL     1      50.115 -26.949   3.736  1.00  0.00     0.238 A 
ATOM      4  O   UNL     1      50.163 -26.107   2.803  1.00  0.00    -0.285 OA
ATOM      5  C   UNL     1      51.106 -27.950   3.878  1.00  0.00     0.111 A 
ATOM      6  C   UNL     1      52.270 -28.061   3.061  1.00  0.00     0.134 A 
ATOM      7  C   UNL     1      53.114 -29.169   3.206  1.00  0.00     0.093 A 
ATOM      8  C   UNL     1      52.873 -30.134   4.183  1.00  0.00     0.123 A 
ATOM      9  C   UNL     1      51.770 -30.004   5.028  1.00  0.00     0.094 A 
ATOM     10  C   UNL     1      50.890 -28.930   4.883  1.00  0.00     0.146 A 
ATOM     11  O   UNL     1      49.847 -28.850   5.699  1.00  0.00    -0.452 OA
ENDROOT
BRANCH   1  12
ATOM     12  C   UNL     1      47.835 -27.894   6.623  1.00  0.00     0.025 A 
ATOM     13  C   UNL     1      46.668 -28.625   6.349  1.00  0.00     0.016 A 
ATOM     14  C   UNL     1      45.623 -28.664   7.277  1.00  0.00     0.051 A 
ATOM     15  C   UNL     1      45.739 -27.987   8.498  1.00  0.00     0.157 A 
ATOM     16  C   UNL     1      47.954 -27.232   7.859  1.00  0.00     0.062 A 
ATOM     17  C   UNL     1      46.907 -27.274   8.791  1.00  0.00     0.158 A 
BRANCH  15  18
ATOM     18  O   UNL     1      44.698 -28.023   9.425  1.00  0.00    -0.504 OA
ATOM     19  H   UNL     1      44.004 -28.761   9.416  1.00  0.00     0.293 HD
ENDBRANCH  15  18
BRANCH  17  20
ATOM     20  O   UNL     1      47.024 -26.612  10.012  1.00  0.00    -0.504 OA
ATOM     21  H   UNL     1      47.924 -26.472  10.456  1.00  0.00     0.293 HD
ENDBRANCH  17  20
ENDBRANCH   1  12
BRANCH   2  22
ATOM     22  O   UNL     1      48.028 -25.943   4.489  1.00  0.00    -0.502 OA
ATOM     23  H   UNL     1      47.409 -25.690   5.249  1.00  0.00     0.293 HD
ENDBRANCH   2  22
BRANCH   6  24
ATOM     24  O   UNL     1      52.654 -27.104   2.116  1.00  0.00    -0.507 OA
ATOM     25  H   UNL     1      52.392 -27.122   1.141  1.00  0.00     0.293 HD
ENDBRANCH   6  24
BRANCH   8  26
ATOM     26  O   UNL     1      53.743 -31.214   4.310  1.00  0.00    -0.508 OA
ATOM     27  H   UNL     1      53.408 -32.138   4.559  1.00  0.00     0.293 HD
ENDBRANCH   8  26
TORSDOF 6
ENDMDL
MODEL 3
REMARK VINA RESULT:    -6.042      0.640      1.414
REMARK INTER + INTRA:          -7.601
REMARK INTER:                  -7.308
REMARK INTRA:                  -0.294
REMARK UNBOUND:                -0.323
REMARK SMILES O=c1c(O)c(-c2ccc(O)c(O)c2)oc2cc(O)cc(O)c12
REMARK SMILES IDX 5 1 3 2 2 3 1 4 22 5 20 6 19 7 17 8 16 9 15 10 14 11 6 12
REMARK SMILES IDX 7 13 8 14 9 15 13 16 11 17 10 18 12 20 4 22 21 24 18 26
REMARK H PARENT 10 19 12 21 4 23 21 25 18 27
REMARK Flexibility Score: inf
ROOT
ATOM      1  C   UNL     1      48.645 -27.358   5.680  1.00  0.00     0.180 A 
ATOM      2  C   UNL     1      49.679 -28.274   5.414  1.00  0.00     0.208 A 
ATOM      3  C   UNL     1      50.497 -28.071   4.291  1.00  0.00     0.238 A 
ATOM      4  O   UNL     1      51.452 -28.864   4.089  1.00  0.00    -0.285 OA
ATOM      5  C   UNL     1      50.262 -26.965   3.439  1.00  0.00     0.111 A 
ATOM      6  C   UNL     1      51.002 -26.685   2.252  1.00  0.00     0.134 A 
ATOM      7  C   UNL     1      50.769 -25.491   1.558  1.00  0.00     0.093 A 
ATOM      8  C   UNL     1      49.778 -24.601   1.969  1.00  0.00     0.123 A 
ATOM      9  C   UNL     1      49.007 -24.894   3.095  1.00  0.00     0.094 A 
ATOM     10  C   UNL     1      49.241 -26.059   3.829  1.00  0.00     0.146 A 
ATOM     11  O   UNL     1      48.493 -26.294   4.900  1.00  0.00    -0.452 OA
ENDROOT
BRANCH   1  12
ATOM     12  C   UNL     1      47.727 -27.519   6.830  1.00  0.00     0.025 A 
ATOM     13  C   UNL     1      48.138 -27.103   8.106  1.00  0.00     0.016 A 
ATOM     14  C   UNL     1      47.279 -27.226   9.202  1.00  0.00     0.051 A 
ATOM     15  C   UNL     1      45.991 -27.752   9.034  1.00  0.00     0.157 A 
ATOM     16  C   UNL     1      46.426 -28.028   6.663  1.00  0.00     0.062 A 
ATOM     17  C   UNL     1      45.563 -28.149   7.761  1.00  0.00     0.158 A 
BRANCH  15  18
ATOM     18  O   UNL     1      45.133 -27.878  10.125  1.00  0.00    -0.504 OA
ATOM     19  H   UNL     1      45.333 -28.516  10.886  1.00  0.00     0.293 HD
ENDBRANCH  15  18
BRANCH  17  20
ATOM     20  O   UNL     1      44.277 -28.661   7.595  1.00  0.00    -0.504 OA
ATOM     21  H   UNL     1      43.583 -28.178   7.037  1.00  0.00     0.293 HD
ENDBRANCH  17  20
ENDBRANCH   1  12
BRANCH   2  22
ATOM     22  O   UNL     1      49.907 -29.347   6.280  1.00  0.00    -0.502 OA
ATOM     23  H   UNL     1      49.155 -29.837   6.749  1.00  0.00     0.293 HD
ENDBRANCH   2  22
BRANCH   6  24
ATOM     24  O   UNL     1      51.952 -27.551   1.702  1.00  0.00    -0.507 OA
ATOM     25  H   UNL     1      52.098 -27.690   0.713  1.00  0.00     0.293 HD
ENDBRANCH   6  24
BRANCH   8  26
ATOM     26  O   UNL     1      49.563 -23.431   1.245  1.00  0.00    -0.508 OA
ATOM     27  H   UNL     1      49.316 -22.561   1.704  1.00  0.00     0.293 HD
ENDBRANCH   8  26
TORSDOF 6
ENDMDL
MODEL 4
REMARK VINA RESULT:    -5.866     12.899     14.458
REMARK INTER + INTRA:          -7.389
REMARK INTER:                  -7.511
REMARK INTRA:                   0.122
REMARK UNBOUND:                -0.323
REMARK SMILES O=c1c(O)c(-c2ccc(O)c(O)c2)oc2cc(O)cc(O)c12
REMARK SMILES IDX 5 1 3 2 2 3 1 4 22 5 20 6 19 7 17 8 16 9 15 10 14 11 6 12
REMARK SMILES IDX 7 13 8 14 9 15 13 16 11 17 10 18 12 20 4 22 21 24 18 26
REMARK H PARENT 10 19 12 21 4 23 21 25 18 27
REMARK Flexibility Score: inf
ROOT
ATOM      1  C   UNL     1      39.074 -24.199  -4.632  1.00  0.00     0.180 A 
ATOM      2  C   UNL     1      38.206 -23.512  -5.500  1.00  0.00     0.208 A 
ATOM      3  C   UNL     1      38.486 -23.500  -6.875  1.00  0.00     0.238 A 
ATOM      4  O   UNL     1      37.677 -22.930  -7.652  1.00  0.00    -0.285 OA
ATOM      5  C   UNL     1      39.639 -24.160  -7.365  1.00  0.00     0.111 A 
ATOM      6  C   UNL     1      40.042 -24.179  -8.733  1.00  0.00     0.134 A 
ATOM      7  C   UNL     1      41.128 -24.974  -9.123  1.00  0.00     0.093 A 
ATOM      8  C   UNL     1      41.864 -25.696  -8.186  1.00  0.00     0.123 A 
ATOM      9  C   UNL     1      41.514 -25.638  -6.836  1.00  0.00     0.094 A 
ATOM     10  C   UNL     1      40.415 -24.884  -6.421  1.00  0.00     0.146 A 
ATOM     11  O   UNL     1      40.110 -24.865  -5.130  1.00  0.00    -0.452 OA
ENDROOT
BRANCH   1  12
ATOM     12  C   UNL     1      38.858 -24.236  -3.168  1.00  0.00     0.025 A 
ATOM     13  C   UNL     1      37.573 -24.492  -2.665  1.00  0.00     0.016 A 
ATOM     14  C   UNL     1      37.351 -24.551  -1.286  1.00  0.00     0.051 A 
ATOM     15  C   UNL     1      38.415 -24.372  -0.392  1.00  0.00     0.157 A 
ATOM     16  C   UNL     1      39.926 -24.076  -2.266  1.00  0.00     0.062 A 
ATOM     17  C   UNL     1      39.705 -24.138  -0.883  1.00  0.00     0.158 A 
BRANCH  15  18
ATOM     18  O   UNL     1      38.196 -24.428   0.984  1.00  0.00    -0.504 OA
ATOM     19  H   UNL     1      38.607 -25.156   1.557  1.00  0.00     0.293 HD
ENDBRANCH  15  18
BRANCH  17  20
ATOM     20  O   UNL     1      40.762 -23.972   0.009  1.00  0.00    -0.504 OA
ATOM     21  H   UNL     1      41.654 -23.594  -0.290  1.00  0.00     0.293 HD
ENDBRANCH  17  20
ENDBRANCH   1  12
BRANCH   2  22
ATOM     22  O   UNL     1      37.062 -22.885  -4.998  1.00  0.00    -0.502 OA
ATOM     23  H   UNL     1      37.095 -22.229  -4.228  1.00  0.00     0.293 HD
ENDBRANCH   2  22
BRANCH   6  24
ATOM     24  O   UNL     1      39.432 -23.421  -9.737  1.00  0.00    -0.507 OA
ATOM     25  H   UNL     1      39.887 -22.687 -10.260  1.00  0.00     0.293 HD
ENDBRANCH   6  24
BRANCH   8  26
ATOM     26  O   UNL     1      42.947 -26.464  -8.608  1.00  0.00    -0.508 OA
ATOM     27  H   UNL     1      43.309 -27.225  -8.044  1.00  0.00     0.293 HD
ENDBRANCH   8  26
TORSDOF 6
ENDMDL
MODEL 5
REMARK VINA RESULT:    -5.771      1.650      6.926
REMARK INTER + INTRA:          -7.275
REMARK INTER:                  -7.021
REMARK INTRA:                  -0.254
REMARK UNBOUND:                -0.323
REMARK SMILES O=c1c(O)c(-c2ccc(O)c(O)c2)oc2cc(O)cc(O)c12
REMARK SMILES IDX 5 1 3 2 2 3 1 4 22 5 20 6 19 7 17 8 16 9 15 10 14 11 6 12
REMARK SMILES IDX 7 13 8 14 9 15 13 16 11 17 10 18 12 20 4 22 21 24 18 26
REMARK H PARENT 10 19 12 21 4 23 21 25 18 27
REMARK Flexibility Score: inf
ROOT
ATOM      1  C   UNL     1      49.140 -26.929   5.122  1.00  0.00     0.180 A 
ATOM      2  C   UNL     1      49.866 -26.262   6.125  1.00  0.00     0.208 A 
ATOM      3  C   UNL     1      49.345 -26.215   7.427  1.00  0.00     0.238 A 
ATOM      4  O   UNL     1      50.025 -25.662   8.330  1.00  0.00    -0.285 OA
ATOM      5  C   UNL     1      48.097 -26.820   7.709  1.00  0.00     0.111 A 
ATOM      6  C   UNL     1      47.455 -26.799   8.983  1.00  0.00     0.134 A 
ATOM      7  C   UNL     1      46.285 -27.544   9.180  1.00  0.00     0.093 A 
ATOM      8  C   UNL     1      45.699 -28.254   8.133  1.00  0.00     0.123 A 
ATOM      9  C   UNL     1      46.287 -28.233   6.867  1.00  0.00     0.094 A 
ATOM     10  C   UNL     1      47.473 -27.530   6.649  1.00  0.00     0.146 A 
ATOM     11  O   UNL     1      48.005 -27.545   5.434  1.00  0.00    -0.452 OA
ENDROOT
BRANCH   1  12
ATOM     12  C   UNL     1      49.612 -27.000   3.721  1.00  0.00     0.025 A 
ATOM     13  C   UNL     1      49.027 -26.171   2.752  1.00  0.00     0.016 A 
ATOM     14  C   UNL     1      49.471 -26.206   1.427  1.00  0.00     0.051 A 
ATOM     15  C   UNL     1      50.518 -27.061   1.057  1.00  0.00     0.157 A 
ATOM     16  C   UNL     1      50.676 -27.843   3.349  1.00  0.00     0.062 A 
ATOM     17  C   UNL     1      51.124 -27.877   2.020  1.00  0.00     0.158 A 
BRANCH  15  18
ATOM     18  O   UNL     1      50.962 -27.101  -0.264  1.00  0.00    -0.504 OA
ATOM     19  H   UNL     1      51.924 -27.324  -0.494  1.00  0.00     0.293 HD
ENDBRANCH  15  18
BRANCH  17  20
ATOM     20  O   UNL     1      52.173 -28.717   1.651  1.00  0.00    -0.504 OA
ATOM     21  H   UNL     1      53.140 -28.433   1.751  1.00  0.00     0.293 HD
ENDBRANCH  17  20
ENDBRANCH   1  12
BRANCH   2  22
ATOM     22  O   UNL     1      51.107 -25.689   5.829  1.00  0.00    -0.502 OA
ATOM     23  H   UNL     1      51.967 -26.223   5.834  1.00  0.00     0.293 HD
ENDBRANCH   2  22
BRANCH   6  24
ATOM     24  O   UNL     1      47.907 -26.048  10.072  1.00  0.00    -0.507 OA
ATOM     25  H   UNL     1      47.356 -25.358  10.563  1.00  0.00     0.293 HD
ENDBRANCH   6  24
BRANCH   8  26
ATOM     26  O   UNL     1      44.527 -28.971   8.362  1.00  0.00    -0.508 OA
ATOM     27  H   UNL     1      43.795 -29.028   7.662  1.00  0.00     0.293 HD
ENDBRANCH   8  26
TORSDOF 6
ENDMDL
MODEL 6
REMARK VINA RESULT:    -5.648     11.161     13.930
REMARK INTER + INTRA:          -7.127
REMARK INTER:                  -6.958
REMARK INTRA:                  -0.170
REMARK UNBOUND:                -0.323
REMARK SMILES O=c1c(O)c(-c2ccc(O)c(O)c2)oc2cc(O)cc(O)c12
REMARK SMILES IDX 5 1 3 2 2 3 1 4 22 5 20 6 19 7 17 8 16 9 15 10 14 11 6 12
REMARK SMILES IDX 7 13 8 14 9 15 13 16 11 17 10 18 12 20 4 22 21 24 18 26
REMARK H PARENT 10 19 12 21 4 23 21 25 18 27
REMARK Flexibility Score: inf
ROOT
ATOM      1  C   UNL     1      52.616 -33.597  -5.302  1.00  0.00     0.180 A 
ATOM      2  C   UNL     1      53.820 -34.073  -5.850  1.00  0.00     0.208 A 
ATOM      3  C   UNL     1      53.815 -35.285  -6.558  1.00  0.00     0.238 A 
ATOM      4  O   UNL     1      54.885 -35.677  -7.091  1.00  0.00    -0.285 OA
ATOM      5  C   UNL     1      52.610 -36.015  -6.697  1.00  0.00     0.111 A 
ATOM      6  C   UNL     1      52.496 -37.273  -7.359  1.00  0.00     0.134 A 
ATOM      7  C   UNL     1      51.231 -37.841  -7.551  1.00  0.00     0.093 A 
ATOM      8  C   UNL     1      50.083 -37.230  -7.047  1.00  0.00     0.123 A 
ATOM      9  C   UNL     1      50.189 -36.028  -6.345  1.00  0.00     0.094 A 
ATOM     10  C   UNL     1      51.433 -35.419  -6.170  1.00  0.00     0.146 A 
ATOM     11  O   UNL     1      51.489 -34.271  -5.507  1.00  0.00    -0.452 OA
ENDROOT
BRANCH   1  12
ATOM     12  C   UNL     1      52.546 -32.341  -4.522  1.00  0.00     0.025 A 
ATOM     13  C   UNL     1      52.763 -31.113  -5.167  1.00  0.00     0.016 A 
ATOM     14  C   UNL     1      52.683 -29.914  -4.454  1.00  0.00     0.051 A 
ATOM     15  C   UNL     1      52.367 -29.925  -3.089  1.00  0.00     0.157 A 
ATOM     16  C   UNL     1      52.210 -32.345  -3.155  1.00  0.00     0.062 A 
ATOM     17  C   UNL     1      52.127 -31.142  -2.440  1.00  0.00     0.158 A 
BRANCH  15  18
ATOM     18  O   UNL     1      52.288 -28.731  -2.374  1.00  0.00    -0.504 OA
ATOM     19  H   UNL     1      53.093 -28.344  -1.895  1.00  0.00     0.293 HD
ENDBRANCH  15  18
BRANCH  17  20
ATOM     20  O   UNL     1      51.801 -31.149  -1.085  1.00  0.00    -0.504 OA
ATOM     21  H   UNL     1      51.918 -30.325  -0.507  1.00  0.00     0.293 HD
ENDBRANCH  17  20
ENDBRANCH   1  12
BRANCH   2  22
ATOM     22  O   UNL     1      54.994 -33.325  -5.719  1.00  0.00    -0.502 OA
ATOM     23  H   UNL     1      54.996 -32.368  -5.390  1.00  0.00     0.293 HD
ENDBRANCH   2  22
BRANCH   6  24
ATOM     24  O   UNL     1      53.588 -38.014  -7.820  1.00  0.00    -0.507 OA
ATOM     25  H   UNL     1      53.878 -38.070  -8.786  1.00  0.00     0.293 HD
ENDBRANCH   6  24
BRANCH   8  26
ATOM     26  O   UNL     1      48.842 -37.832  -7.243  1.00  0.00    -0.508 OA
ATOM     27  H   UNL     1      48.465 -37.978  -8.172  1.00  0.00     0.293 HD
ENDBRANCH   8  26
TORSDOF 6
ENDMDL
MODEL 7
REMARK VINA RESULT:    -5.639      2.529      6.984
REMARK INTER + INTRA:          -7.116
REMARK INTER:                  -6.782
REMARK INTRA:                  -0.333
REMARK UNBOUND:                -0.323
REMARK SMILES O=c1c(O)c(-c2ccc(O)c(O)c2)oc2cc(O)cc(O)c12
REMARK SMILES IDX 5 1 3 2 2 3 1 4 22 5 20 6 19 7 17 8 16 9 15 10 14 11 6 12
REMARK SMILES IDX 7 13 8 14 9 15 13 16 11 17 10 18 12 20 4 22 21 24 18 26
REMARK H PARENT 10 19 12 21 4 23 21 25 18 27
REMARK Flexibility Score: inf
ROOT
ATOM      1  C   UNL     1      50.821 -28.286   5.769  1.00  0.00     0.180 A 
ATOM      2  C   UNL     1      51.271 -27.557   6.884  1.00  0.00     0.208 A 
ATOM      3  C   UNL     1      50.332 -27.085   7.815  1.00  0.00     0.238 A 
ATOM      4  O   UNL     1      50.746 -26.480   8.837  1.00  0.00    -0.285 OA
ATOM      5  C   UNL     1      48.953 -27.332   7.611  1.00  0.00     0.111 A 
ATOM      6  C   UNL     1      47.911 -26.866   8.467  1.00  0.00     0.134 A 
ATOM      7  C   UNL     1      46.593 -27.282   8.241  1.00  0.00     0.093 A 
ATOM      8  C   UNL     1      46.270 -28.091   7.152  1.00  0.00     0.123 A 
ATOM      9  C   UNL     1      47.273 -28.504   6.274  1.00  0.00     0.094 A 
ATOM     10  C   UNL     1      48.602 -28.136   6.494  1.00  0.00     0.146 A 
ATOM     11  O   UNL     1      49.527 -28.559   5.642  1.00  0.00    -0.452 OA
ENDROOT
BRANCH   1  12
ATOM     12  C   UNL     1      51.748 -28.795   4.733  1.00  0.00     0.025 A 
ATOM     13  C   UNL     1      52.220 -30.114   4.817  1.00  0.00     0.016 A 
ATOM     14  C   UNL     1      53.080 -30.622   3.839  1.00  0.00     0.051 A 
ATOM     15  C   UNL     1      53.466 -29.822   2.755  1.00  0.00     0.157 A 
ATOM     16  C   UNL     1      52.122 -28.003   3.633  1.00  0.00     0.062 A 
ATOM     17  C   UNL     1      52.983 -28.513   2.650  1.00  0.00     0.158 A 
BRANCH  15  18
ATOM     18  O   UNL     1      54.325 -30.325   1.779  1.00  0.00    -0.504 OA
ATOM     19  H   UNL     1      55.327 -30.358   1.920  1.00  0.00     0.293 HD
ENDBRANCH  15  18
BRANCH  17  20
ATOM     20  O   UNL     1      53.358 -27.724   1.564  1.00  0.00    -0.504 OA
ATOM     21  H   UNL     1      53.110 -27.975   0.614  1.00  0.00     0.293 HD
ENDBRANCH  17  20
ENDBRANCH   1  12
BRANCH   2  22
ATOM     22  O   UNL     1      52.639 -27.343   7.077  1.00  0.00    -0.502 OA
ATOM     23  H   UNL     1      53.342 -28.003   6.769  1.00  0.00     0.293 HD
ENDBRANCH   2  22
BRANCH   6  24
ATOM     24  O   UNL     1      48.111 -25.980   9.529  1.00  0.00    -0.507 OA
ATOM     25  H   UNL     1      47.579 -25.136   9.682  1.00  0.00     0.293 HD
ENDBRANCH   6  24
BRANCH   8  26
ATOM     26  O   UNL     1      44.946 -28.472   6.949  1.00  0.00    -0.508 OA
ATOM     27  H   UNL     1      44.208 -28.183   7.581  1.00  0.00     0.293 HD
ENDBRANCH   8  26
TORSDOF 6
ENDMDL
MODEL 8
REMARK VINA RESULT:    -5.626     13.639     15.359
REMARK INTER + INTRA:          -7.101
REMARK INTER:                  -6.841
REMARK INTRA:                  -0.260
REMARK UNBOUND:                -0.323
REMARK SMILES O=c1c(O)c(-c2ccc(O)c(O)c2)oc2cc(O)cc(O)c12
REMARK SMILES IDX 5 1 3 2 2 3 1 4 22 5 20 6 19 7 17 8 16 9 15 10 14 11 6 12
REMARK SMILES IDX 7 13 8 14 9 15 13 16 11 17 10 18 12 20 4 22 21 24 18 26
REMARK H PARENT 10 19 12 21 4 23 21 25 18 27
REMARK Flexibility Score: inf
ROOT
ATOM      1  C   UNL     1      38.274 -22.679  -3.888  1.00  0.00     0.180 A 
ATOM      2  C   UNL     1      38.229 -21.276  -3.958  1.00  0.00     0.208 A 
ATOM      3  C   UNL     1      37.979 -20.663  -5.196  1.00  0.00     0.238 A 
ATOM      4  O   UNL     1      37.887 -19.409  -5.242  1.00  0.00    -0.285 OA
ATOM      5  C   UNL     1      37.793 -21.459  -6.352  1.00  0.00     0.111 A 
ATOM      6  C   UNL     1      37.573 -20.944  -7.664  1.00  0.00     0.134 A 
ATOM      7  C   UNL     1      37.271 -21.825  -8.710  1.00  0.00     0.093 A 
ATOM      8  C   UNL     1      37.246 -23.203  -8.506  1.00  0.00     0.123 A 
ATOM      9  C   UNL     1      37.518 -23.721  -7.239  1.00  0.00     0.094 A 
ATOM     10  C   UNL     1      37.787 -22.867  -6.168  1.00  0.00     0.146 A 
ATOM     11  O   UNL     1      38.029 -23.400  -4.977  1.00  0.00    -0.452 OA
ENDROOT
BRANCH   1  12
ATOM     12  C   UNL     1      38.556 -23.397  -2.624  1.00  0.00     0.025 A 
ATOM     13  C   UNL     1      37.534 -24.131  -2.003  1.00  0.00     0.016 A 
ATOM     14  C   UNL     1      37.784 -24.833  -0.820  1.00  0.00     0.051 A 
ATOM     15  C   UNL     1      39.065 -24.823  -0.252  1.00  0.00     0.157 A 
ATOM     16  C   UNL     1      39.846 -23.407  -2.060  1.00  0.00     0.062 A 
ATOM     17  C   UNL     1      40.098 -24.113  -0.875  1.00  0.00     0.158 A 
BRANCH  15  18
ATOM     18  O   UNL     1      39.318 -25.520   0.929  1.00  0.00    -0.504 OA
ATOM     19  H   UNL     1      39.530 -25.039   1.794  1.00  0.00     0.293 HD
ENDBRANCH  15  18
BRANCH  17  20
ATOM     20  O   UNL     1      41.373 -24.115  -0.314  1.00  0.00    -0.504 OA
ATOM     21  H   UNL     1      41.905 -24.971  -0.209  1.00  0.00     0.293 HD
ENDBRANCH  17  20
ENDBRANCH   1  12
BRANCH   2  22
ATOM     22  O   UNL     1      38.394 -20.509  -2.801  1.00  0.00    -0.502 OA
ATOM     23  H   UNL     1      38.080 -20.823  -1.891  1.00  0.00     0.293 HD
ENDBRANCH   2  22
BRANCH   6  24
ATOM     24  O   UNL     1      37.666 -19.589  -7.997  1.00  0.00    -0.507 OA
ATOM     25  H   UNL     1      38.242 -18.917  -7.512  1.00  0.00     0.293 HD
ENDBRANCH   6  24
BRANCH   8  26
ATOM     26  O   UNL     1      36.957 -24.051  -9.574  1.00  0.00    -0.508 OA
ATOM     27  H   UNL     1      36.656 -23.688 -10.472  1.00  0.00     0.293 HD
ENDBRANCH   8  26
TORSDOF 6
ENDMDL
MODEL 9
REMARK VINA RESULT:    -5.599     10.794     13.933
REMARK INTER + INTRA:          -7.068
REMARK INTER:                  -6.898
REMARK INTRA:                  -0.170
REMARK UNBOUND:                -0.323
REMARK SMILES O=c1c(O)c(-c2ccc(O)c(O)c2)oc2cc(O)cc(O)c12
REMARK SMILES IDX 5 1 3 2 2 3 1 4 22 5 20 6 19 7 17 8 16 9 15 10 14 11 6 12
REMARK SMILES IDX 7 13 8 14 9 15 13 16 11 17 10 18 12 20 4 22 21 24 18 26
REMARK H PARENT 10 19 12 21 4 23 21 25 18 27
REMARK Flexibility Score: inf
ROOT
ATOM      1  C   UNL     1      52.220 -33.636  -5.837  1.00  0.00     0.180 A 
ATOM      2  C   UNL     1      52.823 -32.635  -6.619  1.00  0.00     0.208 A 
ATOM      3  C   UNL     1      53.105 -31.390  -6.034  1.00  0.00     0.238 A 
ATOM      4  O   UNL     1      53.693 -30.517  -6.724  1.00  0.00    -0.285 OA
ATOM      5  C   UNL     1      52.765 -31.155  -4.680  1.00  0.00     0.111 A 
ATOM      6  C   UNL     1      52.968 -29.919  -3.996  1.00  0.00     0.134 A 
ATOM      7  C   UNL     1      52.716 -29.841  -2.621  1.00  0.00     0.093 A 
ATOM      8  C   UNL     1      52.207 -30.932  -1.919  1.00  0.00     0.123 A 
ATOM      9  C   UNL     1      51.949 -32.129  -2.590  1.00  0.00     0.094 A 
ATOM     10  C   UNL     1      52.224 -32.249  -3.954  1.00  0.00     0.146 A 
ATOM     11  O   UNL     1      51.975 -33.407  -4.552  1.00  0.00    -0.452 OA
ENDROOT
BRANCH   1  12
ATOM     12  C   UNL     1      51.870 -34.964  -6.389  1.00  0.00     0.025 A 
ATOM     13  C   UNL     1      50.520 -35.318  -6.535  1.00  0.00     0.016 A 
ATOM     14  C   UNL     1      50.167 -36.559  -7.073  1.00  0.00     0.051 A 
ATOM     15  C   UNL     1      51.160 -37.456  -7.488  1.00  0.00     0.157 A 
ATOM     16  C   UNL     1      52.864 -35.860  -6.826  1.00  0.00     0.062 A 
ATOM     17  C   UNL     1      52.510 -37.104  -7.368  1.00  0.00     0.158 A 
BRANCH  15  18
ATOM     18  O   UNL     1      50.811 -38.695  -8.023  1.00  0.00    -0.504 OA
ATOM     19  H   UNL     1      49.869 -39.060  -7.947  1.00  0.00     0.293 HD
ENDBRANCH  15  18
BRANCH  17  20
ATOM     20  O   UNL     1      53.495 -37.994  -7.793  1.00  0.00    -0.504 OA
ATOM     21  H   UNL     1      53.259 -38.871  -8.243  1.00  0.00     0.293 HD
ENDBRANCH  17  20
ENDBRANCH   1  12
BRANCH   2  22
ATOM     22  O   UNL     1      53.170 -32.895  -7.948  1.00  0.00    -0.502 OA
ATOM     23  H   UNL     1      52.664 -33.558  -8.522  1.00  0.00     0.293 HD
ENDBRANCH   2  22
BRANCH   6  24
ATOM     24  O   UNL     1      53.387 -28.741  -4.622  1.00  0.00    -0.507 OA
ATOM     25  H   UNL     1      54.317 -28.355  -4.557  1.00  0.00     0.293 HD
ENDBRANCH   6  24
BRANCH   8  26
ATOM     26  O   UNL     1      51.953 -30.814  -0.554  1.00  0.00    -0.508 OA
ATOM     27  H   UNL     1      51.804 -31.629   0.030  1.00  0.00     0.293 HD
ENDBRANCH   8  26
TORSDOF 6
ENDMDL
