MODEL 1
REMARK VINA RESULT:    -5.603      0.000      0.000
REMARK INTER + INTRA:          -6.748
REMARK INTER:                  -6.750
REMARK INTRA:                   0.001
REMARK UNBOUND:                 0.001
REMARK SMILES Oc1cc(O)c2cc(O)c(-c3ccc(O)c(O)c3)[o+]c2c1
REMARK SMILES IDX 10 1 19 2 20 3 21 4 2 5 3 6 4 7 6 8 7 9 8 10 11 11 12 12
REMARK SMILES IDX 13 13 14 14 18 15 16 16 15 17 17 19 9 21 1 23 5 25
REMARK H PARENT 15 18 17 20 9 22 1 24 5 26
REMARK Flexibility Score: inf
ROOT
ATOM      1  C   UNL     1     -58.002  17.784 -17.497  1.00  0.00     0.402 A 
ATOM      2  O   UNL     1     -56.812  17.195 -17.574  1.00  0.00    -0.202 OA
ATOM      3  C   UNL     1     -55.716  17.686 -17.005  1.00  0.00     0.368 A 
ATOM      4  C   UNL     1     -54.511  16.993 -17.139  1.00  0.00     0.162 A 
ATOM      5  C   UNL     1     -53.345  17.483 -16.549  1.00  0.00     0.128 A 
ATOM      6  C   UNL     1     -53.383  18.676 -15.819  1.00  0.00     0.093 A 
ATOM      7  C   UNL     1     -54.579  19.390 -15.668  1.00  0.00     0.136 A 
ATOM      8  C   UNL     1     -55.765  18.895 -16.270  1.00  0.00     0.125 A 
ATOM      9  C   UNL     1     -57.005  19.550 -16.183  1.00  0.00     0.078 A 
ATOM     10  C   UNL     1     -58.131  19.003 -16.806  1.00  0.00     0.223 A 
ENDROOT
BRANCH   1  11
ATOM     11  C   UNL     1     -59.151  17.132 -18.167  1.00  0.00     0.087 A 
ATOM     12  C   UNL     1     -59.079  16.721 -19.508  1.00  0.00     0.022 A 
ATOM     13  C   UNL     1     -60.182  16.131 -20.125  1.00  0.00     0.051 A 
ATOM     14  C   UNL     1     -61.381  15.950 -19.425  1.00  0.00     0.157 A 
ATOM     15  C   UNL     1     -60.358  16.972 -17.470  1.00  0.00     0.068 A 
ATOM     16  C   UNL     1     -61.471  16.380 -18.080  1.00  0.00     0.158 A 
BRANCH  14  17
ATOM     17  O   UNL     1     -62.446  15.348 -20.099  1.00  0.00    -0.504 OA
ATOM     18  H   UNL     1     -63.001  14.595 -19.719  1.00  0.00     0.293 HD
ENDBRANCH  14  17
BRANCH  16  19
ATOM     19  O   UNL     1     -62.635  16.242 -17.321  1.00  0.00    -0.504 OA
ATOM     20  H   UNL     1     -63.220  17.015 -17.039  1.00  0.00     0.293 HD
ENDBRANCH  16  19
ENDBRANCH   1  11
BRANCH  10  21
ATOM     21  O   UNL     1     -59.351  19.677 -16.763  1.00  0.00    -0.500 OA
ATOM     22  H   UNL     1     -59.987  19.579 -15.981  1.00  0.00     0.294 HD
ENDBRANCH  10  21
BRANCH   5  23
ATOM     23  O   UNL     1     -52.153  16.778 -16.695  1.00  0.00    -0.507 OA
ATOM     24  H   UNL     1     -51.694  16.343 -15.903  1.00  0.00     0.293 HD
ENDBRANCH   5  23
BRANCH   7  25
ATOM     25  O   UNL     1     -54.535  20.570 -14.921  1.00  0.00    -0.507 OA
ATOM     26  H   UNL     1     -53.887  20.744 -14.167  1.00  0.00     0.293 HD
ENDBRANCH   7  25
TORSDOF 6
ENDMDL
MODEL 2
REMARK VINA RESULT:    -5.337      8.013      9.559
REMARK INTER + INTRA:          -6.428
REMARK INTER:                  -6.240
REMARK INTRA:                  -0.188
REMARK UNBOUND:                 0.001
REMARK SMILES Oc1cc(O)c2cc(O)c(-c3ccc(O)c(O)c3)[o+]c2c1
REMARK SMILES IDX 10 1 19 2 20 3 21 4 2 5 3 6 4 7 6 8 7 9 8 10 11 11 12 12
REMARK SMILES IDX 13 13 14 14 18 15 16 16 15 17 17 19 9 21 1 23 5 25
REMARK H PARENT 15 18 17 20 9 22 1 24 5 26
REMARK Flexibility Score: inf
ROOT
ATOM      1  C   UNL     1     -58.062  24.684 -12.907  1.00  0.00     0.402 A 
ATOM      2  O   UNL     1     -57.915  23.385 -12.660  1.00  0.00    -0.202 OA
ATOM      3  C   UNL     1     -58.381  22.792 -11.566  1.00  0.00     0.368 A 
ATOM      4  C   UNL     1     -58.180  21.420 -11.398  1.00  0.00     0.162 A 
ATOM      5  C   UNL     1     -58.662  20.770 -10.260  1.00  0.00     0.128 A 
ATOM      6  C   UNL     1     -59.351  21.497  -9.283  1.00  0.00     0.093 A 
ATOM      7  C   UNL     1     -59.566  22.874  -9.428  1.00  0.00     0.136 A 
ATOM      8  C   UNL     1     -59.075  23.537 -10.582  1.00  0.00     0.125 A 
ATOM      9  C   UNL     1     -59.233  24.915 -10.806  1.00  0.00     0.078 A 
ATOM     10  C   UNL     1     -58.717  25.501 -11.966  1.00  0.00     0.223 A 
ENDROOT
BRANCH   1  11
ATOM     11  C   UNL     1     -57.504  25.225 -14.168  1.00  0.00     0.087 A 
ATOM     12  C   UNL     1     -56.122  25.237 -14.410  1.00  0.00     0.022 A 
ATOM     13  C   UNL     1     -55.619  25.774 -15.596  1.00  0.00     0.051 A 
ATOM     14  C   UNL     1     -56.479  26.320 -16.556  1.00  0.00     0.157 A 
ATOM     15  C   UNL     1     -58.367  25.792 -15.118  1.00  0.00     0.068 A 
ATOM     16  C   UNL     1     -57.873  26.333 -16.311  1.00  0.00     0.158 A 
BRANCH  14  17
ATOM     17  O   UNL     1     -55.911  26.837 -17.723  1.00  0.00    -0.504 OA
ATOM     18  H   UNL     1     -56.052  27.783 -18.047  1.00  0.00     0.293 HD
ENDBRANCH  14  17
BRANCH  16  19
ATOM     19  O   UNL     1     -58.791  26.869 -17.215  1.00  0.00    -0.504 OA
ATOM     20  H   UNL     1     -59.199  27.788 -17.128  1.00  0.00     0.293 HD
ENDBRANCH  16  19
ENDBRANCH   1  11
BRANCH  10  21
ATOM     21  O   UNL     1     -58.829  26.876 -12.165  1.00  0.00    -0.500 OA
ATOM     22  H   UNL     1     -59.095  27.503 -11.415  1.00  0.00     0.294 HD
ENDBRANCH  10  21
BRANCH   5  23
ATOM     23  O   UNL     1     -58.450  19.403 -10.110  1.00  0.00    -0.507 OA
ATOM     24  H   UNL     1     -57.948  19.028  -9.313  1.00  0.00     0.293 HD
ENDBRANCH   5  23
BRANCH   7  25
ATOM     25  O   UNL     1     -60.266  23.527  -8.410  1.00  0.00    -0.507 OA
ATOM     26  H   UNL     1     -60.077  23.416  -7.425  1.00  0.00     0.293 HD
ENDBRANCH   7  25
TORSDOF 6
ENDMDL
MODEL 3
REMARK VINA RESULT:    -5.300      1.338      2.785
REMARK INTER + INTRA:          -6.383
REMARK INTER:                  -6.059
REMARK INTRA:                  -0.324
REMARK UNBOUND:                 0.001
REMARK SMILES Oc1cc(O)c2cc(O)c(-c3ccc(O)c(O)c3)[o+]c2c1
REMARK SMILES IDX 10 1 19 2 20 3 21 4 2 5 3 6 4 7 6 8 7 9 8 10 11 11 12 12
REMARK SMILES IDX 13 13 14 14 18 15 16 16 15 17 17 19 9 21 1 23 5 25
REMARK H PARENT 15 18 17 20 9 22 1 24 5 26
REMARK Flexibility Score: inf
ROOT
ATOM      1  C   UNL     1     -57.455  18.050 -17.454  1.00  0.00     0.402 A 
ATOM      2  O   UNL     1     -57.415  19.184 -16.759  1.00  0.00    -0.202 OA
ATOM      3  C   UNL     1     -56.332  19.611 -16.120  1.00  0.00     0.368 A 
ATOM      4  C   UNL     1     -56.388  20.819 -15.419  1.00  0.00     0.162 A 
ATOM      5  C   UNL     1     -55.264  21.294 -14.741  1.00  0.00     0.128 A 
ATOM      6  C   UNL     1     -54.074  20.557 -14.764  1.00  0.00     0.093 A 
ATOM      7  C   UNL     1     -53.991  19.345 -15.460  1.00  0.00     0.136 A 
ATOM      8  C   UNL     1     -55.134  18.858 -16.148  1.00  0.00     0.125 A 
ATOM      9  C   UNL     1     -55.147  17.647 -16.861  1.00  0.00     0.078 A 
ATOM     10  C   UNL     1     -56.313  17.229 -17.510  1.00  0.00     0.223 A 
ENDROOT
BRANCH   1  11
ATOM     11  C   UNL     1     -58.721  17.687 -18.131  1.00  0.00     0.087 A 
ATOM     12  C   UNL     1     -58.887  17.860 -19.514  1.00  0.00     0.022 A 
ATOM     13  C   UNL     1     -60.098  17.532 -20.125  1.00  0.00     0.051 A 
ATOM     14  C   UNL     1     -61.170  17.039 -19.371  1.00  0.00     0.157 A 
ATOM     15  C   UNL     1     -59.801  17.214 -17.369  1.00  0.00     0.068 A 
ATOM     16  C   UNL     1     -61.020  16.882 -17.973  1.00  0.00     0.158 A 
BRANCH  14  17
ATOM     17  O   UNL     1     -62.352  16.726 -20.045  1.00  0.00    -0.504 OA
ATOM     18  H   UNL     1     -63.275  16.871 -19.661  1.00  0.00     0.293 HD
ENDBRANCH  14  17
BRANCH  16  19
ATOM     19  O   UNL     1     -62.045  16.406 -17.154  1.00  0.00    -0.504 OA
ATOM     20  H   UNL     1     -61.898  16.002 -16.241  1.00  0.00     0.293 HD
ENDBRANCH  16  19
ENDBRANCH   1  11
BRANCH  10  21
ATOM     21  O   UNL     1     -56.342  16.004 -18.176  1.00  0.00    -0.500 OA
ATOM     22  H   UNL     1     -56.183  15.936 -19.174  1.00  0.00     0.294 HD
ENDBRANCH  10  21
BRANCH   5  23
ATOM     23  O   UNL     1     -55.339  22.498 -14.047  1.00  0.00    -0.507 OA
ATOM     24  H   UNL     1     -56.214  23.001 -13.950  1.00  0.00     0.293 HD
ENDBRANCH   5  23
BRANCH   7  25
ATOM     25  O   UNL     1     -52.767  18.672 -15.439  1.00  0.00    -0.507 OA
ATOM     26  H   UNL     1     -52.509  17.978 -14.753  1.00  0.00     0.293 HD
ENDBRANCH   7  25
TORSDOF 6
ENDMDL
MODEL 4
REMARK VINA RESULT:    -5.219      5.749      9.178
REMARK INTER + INTRA:          -6.285
REMARK INTER:                  -5.963
REMARK INTRA:                  -0.322
REMARK UNBOUND:                 0.001
REMARK SMILES Oc1cc(O)c2cc(O)c(-c3ccc(O)c(O)c3)[o+]c2c1
REMARK SMILES IDX 10 1 19 2 20 3 21 4 2 5 3 6 4 7 6 8 7 9 8 10 11 11 12 12
REMARK SMILES IDX 13 13 14 14 18 15 16 16 15 17 17 19 9 21 1 23 5 25
REMARK H PARENT 15 18 17 20 9 22 1 24 5 26
REMARK Flexibility Score: inf
ROOT
ATOM      1  C   UNL     1     -56.525  23.883 -14.327  1.00  0.00     0.402 A 
ATOM      2  O   UNL     1     -56.639  24.704 -15.368  1.00  0.00    -0.202 OA
ATOM      3  C   UNL     1     -57.545  25.672 -15.438  1.00  0.00     0.368 A 
ATOM      4  C   UNL     1     -57.584  26.486 -16.574  1.00  0.00     0.162 A 
ATOM      5  C   UNL     1     -58.524  27.514 -16.673  1.00  0.00     0.128 A 
ATOM      6  C   UNL     1     -59.432  27.730 -15.630  1.00  0.00     0.093 A 
ATOM      7  C   UNL     1     -59.413  26.929 -14.482  1.00  0.00     0.136 A 
ATOM      8  C   UNL     1     -58.460  25.882 -14.379  1.00  0.00     0.125 A 
ATOM      9  C   UNL     1     -58.376  25.021 -13.271  1.00  0.00     0.078 A 
ATOM     10  C   UNL     1     -57.414  24.008 -13.243  1.00  0.00     0.223 A 
ENDROOT
BRANCH   1  11
ATOM     11  C   UNL     1     -55.466  22.847 -14.364  1.00  0.00     0.087 A 
ATOM     12  C   UNL     1     -54.130  23.157 -14.067  1.00  0.00     0.022 A 
ATOM     13  C   UNL     1     -53.146  22.169 -14.132  1.00  0.00     0.051 A 
ATOM     14  C   UNL     1     -53.471  20.860 -14.504  1.00  0.00     0.157 A 
ATOM     15  C   UNL     1     -55.791  21.541 -14.759  1.00  0.00     0.068 A 
ATOM     16  C   UNL     1     -54.812  20.542 -14.826  1.00  0.00     0.158 A 
BRANCH  14  17
ATOM     17  O   UNL     1     -52.440  19.918 -14.544  1.00  0.00    -0.504 OA
ATOM     18  H   UNL     1     -51.496  20.101 -14.237  1.00  0.00     0.293 HD
ENDBRANCH  14  17
BRANCH  16  19
ATOM     19  O   UNL     1     -55.210  19.262 -15.215  1.00  0.00    -0.504 OA
ATOM     20  H   UNL     1     -55.177  18.453 -14.613  1.00  0.00     0.293 HD
ENDBRANCH  16  19
ENDBRANCH   1  11
BRANCH  10  21
ATOM     21  O   UNL     1     -57.362  23.122 -12.168  1.00  0.00    -0.500 OA
ATOM     22  H   UNL     1     -56.481  22.818 -11.769  1.00  0.00     0.294 HD
ENDBRANCH  10  21
BRANCH   5  23
ATOM     23  O   UNL     1     -58.548  28.313 -17.812  1.00  0.00    -0.507 OA
ATOM     24  H   UNL     1     -59.208  29.076 -17.912  1.00  0.00     0.293 HD
ENDBRANCH   5  23
BRANCH   7  25
ATOM     25  O   UNL     1     -60.349  27.212 -13.484  1.00  0.00    -0.507 OA
ATOM     26  H   UNL     1     -61.268  26.798 -13.429  1.00  0.00     0.293 HD
ENDBRANCH   7  25
TORSDOF 6
ENDMDL
MODEL 5
REMARK VINA RESULT:    -5.117      1.844      2.444
REMARK INTER + INTRA:          -6.162
REMARK INTER:                  -5.814
REMARK INTRA:                  -0.348
REMARK UNBOUND:                 0.001
REMARK SMILES Oc1cc(O)c2cc(O)c(-c3ccc(O)c(O)c3)[o+]c2c1
REMARK SMILES IDX 10 1 19 2 20 3 21 4 2 5 3 6 4 7 6 8 7 9 8 10 11 11 12 12
REMARK SMILES IDX 13 13 14 14 18 15 16 16 15 17 17 19 9 21 1 23 5 25
REMARK H PARENT 15 18 17 20 9 22 1 24 5 26
REMARK Flexibility Score: inf
ROOT
ATOM      1  C   UNL     1     -56.807  17.675 -17.169  1.00  0.00     0.402 A 
ATOM      2  O   UNL     1     -56.110  17.303 -16.099  1.00  0.00    -0.202 OA
ATOM      3  C   UNL     1     -54.816  17.563 -15.944  1.00  0.00     0.368 A 
ATOM      4  C   UNL     1     -54.170  17.133 -14.781  1.00  0.00     0.162 A 
ATOM      5  C   UNL     1     -52.813  17.395 -14.590  1.00  0.00     0.128 A 
ATOM      6  C   UNL     1     -52.094  18.092 -15.568  1.00  0.00     0.093 A 
ATOM      7  C   UNL     1     -52.717  18.533 -16.742  1.00  0.00     0.136 A 
ATOM      8  C   UNL     1     -54.097  18.266 -16.940  1.00  0.00     0.125 A 
ATOM      9  C   UNL     1     -54.802  18.659 -18.090  1.00  0.00     0.078 A 
ATOM     10  C   UNL     1     -56.161  18.356 -18.217  1.00  0.00     0.223 A 
ENDROOT
BRANCH   1  11
ATOM     11  C   UNL     1     -58.247  17.333 -17.220  1.00  0.00     0.087 A 
ATOM     12  C   UNL     1     -58.695  16.137 -17.802  1.00  0.00     0.022 A 
ATOM     13  C   UNL     1     -60.059  15.848 -17.860  1.00  0.00     0.051 A 
ATOM     14  C   UNL     1     -61.003  16.749 -17.352  1.00  0.00     0.157 A 
ATOM     15  C   UNL     1     -59.192  18.248 -16.731  1.00  0.00     0.068 A 
ATOM     16  C   UNL     1     -60.563  17.968 -16.784  1.00  0.00     0.158 A 
BRANCH  14  17
ATOM     17  O   UNL     1     -62.352  16.398 -17.437  1.00  0.00    -0.504 OA
ATOM     18  H   UNL     1     -63.114  17.045 -17.291  1.00  0.00     0.293 HD
ENDBRANCH  14  17
BRANCH  16  19
ATOM     19  O   UNL     1     -61.444  18.919 -16.266  1.00  0.00    -0.504 OA
ATOM     20  H   UNL     1     -62.445  18.892 -16.396  1.00  0.00     0.293 HD
ENDBRANCH  16  19
ENDBRANCH   1  11
BRANCH  10  21
ATOM     21  O   UNL     1     -56.848  18.701 -19.380  1.00  0.00    -0.500 OA
ATOM     22  H   UNL     1     -57.758  18.311 -19.596  1.00  0.00     0.294 HD
ENDBRANCH  10  21
BRANCH   5  23
ATOM     23  O   UNL     1     -52.188  16.959 -13.425  1.00  0.00    -0.507 OA
ATOM     24  H   UNL     1     -52.641  17.028 -12.521  1.00  0.00     0.293 HD
ENDBRANCH   5  23
BRANCH   7  25
ATOM     25  O   UNL     1     -51.932  19.226 -17.667  1.00  0.00    -0.507 OA
ATOM     26  H   UNL     1     -51.142  19.806 -17.424  1.00  0.00     0.293 HD
ENDBRANCH   7  25
TORSDOF 6
ENDMDL
MODEL 6
REMARK VINA RESULT:    -5.106      6.195      9.793
REMARK INTER + INTRA:          -6.149
REMARK INTER:                  -5.825
REMARK INTRA:                  -0.324
REMARK UNBOUND:                 0.001
REMARK SMILES Oc1cc(O)c2cc(O)c(-c3ccc(O)c(O)c3)[o+]c2c1
REMARK SMILES IDX 10 1 19 2 20 3 21 4 2 5 3 6 4 7 6 8 7 9 8 10 11 11 12 12
REMARK SMILES IDX 13 13 14 14 18 15 16 16 15 17 17 19 9 21 1 23 5 25
REMARK H PARENT 15 18 17 20 9 22 1 24 5 26
REMARK Flexibility Score: inf
ROOT
ATOM      1  C   UNL     1     -56.237  24.711 -14.898  1.00  0.00     0.402 A 
ATOM      2  O   UNL     1     -57.394  24.951 -14.286  1.00  0.00    -0.202 OA
ATOM      3  C   UNL     1     -58.214  25.936 -14.635  1.00  0.00     0.368 A 
ATOM      4  C   UNL     1     -59.410  26.107 -13.934  1.00  0.00     0.162 A 
ATOM      5  C   UNL     1     -60.292  27.131 -14.281  1.00  0.00     0.128 A 
ATOM      6  C   UNL     1     -59.976  27.993 -15.337  1.00  0.00     0.093 A 
ATOM      7  C   UNL     1     -58.784  27.844 -16.057  1.00  0.00     0.136 A 
ATOM      8  C   UNL     1     -57.884  26.804 -15.704  1.00  0.00     0.125 A 
ATOM      9  C   UNL     1     -56.661  26.587 -16.361  1.00  0.00     0.078 A 
ATOM     10  C   UNL     1     -55.823  25.544 -15.954  1.00  0.00     0.223 A 
ENDROOT
BRANCH   1  11
ATOM     11  C   UNL     1     -55.415  23.575 -14.421  1.00  0.00     0.087 A 
ATOM     12  C   UNL     1     -54.332  23.771 -13.550  1.00  0.00     0.022 A 
ATOM     13  C   UNL     1     -53.557  22.687 -13.133  1.00  0.00     0.051 A 
ATOM     14  C   UNL     1     -53.836  21.392 -13.585  1.00  0.00     0.157 A 
ATOM     15  C   UNL     1     -55.684  22.281 -14.893  1.00  0.00     0.068 A 
ATOM     16  C   UNL     1     -54.912  21.187 -14.481  1.00  0.00     0.158 A 
BRANCH  14  17
ATOM     17  O   UNL     1     -53.026  20.352 -13.126  1.00  0.00    -0.504 OA
ATOM     18  H   UNL     1     -52.884  20.136 -12.150  1.00  0.00     0.293 HD
ENDBRANCH  14  17
BRANCH  16  19
ATOM     19  O   UNL     1     -55.246  19.928 -14.982  1.00  0.00    -0.504 OA
ATOM     20  H   UNL     1     -54.783  19.072 -14.713  1.00  0.00     0.293 HD
ENDBRANCH  16  19
ENDBRANCH   1  11
BRANCH  10  21
ATOM     21  O   UNL     1     -54.587  25.359 -16.571  1.00  0.00    -0.500 OA
ATOM     22  H   UNL     1     -53.717  25.461 -16.063  1.00  0.00     0.294 HD
ENDBRANCH  10  21
BRANCH   5  23
ATOM     23  O   UNL     1     -61.478  27.286 -13.569  1.00  0.00    -0.507 OA
ATOM     24  H   UNL     1     -62.367  27.414 -14.040  1.00  0.00     0.293 HD
ENDBRANCH   5  23
BRANCH   7  25
ATOM     25  O   UNL     1     -58.544  28.741 -17.100  1.00  0.00    -0.507 OA
ATOM     26  H   UNL     1     -58.363  29.726 -16.975  1.00  0.00     0.293 HD
ENDBRANCH   7  25
TORSDOF 6
ENDMDL
MODEL 7
REMARK VINA RESULT:    -5.090      9.313     10.950
REMARK INTER + INTRA:          -6.130
REMARK INTER:                  -6.623
REMARK INTRA:                   0.493
REMARK UNBOUND:                 0.001
REMARK SMILES Oc1cc(O)c2cc(O)c(-c3ccc(O)c(O)c3)[o+]c2c1
REMARK SMILES IDX 10 1 19 2 20 3 21 4 2 5 3 6 4 7 6 8 7 9 8 10 11 11 12 12
REMARK SMILES IDX 13 13 14 14 18 15 16 16 15 17 17 19 9 21 1 23 5 25
REMARK H PARENT 15 18 17 20 9 22 1 24 5 26
REMARK Flexibility Score: inf
ROOT
ATOM      1  C   UNL     1     -59.480  26.144 -13.412  1.00  0.00     0.402 A 
ATOM      2  O   UNL     1     -59.107  25.309 -12.445  1.00  0.00    -0.202 OA
ATOM      3  C   UNL     1     -59.848  25.059 -11.370  1.00  0.00     0.368 A 
ATOM      4  C   UNL     1     -59.371  24.163 -10.410  1.00  0.00     0.162 A 
ATOM      5  C   UNL     1     -60.129  23.878  -9.273  1.00  0.00     0.128 A 
ATOM      6  C   UNL     1     -61.373  24.494  -9.094  1.00  0.00     0.093 A 
ATOM      7  C   UNL     1     -61.873  25.395 -10.042  1.00  0.00     0.136 A 
ATOM      8  C   UNL     1     -61.104  25.688 -11.198  1.00  0.00     0.125 A 
ATOM      9  C   UNL     1     -61.519  26.588 -12.194  1.00  0.00     0.078 A 
ATOM     10  C   UNL     1     -60.704  26.830 -13.304  1.00  0.00     0.223 A 
ENDROOT
BRANCH   1  11
ATOM     11  C   UNL     1     -58.569  26.332 -14.565  1.00  0.00     0.087 A 
ATOM     12  C   UNL     1     -57.327  25.681 -14.629  1.00  0.00     0.022 A 
ATOM     13  C   UNL     1     -56.476  25.893 -15.715  1.00  0.00     0.051 A 
ATOM     14  C   UNL     1     -56.838  26.764 -16.749  1.00  0.00     0.157 A 
ATOM     15  C   UNL     1     -58.926  27.222 -15.589  1.00  0.00     0.068 A 
ATOM     16  C   UNL     1     -58.079  27.441 -16.683  1.00  0.00     0.158 A 
BRANCH  14  17
ATOM     17  O   UNL     1     -55.944  26.927 -17.809  1.00  0.00    -0.504 OA
ATOM     18  H   UNL     1     -54.983  26.617 -17.788  1.00  0.00     0.293 HD
ENDBRANCH  14  17
BRANCH  16  19
ATOM     19  O   UNL     1     -58.505  28.331 -17.670  1.00  0.00    -0.504 OA
ATOM     20  H   UNL     1     -58.751  29.295 -17.494  1.00  0.00     0.293 HD
ENDBRANCH  16  19
ENDBRANCH   1  11
BRANCH  10  21
ATOM     21  O   UNL     1     -61.092  27.760 -14.267  1.00  0.00    -0.500 OA
ATOM     22  H   UNL     1     -61.343  27.480 -15.207  1.00  0.00     0.294 HD
ENDBRANCH  10  21
BRANCH   5  23
ATOM     23  O   UNL     1     -59.637  22.983  -8.327  1.00  0.00    -0.507 OA
ATOM     24  H   UNL     1     -59.163  22.130  -8.600  1.00  0.00     0.293 HD
ENDBRANCH   5  23
BRANCH   7  25
ATOM     25  O   UNL     1     -63.125  25.964  -9.792  1.00  0.00    -0.507 OA
ATOM     26  H   UNL     1     -63.298  26.687  -9.109  1.00  0.00     0.293 HD
ENDBRANCH   7  25
TORSDOF 6
ENDMDL
MODEL 8
REMARK VINA RESULT:    -5.067      8.129      9.780
REMARK INTER + INTRA:          -6.102
REMARK INTER:                  -5.806
REMARK INTRA:                  -0.296
REMARK UNBOUND:                 0.001
REMARK SMILES Oc1cc(O)c2cc(O)c(-c3ccc(O)c(O)c3)[o+]c2c1
REMARK SMILES IDX 10 1 19 2 20 3 21 4 2 5 3 6 4 7 6 8 7 9 8 10 11 11 12 12
REMARK SMILES IDX 13 13 14 14 18 15 16 16 15 17 17 19 9 21 1 23 5 25
REMARK H PARENT 15 18 17 20 9 22 1 24 5 26
REMARK Flexibility Score: inf
ROOT
ATOM      1  C   UNL     1     -57.397  25.416 -13.050  1.00  0.00     0.402 A 
ATOM      2  O   UNL     1     -57.937  24.209 -12.899  1.00  0.00    -0.202 OA
ATOM      3  C   UNL     1     -57.749  23.454 -11.822  1.00  0.00     0.368 A 
ATOM      4  C   UNL     1     -58.362  22.200 -11.755  1.00  0.00     0.162 A 
ATOM      5  C   UNL     1     -58.184  21.387 -10.635  1.00  0.00     0.128 A 
ATOM      6  C   UNL     1     -57.388  21.830  -9.573  1.00  0.00     0.093 A 
ATOM      7  C   UNL     1     -56.763  23.082  -9.615  1.00  0.00     0.136 A 
ATOM      8  C   UNL     1     -56.940  23.910 -10.754  1.00  0.00     0.125 A 
ATOM      9  C   UNL     1     -56.342  25.175 -10.889  1.00  0.00     0.078 A 
ATOM     10  C   UNL     1     -56.559  25.932 -12.044  1.00  0.00     0.223 A 
ENDROOT
BRANCH   1  11
ATOM     11  C   UNL     1     -57.690  26.165 -14.294  1.00  0.00     0.087 A 
ATOM     12  C   UNL     1     -58.933  26.785 -14.498  1.00  0.00     0.022 A 
ATOM     13  C   UNL     1     -59.194  27.464 -15.689  1.00  0.00     0.051 A 
ATOM     14  C   UNL     1     -58.230  27.529 -16.702  1.00  0.00     0.157 A 
ATOM     15  C   UNL     1     -56.730  26.209 -15.316  1.00  0.00     0.068 A 
ATOM     16  C   UNL     1     -56.982  26.889 -16.514  1.00  0.00     0.158 A 
BRANCH  14  17
ATOM     17  O   UNL     1     -58.553  28.229 -17.867  1.00  0.00    -0.504 OA
ATOM     18  H   UNL     1     -59.402  28.764 -17.986  1.00  0.00     0.293 HD
ENDBRANCH  14  17
BRANCH  16  19
ATOM     19  O   UNL     1     -55.976  26.901 -17.482  1.00  0.00    -0.504 OA
ATOM     20  H   UNL     1     -56.078  27.313 -18.398  1.00  0.00     0.293 HD
ENDBRANCH  16  19
ENDBRANCH   1  11
BRANCH  10  21
ATOM     21  O   UNL     1     -55.926  27.165 -12.201  1.00  0.00    -0.500 OA
ATOM     22  H   UNL     1     -55.240  27.500 -11.536  1.00  0.00     0.294 HD
ENDBRANCH  10  21
BRANCH   5  23
ATOM     23  O   UNL     1     -58.802  20.140 -10.587  1.00  0.00    -0.507 OA
ATOM     24  H   UNL     1     -58.540  19.444  -9.899  1.00  0.00     0.293 HD
ENDBRANCH   5  23
BRANCH   7  25
ATOM     25  O   UNL     1     -55.989  23.453  -8.513  1.00  0.00    -0.507 OA
ATOM     26  H   UNL     1     -55.882  24.401  -8.184  1.00  0.00     0.293 HD
ENDBRANCH   7  25
TORSDOF 6
ENDMDL
MODEL 9
REMARK VINA RESULT:    -4.930     11.391     14.489
REMARK INTER + INTRA:          -5.937
REMARK INTER:                  -5.648
REMARK INTRA:                  -0.289
REMARK UNBOUND:                 0.001
REMARK SMILES Oc1cc(O)c2cc(O)c(-c3ccc(O)c(O)c3)[o+]c2c1
REMARK SMILES IDX 10 1 19 2 20 3 21 4 2 5 3 6 4 7 6 8 7 9 8 10 11 11 12 12
REMARK SMILES IDX 13 13 14 14 18 15 16 16 15 17 17 19 9 21 1 23 5 25
REMARK H PARENT 15 18 17 20 9 22 1 24 5 26
REMARK Flexibility Score: inf
ROOT
ATOM      1  C   UNL     1     -52.770  16.553  -4.876  1.00  0.00     0.402 A 
ATOM      2  O   UNL     1     -53.741  15.978  -5.582  1.00  0.00    -0.202 OA
ATOM      3  C   UNL     1     -54.150  16.429  -6.762  1.00  0.00     0.368 A 
ATOM      4  C   UNL     1     -55.176  15.754  -7.430  1.00  0.00     0.162 A 
ATOM      5  C   UNL     1     -55.624  16.203  -8.673  1.00  0.00     0.128 A 
ATOM      6  C   UNL     1     -55.043  17.336  -9.254  1.00  0.00     0.093 A 
ATOM      7  C   UNL     1     -54.014  18.030  -8.606  1.00  0.00     0.136 A 
ATOM      8  C   UNL     1     -53.558  17.577  -7.341  1.00  0.00     0.125 A 
ATOM      9  C   UNL     1     -52.541  18.217  -6.613  1.00  0.00     0.078 A 
ATOM     10  C   UNL     1     -52.147  17.714  -5.369  1.00  0.00     0.223 A 
ENDROOT
BRANCH   1  11
ATOM     11  C   UNL     1     -52.397  15.949  -3.576  1.00  0.00     0.087 A 
ATOM     12  C   UNL     1     -52.789  16.531  -2.360  1.00  0.00     0.022 A 
ATOM     13  C   UNL     1     -52.405  15.956  -1.147  1.00  0.00     0.051 A 
ATOM     14  C   UNL     1     -51.614  14.801  -1.121  1.00  0.00     0.157 A 
ATOM     15  C   UNL     1     -51.586  14.804  -3.553  1.00  0.00     0.068 A 
ATOM     16  C   UNL     1     -51.195  14.220  -2.342  1.00  0.00     0.158 A 
BRANCH  14  17
ATOM     17  O   UNL     1     -51.269  14.274   0.125  1.00  0.00    -0.504 OA
ATOM     18  H   UNL     1     -50.766  13.408   0.251  1.00  0.00     0.293 HD
ENDBRANCH  14  17
BRANCH  16  19
ATOM     19  O   UNL     1     -50.399  13.075  -2.396  1.00  0.00    -0.504 OA
ATOM     20  H   UNL     1     -50.256  12.449  -1.617  1.00  0.00     0.293 HD
ENDBRANCH  16  19
ENDBRANCH   1  11
BRANCH  10  21
ATOM     21  O   UNL     1     -51.173  18.377  -4.623  1.00  0.00    -0.500 OA
ATOM     22  H   UNL     1     -51.281  19.345  -4.346  1.00  0.00     0.294 HD
ENDBRANCH  10  21
BRANCH   5  23
ATOM     23  O   UNL     1     -56.647  15.518  -9.321  1.00  0.00    -0.507 OA
ATOM     24  H   UNL     1     -57.215  15.962 -10.034  1.00  0.00     0.293 HD
ENDBRANCH   5  23
BRANCH   7  25
ATOM     25  O   UNL     1     -53.484  19.148  -9.254  1.00  0.00    -0.507 OA
ATOM     26  H   UNL     1     -53.960  20.033  -9.348  1.00  0.00     0.293 HD
ENDBRANCH   7  25
TORSDOF 6
ENDMDL
