MODEL 1
REMARK VINA RESULT:    -3.263      0.000      0.000
REMARK INTER + INTRA:         -10.051
REMARK INTER:                  -7.079
REMARK INTRA:                  -2.972
REMARK UNBOUND:                -2.972
REMARK SMILES CCCCCCCCCCCCCCCCCCCCCC(=O)[O-]
REMARK SMILES IDX 12 1 11 2 10 3 9 4 8 5 7 6 6 7 5 8 4 9 3 10 2 11 1 12 13 13
REMARK SMILES IDX 14 14 15 15 16 16 17 17 18 18 19 19 20 20 21 21 22 22 23 23
REMARK SMILES IDX 24 24
REMARK H PARENT
REMARK Flexibility Score: inf
ROOT
ATOM      1  C   UNL     1     -12.908 -18.903  22.329  1.00  0.00     0.000 C 
ENDROOT
BRANCH   1   2
ATOM      2  C   UNL     1     -12.750 -18.035  21.067  1.00  0.00     0.000 C 
BRANCH   2   3
ATOM      3  C   UNL     1     -11.281 -17.848  20.660  1.00  0.00     0.000 C 
BRANCH   3   4
ATOM      4  C   UNL     1     -11.156 -17.509  19.166  1.00  0.00    -0.000 C 
BRANCH   4   5
ATOM      5  C   UNL     1     -12.063 -18.402  18.304  1.00  0.00    -0.000 C 
BRANCH   5   6
ATOM      6  C   UNL     1     -11.285 -19.538  17.601  1.00  0.00    -0.000 C 
BRANCH   6   7
ATOM      7  C   UNL     1     -11.789 -20.937  17.997  1.00  0.00    -0.000 C 
BRANCH   7   8
ATOM      8  C   UNL     1     -13.077 -20.898  18.845  1.00  0.00    -0.000 C 
BRANCH   8   9
ATOM      9  C   UNL     1     -13.149 -22.018  19.901  1.00  0.00    -0.000 C 
BRANCH   9  10
ATOM     10  C   UNL     1     -11.755 -22.425  20.413  1.00  0.00    -0.000 C 
BRANCH  10  11
ATOM     11  C   UNL     1     -11.497 -23.931  20.257  1.00  0.00    -0.003 C 
ATOM     12  C   UNL     1     -12.794 -24.737  20.174  1.00  0.00     0.004 C 
ENDBRANCH  10  11
ENDBRANCH   9  10
ENDBRANCH   8   9
ENDBRANCH   7   8
ENDBRANCH   6   7
ENDBRANCH   5   6
ENDBRANCH   4   5
ENDBRANCH   3   4
ENDBRANCH   2   3
ENDBRANCH   1   2
BRANCH   1  13
ATOM     13  C   UNL     1     -11.642 -19.679  22.753  1.00  0.00     0.000 C 
BRANCH  13  14
ATOM     14  C   UNL     1     -11.861 -20.758  23.828  1.00  0.00     0.000 C 
BRANCH  14  15
ATOM     15  C   UNL     1     -13.080 -20.471  24.721  1.00  0.00     0.000 C 
BRANCH  15  16
ATOM     16  C   UNL     1     -14.117 -21.609  24.708  1.00  0.00     0.000 C 
BRANCH  16  17
ATOM     17  C   UNL     1     -14.471 -22.164  23.313  1.00  0.00     0.000 C 
BRANCH  17  18
ATOM     18  C   UNL     1     -14.598 -23.695  23.234  1.00  0.00     0.000 C 
BRANCH  18  19
ATOM     19  C   UNL     1     -15.774 -24.239  24.064  1.00  0.00     0.000 C 
BRANCH  19  20
ATOM     20  C   UNL     1     -17.077 -23.462  23.819  1.00  0.00     0.006 C 
BRANCH  20  21
ATOM     21  C   UNL     1     -18.328 -24.309  24.090  1.00  0.00     0.053 C 
BRANCH  21  22
ATOM     22  C   UNL     1     -18.777 -24.153  25.509  1.00  0.00     0.041 C 
ATOM     23  O   UNL     1     -19.105 -25.165  26.184  1.00  0.00    -0.550 OA
ATOM     24  O   UNL     1     -18.838 -22.891  26.089  1.00  0.00    -0.550 OA
ENDBRANCH  21  22
ENDBRANCH  20  21
ENDBRANCH  19  20
ENDBRANCH  18  19
ENDBRANCH  17  18
ENDBRANCH  16  17
ENDBRANCH  15  16
ENDBRANCH  14  15
ENDBRANCH  13  14
ENDBRANCH   1  13
TORSDOF 20
ENDMDL
MODEL 2
REMARK VINA RESULT:    -3.225      2.676      6.916
REMARK INTER + INTRA:          -9.967
REMARK INTER:                  -6.929
REMARK INTRA:                  -3.038
REMARK UNBOUND:                -2.972
REMARK SMILES CCCCCCCCCCCCCCCCCCCCCC(=O)[O-]
REMARK SMILES IDX 12 1 11 2 10 3 9 4 8 5 7 6 6 7 5 8 4 9 3 10 2 11 1 12 13 13
REMARK SMILES IDX 14 14 15 15 16 16 17 17 18 18 19 19 20 20 21 21 22 22 23 23
REMARK SMILES IDX 24 24
REMARK H PARENT
REMARK Flexibility Score: inf
ROOT
ATOM      1  C   UNL     1     -13.096 -22.459  19.568  1.00  0.00     0.000 C 
ENDROOT
BRANCH   1   2
ATOM      2  C   UNL     1     -11.657 -22.821  19.979  1.00  0.00     0.000 C 
BRANCH   2   3
ATOM      3  C   UNL     1     -11.603 -23.667  21.259  1.00  0.00     0.000 C 
BRANCH   3   4
ATOM      4  C   UNL     1     -13.004 -24.149  21.668  1.00  0.00    -0.000 C 
BRANCH   4   5
ATOM      5  C   UNL     1     -13.028 -24.656  23.118  1.00  0.00    -0.000 C 
BRANCH   5   6
ATOM      6  C   UNL     1     -14.368 -24.358  23.830  1.00  0.00    -0.000 C 
BRANCH   6   7
ATOM      7  C   UNL     1     -15.138 -23.193  23.183  1.00  0.00    -0.000 C 
BRANCH   7   8
ATOM      8  C   UNL     1     -16.535 -22.974  23.801  1.00  0.00    -0.000 C 
BRANCH   8   9
ATOM      9  C   UNL     1     -16.572 -23.202  25.324  1.00  0.00    -0.000 C 
BRANCH   9  10
ATOM     10  C   UNL     1     -17.448 -22.162  26.046  1.00  0.00    -0.000 C 
BRANCH  10  11
ATOM     11  C   UNL     1     -18.790 -22.753  26.505  1.00  0.00    -0.003 C 
ATOM     12  C   UNL     1     -18.923 -24.234  26.152  1.00  0.00     0.004 C 
ENDBRANCH  10  11
ENDBRANCH   9  10
ENDBRANCH   8   9
ENDBRANCH   7   8
ENDBRANCH   6   7
ENDBRANCH   5   6
ENDBRANCH   4   5
ENDBRANCH   3   4
ENDBRANCH   2   3
ENDBRANCH   1   2
BRANCH   1  13
ATOM     13  C   UNL     1     -13.213 -21.351  18.500  1.00  0.00     0.000 C 
BRANCH  13  14
ATOM     14  C   UNL     1     -11.882 -20.709  18.069  1.00  0.00     0.000 C 
BRANCH  14  15
ATOM     15  C   UNL     1     -11.824 -19.201  18.364  1.00  0.00     0.000 C 
BRANCH  15  16
ATOM     16  C   UNL     1     -13.015 -18.707  19.207  1.00  0.00     0.000 C 
BRANCH  16  17
ATOM     17  C   UNL     1     -12.671 -18.270  20.645  1.00  0.00     0.000 C 
BRANCH  17  18
ATOM     18  C   UNL     1     -12.114 -19.384  21.549  1.00  0.00     0.000 C 
BRANCH  18  19
ATOM     19  C   UNL     1     -13.193 -20.029  22.434  1.00  0.00     0.000 C 
BRANCH  19  20
ATOM     20  C   UNL     1     -12.597 -20.835  23.599  1.00  0.00     0.006 C 
BRANCH  20  21
ATOM     21  C   UNL     1     -13.064 -20.325  24.970  1.00  0.00     0.053 C 
BRANCH  21  22
ATOM     22  C   UNL     1     -12.482 -18.978  25.262  1.00  0.00     0.041 C 
ATOM     23  O   UNL     1     -13.235 -17.978  25.392  1.00  0.00    -0.550 OA
ATOM     24  O   UNL     1     -11.106 -18.824  25.386  1.00  0.00    -0.550 OA
ENDBRANCH  21  22
ENDBRANCH  20  21
ENDBRANCH  19  20
ENDBRANCH  18  19
ENDBRANCH  17  18
ENDBRANCH  16  17
ENDBRANCH  15  16
ENDBRANCH  14  15
ENDBRANCH  13  14
ENDBRANCH   1  13
TORSDOF 20
ENDMDL
MODEL 3
REMARK VINA RESULT:    -3.196      1.391      4.510
REMARK INTER + INTRA:          -9.906
REMARK INTER:                  -6.610
REMARK INTRA:                  -3.296
REMARK UNBOUND:                -2.972
REMARK SMILES CCCCCCCCCCCCCCCCCCCCCC(=O)[O-]
REMARK SMILES IDX 12 1 11 2 10 3 9 4 8 5 7 6 6 7 5 8 4 9 3 10 2 11 1 12 13 13
REMARK SMILES IDX 14 14 15 15 16 16 17 17 18 18 19 19 20 20 21 21 22 22 23 23
REMARK SMILES IDX 24 24
REMARK H PARENT
REMARK Flexibility Score: inf
ROOT
ATOM      1  C   UNL     1     -11.976 -19.575  18.654  1.00  0.00     0.000 C 
ENDROOT
BRANCH   1   2
ATOM      2  C   UNL     1     -13.126 -18.828  19.354  1.00  0.00     0.000 C 
BRANCH   2   3
ATOM      3  C   UNL     1     -12.696 -18.197  20.686  1.00  0.00     0.000 C 
BRANCH   3   4
ATOM      4  C   UNL     1     -11.361 -18.780  21.173  1.00  0.00    -0.000 C 
BRANCH   4   5
ATOM      5  C   UNL     1     -11.278 -18.800  22.708  1.00  0.00    -0.000 C 
BRANCH   5   6
ATOM      6  C   UNL     1     -12.500 -18.130  23.378  1.00  0.00    -0.000 C 
BRANCH   6   7
ATOM      7  C   UNL     1     -12.721 -18.610  24.824  1.00  0.00    -0.000 C 
BRANCH   7   8
ATOM      8  C   UNL     1     -11.947 -19.903  25.157  1.00  0.00    -0.000 C 
BRANCH   8   9
ATOM      9  C   UNL     1     -12.462 -20.614  26.424  1.00  0.00    -0.000 C 
BRANCH   9  10
ATOM     10  C   UNL     1     -13.913 -20.228  26.759  1.00  0.00    -0.000 C 
BRANCH  10  11
ATOM     11  C   UNL     1     -14.730 -21.426  27.265  1.00  0.00    -0.003 C 
ATOM     12  C   UNL     1     -13.928 -22.728  27.242  1.00  0.00     0.004 C 
ENDBRANCH  10  11
ENDBRANCH   9  10
ENDBRANCH   8   9
ENDBRANCH   7   8
ENDBRANCH   6   7
ENDBRANCH   5   6
ENDBRANCH   4   5
ENDBRANCH   3   4
ENDBRANCH   2   3
ENDBRANCH   1   2
BRANCH   1  13
ATOM     13  C   UNL     1     -12.239 -21.072  18.378  1.00  0.00     0.000 C 
BRANCH  13  14
ATOM     14  C   UNL     1     -13.397 -21.695  19.179  1.00  0.00     0.000 C 
BRANCH  14  15
ATOM     15  C   UNL     1     -12.925 -22.777  20.165  1.00  0.00     0.000 C 
BRANCH  15  16
ATOM     16  C   UNL     1     -12.688 -22.234  21.586  1.00  0.00     0.000 C 
BRANCH  16  17
ATOM     17  C   UNL     1     -13.873 -21.465  22.206  1.00  0.00     0.000 C 
BRANCH  17  18
ATOM     18  C   UNL     1     -14.421 -22.060  23.515  1.00  0.00     0.000 C 
BRANCH  18  19
ATOM     19  C   UNL     1     -15.665 -22.937  23.297  1.00  0.00     0.000 C 
BRANCH  19  20
ATOM     20  C   UNL     1     -16.369 -23.300  24.613  1.00  0.00     0.006 C 
BRANCH  20  21
ATOM     21  C   UNL     1     -17.785 -23.850  24.394  1.00  0.00     0.053 C 
BRANCH  21  22
ATOM     22  C   UNL     1     -18.587 -23.770  25.654  1.00  0.00     0.041 C 
ATOM     23  O   UNL     1     -19.147 -24.799  26.115  1.00  0.00    -0.550 OA
ATOM     24  O   UNL     1     -18.721 -22.558  26.321  1.00  0.00    -0.550 OA
ENDBRANCH  21  22
ENDBRANCH  20  21
ENDBRANCH  19  20
ENDBRANCH  18  19
ENDBRANCH  17  18
ENDBRANCH  16  17
ENDBRANCH  15  16
ENDBRANCH  14  15
ENDBRANCH  13  14
ENDBRANCH   1  13
TORSDOF 20
ENDMDL
MODEL 4
REMARK VINA RESULT:    -3.135      2.825      7.712
REMARK INTER + INTRA:          -9.772
REMARK INTER:                  -6.564
REMARK INTRA:                  -3.207
REMARK UNBOUND:                -2.972
REMARK SMILES CCCCCCCCCCCCCCCCCCCCCC(=O)[O-]
REMARK SMILES IDX 12 1 11 2 10 3 9 4 8 5 7 6 6 7 5 8 4 9 3 10 2 11 1 12 13 13
REMARK SMILES IDX 14 14 15 15 16 16 17 17 18 18 19 19 20 20 21 21 22 22 23 23
REMARK SMILES IDX 24 24
REMARK H PARENT
REMARK Flexibility Score: inf
ROOT
ATOM      1  C   UNL     1     -12.696 -22.141  22.464  1.00  0.00     0.000 C 
ENDROOT
BRANCH   1   2
ATOM      2  C   UNL     1     -13.902 -21.425  23.100  1.00  0.00     0.000 C 
BRANCH   2   3
ATOM      3  C   UNL     1     -14.604 -22.282  24.163  1.00  0.00     0.000 C 
BRANCH   3   4
ATOM      4  C   UNL     1     -15.899 -22.900  23.614  1.00  0.00    -0.000 C 
BRANCH   4   5
ATOM      5  C   UNL     1     -16.048 -24.371  24.033  1.00  0.00    -0.000 C 
BRANCH   5   6
ATOM      6  C   UNL     1     -15.174 -24.732  25.256  1.00  0.00    -0.000 C 
BRANCH   6   7
ATOM      7  C   UNL     1     -15.951 -25.508  26.334  1.00  0.00    -0.000 C 
BRANCH   7   8
ATOM      8  C   UNL     1     -17.481 -25.433  26.148  1.00  0.00    -0.000 C 
BRANCH   8   9
ATOM      9  C   UNL     1     -18.157 -24.381  27.048  1.00  0.00    -0.000 C 
BRANCH   9  10
ATOM     10  C   UNL     1     -18.753 -23.218  26.237  1.00  0.00    -0.000 C 
BRANCH  10  11
ATOM     11  C   UNL     1     -17.991 -21.903  26.462  1.00  0.00    -0.003 C 
ATOM     12  C   UNL     1     -16.892 -22.042  27.516  1.00  0.00     0.004 C 
ENDBRANCH  10  11
ENDBRANCH   9  10
ENDBRANCH   8   9
ENDBRANCH   7   8
ENDBRANCH   6   7
ENDBRANCH   5   6
ENDBRANCH   4   5
ENDBRANCH   3   4
ENDBRANCH   2   3
ENDBRANCH   1   2
BRANCH   1  13
ATOM     13  C   UNL     1     -13.053 -23.212  21.410  1.00  0.00     0.000 C 
BRANCH  13  14
ATOM     14  C   UNL     1     -12.654 -22.869  19.963  1.00  0.00     0.000 C 
BRANCH  14  15
ATOM     15  C   UNL     1     -13.441 -21.676  19.394  1.00  0.00     0.000 C 
BRANCH  15  16
ATOM     16  C   UNL     1     -12.551 -20.454  19.102  1.00  0.00     0.000 C 
BRANCH  16  17
ATOM     17  C   UNL     1     -13.194 -19.083  19.396  1.00  0.00     0.000 C 
BRANCH  17  18
ATOM     18  C   UNL     1     -12.829 -18.472  20.760  1.00  0.00     0.000 C 
BRANCH  18  19
ATOM     19  C   UNL     1     -11.434 -18.895  21.249  1.00  0.00     0.000 C 
BRANCH  19  20
ATOM     20  C   UNL     1     -11.237 -18.651  22.754  1.00  0.00     0.006 C 
BRANCH  20  21
ATOM     21  C   UNL     1     -12.461 -17.997  23.411  1.00  0.00     0.053 C 
BRANCH  21  22
ATOM     22  C   UNL     1     -12.599 -18.440  24.833  1.00  0.00     0.041 C 
ATOM     23  O   UNL     1     -13.391 -17.843  25.608  1.00  0.00    -0.550 OA
ATOM     24  O   UNL     1     -11.851 -19.512  25.307  1.00  0.00    -0.550 OA
ENDBRANCH  21  22
ENDBRANCH  20  21
ENDBRANCH  19  20
ENDBRANCH  18  19
ENDBRANCH  17  18
ENDBRANCH  16  17
ENDBRANCH  15  16
ENDBRANCH  14  15
ENDBRANCH  13  14
ENDBRANCH   1  13
TORSDOF 20
ENDMDL
MODEL 5
REMARK VINA RESULT:    -3.129      1.279      3.900
REMARK INTER + INTRA:          -9.759
REMARK INTER:                  -6.586
REMARK INTRA:                  -3.173
REMARK UNBOUND:                -2.972
REMARK SMILES CCCCCCCCCCCCCCCCCCCCCC(=O)[O-]
REMARK SMILES IDX 12 1 11 2 10 3 9 4 8 5 7 6 6 7 5 8 4 9 3 10 2 11 1 12 13 13
REMARK SMILES IDX 14 14 15 15 16 16 17 17 18 18 19 19 20 20 21 21 22 22 23 23
REMARK SMILES IDX 24 24
REMARK H PARENT
REMARK Flexibility Score: inf
ROOT
ATOM      1  C   UNL     1     -13.327 -21.665  18.946  1.00  0.00     0.000 C 
ENDROOT
BRANCH   1   2
ATOM      2  C   UNL     1     -12.109 -20.969  18.311  1.00  0.00     0.000 C 
BRANCH   2   3
ATOM      3  C   UNL     1     -12.012 -19.485  18.693  1.00  0.00     0.000 C 
BRANCH   3   4
ATOM      4  C   UNL     1     -13.235 -19.039  19.510  1.00  0.00    -0.000 C 
BRANCH   4   5
ATOM      5  C   UNL     1     -12.823 -18.400  20.845  1.00  0.00    -0.000 C 
BRANCH   5   6
ATOM      6  C   UNL     1     -11.325 -18.608  21.167  1.00  0.00    -0.000 C 
BRANCH   6   7
ATOM      7  C   UNL     1     -11.078 -18.954  22.646  1.00  0.00    -0.000 C 
BRANCH   7   8
ATOM      8  C   UNL     1     -12.381 -19.189  23.438  1.00  0.00    -0.000 C 
BRANCH   8   9
ATOM      9  C   UNL     1     -12.161 -19.925  24.774  1.00  0.00    -0.000 C 
BRANCH   9  10
ATOM     10  C   UNL     1     -13.486 -20.229  25.495  1.00  0.00    -0.000 C 
BRANCH  10  11
ATOM     11  C   UNL     1     -13.354 -21.401  26.480  1.00  0.00    -0.003 C 
ATOM     12  C   UNL     1     -14.677 -21.729  27.173  1.00  0.00     0.004 C 
ENDBRANCH  10  11
ENDBRANCH   9  10
ENDBRANCH   8   9
ENDBRANCH   7   8
ENDBRANCH   6   7
ENDBRANCH   5   6
ENDBRANCH   4   5
ENDBRANCH   3   4
ENDBRANCH   2   3
ENDBRANCH   1   2
BRANCH   1  13
ATOM     13  C   UNL     1     -12.989 -22.762  19.979  1.00  0.00     0.000 C 
BRANCH  13  14
ATOM     14  C   UNL     1     -12.307 -22.265  21.267  1.00  0.00     0.000 C 
BRANCH  14  15
ATOM     15  C   UNL     1     -13.039 -22.718  22.541  1.00  0.00     0.000 C 
BRANCH  15  16
ATOM     16  C   UNL     1     -14.539 -22.372  22.528  1.00  0.00     0.000 C 
BRANCH  16  17
ATOM     17  C   UNL     1     -15.343 -22.871  23.746  1.00  0.00     0.000 C 
BRANCH  17  18
ATOM     18  C   UNL     1     -15.419 -24.400  23.895  1.00  0.00     0.000 C 
BRANCH  18  19
ATOM     19  C   UNL     1     -16.690 -24.866  24.624  1.00  0.00     0.000 C 
BRANCH  19  20
ATOM     20  C   UNL     1     -17.898 -23.960  24.342  1.00  0.00     0.006 C 
BRANCH  20  21
ATOM     21  C   UNL     1     -18.865 -23.878  25.531  1.00  0.00     0.053 C 
BRANCH  21  22
ATOM     22  C   UNL     1     -18.284 -23.048  26.632  1.00  0.00     0.041 C 
ATOM     23  O   UNL     1     -18.244 -21.793  26.526  1.00  0.00    -0.550 OA
ATOM     24  O   UNL     1     -17.780 -23.657  27.775  1.00  0.00    -0.550 OA
ENDBRANCH  21  22
ENDBRANCH  20  21
ENDBRANCH  19  20
ENDBRANCH  18  19
ENDBRANCH  17  18
ENDBRANCH  16  17
ENDBRANCH  15  16
ENDBRANCH  14  15
ENDBRANCH  13  14
ENDBRANCH   1  13
TORSDOF 20
ENDMDL
MODEL 6
REMARK VINA RESULT:    -3.121      3.412      7.872
REMARK INTER + INTRA:          -9.743
REMARK INTER:                  -6.493
REMARK INTRA:                  -3.251
REMARK UNBOUND:                -2.972
REMARK SMILES CCCCCCCCCCCCCCCCCCCCCC(=O)[O-]
REMARK SMILES IDX 12 1 11 2 10 3 9 4 8 5 7 6 6 7 5 8 4 9 3 10 2 11 1 12 13 13
REMARK SMILES IDX 14 14 15 15 16 16 17 17 18 18 19 19 20 20 21 21 22 22 23 23
REMARK SMILES IDX 24 24
REMARK H PARENT
REMARK Flexibility Score: inf
ROOT
ATOM      1  C   UNL     1     -13.380 -23.969  22.439  1.00  0.00     0.000 C 
ENDROOT
BRANCH   1   2
ATOM      2  C   UNL     1     -14.496 -24.112  23.490  1.00  0.00     0.000 C 
BRANCH   2   3
ATOM      3  C   UNL     1     -15.134 -22.766  23.862  1.00  0.00     0.000 C 
BRANCH   3   4
ATOM      4  C   UNL     1     -14.812 -22.379  25.314  1.00  0.00    -0.000 C 
BRANCH   4   5
ATOM      5  C   UNL     1     -16.008 -22.630  26.245  1.00  0.00    -0.000 C 
BRANCH   5   6
ATOM      6  C   UNL     1     -17.350 -22.176  25.626  1.00  0.00    -0.000 C 
BRANCH   6   7
ATOM      7  C   UNL     1     -18.568 -22.837  26.296  1.00  0.00    -0.000 C 
BRANCH   7   8
ATOM      8  C   UNL     1     -19.046 -24.108  25.564  1.00  0.00    -0.000 C 
BRANCH   8   9
ATOM      9  C   UNL     1     -18.414 -24.284  24.169  1.00  0.00    -0.000 C 
BRANCH   9  10
ATOM     10  C   UNL     1     -17.831 -25.695  23.970  1.00  0.00    -0.000 C 
BRANCH  10  11
ATOM     11  C   UNL     1     -17.640 -26.437  25.301  1.00  0.00    -0.003 C 
ATOM     12  C   UNL     1     -16.193 -26.388  25.791  1.00  0.00     0.004 C 
ENDBRANCH  10  11
ENDBRANCH   9  10
ENDBRANCH   8   9
ENDBRANCH   7   8
ENDBRANCH   6   7
ENDBRANCH   5   6
ENDBRANCH   4   5
ENDBRANCH   3   4
ENDBRANCH   2   3
ENDBRANCH   1   2
BRANCH   1  13
ATOM     13  C   UNL     1     -13.477 -22.711  21.549  1.00  0.00     0.000 C 
BRANCH  13  14
ATOM     14  C   UNL     1     -12.300 -21.726  21.670  1.00  0.00     0.000 C 
BRANCH  14  15
ATOM     15  C   UNL     1     -11.520 -21.889  22.986  1.00  0.00     0.000 C 
BRANCH  15  16
ATOM     16  C   UNL     1     -11.521 -20.612  23.847  1.00  0.00     0.000 C 
BRANCH  16  17
ATOM     17  C   UNL     1     -12.796 -19.750  23.749  1.00  0.00     0.000 C 
BRANCH  17  18
ATOM     18  C   UNL     1     -12.585 -18.246  23.995  1.00  0.00     0.000 C 
BRANCH  18  19
ATOM     19  C   UNL     1     -11.994 -17.519  22.775  1.00  0.00     0.000 C 
BRANCH  19  20
ATOM     20  C   UNL     1     -12.715 -17.880  21.467  1.00  0.00     0.006 C 
BRANCH  20  21
ATOM     21  C   UNL     1     -11.750 -18.354  20.372  1.00  0.00     0.053 C 
BRANCH  21  22
ATOM     22  C   UNL     1     -12.485 -18.622  19.097  1.00  0.00     0.041 C 
ATOM     23  O   UNL     1     -13.312 -19.570  19.029  1.00  0.00    -0.550 OA
ATOM     24  O   UNL     1     -12.256 -17.830  17.978  1.00  0.00    -0.550 OA
ENDBRANCH  21  22
ENDBRANCH  20  21
ENDBRANCH  19  20
ENDBRANCH  18  19
ENDBRANCH  17  18
ENDBRANCH  16  17
ENDBRANCH  15  16
ENDBRANCH  14  15
ENDBRANCH  13  14
ENDBRANCH   1  13
TORSDOF 20
ENDMDL
MODEL 7
REMARK VINA RESULT:    -3.119      3.547      8.164
REMARK INTER + INTRA:          -9.738
REMARK INTER:                  -6.191
REMARK INTRA:                  -3.546
REMARK UNBOUND:                -2.972
REMARK SMILES CCCCCCCCCCCCCCCCCCCCCC(=O)[O-]
REMARK SMILES IDX 12 1 11 2 10 3 9 4 8 5 7 6 6 7 5 8 4 9 3 10 2 11 1 12 13 13
REMARK SMILES IDX 14 14 15 15 16 16 17 17 18 18 19 19 20 20 21 21 22 22 23 23
REMARK SMILES IDX 24 24
REMARK H PARENT
REMARK Flexibility Score: inf
ROOT
ATOM      1  C   UNL     1     -17.373 -23.484  23.633  1.00  0.00     0.000 C 
ENDROOT
BRANCH   1   2
ATOM      2  C   UNL     1     -17.860 -24.514  24.669  1.00  0.00     0.000 C 
BRANCH   2   3
ATOM      3  C   UNL     1     -18.962 -23.958  25.582  1.00  0.00     0.000 C 
BRANCH   3   4
ATOM      4  C   UNL     1     -18.410 -22.881  26.529  1.00  0.00    -0.000 C 
BRANCH   4   5
ATOM      5  C   UNL     1     -17.608 -23.500  27.685  1.00  0.00    -0.000 C 
BRANCH   5   6
ATOM      6  C   UNL     1     -16.166 -22.950  27.770  1.00  0.00    -0.000 C 
BRANCH   6   7
ATOM      7  C   UNL     1     -15.984 -21.636  26.989  1.00  0.00    -0.000 C 
BRANCH   7   8
ATOM      8  C   UNL     1     -14.625 -20.957  27.256  1.00  0.00    -0.000 C 
BRANCH   8   9
ATOM      9  C   UNL     1     -13.510 -21.422  26.300  1.00  0.00    -0.000 C 
BRANCH   9  10
ATOM     10  C   UNL     1     -13.513 -20.636  24.977  1.00  0.00    -0.000 C 
BRANCH  10  11
ATOM     11  C   UNL     1     -12.314 -19.683  24.866  1.00  0.00    -0.003 C 
ATOM     12  C   UNL     1     -12.699 -18.333  24.259  1.00  0.00     0.004 C 
ENDBRANCH  10  11
ENDBRANCH   9  10
ENDBRANCH   8   9
ENDBRANCH   7   8
ENDBRANCH   6   7
ENDBRANCH   5   6
ENDBRANCH   4   5
ENDBRANCH   3   4
ENDBRANCH   2   3
ENDBRANCH   1   2
BRANCH   1  13
ATOM     13  C   UNL     1     -15.855 -23.203  23.654  1.00  0.00     0.000 C 
BRANCH  13  14
ATOM     14  C   UNL     1     -15.001 -24.253  24.387  1.00  0.00     0.000 C 
BRANCH  14  15
ATOM     15  C   UNL     1     -13.543 -24.282  23.898  1.00  0.00     0.000 C 
BRANCH  15  16
ATOM     16  C   UNL     1     -13.417 -24.111  22.373  1.00  0.00     0.000 C 
BRANCH  16  17
ATOM     17  C   UNL     1     -12.170 -23.338  21.896  1.00  0.00     0.000 C 
BRANCH  17  18
ATOM     18  C   UNL     1     -12.337 -21.810  21.832  1.00  0.00     0.000 C 
BRANCH  18  19
ATOM     19  C   UNL     1     -13.690 -21.381  21.241  1.00  0.00     0.000 C 
BRANCH  19  20
ATOM     20  C   UNL     1     -13.781 -19.865  21.013  1.00  0.00     0.006 C 
BRANCH  20  21
ATOM     21  C   UNL     1     -12.439 -19.249  20.592  1.00  0.00     0.053 C 
BRANCH  21  22
ATOM     22  C   UNL     1     -12.340 -19.160  19.102  1.00  0.00     0.041 C 
ATOM     23  O   UNL     1     -12.353 -18.037  18.533  1.00  0.00    -0.550 OA
ATOM     24  O   UNL     1     -12.239 -20.316  18.337  1.00  0.00    -0.550 OA
ENDBRANCH  21  22
ENDBRANCH  20  21
ENDBRANCH  19  20
ENDBRANCH  18  19
ENDBRANCH  17  18
ENDBRANCH  16  17
ENDBRANCH  15  16
ENDBRANCH  14  15
ENDBRANCH  13  14
ENDBRANCH   1  13
TORSDOF 20
ENDMDL
MODEL 8
REMARK VINA RESULT:    -3.119      2.890      6.220
REMARK INTER + INTRA:          -9.737
REMARK INTER:                  -6.395
REMARK INTRA:                  -3.342
REMARK UNBOUND:                -2.972
REMARK SMILES CCCCCCCCCCCCCCCCCCCCCC(=O)[O-]
REMARK SMILES IDX 12 1 11 2 10 3 9 4 8 5 7 6 6 7 5 8 4 9 3 10 2 11 1 12 13 13
REMARK SMILES IDX 14 14 15 15 16 16 17 17 18 18 19 19 20 20 21 21 22 22 23 23
REMARK SMILES IDX 24 24
REMARK H PARENT
REMARK Flexibility Score: inf
ROOT
ATOM      1  C   UNL     1     -17.158 -23.118  23.892  1.00  0.00     0.000 C 
ENDROOT
BRANCH   1   2
ATOM      2  C   UNL     1     -15.695 -23.207  23.420  1.00  0.00     0.000 C 
BRANCH   2   3
ATOM      3  C   UNL     1     -14.917 -24.331  24.119  1.00  0.00     0.000 C 
BRANCH   3   4
ATOM      4  C   UNL     1     -13.416 -24.252  23.798  1.00  0.00    -0.000 C 
BRANCH   4   5
ATOM      5  C   UNL     1     -13.169 -23.813  22.346  1.00  0.00    -0.000 C 
BRANCH   5   6
ATOM      6  C   UNL     1     -11.861 -23.006  22.183  1.00  0.00    -0.000 C 
BRANCH   6   7
ATOM      7  C   UNL     1     -12.113 -21.535  21.807  1.00  0.00    -0.000 C 
BRANCH   7   8
ATOM      8  C   UNL     1     -13.409 -21.332  20.995  1.00  0.00    -0.000 C 
BRANCH   8   9
ATOM      9  C   UNL     1     -13.920 -19.878  21.011  1.00  0.00    -0.000 C 
BRANCH   9  10
ATOM     10  C   UNL     1     -12.900 -18.897  20.406  1.00  0.00    -0.000 C 
BRANCH  10  11
ATOM     11  C   UNL     1     -12.716 -19.110  18.896  1.00  0.00    -0.003 C 
ATOM     12  C   UNL     1     -12.033 -17.920  18.221  1.00  0.00     0.004 C 
ENDBRANCH  10  11
ENDBRANCH   9  10
ENDBRANCH   8   9
ENDBRANCH   7   8
ENDBRANCH   6   7
ENDBRANCH   5   6
ENDBRANCH   4   5
ENDBRANCH   3   4
ENDBRANCH   2   3
ENDBRANCH   1   2
BRANCH   1  13
ATOM     13  C   UNL     1     -17.763 -24.444  24.402  1.00  0.00     0.000 C 
BRANCH  13  14
ATOM     14  C   UNL     1     -18.411 -24.378  25.797  1.00  0.00     0.000 C 
BRANCH  14  15
ATOM     15  C   UNL     1     -18.714 -22.938  26.247  1.00  0.00     0.000 C 
BRANCH  15  16
ATOM     16  C   UNL     1     -17.816 -22.469  27.406  1.00  0.00     0.000 C 
BRANCH  16  17
ATOM     17  C   UNL     1     -16.698 -23.450  27.816  1.00  0.00     0.000 C 
BRANCH  17  18
ATOM     18  C   UNL     1     -15.267 -22.962  27.532  1.00  0.00     0.000 C 
BRANCH  18  19
ATOM     19  C   UNL     1     -15.232 -21.655  26.723  1.00  0.00     0.000 C 
BRANCH  19  20
ATOM     20  C   UNL     1     -13.802 -21.147  26.484  1.00  0.00     0.006 C 
BRANCH  20  21
ATOM     21  C   UNL     1     -13.591 -20.625  25.056  1.00  0.00     0.053 C 
BRANCH  21  22
ATOM     22  C   UNL     1     -12.806 -19.352  25.067  1.00  0.00     0.041 C 
ATOM     23  O   UNL     1     -12.766 -18.624  24.040  1.00  0.00    -0.550 OA
ATOM     24  O   UNL     1     -12.114 -18.967  26.210  1.00  0.00    -0.550 OA
ENDBRANCH  21  22
ENDBRANCH  20  21
ENDBRANCH  19  20
ENDBRANCH  18  19
ENDBRANCH  17  18
ENDBRANCH  16  17
ENDBRANCH  15  16
ENDBRANCH  14  15
ENDBRANCH  13  14
ENDBRANCH   1  13
TORSDOF 20
ENDMDL
MODEL 9
REMARK VINA RESULT:    -3.107      1.469      4.056
REMARK INTER + INTRA:          -9.712
REMARK INTER:                  -6.626
REMARK INTRA:                  -3.086
REMARK UNBOUND:                -2.972
REMARK SMILES CCCCCCCCCCCCCCCCCCCCCC(=O)[O-]
REMARK SMILES IDX 12 1 11 2 10 3 9 4 8 5 7 6 6 7 5 8 4 9 3 10 2 11 1 12 13 13
REMARK SMILES IDX 14 14 15 15 16 16 17 17 18 18 19 19 20 20 21 21 22 22 23 23
REMARK SMILES IDX 24 24
REMARK H PARENT
REMARK Flexibility Score: inf
ROOT
ATOM      1  C   UNL     1     -12.994 -22.342  19.857  1.00  0.00     0.000 C 
ENDROOT
BRANCH   1   2
ATOM      2  C   UNL     1     -13.232 -21.265  18.783  1.00  0.00     0.000 C 
BRANCH   2   3
ATOM      3  C   UNL     1     -11.945 -20.875  18.043  1.00  0.00     0.000 C 
BRANCH   3   4
ATOM      4  C   UNL     1     -11.652 -19.373  18.188  1.00  0.00    -0.000 C 
BRANCH   4   5
ATOM      5  C   UNL     1     -12.570 -18.715  19.231  1.00  0.00    -0.000 C 
BRANCH   5   6
ATOM      6  C   UNL     1     -11.814 -18.308  20.516  1.00  0.00    -0.000 C 
BRANCH   6   7
ATOM      7  C   UNL     1     -12.735 -17.668  21.570  1.00  0.00    -0.000 C 
BRANCH   7   8
ATOM      8  C   UNL     1     -12.742 -18.432  22.911  1.00  0.00    -0.000 C 
BRANCH   8   9
ATOM      9  C   UNL     1     -11.543 -18.089  23.817  1.00  0.00    -0.000 C 
BRANCH   9  10
ATOM     10  C   UNL     1     -11.682 -18.701  25.222  1.00  0.00    -0.000 C 
BRANCH  10  11
ATOM     11  C   UNL     1     -13.138 -18.706  25.711  1.00  0.00    -0.003 C 
ATOM     12  C   UNL     1     -13.484 -17.454  26.518  1.00  0.00     0.004 C 
ENDBRANCH  10  11
ENDBRANCH   9  10
ENDBRANCH   8   9
ENDBRANCH   7   8
ENDBRANCH   6   7
ENDBRANCH   5   6
ENDBRANCH   4   5
ENDBRANCH   3   4
ENDBRANCH   2   3
ENDBRANCH   1   2
BRANCH   1  13
ATOM     13  C   UNL     1     -12.835 -21.807  21.297  1.00  0.00     0.000 C 
BRANCH  13  14
ATOM     14  C   UNL     1     -11.391 -21.768  21.829  1.00  0.00     0.000 C 
BRANCH  14  15
ATOM     15  C   UNL     1     -11.314 -21.931  23.357  1.00  0.00     0.000 C 
BRANCH  15  16
ATOM     16  C   UNL     1     -12.378 -22.895  23.913  1.00  0.00     0.000 C 
BRANCH  16  17
ATOM     17  C   UNL     1     -13.277 -22.317  25.025  1.00  0.00     0.000 C 
BRANCH  17  18
ATOM     18  C   UNL     1     -14.675 -21.869  24.564  1.00  0.00     0.000 C 
BRANCH  18  19
ATOM     19  C   UNL     1     -15.350 -22.887  23.629  1.00  0.00     0.000 C 
BRANCH  19  20
ATOM     20  C   UNL     1     -16.773 -23.250  24.081  1.00  0.00     0.006 C 
BRANCH  20  21
ATOM     21  C   UNL     1     -16.888 -23.400  25.604  1.00  0.00     0.053 C 
BRANCH  21  22
ATOM     22  C   UNL     1     -18.239 -22.967  26.079  1.00  0.00     0.041 C 
ATOM     23  O   UNL     1     -18.368 -21.895  26.729  1.00  0.00    -0.550 OA
ATOM     24  O   UNL     1     -19.358 -23.746  25.811  1.00  0.00    -0.550 OA
ENDBRANCH  21  22
ENDBRANCH  20  21
ENDBRANCH  19  20
ENDBRANCH  18  19
ENDBRANCH  17  18
ENDBRANCH  16  17
ENDBRANCH  15  16
ENDBRANCH  14  15
ENDBRANCH  13  14
ENDBRANCH   1  13
TORSDOF 20
ENDMDL
