MODEL 1
REMARK VINA RESULT:    -3.938      0.000      0.000
REMARK INTER + INTRA:          -4.688
REMARK INTER:                  -4.513
REMARK INTRA:                  -0.175
REMARK UNBOUND:                -0.175
REMARK SMILES CC=Cc1ccc(O)c(OC)c1
REMARK SMILES IDX 4 1 12 2 9 3 7 4 6 5 5 6 3 7 1 8 2 9 10 10 11 11 8 12
REMARK H PARENT 8 13
REMARK Flexibility Score: inf
ROOT
ATOM      1  C   UNL     1     169.661 166.575 168.042  1.00  0.00    -0.022 A 
ATOM      2  C   UNL     1     170.814 166.478 167.245  1.00  0.00     0.058 A 
ATOM      3  C   UNL     1     172.098 166.600 167.813  1.00  0.00     0.161 A 
ATOM      4  C   UNL     1     172.220 166.831 169.190  1.00  0.00     0.157 A 
ATOM      5  C   UNL     1     171.075 166.944 169.987  1.00  0.00     0.051 A 
ATOM      6  C   UNL     1     169.806 166.823 169.421  1.00  0.00     0.012 A 
ENDROOT
BRANCH   1   7
ATOM      7  C   UNL     1     168.334 166.448 167.389  1.00  0.00     0.003 C 
ATOM      8  C   UNL     1     165.880 166.238 167.326  1.00  0.00     0.035 C 
ATOM      9  C   UNL     1     167.176 166.379 168.057  1.00  0.00    -0.030 C 
ENDBRANCH   1   7
BRANCH   3  10
ATOM     10  O   UNL     1     173.269 166.498 167.046  1.00  0.00    -0.493 OA
ATOM     11  C   UNL     1     173.555 165.432 166.147  1.00  0.00     0.278 C 
ENDBRANCH   3  10
BRANCH   4  12
ATOM     12  O   UNL     1     173.487 166.951 169.758  1.00  0.00    -0.504 OA
ATOM     13  H   UNL     1     173.838 167.844 170.087  1.00  0.00     0.293 HD
ENDBRANCH   4  12
TORSDOF 3
ENDMDL
MODEL 2
REMARK VINA RESULT:    -3.930      6.984      8.053
REMARK INTER + INTRA:          -4.680
REMARK INTER:                  -4.510
REMARK INTRA:                  -0.169
REMARK UNBOUND:                -0.175
REMARK SMILES CC=Cc1ccc(O)c(OC)c1
REMARK SMILES IDX 4 1 12 2 9 3 7 4 6 5 5 6 3 7 1 8 2 9 10 10 11 11 8 12
REMARK H PARENT 8 13
REMARK Flexibility Score: inf
ROOT
ATOM      1  C   UNL     1     166.601 161.424 168.000  1.00  0.00    -0.022 A 
ATOM      2  C   UNL     1     166.452 160.263 167.223  1.00  0.00     0.058 A 
ATOM      3  C   UNL     1     166.601 158.985 167.797  1.00  0.00     0.161 A 
ATOM      4  C   UNL     1     166.914 158.877 169.159  1.00  0.00     0.157 A 
ATOM      5  C   UNL     1     167.080 160.030 169.935  1.00  0.00     0.051 A 
ATOM      6  C   UNL     1     166.930 161.294 169.363  1.00  0.00     0.012 A 
ENDROOT
BRANCH   1   7
ATOM      7  C   UNL     1     166.442 162.745 167.341  1.00  0.00     0.003 C 
ATOM      8  C   UNL     1     166.118 165.186 167.266  1.00  0.00     0.035 C 
ATOM      9  C   UNL     1     166.287 163.898 168.004  1.00  0.00    -0.030 C 
ENDBRANCH   1   7
BRANCH   3  10
ATOM     10  O   UNL     1     166.449 157.806 167.051  1.00  0.00    -0.493 OA
ATOM     11  C   UNL     1     165.463 157.612 166.042  1.00  0.00     0.278 C 
ENDBRANCH   3  10
BRANCH   4  12
ATOM     12  O   UNL     1     167.063 157.616 169.733  1.00  0.00    -0.504 OA
ATOM     13  H   UNL     1     166.842 157.447 170.708  1.00  0.00     0.293 HD
ENDBRANCH   4  12
TORSDOF 3
ENDMDL
MODEL 3
REMARK VINA RESULT:    -3.892      8.155     11.228
REMARK INTER + INTRA:          -4.636
REMARK INTER:                  -4.455
REMARK INTRA:                  -0.180
REMARK UNBOUND:                -0.175
REMARK SMILES CC=Cc1ccc(O)c(OC)c1
REMARK SMILES IDX 4 1 12 2 9 3 7 4 6 5 5 6 3 7 1 8 2 9 10 10 11 11 8 12
REMARK H PARENT 8 13
REMARK Flexibility Score: inf
ROOT
ATOM      1  C   UNL     1     161.644 164.648 168.124  1.00  0.00    -0.022 A 
ATOM      2  C   UNL     1     160.513 164.693 167.291  1.00  0.00     0.058 A 
ATOM      3  C   UNL     1     159.215 164.579 167.828  1.00  0.00     0.161 A 
ATOM      4  C   UNL     1     159.056 164.410 169.210  1.00  0.00     0.157 A 
ATOM      5  C   UNL     1     160.180 164.348 170.044  1.00  0.00     0.051 A 
ATOM      6  C   UNL     1     161.463 164.461 169.508  1.00  0.00     0.012 A 
ENDROOT
BRANCH   1   7
ATOM      7  C   UNL     1     162.988 164.763 167.503  1.00  0.00     0.003 C 
ATOM      8  C   UNL     1     165.447 164.915 167.497  1.00  0.00     0.035 C 
ATOM      9  C   UNL     1     164.132 164.782 168.196  1.00  0.00    -0.030 C 
ENDBRANCH   1   7
BRANCH   3  10
ATOM     10  O   UNL     1     158.065 164.630 167.025  1.00  0.00    -0.493 OA
ATOM     11  C   UNL     1     157.687 165.747 166.227  1.00  0.00     0.278 C 
ENDBRANCH   3  10
BRANCH   4  12
ATOM     12  O   UNL     1     157.776 164.297 169.748  1.00  0.00    -0.504 OA
ATOM     13  H   UNL     1     157.118 163.603 169.412  1.00  0.00     0.293 HD
ENDBRANCH   4  12
TORSDOF 3
ENDMDL
MODEL 4
REMARK VINA RESULT:    -3.796      1.348      2.818
REMARK INTER + INTRA:          -4.526
REMARK INTER:                  -4.345
REMARK INTRA:                  -0.182
REMARK UNBOUND:                -0.175
REMARK SMILES CC=Cc1ccc(O)c(OC)c1
REMARK SMILES IDX 4 1 12 2 9 3 7 4 6 5 5 6 3 7 1 8 2 9 10 10 11 11 8 12
REMARK H PARENT 8 13
REMARK Flexibility Score: inf
ROOT
ATOM      1  C   UNL     1     168.836 166.458 167.854  1.00  0.00    -0.022 A 
ATOM      2  C   UNL     1     169.405 166.770 169.100  1.00  0.00     0.058 A 
ATOM      3  C   UNL     1     170.759 167.147 169.202  1.00  0.00     0.161 A 
ATOM      4  C   UNL     1     171.546 167.200 168.044  1.00  0.00     0.157 A 
ATOM      5  C   UNL     1     170.989 166.875 166.801  1.00  0.00     0.051 A 
ATOM      6  C   UNL     1     169.648 166.503 166.704  1.00  0.00     0.012 A 
ENDROOT
BRANCH   1   7
ATOM      7  C   UNL     1     167.407 166.058 167.806  1.00  0.00     0.003 C 
ATOM      8  C   UNL     1     165.304 165.387 166.711  1.00  0.00     0.035 C 
ATOM      9  C   UNL     1     166.749 165.768 166.677  1.00  0.00    -0.030 C 
ENDBRANCH   1   7
BRANCH   3  10
ATOM     10  O   UNL     1     171.355 167.474 170.430  1.00  0.00    -0.493 OA
ATOM     11  C   UNL     1     171.195 168.721 171.098  1.00  0.00     0.278 C 
ENDBRANCH   3  10
BRANCH   4  12
ATOM     12  O   UNL     1     172.886 167.573 168.138  1.00  0.00    -0.504 OA
ATOM     13  H   UNL     1     173.411 167.873 167.324  1.00  0.00     0.293 HD
ENDBRANCH   4  12
TORSDOF 3
ENDMDL
MODEL 5
REMARK VINA RESULT:    -3.781      6.192      7.154
REMARK INTER + INTRA:          -4.509
REMARK INTER:                  -4.327
REMARK INTRA:                  -0.181
REMARK UNBOUND:                -0.175
REMARK SMILES CC=Cc1ccc(O)c(OC)c1
REMARK SMILES IDX 4 1 12 2 9 3 7 4 6 5 5 6 3 7 1 8 2 9 10 10 11 11 8 12
REMARK H PARENT 8 13
REMARK Flexibility Score: inf
ROOT
ATOM      1  C   UNL     1     166.415 162.494 167.770  1.00  0.00    -0.022 A 
ATOM      2  C   UNL     1     166.749 161.926 169.011  1.00  0.00     0.058 A 
ATOM      3  C   UNL     1     167.152 160.579 169.105  1.00  0.00     0.161 A 
ATOM      4  C   UNL     1     167.208 159.797 167.943  1.00  0.00     0.157 A 
ATOM      5  C   UNL     1     166.860 160.352 166.705  1.00  0.00     0.051 A 
ATOM      6  C   UNL     1     166.463 161.687 166.618  1.00  0.00     0.012 A 
ENDROOT
BRANCH   1   7
ATOM      7  C   UNL     1     165.989 163.916 167.732  1.00  0.00     0.003 C 
ATOM      8  C   UNL     1     165.307 166.021 166.649  1.00  0.00     0.035 C 
ATOM      9  C   UNL     1     165.717 164.584 166.605  1.00  0.00    -0.030 C 
ENDBRANCH   1   7
BRANCH   3  10
ATOM     10  O   UNL     1     167.502 159.984 170.328  1.00  0.00    -0.493 OA
ATOM     11  C   UNL     1     168.745 160.181 170.993  1.00  0.00     0.278 C 
ENDBRANCH   3  10
BRANCH   4  12
ATOM     12  O   UNL     1     167.605 158.464 168.028  1.00  0.00    -0.504 OA
ATOM     13  H   UNL     1     167.610 157.859 167.215  1.00  0.00     0.293 HD
ENDBRANCH   4  12
TORSDOF 3
ENDMDL
MODEL 6
REMARK VINA RESULT:    -3.777      6.641      8.305
REMARK INTER + INTRA:          -4.505
REMARK INTER:                  -4.323
REMARK INTRA:                  -0.181
REMARK UNBOUND:                -0.175
REMARK SMILES CC=Cc1ccc(O)c(OC)c1
REMARK SMILES IDX 4 1 12 2 9 3 7 4 6 5 5 6 3 7 1 8 2 9 10 10 11 11 8 12
REMARK H PARENT 8 13
REMARK Flexibility Score: inf
ROOT
ATOM      1  C   UNL     1     164.712 168.796 167.763  1.00  0.00    -0.022 A 
ATOM      2  C   UNL     1     164.396 169.353 169.013  1.00  0.00     0.058 A 
ATOM      3  C   UNL     1     164.041 170.712 169.131  1.00  0.00     0.161 A 
ATOM      4  C   UNL     1     164.015 171.516 167.984  1.00  0.00     0.157 A 
ATOM      5  C   UNL     1     164.346 170.972 166.736  1.00  0.00     0.051 A 
ATOM      6  C   UNL     1     164.696 169.626 166.625  1.00  0.00     0.012 A 
ENDROOT
BRANCH   1   7
ATOM      7  C   UNL     1     165.088 167.362 167.699  1.00  0.00     0.003 C 
ATOM      8  C   UNL     1     165.686 165.251 166.578  1.00  0.00     0.035 C 
ATOM      9  C   UNL     1     165.326 166.701 166.559  1.00  0.00    -0.030 C 
ENDBRANCH   1   7
BRANCH   3  10
ATOM     10  O   UNL     1     163.710 171.296 170.364  1.00  0.00    -0.493 OA
ATOM     11  C   UNL     1     162.471 171.106 171.039  1.00  0.00     0.278 C 
ENDBRANCH   3  10
BRANCH   4  12
ATOM     12  O   UNL     1     163.665 172.861 168.093  1.00  0.00    -0.504 OA
ATOM     13  H   UNL     1     164.348 173.569 168.336  1.00  0.00     0.293 HD
ENDBRANCH   4  12
TORSDOF 3
ENDMDL
MODEL 7
REMARK VINA RESULT:    -3.765      7.328     10.455
REMARK INTER + INTRA:          -4.491
REMARK INTER:                  -4.313
REMARK INTRA:                  -0.178
REMARK UNBOUND:                -0.175
REMARK SMILES CC=Cc1ccc(O)c(OC)c1
REMARK SMILES IDX 4 1 12 2 9 3 7 4 6 5 5 6 3 7 1 8 2 9 10 10 11 11 8 12
REMARK H PARENT 8 13
REMARK Flexibility Score: inf
ROOT
ATOM      1  C   UNL     1     162.575 164.798 167.665  1.00  0.00    -0.022 A 
ATOM      2  C   UNL     1     162.055 164.468 168.927  1.00  0.00     0.058 A 
ATOM      3  C   UNL     1     160.716 164.053 169.071  1.00  0.00     0.161 A 
ATOM      4  C   UNL     1     159.894 163.980 167.937  1.00  0.00     0.157 A 
ATOM      5  C   UNL     1     160.402 164.323 166.678  1.00  0.00     0.051 A 
ATOM      6  C   UNL     1     161.729 164.733 166.541  1.00  0.00     0.012 A 
ENDROOT
BRANCH   1   7
ATOM      7  C   UNL     1     163.990 165.238 167.573  1.00  0.00     0.003 C 
ATOM      8  C   UNL     1     166.035 165.978 166.416  1.00  0.00     0.035 C 
ATOM      9  C   UNL     1     164.601 165.557 166.426  1.00  0.00    -0.030 C 
ENDBRANCH   1   7
BRANCH   3  10
ATOM     10  O   UNL     1     160.168 163.706 170.316  1.00  0.00    -0.493 OA
ATOM     11  C   UNL     1     160.308 162.430 170.932  1.00  0.00     0.278 C 
ENDBRANCH   3  10
BRANCH   4  12
ATOM     12  O   UNL     1     158.569 163.570 168.072  1.00  0.00    -0.504 OA
ATOM     13  H   UNL     1     158.027 163.257 167.275  1.00  0.00     0.293 HD
ENDBRANCH   4  12
TORSDOF 3
ENDMDL
MODEL 8
REMARK VINA RESULT:    -3.757      8.497     11.643
REMARK INTER + INTRA:          -4.481
REMARK INTER:                  -4.299
REMARK INTRA:                  -0.182
REMARK UNBOUND:                -0.175
REMARK SMILES CC=Cc1ccc(O)c(OC)c1
REMARK SMILES IDX 4 1 12 2 9 3 7 4 6 5 5 6 3 7 1 8 2 9 10 10 11 11 8 12
REMARK H PARENT 8 13
REMARK Flexibility Score: inf
ROOT
ATOM      1  C   UNL     1     161.474 164.527 169.035  1.00  0.00    -0.022 A 
ATOM      2  C   UNL     1     160.261 164.540 169.744  1.00  0.00     0.058 A 
ATOM      3  C   UNL     1     159.027 164.507 169.065  1.00  0.00     0.161 A 
ATOM      4  C   UNL     1     159.014 164.472 167.664  1.00  0.00     0.157 A 
ATOM      5  C   UNL     1     160.219 164.476 166.951  1.00  0.00     0.051 A 
ATOM      6  C   UNL     1     161.439 164.507 167.627  1.00  0.00     0.012 A 
ENDROOT
BRANCH   1   7
ATOM      7  C   UNL     1     162.745 164.572 169.801  1.00  0.00     0.003 C 
ATOM      8  C   UNL     1     165.164 164.925 170.108  1.00  0.00     0.035 C 
ATOM      9  C   UNL     1     163.925 164.918 169.272  1.00  0.00    -0.030 C 
ENDBRANCH   1   7
BRANCH   3  10
ATOM     10  O   UNL     1     157.798 164.508 169.744  1.00  0.00    -0.493 OA
ATOM     11  C   UNL     1     157.324 163.440 170.556  1.00  0.00     0.278 C 
ENDBRANCH   3  10
BRANCH   4  12
ATOM     12  O   UNL     1     157.797 164.439 166.986  1.00  0.00    -0.504 OA
ATOM     13  H   UNL     1     157.404 165.271 166.560  1.00  0.00     0.293 HD
ENDBRANCH   4  12
TORSDOF 3
ENDMDL
MODEL 9
REMARK VINA RESULT:    -3.756      6.973      8.612
REMARK INTER + INTRA:          -4.481
REMARK INTER:                  -4.300
REMARK INTRA:                  -0.180
REMARK UNBOUND:                -0.175
REMARK SMILES CC=Cc1ccc(O)c(OC)c1
REMARK SMILES IDX 4 1 12 2 9 3 7 4 6 5 5 6 3 7 1 8 2 9 10 10 11 11 8 12
REMARK H PARENT 8 13
REMARK Flexibility Score: inf
ROOT
ATOM      1  C   UNL     1     164.520 169.738 169.021  1.00  0.00    -0.022 A 
ATOM      2  C   UNL     1     164.533 170.941 169.746  1.00  0.00     0.058 A 
ATOM      3  C   UNL     1     164.507 172.184 169.083  1.00  0.00     0.161 A 
ATOM      4  C   UNL     1     164.476 172.215 167.682  1.00  0.00     0.157 A 
ATOM      5  C   UNL     1     164.479 171.020 166.953  1.00  0.00     0.051 A 
ATOM      6  C   UNL     1     164.505 169.791 167.614  1.00  0.00     0.012 A 
ENDROOT
BRANCH   1   7
ATOM      7  C   UNL     1     164.559 168.457 169.771  1.00  0.00     0.003 C 
ATOM      8  C   UNL     1     165.076 166.071 170.103  1.00  0.00     0.035 C 
ATOM      9  C   UNL     1     165.089 167.326 169.291  1.00  0.00    -0.030 C 
ENDBRANCH   1   7
BRANCH   3  10
ATOM     10  O   UNL     1     164.509 173.404 169.778  1.00  0.00    -0.493 OA
ATOM     11  C   UNL     1     163.434 173.876 170.583  1.00  0.00     0.278 C 
ENDBRANCH   3  10
BRANCH   4  12
ATOM     12  O   UNL     1     164.449 173.441 167.020  1.00  0.00    -0.504 OA
ATOM     13  H   UNL     1     165.047 173.627 166.223  1.00  0.00     0.293 HD
ENDBRANCH   4  12
TORSDOF 3
ENDMDL
