MODEL 1
REMARK VINA RESULT:    -4.770      0.000      0.000
REMARK INTER + INTRA:          -5.142
REMARK INTER:                  -5.049
REMARK INTRA:                  -0.094
REMARK UNBOUND:                -0.094
REMARK SMILES C=C(C)[C@@H]1CC=C(C)C(=O)C1
REMARK SMILES IDX 8 1 7 2 6 3 5 4 4 5 11 6 9 7 10 8 2 9 1 10 3 11
REMARK H PARENT
REMARK Flexibility Score: inf
ROOT
ATOM      1  C   UNL     1       5.008  20.184   0.898  1.00  0.00     0.048 C 
ATOM      2  C   UNL     1       4.867  20.657   2.318  1.00  0.00    -0.012 C 
ATOM      3  C   UNL     1       5.777  20.293   3.238  1.00  0.00    -0.019 C 
ATOM      4  C   UNL     1       5.695  20.754   4.669  1.00  0.00     0.036 C 
ATOM      5  C   UNL     1       4.230  20.924   5.112  1.00  0.00     0.025 C 
ATOM      6  C   UNL     1       3.486  21.870   4.152  1.00  0.00     0.089 C 
ATOM      7  C   UNL     1       3.662  21.421   2.727  1.00  0.00     0.158 C 
ATOM      8  O   UNL     1       2.789  21.733   1.873  1.00  0.00    -0.295 OA
ENDROOT
BRANCH   5   9
ATOM      9  C   UNL     1       4.129  21.394   6.555  1.00  0.00    -0.077 C 
ATOM     10  C   UNL     1       4.614  22.588   6.941  1.00  0.00     0.008 C 
ATOM     11  C   UNL     1       3.471  20.488   7.564  1.00  0.00     0.039 C 
ENDBRANCH   5   9
TORSDOF 1
ENDMDL
MODEL 2
REMARK VINA RESULT:    -4.696     12.211     14.085
REMARK INTER + INTRA:          -5.064
REMARK INTER:                  -4.972
REMARK INTRA:                  -0.092
REMARK UNBOUND:                -0.094
REMARK SMILES C=C(C)[C@@H]1CC=C(C)C(=O)C1
REMARK SMILES IDX 8 1 7 2 6 3 5 4 4 5 11 6 9 7 10 8 2 9 1 10 3 11
REMARK H PARENT
REMARK Flexibility Score: inf
ROOT
ATOM      1  C   UNL     1       1.835  11.169   9.229  1.00  0.00     0.048 C 
ATOM      2  C   UNL     1       2.172  10.739  10.631  1.00  0.00    -0.012 C 
ATOM      3  C   UNL     1       2.706  11.622  11.491  1.00  0.00    -0.019 C 
ATOM      4  C   UNL     1       3.044  11.251  12.911  1.00  0.00     0.036 C 
ATOM      5  C   UNL     1       3.477   9.775  13.008  1.00  0.00     0.025 C 
ATOM      6  C   UNL     1       2.396   8.859  12.407  1.00  0.00     0.089 C 
ATOM      7  C   UNL     1       2.028   9.314  11.022  1.00  0.00     0.158 C 
ATOM      8  O   UNL     1       1.560   8.477  10.204  1.00  0.00    -0.295 OA
ENDROOT
BRANCH   5   9
ATOM      9  C   UNL     1       3.819   9.382  14.437  1.00  0.00    -0.077 C 
ATOM     10  C   UNL     1       5.084   9.116  14.808  1.00  0.00     0.008 C 
ATOM     11  C   UNL     1       2.704   9.291  15.446  1.00  0.00     0.039 C 
ENDBRANCH   5   9
TORSDOF 1
ENDMDL
MODEL 3
REMARK VINA RESULT:    -4.579      1.215      4.437
REMARK INTER + INTRA:          -4.940
REMARK INTER:                  -4.846
REMARK INTRA:                  -0.095
REMARK UNBOUND:                -0.094
REMARK SMILES C=C(C)[C@@H]1CC=C(C)C(=O)C1
REMARK SMILES IDX 8 1 7 2 6 3 5 4 4 5 11 6 9 7 10 8 2 9 1 10 3 11
REMARK H PARENT
REMARK Flexibility Score: inf
ROOT
ATOM      1  C   UNL     1       4.621  22.027   6.704  1.00  0.00     0.048 C 
ATOM      2  C   UNL     1       4.633  21.529   5.285  1.00  0.00    -0.012 C 
ATOM      3  C   UNL     1       5.726  20.915   4.802  1.00  0.00    -0.019 C 
ATOM      4  C   UNL     1       5.786  20.380   3.395  1.00  0.00     0.036 C 
ATOM      5  C   UNL     1       4.945  21.245   2.438  1.00  0.00     0.025 C 
ATOM      6  C   UNL     1       3.500  21.367   2.955  1.00  0.00     0.089 C 
ATOM      7  C   UNL     1       3.488  21.825   4.388  1.00  0.00     0.158 C 
ATOM      8  O   UNL     1       2.477  22.432   4.830  1.00  0.00    -0.295 OA
ENDROOT
BRANCH   5   9
ATOM      9  C   UNL     1       4.991  20.716   1.013  1.00  0.00    -0.077 C 
ATOM     10  C   UNL     1       5.067  19.398   0.756  1.00  0.00     0.008 C 
ATOM     11  C   UNL     1       4.950  21.703  -0.124  1.00  0.00     0.039 C 
ENDBRANCH   5   9
TORSDOF 1
ENDMDL
MODEL 4
REMARK VINA RESULT:    -4.556      2.128      4.659
REMARK INTER + INTRA:          -4.916
REMARK INTER:                  -4.822
REMARK INTRA:                  -0.094
REMARK UNBOUND:                -0.094
REMARK SMILES C=C(C)[C@@H]1CC=C(C)C(=O)C1
REMARK SMILES IDX 8 1 7 2 6 3 5 4 4 5 11 6 9 7 10 8 2 9 1 10 3 11
REMARK H PARENT
REMARK Flexibility Score: inf
ROOT
ATOM      1  C   UNL     1       1.709  21.399   8.230  1.00  0.00     0.048 C 
ATOM      2  C   UNL     1       2.838  21.177   7.261  1.00  0.00    -0.012 C 
ATOM      3  C   UNL     1       3.537  22.227   6.798  1.00  0.00    -0.019 C 
ATOM      4  C   UNL     1       4.689  22.060   5.841  1.00  0.00     0.036 C 
ATOM      5  C   UNL     1       4.461  20.857   4.906  1.00  0.00     0.025 C 
ATOM      6  C   UNL     1       4.196  19.583   5.727  1.00  0.00     0.089 C 
ATOM      7  C   UNL     1       3.096  19.817   6.725  1.00  0.00     0.158 C 
ATOM      8  O   UNL     1       2.417  18.836   7.132  1.00  0.00    -0.295 OA
ENDROOT
BRANCH   5   9
ATOM      9  C   UNL     1       5.617  20.672   3.936  1.00  0.00    -0.077 C 
ATOM     10  C   UNL     1       6.886  20.556   4.369  1.00  0.00     0.008 C 
ATOM     11  C   UNL     1       5.319  20.622   2.460  1.00  0.00     0.039 C 
ENDBRANCH   5   9
TORSDOF 1
ENDMDL
MODEL 5
REMARK VINA RESULT:    -4.449     12.988     14.974
REMARK INTER + INTRA:          -4.802
REMARK INTER:                  -4.710
REMARK INTRA:                  -0.092
REMARK UNBOUND:                -0.094
REMARK SMILES C=C(C)[C@@H]1CC=C(C)C(=O)C1
REMARK SMILES IDX 8 1 7 2 6 3 5 4 4 5 11 6 9 7 10 8 2 9 1 10 3 11
REMARK H PARENT
REMARK Flexibility Score: inf
ROOT
ATOM      1  C   UNL     1       1.936  10.766  10.192  1.00  0.00     0.048 C 
ATOM      2  C   UNL     1       2.421  10.111  11.456  1.00  0.00    -0.012 C 
ATOM      3  C   UNL     1       2.066   8.845  11.731  1.00  0.00    -0.019 C 
ATOM      4  C   UNL     1       2.538   8.134  12.973  1.00  0.00     0.036 C 
ATOM      5  C   UNL     1       2.708   9.121  14.143  1.00  0.00     0.025 C 
ATOM      6  C   UNL     1       3.644  10.274  13.740  1.00  0.00     0.089 C 
ATOM      7  C   UNL     1       3.184  10.903  12.453  1.00  0.00     0.158 C 
ATOM      8  O   UNL     1       3.487  12.102  12.213  1.00  0.00    -0.295 OA
ENDROOT
BRANCH   5   9
ATOM      9  C   UNL     1       3.188   8.420  15.405  1.00  0.00    -0.077 C 
ATOM     10  C   UNL     1       2.335   8.080  16.387  1.00  0.00     0.008 C 
ATOM     11  C   UNL     1       4.656   8.109  15.542  1.00  0.00     0.039 C 
ENDBRANCH   5   9
TORSDOF 1
ENDMDL
MODEL 6
REMARK VINA RESULT:    -4.326      3.774      4.694
REMARK INTER + INTRA:          -4.672
REMARK INTER:                  -4.574
REMARK INTRA:                  -0.098
REMARK UNBOUND:                -0.094
REMARK SMILES C=C(C)[C@@H]1CC=C(C)C(=O)C1
REMARK SMILES IDX 8 1 7 2 6 3 5 4 4 5 11 6 9 7 10 8 2 9 1 10 3 11
REMARK H PARENT
REMARK Flexibility Score: inf
ROOT
ATOM      1  C   UNL     1       1.683  16.608   6.234  1.00  0.00     0.048 C 
ATOM      2  C   UNL     1       2.053  18.027   6.567  1.00  0.00    -0.012 C 
ATOM      3  C   UNL     1       1.099  18.971   6.625  1.00  0.00    -0.019 C 
ATOM      4  C   UNL     1       1.411  20.403   6.972  1.00  0.00     0.036 C 
ATOM      5  C   UNL     1       2.810  20.802   6.467  1.00  0.00     0.025 C 
ATOM      6  C   UNL     1       3.872  19.827   7.004  1.00  0.00     0.089 C 
ATOM      7  C   UNL     1       3.482  18.405   6.709  1.00  0.00     0.158 C 
ATOM      8  O   UNL     1       4.381  17.527   6.620  1.00  0.00    -0.295 OA
ENDROOT
BRANCH   5   9
ATOM      9  C   UNL     1       3.143  22.245   6.813  1.00  0.00    -0.077 C 
ATOM     10  C   UNL     1       2.178  23.166   6.986  1.00  0.00     0.008 C 
ATOM     11  C   UNL     1       4.591  22.636   6.959  1.00  0.00     0.039 C 
ENDBRANCH   5   9
TORSDOF 1
ENDMDL
MODEL 7
REMARK VINA RESULT:    -4.233     11.809     13.893
REMARK INTER + INTRA:          -4.574
REMARK INTER:                  -4.476
REMARK INTRA:                  -0.098
REMARK UNBOUND:                -0.094
REMARK SMILES C=C(C)[C@@H]1CC=C(C)C(=O)C1
REMARK SMILES IDX 8 1 7 2 6 3 5 4 4 5 11 6 9 7 10 8 2 9 1 10 3 11
REMARK H PARENT
REMARK Flexibility Score: inf
ROOT
ATOM      1  C   UNL     1       3.892   9.732  13.991  1.00  0.00     0.048 C 
ATOM      2  C   UNL     1       3.087   9.737  12.721  1.00  0.00    -0.012 C 
ATOM      3  C   UNL     1       2.641   8.579  12.207  1.00  0.00    -0.019 C 
ATOM      4  C   UNL     1       1.815   8.527  10.949  1.00  0.00     0.036 C 
ATOM      5  C   UNL     1       2.213   9.656   9.980  1.00  0.00     0.025 C 
ATOM      6  C   UNL     1       2.123  11.022  10.682  1.00  0.00     0.089 C 
ATOM      7  C   UNL     1       2.893  11.005  11.973  1.00  0.00     0.158 C 
ATOM      8  O   UNL     1       3.342  12.088  12.436  1.00  0.00    -0.295 OA
ENDROOT
BRANCH   5   9
ATOM      9  C   UNL     1       1.385   9.621   8.704  1.00  0.00    -0.077 C 
ATOM     10  C   UNL     1       0.917   8.464   8.203  1.00  0.00     0.008 C 
ATOM     11  C   UNL     1       1.093  10.920   7.999  1.00  0.00     0.039 C 
ENDBRANCH   5   9
TORSDOF 1
ENDMDL
MODEL 8
REMARK VINA RESULT:    -4.090      1.765      2.393
REMARK INTER + INTRA:          -4.423
REMARK INTER:                  -4.331
REMARK INTRA:                  -0.092
REMARK UNBOUND:                -0.094
REMARK SMILES C=C(C)[C@@H]1CC=C(C)C(=O)C1
REMARK SMILES IDX 8 1 7 2 6 3 5 4 4 5 11 6 9 7 10 8 2 9 1 10 3 11
REMARK H PARENT
REMARK Flexibility Score: inf
ROOT
ATOM      1  C   UNL     1       5.007  21.601   1.292  1.00  0.00     0.048 C 
ATOM      2  C   UNL     1       4.638  21.014   2.626  1.00  0.00    -0.012 C 
ATOM      3  C   UNL     1       3.355  21.014   3.025  1.00  0.00    -0.019 C 
ATOM      4  C   UNL     1       2.927  20.423   4.342  1.00  0.00     0.036 C 
ATOM      5  C   UNL     1       4.028  20.589   5.407  1.00  0.00     0.025 C 
ATOM      6  C   UNL     1       5.355  19.993   4.903  1.00  0.00     0.089 C 
ATOM      7  C   UNL     1       5.703  20.548   3.549  1.00  0.00     0.158 C 
ATOM      8  O   UNL     1       6.911  20.579   3.190  1.00  0.00    -0.295 OA
ENDROOT
BRANCH   5   9
ATOM      9  C   UNL     1       3.614  19.992   6.743  1.00  0.00    -0.077 C 
ATOM     10  C   UNL     1       3.161  20.765   7.746  1.00  0.00     0.008 C 
ATOM     11  C   UNL     1       3.721  18.501   6.931  1.00  0.00     0.039 C 
ENDBRANCH   5   9
TORSDOF 1
ENDMDL
MODEL 9
REMARK VINA RESULT:    -3.924     11.335     12.846
REMARK INTER + INTRA:          -4.247
REMARK INTER:                  -4.151
REMARK INTRA:                  -0.096
REMARK UNBOUND:                -0.094
REMARK SMILES C=C(C)[C@@H]1CC=C(C)C(=O)C1
REMARK SMILES IDX 8 1 7 2 6 3 5 4 4 5 11 6 9 7 10 8 2 9 1 10 3 11
REMARK H PARENT
REMARK Flexibility Score: inf
ROOT
ATOM      1  C   UNL     1       1.592  11.423   6.505  1.00  0.00     0.048 C 
ATOM      2  C   UNL     1       1.611  10.838   7.891  1.00  0.00    -0.012 C 
ATOM      3  C   UNL     1       1.414  11.634   8.955  1.00  0.00    -0.019 C 
ATOM      4  C   UNL     1       1.404  11.099  10.363  1.00  0.00     0.036 C 
ATOM      5  C   UNL     1       2.364   9.903  10.506  1.00  0.00     0.025 C 
ATOM      6  C   UNL     1       2.028   8.819   9.467  1.00  0.00     0.089 C 
ATOM      7  C   UNL     1       1.967   9.411   8.086  1.00  0.00     0.158 C 
ATOM      8  O   UNL     1       2.187   8.670   7.090  1.00  0.00    -0.295 OA
ENDROOT
BRANCH   5   9
ATOM      9  C   UNL     1       2.363   9.347  11.922  1.00  0.00    -0.077 C 
ATOM     10  C   UNL     1       1.676   8.235  12.239  1.00  0.00     0.008 C 
ATOM     11  C   UNL     1       3.153  10.071  12.981  1.00  0.00     0.039 C 
ENDBRANCH   5   9
TORSDOF 1
ENDMDL
