MODEL 1
REMARK VINA RESULT:    11.924      0.000      0.000
REMARK INTER + INTRA:          26.228
REMARK INTER:                  22.381
REMARK INTRA:                   3.847
REMARK UNBOUND:                 3.847
REMARK SMILES O=C([O-])CCCCCCCCCCCCCCC(=O)[O-]
REMARK SMILES IDX 10 1 9 2 8 3 7 4 6 5 5 6 4 7 2 8 1 9 3 10 11 11 12 12 13 13
REMARK SMILES IDX 14 14 15 15 16 16 17 17 18 18 19 19 20 20
REMARK H PARENT
REMARK Flexibility Score: inf
ROOT
ATOM      1  C   UNL     1     -16.979  23.503 -19.164  1.00  0.00     0.000 C 
ENDROOT
BRANCH   1   2
ATOM      2  C   UNL     1     -15.902  22.883 -20.072  1.00  0.00     0.000 C 
BRANCH   2   3
ATOM      3  C   UNL     1     -16.172  23.120 -21.565  1.00  0.00     0.000 C 
BRANCH   3   4
ATOM      4  C   UNL     1     -14.904  22.891 -22.395  1.00  0.00     0.000 C 
BRANCH   4   5
ATOM      5  C   UNL     1     -13.653  22.905 -21.504  1.00  0.00     0.000 C 
BRANCH   5   6
ATOM      6  C   UNL     1     -12.344  22.878 -22.313  1.00  0.00     0.006 C 
BRANCH   6   7
ATOM      7  C   UNL     1     -11.992  24.211 -22.994  1.00  0.00     0.053 C 
BRANCH   7   8
ATOM      8  C   UNL     1     -13.168  25.136 -23.059  1.00  0.00     0.041 C 
ATOM      9  O   UNL     1     -12.994  26.383 -23.066  1.00  0.00    -0.550 OA
ATOM     10  O   UNL     1     -14.458  24.622 -23.077  1.00  0.00    -0.550 OA
ENDBRANCH   7   8
ENDBRANCH   6   7
ENDBRANCH   5   6
ENDBRANCH   4   5
ENDBRANCH   3   4
ENDBRANCH   2   3
ENDBRANCH   1   2
BRANCH   1  11
ATOM     11  C   UNL     1     -16.585  23.628 -17.678  1.00  0.00     0.000 C 
BRANCH  11  12
ATOM     12  C   UNL     1     -16.182  25.045 -17.221  1.00  0.00     0.000 C 
BRANCH  12  13
ATOM     13  C   UNL     1     -16.957  26.193 -17.894  1.00  0.00     0.000 C 
BRANCH  13  14
ATOM     14  C   UNL     1     -16.080  27.033 -18.837  1.00  0.00     0.000 C 
BRANCH  14  15
ATOM     15  C   UNL     1     -16.893  28.064 -19.635  1.00  0.00     0.000 C 
BRANCH  15  16
ATOM     16  C   UNL     1     -18.412  27.869 -19.486  1.00  0.00     0.006 C 
BRANCH  16  17
ATOM     17  C   UNL     1     -19.202  28.634 -20.557  1.00  0.00     0.053 C 
BRANCH  17  18
ATOM     18  C   UNL     1     -18.468  28.677 -21.862  1.00  0.00     0.041 C 
ATOM     19  O   UNL     1     -18.367  29.760 -22.497  1.00  0.00    -0.550 OA
ATOM     20  O   UNL     1     -17.927  27.514 -22.396  1.00  0.00    -0.550 OA
ENDBRANCH  17  18
ENDBRANCH  16  17
ENDBRANCH  15  16
ENDBRANCH  14  15
ENDBRANCH  13  14
ENDBRANCH  12  13
ENDBRANCH  11  12
ENDBRANCH   1  11
TORSDOF 15
ENDMDL
MODEL 2
REMARK VINA RESULT:    12.047      7.100      9.178
REMARK INTER + INTRA:          26.458
REMARK INTER:                  26.881
REMARK INTRA:                  -0.423
REMARK UNBOUND:                 3.847
REMARK SMILES O=C([O-])CCCCCCCCCCCCCCC(=O)[O-]
REMARK SMILES IDX 10 1 9 2 8 3 7 4 6 5 5 6 4 7 2 8 1 9 3 10 11 11 12 12 13 13
REMARK SMILES IDX 14 14 15 15 16 16 17 17 18 18 19 19 20 20
REMARK H PARENT
REMARK Flexibility Score: inf
ROOT
ATOM      1  C   UNL     1     -13.072  32.759 -21.217  1.00  0.00     0.000 C 
ENDROOT
BRANCH   1   2
ATOM      2  C   UNL     1     -11.639  33.091 -21.670  1.00  0.00     0.000 C 
BRANCH   2   3
ATOM      3  C   UNL     1     -10.872  33.940 -20.645  1.00  0.00     0.000 C 
BRANCH   3   4
ATOM      4  C   UNL     1      -9.599  33.222 -20.180  1.00  0.00     0.000 C 
BRANCH   4   5
ATOM      5  C   UNL     1      -8.940  33.973 -19.013  1.00  0.00     0.000 C 
BRANCH   5   6
ATOM      6  C   UNL     1      -8.529  33.039 -17.860  1.00  0.00     0.006 C 
BRANCH   6   7
ATOM      7  C   UNL     1      -8.445  33.726 -16.487  1.00  0.00     0.053 C 
BRANCH   7   8
ATOM      8  C   UNL     1      -8.090  32.762 -15.397  1.00  0.00     0.041 C 
ATOM      9  O   UNL     1      -8.137  31.521 -15.609  1.00  0.00    -0.550 OA
ATOM     10  O   UNL     1      -7.740  33.232 -14.138  1.00  0.00    -0.550 OA
ENDBRANCH   7   8
ENDBRANCH   6   7
ENDBRANCH   5   6
ENDBRANCH   4   5
ENDBRANCH   3   4
ENDBRANCH   2   3
ENDBRANCH   1   2
BRANCH   1  11
ATOM     11  C   UNL     1     -13.311  31.282 -20.843  1.00  0.00     0.000 C 
BRANCH  11  12
ATOM     12  C   UNL     1     -14.782  30.903 -20.573  1.00  0.00     0.000 C 
BRANCH  12  13
ATOM     13  C   UNL     1     -15.003  29.955 -19.380  1.00  0.00     0.000 C 
BRANCH  13  14
ATOM     14  C   UNL     1     -15.614  28.606 -19.796  1.00  0.00     0.000 C 
BRANCH  14  15
ATOM     15  C   UNL     1     -16.466  27.977 -18.682  1.00  0.00     0.000 C 
BRANCH  15  16
ATOM     16  C   UNL     1     -17.143  26.666 -19.120  1.00  0.00     0.006 C 
BRANCH  16  17
ATOM     17  C   UNL     1     -16.806  25.499 -18.182  1.00  0.00     0.053 C 
BRANCH  17  18
ATOM     18  C   UNL     1     -16.310  24.305 -18.939  1.00  0.00     0.041 C 
ATOM     19  O   UNL     1     -15.999  24.408 -20.154  1.00  0.00    -0.550 OA
ATOM     20  O   UNL     1     -16.227  23.068 -18.310  1.00  0.00    -0.550 OA
ENDBRANCH  17  18
ENDBRANCH  16  17
ENDBRANCH  15  16
ENDBRANCH  14  15
ENDBRANCH  13  14
ENDBRANCH  12  13
ENDBRANCH  11  12
ENDBRANCH   1  11
TORSDOF 15
ENDMDL
MODEL 3
REMARK VINA RESULT:    12.090      7.085      9.339
REMARK INTER + INTRA:          26.539
REMARK INTER:                  26.967
REMARK INTRA:                  -0.428
REMARK UNBOUND:                 3.847
REMARK SMILES O=C([O-])CCCCCCCCCCCCCCC(=O)[O-]
REMARK SMILES IDX 10 1 9 2 8 3 7 4 6 5 5 6 4 7 2 8 1 9 3 10 11 11 12 12 13 13
REMARK SMILES IDX 14 14 15 15 16 16 17 17 18 18 19 19 20 20
REMARK H PARENT
REMARK Flexibility Score: inf
ROOT
ATOM      1  C   UNL     1     -13.331  31.060 -20.899  1.00  0.00     0.000 C 
ENDROOT
BRANCH   1   2
ATOM      2  C   UNL     1     -14.806  31.033 -20.461  1.00  0.00     0.000 C 
BRANCH   2   3
ATOM      3  C   UNL     1     -15.066  30.065 -19.298  1.00  0.00     0.000 C 
BRANCH   3   4
ATOM      4  C   UNL     1     -15.661  28.746 -19.804  1.00  0.00     0.000 C 
BRANCH   4   5
ATOM      5  C   UNL     1     -16.445  28.034 -18.691  1.00  0.00     0.000 C 
BRANCH   5   6
ATOM      6  C   UNL     1     -17.069  26.706 -19.157  1.00  0.00     0.006 C 
BRANCH   6   7
ATOM      7  C   UNL     1     -16.855  25.531 -18.189  1.00  0.00     0.053 C 
BRANCH   7   8
ATOM      8  C   UNL     1     -16.318  24.319 -18.887  1.00  0.00     0.041 C 
ATOM      9  O   UNL     1     -15.986  24.382 -20.100  1.00  0.00    -0.550 OA
ATOM     10  O   UNL     1     -16.215  23.112 -18.207  1.00  0.00    -0.550 OA
ENDBRANCH   7   8
ENDBRANCH   6   7
ENDBRANCH   5   6
ENDBRANCH   4   5
ENDBRANCH   3   4
ENDBRANCH   2   3
ENDBRANCH   1   2
BRANCH   1  11
ATOM     11  C   UNL     1     -12.940  32.250 -21.798  1.00  0.00     0.000 C 
BRANCH  11  12
ATOM     12  C   UNL     1     -12.158  33.377 -21.092  1.00  0.00     0.000 C 
BRANCH  12  13
ATOM     13  C   UNL     1     -10.668  33.082 -20.843  1.00  0.00     0.000 C 
BRANCH  13  14
ATOM     14  C   UNL     1      -9.968  34.185 -20.031  1.00  0.00     0.000 C 
BRANCH  14  15
ATOM     15  C   UNL     1      -8.757  33.660 -19.245  1.00  0.00     0.000 C 
BRANCH  15  16
ATOM     16  C   UNL     1      -8.976  33.694 -17.722  1.00  0.00     0.006 C 
BRANCH  16  17
ATOM     17  C   UNL     1      -7.693  33.370 -16.945  1.00  0.00     0.053 C 
BRANCH  17  18
ATOM     18  C   UNL     1      -7.991  32.800 -15.592  1.00  0.00     0.041 C 
ATOM     19  O   UNL     1      -7.815  33.496 -14.558  1.00  0.00    -0.550 OA
ATOM     20  O   UNL     1      -8.431  31.487 -15.472  1.00  0.00    -0.550 OA
ENDBRANCH  17  18
ENDBRANCH  16  17
ENDBRANCH  15  16
ENDBRANCH  14  15
ENDBRANCH  13  14
ENDBRANCH  12  13
ENDBRANCH  11  12
ENDBRANCH   1  11
TORSDOF 15
ENDMDL
MODEL 4
REMARK VINA RESULT:    12.232     14.877     16.498
REMARK INTER + INTRA:          26.806
REMARK INTER:                  27.031
REMARK INTRA:                  -0.226
REMARK UNBOUND:                 3.847
REMARK SMILES O=C([O-])CCCCCCCCCCCCCCC(=O)[O-]
REMARK SMILES IDX 10 1 9 2 8 3 7 4 6 5 5 6 4 7 2 8 1 9 3 10 11 11 12 12 13 13
REMARK SMILES IDX 14 14 15 15 16 16 17 17 18 18 19 19 20 20
REMARK H PARENT
REMARK Flexibility Score: inf
ROOT
ATOM      1  C   UNL     1      -7.861  38.277 -15.922  1.00  0.00     0.000 C 
ENDROOT
BRANCH   1   2
ATOM      2  C   UNL     1      -6.833  37.889 -17.000  1.00  0.00     0.000 C 
BRANCH   2   3
ATOM      3  C   UNL     1      -5.907  36.747 -16.557  1.00  0.00     0.000 C 
BRANCH   3   4
ATOM      4  C   UNL     1      -5.875  35.628 -17.604  1.00  0.00     0.000 C 
BRANCH   4   5
ATOM      5  C   UNL     1      -6.331  34.293 -16.995  1.00  0.00     0.000 C 
BRANCH   5   6
ATOM      6  C   UNL     1      -7.861  34.123 -17.008  1.00  0.00     0.006 C 
BRANCH   6   7
ATOM      7  C   UNL     1      -8.449  33.573 -15.698  1.00  0.00     0.053 C 
BRANCH   7   8
ATOM      8  C   UNL     1      -8.268  32.091 -15.581  1.00  0.00     0.041 C 
ATOM      9  O   UNL     1      -8.172  31.380 -16.616  1.00  0.00    -0.550 OA
ATOM     10  O   UNL     1      -8.240  31.489 -14.330  1.00  0.00    -0.550 OA
ENDBRANCH   7   8
ENDBRANCH   6   7
ENDBRANCH   5   6
ENDBRANCH   4   5
ENDBRANCH   3   4
ENDBRANCH   2   3
ENDBRANCH   1   2
BRANCH   1  11
ATOM     11  C   UNL     1      -8.497  39.671 -16.101  1.00  0.00     0.000 C 
BRANCH  11  12
ATOM     12  C   UNL     1      -8.760  40.445 -14.792  1.00  0.00     0.000 C 
BRANCH  12  13
ATOM     13  C   UNL     1      -7.904  41.709 -14.598  1.00  0.00     0.000 C 
BRANCH  13  14
ATOM     14  C   UNL     1      -7.006  41.636 -13.352  1.00  0.00     0.000 C 
BRANCH  14  15
ATOM     15  C   UNL     1      -7.756  42.005 -12.063  1.00  0.00     0.000 C 
BRANCH  15  16
ATOM     16  C   UNL     1      -9.234  41.578 -12.090  1.00  0.00     0.006 C 
BRANCH  16  17
ATOM     17  C   UNL     1      -9.675  40.933 -10.769  1.00  0.00     0.053 C 
BRANCH  17  18
ATOM     18  C   UNL     1     -11.115  41.216 -10.467  1.00  0.00     0.041 C 
ATOM     19  O   UNL     1     -11.423  42.072  -9.597  1.00  0.00    -0.550 OA
ATOM     20  O   UNL     1     -12.116  40.508 -11.121  1.00  0.00    -0.550 OA
ENDBRANCH  17  18
ENDBRANCH  16  17
ENDBRANCH  15  16
ENDBRANCH  14  15
ENDBRANCH  13  14
ENDBRANCH  12  13
ENDBRANCH  11  12
ENDBRANCH   1  11
TORSDOF 15
ENDMDL
MODEL 5
REMARK VINA RESULT:    12.854      8.134     10.015
REMARK INTER + INTRA:          27.973
REMARK INTER:                  28.417
REMARK INTRA:                  -0.444
REMARK UNBOUND:                 3.847
REMARK SMILES O=C([O-])CCCCCCCCCCCCCCC(=O)[O-]
REMARK SMILES IDX 10 1 9 2 8 3 7 4 6 5 5 6 4 7 2 8 1 9 3 10 11 11 12 12 13 13
REMARK SMILES IDX 14 14 15 15 16 16 17 17 18 18 19 19 20 20
REMARK H PARENT
REMARK Flexibility Score: inf
ROOT
ATOM      1  C   UNL     1     -11.577  33.155 -21.646  1.00  0.00     0.000 C 
ENDROOT
BRANCH   1   2
ATOM      2  C   UNL     1     -10.588  34.002 -20.826  1.00  0.00     0.000 C 
BRANCH   2   3
ATOM      3  C   UNL     1      -9.656  33.150 -19.952  1.00  0.00     0.000 C 
BRANCH   3   4
ATOM      4  C   UNL     1      -9.111  33.965 -18.773  1.00  0.00     0.000 C 
BRANCH   4   5
ATOM      5  C   UNL     1      -8.507  33.045 -17.701  1.00  0.00     0.000 C 
BRANCH   5   6
ATOM      6  C   UNL     1      -8.049  33.811 -16.447  1.00  0.00     0.006 C 
BRANCH   6   7
ATOM      7  C   UNL     1      -6.536  34.082 -16.387  1.00  0.00     0.053 C 
BRANCH   7   8
ATOM      8  C   UNL     1      -6.172  35.381 -17.037  1.00  0.00     0.041 C 
ATOM      9  O   UNL     1      -5.979  36.408 -16.334  1.00  0.00    -0.550 OA
ATOM     10  O   UNL     1      -6.078  35.467 -18.420  1.00  0.00    -0.550 OA
ENDBRANCH   7   8
ENDBRANCH   6   7
ENDBRANCH   5   6
ENDBRANCH   4   5
ENDBRANCH   3   4
ENDBRANCH   2   3
ENDBRANCH   1   2
BRANCH   1  11
ATOM     11  C   UNL     1     -12.843  32.713 -20.884  1.00  0.00     0.000 C 
BRANCH  11  12
ATOM     12  C   UNL     1     -13.265  31.246 -21.106  1.00  0.00     0.000 C 
BRANCH  12  13
ATOM     13  C   UNL     1     -14.037  30.604 -19.940  1.00  0.00     0.000 C 
BRANCH  13  14
ATOM     14  C   UNL     1     -15.190  29.703 -20.411  1.00  0.00     0.000 C 
BRANCH  14  15
ATOM     15  C   UNL     1     -15.920  29.021 -19.244  1.00  0.00     0.000 C 
BRANCH  15  16
ATOM     16  C   UNL     1     -16.329  27.572 -19.564  1.00  0.00     0.006 C 
BRANCH  16  17
ATOM     17  C   UNL     1     -16.824  26.822 -18.320  1.00  0.00     0.053 C 
BRANCH  17  18
ATOM     18  C   UNL     1     -16.714  25.337 -18.486  1.00  0.00     0.041 C 
ATOM     19  O   UNL     1     -16.964  24.570 -17.520  1.00  0.00    -0.550 OA
ATOM     20  O   UNL     1     -16.299  24.802 -19.700  1.00  0.00    -0.550 OA
ENDBRANCH  17  18
ENDBRANCH  16  17
ENDBRANCH  15  16
ENDBRANCH  14  15
ENDBRANCH  13  14
ENDBRANCH  12  13
ENDBRANCH  11  12
ENDBRANCH   1  11
TORSDOF 15
ENDMDL
MODEL 6
REMARK VINA RESULT:    13.101     14.912     17.686
REMARK INTER + INTRA:          28.437
REMARK INTER:                  29.163
REMARK INTRA:                  -0.726
REMARK UNBOUND:                 3.847
REMARK SMILES O=C([O-])CCCCCCCCCCCCCCC(=O)[O-]
REMARK SMILES IDX 10 1 9 2 8 3 7 4 6 5 5 6 4 7 2 8 1 9 3 10 11 11 12 12 13 13
REMARK SMILES IDX 14 14 15 15 16 16 17 17 18 18 19 19 20 20
REMARK H PARENT
REMARK Flexibility Score: inf
ROOT
ATOM      1  C   UNL     1      -7.814  39.412 -15.185  1.00  0.00     0.000 C 
ENDROOT
BRANCH   1   2
ATOM      2  C   UNL     1      -8.775  40.613 -15.254  1.00  0.00     0.000 C 
BRANCH   2   3
ATOM      3  C   UNL     1      -8.183  41.886 -14.632  1.00  0.00     0.000 C 
BRANCH   3   4
ATOM      4  C   UNL     1      -7.285  41.547 -13.437  1.00  0.00     0.000 C 
BRANCH   4   5
ATOM      5  C   UNL     1      -8.013  41.811 -12.110  1.00  0.00     0.000 C 
BRANCH   5   6
ATOM      6  C   UNL     1      -9.021  40.703 -11.753  1.00  0.00     0.006 C 
BRANCH   6   7
ATOM      7  C   UNL     1      -9.651  40.846 -10.357  1.00  0.00     0.053 C 
BRANCH   7   8
ATOM      8  C   UNL     1     -11.089  41.258 -10.430  1.00  0.00     0.041 C 
ATOM      9  O   UNL     1     -11.454  42.368  -9.959  1.00  0.00    -0.550 OA
ATOM     10  O   UNL     1     -12.031  40.404 -10.986  1.00  0.00    -0.550 OA
ENDBRANCH   7   8
ENDBRANCH   6   7
ENDBRANCH   5   6
ENDBRANCH   4   5
ENDBRANCH   3   4
ENDBRANCH   2   3
ENDBRANCH   1   2
BRANCH   1  11
ATOM     11  C   UNL     1      -7.649  38.634 -16.507  1.00  0.00     0.000 C 
BRANCH  11  12
ATOM     12  C   UNL     1      -6.624  37.481 -16.466  1.00  0.00     0.000 C 
BRANCH  12  13
ATOM     13  C   UNL     1      -5.942  37.166 -17.810  1.00  0.00     0.000 C 
BRANCH  13  14
ATOM     14  C   UNL     1      -5.889  35.659 -18.112  1.00  0.00     0.000 C 
BRANCH  14  15
ATOM     15  C   UNL     1      -6.057  34.798 -16.851  1.00  0.00     0.000 C 
BRANCH  15  16
ATOM     16  C   UNL     1      -7.295  33.887 -16.913  1.00  0.00     0.006 C 
BRANCH  16  17
ATOM     17  C   UNL     1      -7.773  33.464 -15.517  1.00  0.00     0.053 C 
BRANCH  17  18
ATOM     18  C   UNL     1      -8.273  32.052 -15.505  1.00  0.00     0.041 C 
ATOM     19  O   UNL     1      -8.202  31.346 -16.545  1.00  0.00    -0.550 OA
ATOM     20  O   UNL     1      -8.852  31.528 -14.356  1.00  0.00    -0.550 OA
ENDBRANCH  17  18
ENDBRANCH  16  17
ENDBRANCH  15  16
ENDBRANCH  14  15
ENDBRANCH  13  14
ENDBRANCH  12  13
ENDBRANCH  11  12
ENDBRANCH   1  11
TORSDOF 15
ENDMDL
MODEL 7
REMARK VINA RESULT:    13.142     14.105     15.732
REMARK INTER + INTRA:          28.513
REMARK INTER:                  29.068
REMARK INTRA:                  -0.555
REMARK UNBOUND:                 3.847
REMARK SMILES O=C([O-])CCCCCCCCCCCCCCC(=O)[O-]
REMARK SMILES IDX 10 1 9 2 8 3 7 4 6 5 5 6 4 7 2 8 1 9 3 10 11 11 12 12 13 13
REMARK SMILES IDX 14 14 15 15 16 16 17 17 18 18 19 19 20 20
REMARK H PARENT
REMARK Flexibility Score: inf
ROOT
ATOM      1  C   UNL     1      -8.068  38.404 -15.996  1.00  0.00     0.000 C 
ENDROOT
BRANCH   1   2
ATOM      2  C   UNL     1      -6.687  38.206 -16.646  1.00  0.00     0.000 C 
BRANCH   2   3
ATOM      3  C   UNL     1      -6.123  36.795 -16.429  1.00  0.00     0.000 C 
BRANCH   3   4
ATOM      4  C   UNL     1      -6.104  36.003 -17.742  1.00  0.00     0.000 C 
BRANCH   4   5
ATOM      5  C   UNL     1      -6.509  34.540 -17.506  1.00  0.00     0.000 C 
BRANCH   5   6
ATOM      6  C   UNL     1      -6.647  34.192 -16.013  1.00  0.00     0.006 C 
BRANCH   6   7
ATOM      7  C   UNL     1      -8.054  33.733 -15.596  1.00  0.00     0.053 C 
BRANCH   7   8
ATOM      8  C   UNL     1      -8.271  32.275 -15.861  1.00  0.00     0.041 C 
ATOM      9  O   UNL     1      -8.594  31.502 -14.921  1.00  0.00    -0.550 OA
ATOM     10  O   UNL     1      -8.085  31.765 -17.139  1.00  0.00    -0.550 OA
ENDBRANCH   7   8
ENDBRANCH   6   7
ENDBRANCH   5   6
ENDBRANCH   4   5
ENDBRANCH   3   4
ENDBRANCH   2   3
ENDBRANCH   1   2
BRANCH   1  11
ATOM     11  C   UNL     1      -8.472  39.873 -15.759  1.00  0.00     0.000 C 
BRANCH  11  12
ATOM     12  C   UNL     1      -9.688  40.079 -14.832  1.00  0.00     0.000 C 
BRANCH  12  13
ATOM     13  C   UNL     1      -9.407  40.897 -13.558  1.00  0.00     0.000 C 
BRANCH  13  14
ATOM     14  C   UNL     1     -10.307  40.492 -12.378  1.00  0.00     0.000 C 
BRANCH  14  15
ATOM     15  C   UNL     1     -11.077  41.683 -11.789  1.00  0.00     0.000 C 
BRANCH  15  16
ATOM     16  C   UNL     1     -12.443  41.901 -12.464  1.00  0.00     0.006 C 
BRANCH  16  17
ATOM     17  C   UNL     1     -12.327  42.729 -13.751  1.00  0.00     0.053 C 
BRANCH  17  18
ATOM     18  C   UNL     1     -13.399  42.377 -14.736  1.00  0.00     0.041 C 
ATOM     19  O   UNL     1     -14.450  41.800 -14.350  1.00  0.00    -0.550 OA
ATOM     20  O   UNL     1     -13.222  42.653 -16.086  1.00  0.00    -0.550 OA
ENDBRANCH  17  18
ENDBRANCH  16  17
ENDBRANCH  15  16
ENDBRANCH  14  15
ENDBRANCH  13  14
ENDBRANCH  12  13
ENDBRANCH  11  12
ENDBRANCH   1  11
TORSDOF 15
ENDMDL
MODEL 8
REMARK VINA RESULT:    13.525     17.250     19.047
REMARK INTER + INTRA:          29.232
REMARK INTER:                  29.568
REMARK INTRA:                  -0.336
REMARK UNBOUND:                 3.847
REMARK SMILES O=C([O-])CCCCCCCCCCCCCCC(=O)[O-]
REMARK SMILES IDX 10 1 9 2 8 3 7 4 6 5 5 6 4 7 2 8 1 9 3 10 11 11 12 12 13 13
REMARK SMILES IDX 14 14 15 15 16 16 17 17 18 18 19 19 20 20
REMARK H PARENT
REMARK Flexibility Score: inf
ROOT
ATOM      1  C   UNL     1      -7.518  41.158 -11.376  1.00  0.00     0.000 C 
ENDROOT
BRANCH   1   2
ATOM      2  C   UNL     1      -7.244  42.332 -12.332  1.00  0.00     0.000 C 
BRANCH   2   3
ATOM      3  C   UNL     1      -7.224  41.907 -13.808  1.00  0.00     0.000 C 
BRANCH   3   4
ATOM      4  C   UNL     1      -8.616  41.458 -14.269  1.00  0.00     0.000 C 
BRANCH   4   5
ATOM      5  C   UNL     1      -9.716  42.155 -13.455  1.00  0.00     0.000 C 
BRANCH   5   6
ATOM      6  C   UNL     1     -11.127  41.644 -13.798  1.00  0.00     0.006 C 
BRANCH   6   7
ATOM      7  C   UNL     1     -12.211  42.734 -13.811  1.00  0.00     0.053 C 
BRANCH   7   8
ATOM      8  C   UNL     1     -13.330  42.403 -14.749  1.00  0.00     0.041 C 
ATOM      9  O   UNL     1     -13.208  42.623 -15.983  1.00  0.00    -0.550 OA
ATOM     10  O   UNL     1     -14.520  41.883 -14.258  1.00  0.00    -0.550 OA
ENDBRANCH   7   8
ENDBRANCH   6   7
ENDBRANCH   5   6
ENDBRANCH   4   5
ENDBRANCH   3   4
ENDBRANCH   2   3
ENDBRANCH   1   2
BRANCH   1  11
ATOM     11  C   UNL     1      -8.592  41.429 -10.303  1.00  0.00     0.000 C 
BRANCH  11  12
ATOM     12  C   UNL     1     -10.013  40.943 -10.658  1.00  0.00     0.000 C 
BRANCH  12  13
ATOM     13  C   UNL     1     -11.158  41.804 -10.095  1.00  0.00     0.000 C 
BRANCH  13  14
ATOM     14  C   UNL     1     -12.048  41.039  -9.101  1.00  0.00     0.000 C 
BRANCH  14  15
ATOM     15  C   UNL     1     -12.680  39.784  -9.722  1.00  0.00     0.000 C 
BRANCH  15  16
ATOM     16  C   UNL     1     -13.524  38.982  -8.715  1.00  0.00     0.006 C 
BRANCH  16  17
ATOM     17  C   UNL     1     -14.372  37.903  -9.401  1.00  0.00     0.053 C 
BRANCH  17  18
ATOM     18  C   UNL     1     -15.819  38.016  -9.030  1.00  0.00     0.041 C 
ATOM     19  O   UNL     1     -16.404  39.129  -9.089  1.00  0.00    -0.550 OA
ATOM     20  O   UNL     1     -16.513  36.897  -8.585  1.00  0.00    -0.550 OA
ENDBRANCH  17  18
ENDBRANCH  16  17
ENDBRANCH  15  16
ENDBRANCH  14  15
ENDBRANCH  13  14
ENDBRANCH  12  13
ENDBRANCH  11  12
ENDBRANCH   1  11
TORSDOF 15
ENDMDL
MODEL 9
REMARK VINA RESULT:    13.546     16.876     19.000
REMARK INTER + INTRA:          29.271
REMARK INTER:                  29.768
REMARK INTRA:                  -0.497
REMARK UNBOUND:                 3.847
REMARK SMILES O=C([O-])CCCCCCCCCCCCCCC(=O)[O-]
REMARK SMILES IDX 10 1 9 2 8 3 7 4 6 5 5 6 4 7 2 8 1 9 3 10 11 11 12 12 13 13
REMARK SMILES IDX 14 14 15 15 16 16 17 17 18 18 19 19 20 20
REMARK H PARENT
REMARK Flexibility Score: inf
ROOT
ATOM      1  C   UNL     1      -9.487  41.641  -9.685  1.00  0.00     0.000 C 
ENDROOT
BRANCH   1   2
ATOM      2  C   UNL     1     -11.024  41.620  -9.757  1.00  0.00     0.000 C 
BRANCH   2   3
ATOM      3  C   UNL     1     -11.562  40.557 -10.725  1.00  0.00     0.000 C 
BRANCH   3   4
ATOM      4  C   UNL     1     -12.983  40.130 -10.339  1.00  0.00     0.000 C 
BRANCH   4   5
ATOM      5  C   UNL     1     -12.989  39.401  -8.987  1.00  0.00     0.000 C 
BRANCH   5   6
ATOM      6  C   UNL     1     -13.458  37.939  -9.099  1.00  0.00     0.006 C 
BRANCH   6   7
ATOM      7  C   UNL     1     -14.780  37.754  -9.862  1.00  0.00     0.053 C 
BRANCH   7   8
ATOM      8  C   UNL     1     -15.965  38.152  -9.037  1.00  0.00     0.041 C 
ATOM      9  O   UNL     1     -16.341  37.427  -8.079  1.00  0.00    -0.550 OA
ATOM     10  O   UNL     1     -16.674  39.305  -9.347  1.00  0.00    -0.550 OA
ENDBRANCH   7   8
ENDBRANCH   6   7
ENDBRANCH   5   6
ENDBRANCH   4   5
ENDBRANCH   3   4
ENDBRANCH   2   3
ENDBRANCH   1   2
BRANCH   1  11
ATOM     11  C   UNL     1      -8.773  40.854 -10.802  1.00  0.00     0.000 C 
BRANCH  11  12
ATOM     12  C   UNL     1      -7.734  41.658 -11.611  1.00  0.00     0.000 C 
BRANCH  12  13
ATOM     13  C   UNL     1      -7.928  41.625 -13.138  1.00  0.00     0.000 C 
BRANCH  13  14
ATOM     14  C   UNL     1      -9.217  42.332 -13.591  1.00  0.00     0.000 C 
BRANCH  14  15
ATOM     15  C   UNL     1     -10.408  41.368 -13.706  1.00  0.00     0.000 C 
BRANCH  15  16
ATOM     16  C   UNL     1     -11.722  41.982 -13.191  1.00  0.00     0.006 C 
BRANCH  16  17
ATOM     17  C   UNL     1     -12.301  43.013 -14.169  1.00  0.00     0.053 C 
BRANCH  17  18
ATOM     18  C   UNL     1     -13.410  42.434 -14.993  1.00  0.00     0.041 C 
ATOM     19  O   UNL     1     -14.416  41.923 -14.434  1.00  0.00    -0.550 OA
ATOM     20  O   UNL     1     -13.316  42.426 -16.380  1.00  0.00    -0.550 OA
ENDBRANCH  17  18
ENDBRANCH  16  17
ENDBRANCH  15  16
ENDBRANCH  14  15
ENDBRANCH  13  14
ENDBRANCH  12  13
ENDBRANCH  11  12
ENDBRANCH   1  11
TORSDOF 15
ENDMDL
