MODEL 1
REMARK VINA RESULT:    -3.015      0.000      0.000
REMARK INTER + INTRA:          -3.396
REMARK INTER:                  -3.367
REMARK INTRA:                  -0.029
REMARK UNBOUND:                -0.029
REMARK SMILES CCCC(=O)[O-]
REMARK SMILES IDX 3 1 4 2 5 3 6 4 2 5 1 6
REMARK H PARENT
REMARK Flexibility Score: inf
ROOT
ATOM      1  C   UNL     1      -4.701   7.494  -6.568  1.00  0.00     0.052 C 
ENDROOT
BRANCH   1   2
ATOM      2  C   UNL     1      -4.123   6.283  -5.905  1.00  0.00     0.041 C 
ATOM      3  O   UNL     1      -3.542   6.387  -4.792  1.00  0.00    -0.550 OA
ATOM      4  O   UNL     1      -4.183   5.049  -6.539  1.00  0.00    -0.550 OA
ENDBRANCH   1   2
BRANCH   1   5
ATOM      5  C   UNL     1      -3.647   8.181  -7.440  1.00  0.00     0.003 C 
ATOM      6  C   UNL     1      -4.037   8.136  -8.914  1.00  0.00     0.004 C 
ENDBRANCH   1   5
TORSDOF 2
ENDMDL
MODEL 2
REMARK VINA RESULT:    -3.005      0.084      1.324
REMARK INTER + INTRA:          -3.385
REMARK INTER:                  -3.356
REMARK INTRA:                  -0.030
REMARK UNBOUND:                -0.029
REMARK SMILES CCCC(=O)[O-]
REMARK SMILES IDX 3 1 4 2 5 3 6 4 2 5 1 6
REMARK H PARENT
REMARK Flexibility Score: inf
ROOT
ATOM      1  C   UNL     1      -4.734   7.485  -6.632  1.00  0.00     0.052 C 
ENDROOT
BRANCH   1   2
ATOM      2  C   UNL     1      -4.156   6.257  -5.999  1.00  0.00     0.041 C 
ATOM      3  O   UNL     1      -4.276   5.138  -6.564  1.00  0.00    -0.550 OA
ATOM      4  O   UNL     1      -3.529   6.342  -4.763  1.00  0.00    -0.550 OA
ENDBRANCH   1   2
BRANCH   1   5
ATOM      5  C   UNL     1      -3.673   8.203  -7.471  1.00  0.00     0.003 C 
ATOM      6  C   UNL     1      -4.035   8.179  -8.953  1.00  0.00     0.004 C 
ENDBRANCH   1   5
TORSDOF 2
ENDMDL
MODEL 3
REMARK VINA RESULT:    -2.958      0.906      1.385
REMARK INTER + INTRA:          -3.332
REMARK INTER:                  -3.264
REMARK INTRA:                  -0.068
REMARK UNBOUND:                -0.029
REMARK SMILES CCCC(=O)[O-]
REMARK SMILES IDX 3 1 4 2 5 3 6 4 2 5 1 6
REMARK H PARENT
REMARK Flexibility Score: inf
ROOT
ATOM      1  C   UNL     1      -3.653   7.514  -6.877  1.00  0.00     0.052 C 
ENDROOT
BRANCH   1   2
ATOM      2  C   UNL     1      -3.958   6.315  -6.034  1.00  0.00     0.041 C 
ATOM      3  O   UNL     1      -3.799   6.361  -4.786  1.00  0.00    -0.550 OA
ATOM      4  O   UNL     1      -4.370   5.131  -6.633  1.00  0.00    -0.550 OA
ENDBRANCH   1   2
BRANCH   1   5
ATOM      5  C   UNL     1      -4.874   7.901  -7.716  1.00  0.00     0.003 C 
ATOM      6  C   UNL     1      -6.071   8.229  -6.828  1.00  0.00     0.004 C 
ENDBRANCH   1   5
TORSDOF 2
ENDMDL
MODEL 4
REMARK VINA RESULT:    -2.899     19.568     20.537
REMARK INTER + INTRA:          -3.266
REMARK INTER:                  -3.228
REMARK INTRA:                  -0.038
REMARK UNBOUND:                -0.029
REMARK SMILES CCCC(=O)[O-]
REMARK SMILES IDX 3 1 4 2 5 3 6 4 2 5 1 6
REMARK H PARENT
REMARK Flexibility Score: inf
ROOT
ATOM      1  C   UNL     1       8.775   0.960   8.918  1.00  0.00     0.052 C 
ENDROOT
BRANCH   1   2
ATOM      2  C   UNL     1       8.332   2.108   8.066  1.00  0.00     0.041 C 
ATOM      3  O   UNL     1       7.589   1.907   7.069  1.00  0.00    -0.550 OA
ATOM      4  O   UNL     1       8.780   3.394   8.343  1.00  0.00    -0.550 OA
ENDBRANCH   1   2
BRANCH   1   5
ATOM      5  C   UNL     1       7.604   0.428   9.748  1.00  0.00     0.003 C 
ATOM      6  C   UNL     1       7.185  -0.962   9.279  1.00  0.00     0.004 C 
ENDBRANCH   1   5
TORSDOF 2
ENDMDL
MODEL 5
REMARK VINA RESULT:    -2.831     19.653     20.858
REMARK INTER + INTRA:          -3.191
REMARK INTER:                  -3.176
REMARK INTRA:                  -0.015
REMARK UNBOUND:                -0.029
REMARK SMILES CCCC(=O)[O-]
REMARK SMILES IDX 3 1 4 2 5 3 6 4 2 5 1 6
REMARK H PARENT
REMARK Flexibility Score: inf
ROOT
ATOM      1  C   UNL     1       8.681   0.926   9.006  1.00  0.00     0.052 C 
ENDROOT
BRANCH   1   2
ATOM      2  C   UNL     1       8.326   2.087   8.130  1.00  0.00     0.041 C 
ATOM      3  O   UNL     1       7.628   1.911   7.097  1.00  0.00    -0.550 OA
ATOM      4  O   UNL     1       8.807   3.356   8.428  1.00  0.00    -0.550 OA
ENDBRANCH   1   2
BRANCH   1   5
ATOM      5  C   UNL     1      10.058   0.374   8.629  1.00  0.00     0.003 C 
ATOM      6  C   UNL     1      10.026  -1.146   8.504  1.00  0.00     0.004 C 
ENDBRANCH   1   5
TORSDOF 2
ENDMDL
MODEL 6
REMARK VINA RESULT:    -2.790      1.860      2.473
REMARK INTER + INTRA:          -3.145
REMARK INTER:                  -3.084
REMARK INTRA:                  -0.061
REMARK UNBOUND:                -0.029
REMARK SMILES CCCC(=O)[O-]
REMARK SMILES IDX 3 1 4 2 5 3 6 4 2 5 1 6
REMARK H PARENT
REMARK Flexibility Score: inf
ROOT
ATOM      1  C   UNL     1      -5.671   7.486  -6.459  1.00  0.00     0.052 C 
ENDROOT
BRANCH   1   2
ATOM      2  C   UNL     1      -4.208   7.187  -6.356  1.00  0.00     0.041 C 
ATOM      3  O   UNL     1      -3.431   7.495  -7.298  1.00  0.00    -0.550 OA
ATOM      4  O   UNL     1      -3.710   6.524  -5.241  1.00  0.00    -0.550 OA
ENDBRANCH   1   2
BRANCH   1   5
ATOM      5  C   UNL     1      -6.273   6.795  -7.685  1.00  0.00     0.003 C 
ATOM      6  C   UNL     1      -6.118   5.279  -7.594  1.00  0.00     0.004 C 
ENDBRANCH   1   5
TORSDOF 2
ENDMDL
MODEL 7
REMARK VINA RESULT:    -2.675      2.364      3.389
REMARK INTER + INTRA:          -3.016
REMARK INTER:                  -2.984
REMARK INTRA:                  -0.032
REMARK UNBOUND:                -0.029
REMARK SMILES CCCC(=O)[O-]
REMARK SMILES IDX 3 1 4 2 5 3 6 4 2 5 1 6
REMARK H PARENT
REMARK Flexibility Score: inf
ROOT
ATOM      1  C   UNL     1      -3.657   7.357  -6.863  1.00  0.00     0.052 C 
ENDROOT
BRANCH   1   2
ATOM      2  C   UNL     1      -4.861   8.113  -7.332  1.00  0.00     0.041 C 
ATOM      3  O   UNL     1      -4.847   8.696  -8.448  1.00  0.00    -0.550 OA
ATOM      4  O   UNL     1      -5.980   8.215  -6.515  1.00  0.00    -0.550 OA
ENDBRANCH   1   2
BRANCH   1   5
ATOM      5  C   UNL     1      -4.066   5.981  -6.329  1.00  0.00     0.003 C 
ATOM      6  C   UNL     1      -3.511   5.748  -4.927  1.00  0.00     0.004 C 
ENDBRANCH   1   5
TORSDOF 2
ENDMDL
MODEL 8
REMARK VINA RESULT:    -2.659      6.751      7.297
REMARK INTER + INTRA:          -2.999
REMARK INTER:                  -2.960
REMARK INTRA:                  -0.038
REMARK UNBOUND:                -0.029
REMARK SMILES CCCC(=O)[O-]
REMARK SMILES IDX 3 1 4 2 5 3 6 4 2 5 1 6
REMARK H PARENT
REMARK Flexibility Score: inf
ROOT
ATOM      1  C   UNL     1      -1.642   2.788  -2.353  1.00  0.00     0.052 C 
ENDROOT
BRANCH   1   2
ATOM      2  C   UNL     1      -0.877   1.951  -3.330  1.00  0.00     0.041 C 
ATOM      3  O   UNL     1      -1.001   0.698  -3.323  1.00  0.00    -0.550 OA
ATOM      4  O   UNL     1       0.008   2.551  -4.216  1.00  0.00    -0.550 OA
ENDBRANCH   1   2
BRANCH   1   5
ATOM      5  C   UNL     1      -0.805   3.038  -1.095  1.00  0.00     0.003 C 
ATOM      6  C   UNL     1      -0.267   4.466  -1.066  1.00  0.00     0.004 C 
ENDBRANCH   1   5
TORSDOF 2
ENDMDL
MODEL 9
REMARK VINA RESULT:    -2.600      2.329      2.962
REMARK INTER + INTRA:          -2.933
REMARK INTER:                  -2.894
REMARK INTRA:                  -0.038
REMARK UNBOUND:                -0.029
REMARK SMILES CCCC(=O)[O-]
REMARK SMILES IDX 3 1 4 2 5 3 6 4 2 5 1 6
REMARK H PARENT
REMARK Flexibility Score: inf
ROOT
ATOM      1  C   UNL     1      -6.296   7.283  -7.102  1.00  0.00     0.052 C 
ENDROOT
BRANCH   1   2
ATOM      2  C   UNL     1      -6.853   5.934  -7.435  1.00  0.00     0.041 C 
ATOM      3  O   UNL     1      -8.085   5.707  -7.298  1.00  0.00    -0.550 OA
ATOM      4  O   UNL     1      -6.006   4.914  -7.848  1.00  0.00    -0.550 OA
ENDBRANCH   1   2
BRANCH   1   5
ATOM      5  C   UNL     1      -4.973   7.141  -6.343  1.00  0.00     0.003 C 
ATOM      6  C   UNL     1      -3.815   7.736  -7.140  1.00  0.00     0.004 C 
ENDBRANCH   1   5
TORSDOF 2
ENDMDL
