MODEL 1
REMARK VINA RESULT:    -3.816      0.000      0.000
REMARK INTER + INTRA:          -3.816
REMARK INTER:                  -3.816
REMARK INTRA:                   0.000
REMARK UNBOUND:                 0.000
REMARK SMILES CC(C)=C1CC[C@H](C)CC1=O
REMARK SMILES IDX 8 1 7 2 6 3 5 4 4 5 2 6 1 7 3 8 10 9 11 10 9 11
REMARK H PARENT
REMARK Flexibility Score: inf
ROOT
ATOM      1  C   UNL     1      -0.890  -9.402 -14.939  1.00  0.00     0.008 C 
ATOM      2  C   UNL     1      -1.920  -8.270 -15.015  1.00  0.00    -0.006 C 
ATOM      3  C   UNL     1      -1.371  -6.995 -14.354  1.00  0.00     0.008 C 
ATOM      4  C   UNL     1      -2.427  -5.881 -14.329  1.00  0.00     0.039 C 
ATOM      5  C   UNL     1      -3.029  -5.616 -15.703  1.00  0.00    -0.006 C 
ATOM      6  C   UNL     1      -3.449  -4.368 -16.064  1.00  0.00    -0.070 C 
ATOM      7  C   UNL     1      -3.350  -3.201 -15.110  1.00  0.00     0.039 C 
ATOM      8  C   UNL     1      -3.995  -4.081 -17.444  1.00  0.00     0.039 C 
ATOM      9  C   UNL     1      -3.235  -6.814 -16.570  1.00  0.00     0.159 C 
ATOM     10  O   UNL     1      -4.193  -6.873 -17.388  1.00  0.00    -0.295 OA
ATOM     11  C   UNL     1      -2.298  -7.983 -16.476  1.00  0.00     0.084 C 
ENDROOT
TORSDOF 0
ENDMDL
MODEL 2
REMARK VINA RESULT:    -3.814      1.147      4.186
REMARK INTER + INTRA:          -3.814
REMARK INTER:                  -3.814
REMARK INTRA:                   0.000
REMARK UNBOUND:                 0.000
REMARK SMILES CC(C)=C1CC[C@H](C)CC1=O
REMARK SMILES IDX 8 1 7 2 6 3 5 4 4 5 2 6 1 7 3 8 10 9 11 10 9 11
REMARK H PARENT
REMARK Flexibility Score: inf
ROOT
ATOM      1  C   UNL     1      -5.358  -2.875 -17.902  1.00  0.00     0.008 C 
ATOM      2  C   UNL     1      -4.158  -3.607 -17.291  1.00  0.00    -0.006 C 
ATOM      3  C   UNL     1      -4.053  -3.310 -15.787  1.00  0.00     0.008 C 
ATOM      4  C   UNL     1      -2.798  -3.952 -15.178  1.00  0.00     0.039 C 
ATOM      5  C   UNL     1      -2.693  -5.439 -15.491  1.00  0.00    -0.006 C 
ATOM      6  C   UNL     1      -2.108  -6.307 -14.615  1.00  0.00    -0.070 C 
ATOM      7  C   UNL     1      -1.525  -5.827 -13.305  1.00  0.00     0.039 C 
ATOM      8  C   UNL     1      -2.048  -7.792 -14.888  1.00  0.00     0.039 C 
ATOM      9  C   UNL     1      -3.156  -5.858 -16.847  1.00  0.00     0.159 C 
ATOM     10  O   UNL     1      -2.620  -6.825 -17.452  1.00  0.00    -0.295 OA
ATOM     11  C   UNL     1      -4.277  -5.121 -17.521  1.00  0.00     0.084 C 
ENDROOT
TORSDOF 0
ENDMDL
MODEL 3
REMARK VINA RESULT:    -3.699      1.537      2.590
REMARK INTER + INTRA:          -3.699
REMARK INTER:                  -3.699
REMARK INTRA:                   0.000
REMARK UNBOUND:                 0.000
REMARK SMILES CC(C)=C1CC[C@H](C)CC1=O
REMARK SMILES IDX 8 1 7 2 6 3 5 4 4 5 2 6 1 7 3 8 10 9 11 10 9 11
REMARK H PARENT
REMARK Flexibility Score: inf
ROOT
ATOM      1  C   UNL     1      -4.105  -9.238 -18.125  1.00  0.00     0.008 C 
ATOM      2  C   UNL     1      -4.015  -8.154 -17.045  1.00  0.00    -0.006 C 
ATOM      3  C   UNL     1      -2.817  -8.415 -16.117  1.00  0.00     0.008 C 
ATOM      4  C   UNL     1      -2.770  -7.398 -14.968  1.00  0.00     0.039 C 
ATOM      5  C   UNL     1      -2.827  -5.957 -15.461  1.00  0.00    -0.006 C 
ATOM      6  C   UNL     1      -2.194  -4.953 -14.788  1.00  0.00    -0.070 C 
ATOM      7  C   UNL     1      -1.422  -5.225 -13.517  1.00  0.00     0.039 C 
ATOM      8  C   UNL     1      -2.196  -3.530 -15.297  1.00  0.00     0.039 C 
ATOM      9  C   UNL     1      -3.707  -5.703 -16.641  1.00  0.00     0.159 C 
ATOM     10  O   UNL     1      -4.312  -4.606 -16.782  1.00  0.00    -0.295 OA
ATOM     11  C   UNL     1      -3.890  -6.765 -17.686  1.00  0.00     0.084 C 
ENDROOT
TORSDOF 0
ENDMDL
MODEL 4
REMARK VINA RESULT:    -3.556      1.568      4.459
REMARK INTER + INTRA:          -3.556
REMARK INTER:                  -3.556
REMARK INTRA:                   0.000
REMARK UNBOUND:                 0.000
REMARK SMILES CC(C)=C1CC[C@H](C)CC1=O
REMARK SMILES IDX 8 1 7 2 6 3 5 4 4 5 2 6 1 7 3 8 10 9 11 10 9 11
REMARK H PARENT
REMARK Flexibility Score: inf
ROOT
ATOM      1  C   UNL     1      -3.247  -2.876 -15.154  1.00  0.00     0.008 C 
ATOM      2  C   UNL     1      -3.364  -4.394 -15.327  1.00  0.00    -0.006 C 
ATOM      3  C   UNL     1      -3.461  -4.762 -16.816  1.00  0.00     0.008 C 
ATOM      4  C   UNL     1      -3.682  -6.269 -17.005  1.00  0.00     0.039 C 
ATOM      5  C   UNL     1      -2.651  -7.108 -16.260  1.00  0.00    -0.006 C 
ATOM      6  C   UNL     1      -2.241  -8.318 -16.742  1.00  0.00    -0.070 C 
ATOM      7  C   UNL     1      -2.805  -8.884 -18.024  1.00  0.00     0.039 C 
ATOM      8  C   UNL     1      -1.178  -9.133 -16.042  1.00  0.00     0.039 C 
ATOM      9  C   UNL     1      -2.215  -6.583 -14.932  1.00  0.00     0.159 C 
ATOM     10  O   UNL     1      -1.892  -7.361 -13.995  1.00  0.00    -0.295 OA
ATOM     11  C   UNL     1      -2.161  -5.103 -14.688  1.00  0.00     0.084 C 
ENDROOT
TORSDOF 0
ENDMDL
MODEL 5
REMARK VINA RESULT:    -3.421      1.373      4.153
REMARK INTER + INTRA:          -3.421
REMARK INTER:                  -3.421
REMARK INTRA:                   0.000
REMARK UNBOUND:                 0.000
REMARK SMILES CC(C)=C1CC[C@H](C)CC1=O
REMARK SMILES IDX 8 1 7 2 6 3 5 4 4 5 2 6 1 7 3 8 10 9 11 10 9 11
REMARK H PARENT
REMARK Flexibility Score: inf
ROOT
ATOM      1  C   UNL     1      -3.699  -3.442 -15.294  1.00  0.00     0.008 C 
ATOM      2  C   UNL     1      -2.665  -4.558 -15.481  1.00  0.00    -0.006 C 
ATOM      3  C   UNL     1      -2.798  -5.609 -14.367  1.00  0.00     0.008 C 
ATOM      4  C   UNL     1      -1.704  -6.681 -14.478  1.00  0.00     0.039 C 
ATOM      5  C   UNL     1      -1.637  -7.304 -15.866  1.00  0.00    -0.006 C 
ATOM      6  C   UNL     1      -1.261  -8.605 -16.042  1.00  0.00    -0.070 C 
ATOM      7  C   UNL     1      -0.880  -9.476 -14.867  1.00  0.00     0.039 C 
ATOM      8  C   UNL     1      -1.245  -9.250 -17.408  1.00  0.00     0.039 C 
ATOM      9  C   UNL     1      -1.889  -6.380 -17.012  1.00  0.00     0.159 C 
ATOM     10  O   UNL     1      -1.317  -6.545 -18.124  1.00  0.00    -0.295 OA
ATOM     11  C   UNL     1      -2.834  -5.224 -16.854  1.00  0.00     0.084 C 
ENDROOT
TORSDOF 0
ENDMDL
MODEL 6
REMARK VINA RESULT:    -3.401     16.017     17.303
REMARK INTER + INTRA:          -3.401
REMARK INTER:                  -3.401
REMARK INTRA:                   0.000
REMARK UNBOUND:                 0.000
REMARK SMILES CC(C)=C1CC[C@H](C)CC1=O
REMARK SMILES IDX 8 1 7 2 6 3 5 4 4 5 2 6 1 7 3 8 10 9 11 10 9 11
REMARK H PARENT
REMARK Flexibility Score: inf
ROOT
ATOM      1  C   UNL     1      -2.015  -3.927   1.950  1.00  0.00     0.008 C 
ATOM      2  C   UNL     1      -2.433  -5.400   1.875  1.00  0.00    -0.006 C 
ATOM      3  C   UNL     1      -3.407  -5.625   0.707  1.00  0.00     0.008 C 
ATOM      4  C   UNL     1      -3.917  -7.072   0.677  1.00  0.00     0.039 C 
ATOM      5  C   UNL     1      -2.784  -8.091   0.699  1.00  0.00    -0.006 C 
ATOM      6  C   UNL     1      -2.903  -9.296   0.069  1.00  0.00    -0.070 C 
ATOM      7  C   UNL     1      -4.169  -9.678  -0.662  1.00  0.00     0.039 C 
ATOM      8  C   UNL     1      -1.765 -10.291   0.036  1.00  0.00     0.039 C 
ATOM      9  C   UNL     1      -1.602  -7.738   1.541  1.00  0.00     0.159 C 
ATOM     10  O   UNL     1      -0.926  -8.627   2.125  1.00  0.00    -0.295 OA
ATOM     11  C   UNL     1      -1.200  -6.301   1.711  1.00  0.00     0.084 C 
ENDROOT
TORSDOF 0
ENDMDL
MODEL 7
REMARK VINA RESULT:    -3.039     16.802     17.231
REMARK INTER + INTRA:          -3.039
REMARK INTER:                  -3.039
REMARK INTRA:                   0.000
REMARK UNBOUND:                 0.000
REMARK SMILES CC(C)=C1CC[C@H](C)CC1=O
REMARK SMILES IDX 8 1 7 2 6 3 5 4 4 5 2 6 1 7 3 8 10 9 11 10 9 11
REMARK H PARENT
REMARK Flexibility Score: inf
ROOT
ATOM      1  C   UNL     1      -2.020 -10.721   0.386  1.00  0.00     0.008 C 
ATOM      2  C   UNL     1      -2.146  -9.405   1.162  1.00  0.00    -0.006 C 
ATOM      3  C   UNL     1      -0.875  -8.556   0.994  1.00  0.00     0.008 C 
ATOM      4  C   UNL     1      -0.941  -7.281   1.846  1.00  0.00     0.039 C 
ATOM      5  C   UNL     1      -2.215  -6.482   1.603  1.00  0.00    -0.006 C 
ATOM      6  C   UNL     1      -2.228  -5.121   1.706  1.00  0.00    -0.070 C 
ATOM      7  C   UNL     1      -0.983  -4.350   2.080  1.00  0.00     0.039 C 
ATOM      8  C   UNL     1      -3.472  -4.314   1.413  1.00  0.00     0.039 C 
ATOM      9  C   UNL     1      -3.454  -7.281   1.369  1.00  0.00     0.159 C 
ATOM     10  O   UNL     1      -4.584  -6.862   1.740  1.00  0.00    -0.295 OA
ATOM     11  C   UNL     1      -3.372  -8.615   0.684  1.00  0.00     0.084 C 
ENDROOT
TORSDOF 0
ENDMDL
