MODEL 1
REMARK VINA RESULT:    -3.490      0.000      0.000
REMARK INTER + INTRA:          -4.780
REMARK INTER:                  -4.306
REMARK INTRA:                  -0.474
REMARK UNBOUND:                -0.474
REMARK SMILES C=CC[C@@H](C)C(=O)CC
REMARK SMILES IDX 4 1 5 2 6 3 7 4 8 5 9 6 3 7 2 8 1 9
REMARK H PARENT
REMARK Flexibility Score: inf
ROOT
ATOM      1  C   UNL     1     150.870 159.541 200.533  1.00  0.00     0.057 C 
ATOM      2  C   UNL     1     151.533 158.203 200.187  1.00  0.00     0.016 C 
ENDROOT
BRANCH   1   3
ATOM      3  C   UNL     1     151.771 160.338 201.456  1.00  0.00     0.135 C 
ATOM      4  O   UNL     1     152.985 160.218 201.369  1.00  0.00    -0.299 OA
BRANCH   3   5
ATOM      5  C   UNL     1     151.197 161.261 202.499  1.00  0.00     0.072 C 
ATOM      6  C   UNL     1     149.953 160.655 203.139  1.00  0.00     0.012 C 
ENDBRANCH   3   5
ENDBRANCH   1   3
BRANCH   1   7
ATOM      7  C   UNL     1     150.543 160.330 199.250  1.00  0.00     0.038 C 
BRANCH   7   8
ATOM      8  C   UNL     1     149.068 160.612 199.140  1.00  0.00    -0.034 C 
ATOM      9  C   UNL     1     148.183 160.089 199.995  1.00  0.00     0.004 C 
ENDBRANCH   7   8
ENDBRANCH   1   7
TORSDOF 4
ENDMDL
MODEL 2
REMARK VINA RESULT:    -3.406      9.061     10.397
REMARK INTER + INTRA:          -4.677
REMARK INTER:                  -4.507
REMARK INTRA:                  -0.170
REMARK UNBOUND:                -0.474
REMARK SMILES C=CC[C@@H](C)C(=O)CC
REMARK SMILES IDX 4 1 5 2 6 3 7 4 8 5 9 6 3 7 2 8 1 9
REMARK H PARENT
REMARK Flexibility Score: inf
ROOT
ATOM      1  C   UNL     1     158.566 166.467 198.977  1.00  0.00     0.057 C 
ATOM      2  C   UNL     1     159.614 166.154 197.903  1.00  0.00     0.016 C 
ENDROOT
BRANCH   1   3
ATOM      3  C   UNL     1     157.562 165.333 199.060  1.00  0.00     0.135 C 
ATOM      4  O   UNL     1     157.773 164.391 199.811  1.00  0.00    -0.299 OA
BRANCH   3   5
ATOM      5  C   UNL     1     156.315 165.332 198.214  1.00  0.00     0.072 C 
ATOM      6  C   UNL     1     156.379 164.243 197.149  1.00  0.00     0.012 C 
ENDBRANCH   3   5
ENDBRANCH   1   3
BRANCH   1   7
ATOM      7  C   UNL     1     159.243 166.717 200.338  1.00  0.00     0.038 C 
BRANCH   7   8
ATOM      8  C   UNL     1     158.935 168.095 200.859  1.00  0.00    -0.034 C 
ATOM      9  C   UNL     1     159.260 168.470 202.100  1.00  0.00     0.004 C 
ENDBRANCH   7   8
ENDBRANCH   1   7
TORSDOF 4
ENDMDL
MODEL 3
REMARK VINA RESULT:    -3.313      1.556      3.177
REMARK INTER + INTRA:          -4.562
REMARK INTER:                  -4.167
REMARK INTRA:                  -0.395
REMARK UNBOUND:                -0.474
REMARK SMILES C=CC[C@@H](C)C(=O)CC
REMARK SMILES IDX 4 1 5 2 6 3 7 4 8 5 9 6 3 7 2 8 1 9
REMARK H PARENT
REMARK Flexibility Score: inf
ROOT
ATOM      1  C   UNL     1     151.733 160.204 200.007  1.00  0.00     0.057 C 
ATOM      2  C   UNL     1     152.921 159.639 199.220  1.00  0.00     0.016 C 
ENDROOT
BRANCH   1   3
ATOM      3  C   UNL     1     150.443 159.586 199.505  1.00  0.00     0.135 C 
ATOM      4  O   UNL     1     150.386 158.380 199.306  1.00  0.00    -0.299 OA
BRANCH   3   5
ATOM      5  C   UNL     1     149.231 160.435 199.221  1.00  0.00     0.072 C 
ATOM      6  C   UNL     1     148.077 160.066 200.147  1.00  0.00     0.012 C 
ENDBRANCH   3   5
ENDBRANCH   1   3
BRANCH   1   7
ATOM      7  C   UNL     1     151.921 159.960 201.517  1.00  0.00     0.038 C 
BRANCH   7   8
ATOM      8  C   UNL     1     151.216 161.010 202.334  1.00  0.00    -0.034 C 
ATOM      9  C   UNL     1     150.137 160.725 203.070  1.00  0.00     0.004 C 
ENDBRANCH   7   8
ENDBRANCH   1   7
TORSDOF 4
ENDMDL
MODEL 4
REMARK VINA RESULT:    -3.301      9.224     10.289
REMARK INTER + INTRA:          -4.547
REMARK INTER:                  -4.253
REMARK INTRA:                  -0.295
REMARK UNBOUND:                -0.474
REMARK SMILES C=CC[C@@H](C)C(=O)CC
REMARK SMILES IDX 4 1 5 2 6 3 7 4 8 5 9 6 3 7 2 8 1 9
REMARK H PARENT
REMARK Flexibility Score: inf
ROOT
ATOM      1  C   UNL     1     159.007 165.818 199.031  1.00  0.00     0.057 C 
ATOM      2  C   UNL     1     159.072 166.811 200.197  1.00  0.00     0.016 C 
ENDROOT
BRANCH   1   3
ATOM      3  C   UNL     1     157.735 164.998 199.124  1.00  0.00     0.135 C 
ATOM      4  O   UNL     1     157.697 164.022 199.861  1.00  0.00    -0.299 OA
BRANCH   3   5
ATOM      5  C   UNL     1     156.520 165.349 198.306  1.00  0.00     0.072 C 
ATOM      6  C   UNL     1     156.213 164.255 197.288  1.00  0.00     0.012 C 
ENDBRANCH   3   5
ENDBRANCH   1   3
BRANCH   1   7
ATOM      7  C   UNL     1     159.099 166.559 197.683  1.00  0.00     0.038 C 
BRANCH   7   8
ATOM      8  C   UNL     1     158.945 168.047 197.864  1.00  0.00    -0.034 C 
ATOM      9  C   UNL     1     158.568 168.845 196.860  1.00  0.00     0.004 C 
ENDBRANCH   7   8
ENDBRANCH   1   7
TORSDOF 4
ENDMDL
MODEL 5
REMARK VINA RESULT:    -3.301      8.995     10.190
REMARK INTER + INTRA:          -4.547
REMARK INTER:                  -4.050
REMARK INTRA:                  -0.497
REMARK UNBOUND:                -0.474
REMARK SMILES C=CC[C@@H](C)C(=O)CC
REMARK SMILES IDX 4 1 5 2 6 3 7 4 8 5 9 6 3 7 2 8 1 9
REMARK H PARENT
REMARK Flexibility Score: inf
ROOT
ATOM      1  C   UNL     1     159.022 165.622 199.125  1.00  0.00     0.057 C 
ATOM      2  C   UNL     1     158.910 166.861 200.019  1.00  0.00     0.016 C 
ENDROOT
BRANCH   1   3
ATOM      3  C   UNL     1     157.710 164.861 199.133  1.00  0.00     0.135 C 
ATOM      4  O   UNL     1     156.692 165.406 198.730  1.00  0.00    -0.299 OA
BRANCH   3   5
ATOM      5  C   UNL     1     157.631 163.449 199.652  1.00  0.00     0.072 C 
ATOM      6  C   UNL     1     159.012 162.930 200.035  1.00  0.00     0.012 C 
ENDBRANCH   3   5
ENDBRANCH   1   3
BRANCH   1   7
ATOM      7  C   UNL     1     159.428 166.023 197.694  1.00  0.00     0.038 C 
BRANCH   7   8
ATOM      8  C   UNL     1     159.753 164.814 196.856  1.00  0.00    -0.034 C 
ATOM      9  C   UNL     1     160.939 164.202 196.929  1.00  0.00     0.004 C 
ENDBRANCH   7   8
ENDBRANCH   1   7
TORSDOF 4
ENDMDL
MODEL 6
REMARK VINA RESULT:    -3.281      8.024      9.293
REMARK INTER + INTRA:          -4.523
REMARK INTER:                  -4.108
REMARK INTRA:                  -0.414
REMARK UNBOUND:                -0.474
REMARK SMILES C=CC[C@@H](C)C(=O)CC
REMARK SMILES IDX 4 1 5 2 6 3 7 4 8 5 9 6 3 7 2 8 1 9
REMARK H PARENT
REMARK Flexibility Score: inf
ROOT
ATOM      1  C   UNL     1     158.121 165.330 199.453  1.00  0.00     0.057 C 
ATOM      2  C   UNL     1     159.096 166.419 199.915  1.00  0.00     0.016 C 
ENDROOT
BRANCH   1   3
ATOM      3  C   UNL     1     157.353 165.810 198.236  1.00  0.00     0.135 C 
ATOM      4  O   UNL     1     157.843 166.663 197.509  1.00  0.00    -0.299 OA
BRANCH   3   5
ATOM      5  C   UNL     1     155.982 165.272 197.918  1.00  0.00     0.072 C 
ATOM      6  C   UNL     1     156.021 164.375 196.686  1.00  0.00     0.012 C 
ENDBRANCH   3   5
ENDBRANCH   1   3
BRANCH   1   7
ATOM      7  C   UNL     1     158.875 164.019 199.158  1.00  0.00     0.038 C 
BRANCH   7   8
ATOM      8  C   UNL     1     158.305 162.870 199.947  1.00  0.00    -0.034 C 
ATOM      9  C   UNL     1     157.291 162.131 199.488  1.00  0.00     0.004 C 
ENDBRANCH   7   8
ENDBRANCH   1   7
TORSDOF 4
ENDMDL
MODEL 7
REMARK VINA RESULT:    -3.222      8.594      9.779
REMARK INTER + INTRA:          -4.449
REMARK INTER:                  -4.070
REMARK INTRA:                  -0.379
REMARK UNBOUND:                -0.474
REMARK SMILES C=CC[C@@H](C)C(=O)CC
REMARK SMILES IDX 4 1 5 2 6 3 7 4 8 5 9 6 3 7 2 8 1 9
REMARK H PARENT
REMARK Flexibility Score: inf
ROOT
ATOM      1  C   UNL     1     157.510 164.902 198.238  1.00  0.00     0.057 C 
ATOM      2  C   UNL     1     156.055 165.330 198.021  1.00  0.00     0.016 C 
ENDROOT
BRANCH   1   3
ATOM      3  C   UNL     1     158.444 166.001 197.769  1.00  0.00     0.135 C 
ATOM      4  O   UNL     1     157.980 167.047 197.338  1.00  0.00    -0.299 OA
BRANCH   3   5
ATOM      5  C   UNL     1     159.940 165.820 197.802  1.00  0.00     0.072 C 
ATOM      6  C   UNL     1     160.358 164.586 197.011  1.00  0.00     0.012 C 
ENDBRANCH   3   5
ENDBRANCH   1   3
BRANCH   1   7
ATOM      7  C   UNL     1     157.756 164.550 199.717  1.00  0.00     0.038 C 
BRANCH   7   8
ATOM      8  C   UNL     1     158.159 163.108 199.879  1.00  0.00    -0.034 C 
ATOM      9  C   UNL     1     157.363 162.105 199.496  1.00  0.00     0.004 C 
ENDBRANCH   7   8
ENDBRANCH   1   7
TORSDOF 4
ENDMDL
MODEL 8
REMARK VINA RESULT:    -3.201      8.658      9.559
REMARK INTER + INTRA:          -4.424
REMARK INTER:                  -4.119
REMARK INTRA:                  -0.305
REMARK UNBOUND:                -0.474
REMARK SMILES C=CC[C@@H](C)C(=O)CC
REMARK SMILES IDX 4 1 5 2 6 3 7 4 8 5 9 6 3 7 2 8 1 9
REMARK H PARENT
REMARK Flexibility Score: inf
ROOT
ATOM      1  C   UNL     1     157.812 165.043 199.646  1.00  0.00     0.057 C 
ATOM      2  C   UNL     1     158.503 163.675 199.646  1.00  0.00     0.016 C 
ENDROOT
BRANCH   1   3
ATOM      3  C   UNL     1     158.838 166.136 199.418  1.00  0.00     0.135 C 
ATOM      4  O   UNL     1     159.271 166.768 200.371  1.00  0.00    -0.299 OA
BRANCH   3   5
ATOM      5  C   UNL     1     159.318 166.477 198.031  1.00  0.00     0.072 C 
ATOM      6  C   UNL     1     158.875 167.880 197.629  1.00  0.00     0.012 C 
ENDBRANCH   3   5
ENDBRANCH   1   3
BRANCH   1   7
ATOM      7  C   UNL     1     156.700 165.087 198.581  1.00  0.00     0.038 C 
BRANCH   7   8
ATOM      8  C   UNL     1     156.598 163.780 197.839  1.00  0.00    -0.034 C 
ATOM      9  C   UNL     1     156.165 163.716 196.577  1.00  0.00     0.004 C 
ENDBRANCH   7   8
ENDBRANCH   1   7
TORSDOF 4
ENDMDL
MODEL 9
REMARK VINA RESULT:    -3.177      8.186      9.317
REMARK INTER + INTRA:          -4.393
REMARK INTER:                  -4.158
REMARK INTRA:                  -0.235
REMARK UNBOUND:                -0.474
REMARK SMILES C=CC[C@@H](C)C(=O)CC
REMARK SMILES IDX 4 1 5 2 6 3 7 4 8 5 9 6 3 7 2 8 1 9
REMARK H PARENT
REMARK Flexibility Score: inf
ROOT
ATOM      1  C   UNL     1     157.371 165.146 199.323  1.00  0.00     0.057 C 
ATOM      2  C   UNL     1     156.377 165.256 198.162  1.00  0.00     0.016 C 
ENDROOT
BRANCH   1   3
ATOM      3  C   UNL     1     157.958 163.749 199.367  1.00  0.00     0.135 C 
ATOM      4  O   UNL     1     158.923 163.519 200.083  1.00  0.00    -0.299 OA
BRANCH   3   5
ATOM      5  C   UNL     1     157.389 162.637 198.523  1.00  0.00     0.072 C 
ATOM      6  C   UNL     1     156.785 161.543 199.397  1.00  0.00     0.012 C 
ENDBRANCH   3   5
ENDBRANCH   1   3
BRANCH   1   7
ATOM      7  C   UNL     1     158.474 166.214 199.194  1.00  0.00     0.038 C 
BRANCH   7   8
ATOM      8  C   UNL     1     158.529 166.780 197.800  1.00  0.00    -0.034 C 
ATOM      9  C   UNL     1     158.802 168.068 197.571  1.00  0.00     0.004 C 
ENDBRANCH   7   8
ENDBRANCH   1   7
TORSDOF 4
ENDMDL
