MODEL 1
REMARK VINA RESULT:    -2.963      0.000      0.000
REMARK INTER + INTRA:          -3.954
REMARK INTER:                  -3.829
REMARK INTRA:                  -0.126
REMARK UNBOUND:                -0.126
REMARK SMILES CCCCCCC(=O)[O-]
REMARK SMILES IDX 5 1 6 2 7 3 8 4 9 5 4 6 3 7 2 8 1 9
REMARK H PARENT
REMARK Flexibility Score: inf
ROOT
ATOM      1  C   UNL     1     -18.867  33.379 -18.996  1.00  0.00     0.006 C 
ENDROOT
BRANCH   1   2
ATOM      2  C   UNL     1     -20.074  33.894 -19.785  1.00  0.00     0.053 C 
BRANCH   2   3
ATOM      3  C   UNL     1     -21.348  33.389 -19.183  1.00  0.00     0.041 C 
ATOM      4  O   UNL     1     -22.100  32.623 -19.842  1.00  0.00    -0.550 OA
ATOM      5  O   UNL     1     -21.729  33.804 -17.914  1.00  0.00    -0.550 OA
ENDBRANCH   2   3
ENDBRANCH   1   2
BRANCH   1   6
ATOM      6  C   UNL     1     -17.553  33.896 -19.602  1.00  0.00     0.000 C 
BRANCH   6   7
ATOM      7  C   UNL     1     -16.488  32.797 -19.732  1.00  0.00    -0.000 C 
BRANCH   7   8
ATOM      8  C   UNL     1     -15.071  33.308 -19.432  1.00  0.00    -0.003 C 
ATOM      9  C   UNL     1     -15.037  34.100 -18.128  1.00  0.00     0.004 C 
ENDBRANCH   7   8
ENDBRANCH   6   7
ENDBRANCH   1   6
TORSDOF 5
ENDMDL
MODEL 2
REMARK VINA RESULT:    -2.251     20.617     21.905
REMARK INTER + INTRA:          -3.035
REMARK INTER:                  -2.834
REMARK INTRA:                  -0.201
REMARK UNBOUND:                -0.126
REMARK SMILES CCCCCCC(=O)[O-]
REMARK SMILES IDX 5 1 6 2 7 3 8 4 9 5 4 6 3 7 2 8 1 9
REMARK H PARENT
REMARK Flexibility Score: inf
ROOT
ATOM      1  C   UNL     1      -5.591  18.426 -11.063  1.00  0.00     0.006 C 
ENDROOT
BRANCH   1   2
ATOM      2  C   UNL     1      -6.317  19.725 -10.702  1.00  0.00     0.053 C 
BRANCH   2   3
ATOM      3  C   UNL     1      -6.116  20.752 -11.771  1.00  0.00     0.041 C 
ATOM      4  O   UNL     1      -5.441  21.789 -11.535  1.00  0.00    -0.550 OA
ATOM      5  O   UNL     1      -6.717  20.589 -13.012  1.00  0.00    -0.550 OA
ENDBRANCH   2   3
ENDBRANCH   1   2
BRANCH   1   6
ATOM      6  C   UNL     1      -4.088  18.535 -10.763  1.00  0.00     0.000 C 
BRANCH   6   7
ATOM      7  C   UNL     1      -3.390  17.167 -10.728  1.00  0.00    -0.000 C 
BRANCH   7   8
ATOM      8  C   UNL     1      -4.384  15.996 -10.715  1.00  0.00    -0.003 C 
ATOM      9  C   UNL     1      -3.698  14.697 -10.298  1.00  0.00     0.004 C 
ENDBRANCH   7   8
ENDBRANCH   6   7
ENDBRANCH   1   6
TORSDOF 5
ENDMDL
MODEL 3
REMARK VINA RESULT:    -1.839     22.140     23.490
REMARK INTER + INTRA:          -2.503
REMARK INTER:                  -2.353
REMARK INTRA:                  -0.149
REMARK UNBOUND:                -0.126
REMARK SMILES CCCCCCC(=O)[O-]
REMARK SMILES IDX 5 1 6 2 7 3 8 4 9 5 4 6 3 7 2 8 1 9
REMARK H PARENT
REMARK Flexibility Score: inf
ROOT
ATOM      1  C   UNL     1      -4.116  17.455 -10.741  1.00  0.00     0.006 C 
ENDROOT
BRANCH   1   2
ATOM      2  C   UNL     1      -3.142  16.353 -10.314  1.00  0.00     0.053 C 
BRANCH   2   3
ATOM      3  C   UNL     1      -3.767  15.004 -10.488  1.00  0.00     0.041 C 
ATOM      4  O   UNL     1      -4.889  14.894 -11.049  1.00  0.00    -0.550 OA
ATOM      5  O   UNL     1      -3.134  13.875  -9.986  1.00  0.00    -0.550 OA
ENDBRANCH   2   3
ENDBRANCH   1   2
BRANCH   1   6
ATOM      6  C   UNL     1      -3.368  18.763 -11.041  1.00  0.00     0.000 C 
BRANCH   6   7
ATOM      7  C   UNL     1      -4.239  20.009 -10.816  1.00  0.00    -0.000 C 
BRANCH   7   8
ATOM      8  C   UNL     1      -5.728  19.746 -11.085  1.00  0.00    -0.003 C 
ATOM      9  C   UNL     1      -6.367  20.917 -11.827  1.00  0.00     0.004 C 
ENDBRANCH   7   8
ENDBRANCH   6   7
ENDBRANCH   1   6
TORSDOF 5
ENDMDL
MODEL 4
REMARK VINA RESULT:    -1.700     22.069     23.398
REMARK INTER + INTRA:          -2.322
REMARK INTER:                  -2.140
REMARK INTRA:                  -0.182
REMARK UNBOUND:                -0.126
REMARK SMILES CCCCCCC(=O)[O-]
REMARK SMILES IDX 5 1 6 2 7 3 8 4 9 5 4 6 3 7 2 8 1 9
REMARK H PARENT
REMARK Flexibility Score: inf
ROOT
ATOM      1  C   UNL     1      -3.377  17.596 -10.747  1.00  0.00     0.006 C 
ENDROOT
BRANCH   1   2
ATOM      2  C   UNL     1      -4.383  16.441 -10.774  1.00  0.00     0.053 C 
BRANCH   2   3
ATOM      3  C   UNL     1      -3.697  15.141 -10.497  1.00  0.00     0.041 C 
ATOM      4  O   UNL     1      -2.486  15.125 -10.150  1.00  0.00    -0.550 OA
ATOM      5  O   UNL     1      -4.380  13.945 -10.669  1.00  0.00    -0.550 OA
ENDBRANCH   2   3
ENDBRANCH   1   2
BRANCH   1   6
ATOM      6  C   UNL     1      -4.086  18.947 -10.927  1.00  0.00     0.000 C 
BRANCH   6   7
ATOM      7  C   UNL     1      -5.617  18.822 -10.893  1.00  0.00    -0.000 C 
BRANCH   7   8
ATOM      8  C   UNL     1      -6.321  19.970 -11.631  1.00  0.00    -0.003 C 
ATOM      9  C   UNL     1      -5.591  21.293 -11.413  1.00  0.00     0.004 C 
ENDBRANCH   7   8
ENDBRANCH   6   7
ENDBRANCH   1   6
TORSDOF 5
ENDMDL
MODEL 5
REMARK VINA RESULT:    -1.659     22.009     23.307
REMARK INTER + INTRA:          -2.269
REMARK INTER:                  -2.100
REMARK INTRA:                  -0.169
REMARK UNBOUND:                -0.126
REMARK SMILES CCCCCCC(=O)[O-]
REMARK SMILES IDX 5 1 6 2 7 3 8 4 9 5 4 6 3 7 2 8 1 9
REMARK H PARENT
REMARK Flexibility Score: inf
ROOT
ATOM      1  C   UNL     1      -3.601  17.957 -10.868  1.00  0.00     0.006 C 
ENDROOT
BRANCH   1   2
ATOM      2  C   UNL     1      -5.082  18.340 -10.782  1.00  0.00     0.053 C 
BRANCH   2   3
ATOM      3  C   UNL     1      -5.271  19.784 -11.126  1.00  0.00     0.041 C 
ATOM      4  O   UNL     1      -6.390  20.199 -11.527  1.00  0.00    -0.550 OA
ATOM      5  O   UNL     1      -4.198  20.662 -11.051  1.00  0.00    -0.550 OA
ENDBRANCH   2   3
ENDBRANCH   1   2
BRANCH   1   6
ATOM      6  C   UNL     1      -3.374  16.522 -10.369  1.00  0.00     0.000 C 
BRANCH   6   7
ATOM      7  C   UNL     1      -4.520  15.573 -10.753  1.00  0.00    -0.000 C 
BRANCH   7   8
ATOM      8  C   UNL     1      -4.118  14.094 -10.665  1.00  0.00    -0.003 C 
ATOM      9  C   UNL     1      -2.755  13.934  -9.997  1.00  0.00     0.004 C 
ENDBRANCH   7   8
ENDBRANCH   6   7
ENDBRANCH   1   6
TORSDOF 5
ENDMDL
MODEL 6
REMARK VINA RESULT:    -1.336     21.035     22.435
REMARK INTER + INTRA:          -1.853
REMARK INTER:                  -1.726
REMARK INTRA:                  -0.126
REMARK UNBOUND:                -0.126
REMARK SMILES CCCCCCC(=O)[O-]
REMARK SMILES IDX 5 1 6 2 7 3 8 4 9 5 4 6 3 7 2 8 1 9
REMARK H PARENT
REMARK Flexibility Score: inf
ROOT
ATOM      1  C   UNL     1      -4.487  18.709 -10.911  1.00  0.00     0.006 C 
ENDROOT
BRANCH   1   2
ATOM      2  C   UNL     1      -3.358  17.689 -10.735  1.00  0.00     0.053 C 
BRANCH   2   3
ATOM      3  C   UNL     1      -3.914  16.301 -10.658  1.00  0.00     0.041 C 
ATOM      4  O   UNL     1      -3.145  15.320 -10.481  1.00  0.00    -0.550 OA
ATOM      5  O   UNL     1      -5.275  16.087 -10.831  1.00  0.00    -0.550 OA
ENDBRANCH   2   3
ENDBRANCH   1   2
BRANCH   1   6
ATOM      6  C   UNL     1      -3.950  20.145 -10.810  1.00  0.00     0.000 C 
BRANCH   6   7
ATOM      7  C   UNL     1      -4.968  21.193 -11.285  1.00  0.00    -0.000 C 
BRANCH   7   8
ATOM      8  C   UNL     1      -6.371  20.604 -11.491  1.00  0.00    -0.003 C 
ATOM      9  C   UNL     1      -6.736  20.560 -12.973  1.00  0.00     0.004 C 
ENDBRANCH   7   8
ENDBRANCH   6   7
ENDBRANCH   1   6
TORSDOF 5
ENDMDL
