MODEL 1
REMARK VINA RESULT:    -3.756      0.000      0.000
REMARK INTER + INTRA:          -4.581
REMARK INTER:                  -4.305
REMARK INTRA:                  -0.276
REMARK UNBOUND:                -0.276
REMARK SMILES COC(=O)c1ccccc1O
REMARK SMILES IDX 5 1 6 2 7 3 8 4 9 5 10 6 3 7 4 8 2 9 1 10 11 11
REMARK H PARENT 11 12
REMARK Flexibility Score: inf
ROOT
ATOM      1  C   UNL     1      -1.541   2.308   8.477  1.00  0.00     0.101 A 
ATOM      2  C   UNL     1      -2.032   2.387   9.796  1.00  0.00     0.019 A 
ATOM      3  C   UNL     1      -3.402   2.511  10.042  1.00  0.00     0.001 A 
ATOM      4  C   UNL     1      -4.302   2.558   8.979  1.00  0.00     0.004 A 
ATOM      5  C   UNL     1      -3.836   2.481   7.666  1.00  0.00     0.047 A 
ATOM      6  C   UNL     1      -2.463   2.356   7.404  1.00  0.00     0.130 A 
ENDROOT
BRANCH   1   7
ATOM      7  C   UNL     1      -0.078   2.178   8.246  1.00  0.00     0.341 C 
ATOM      8  O   UNL     1       0.583   3.168   7.827  1.00  0.00    -0.246 OA
BRANCH   7   9
ATOM      9  O   UNL     1       0.574   0.965   8.492  1.00  0.00    -0.465 OA
ATOM     10  C   UNL     1       0.180  -0.258   7.880  1.00  0.00     0.282 C 
ENDBRANCH   7   9
ENDBRANCH   1   7
BRANCH   6  11
ATOM     11  O   UNL     1      -2.025   2.282   6.082  1.00  0.00    -0.507 OA
ATOM     12  H   UNL     1      -1.076   2.523   5.820  1.00  0.00     0.293 HD
ENDBRANCH   6  11
TORSDOF 3
ENDMDL
MODEL 2
REMARK VINA RESULT:    -3.736     12.465     13.715
REMARK INTER + INTRA:          -4.558
REMARK INTER:                  -4.259
REMARK INTRA:                  -0.300
REMARK UNBOUND:                -0.276
REMARK SMILES COC(=O)c1ccccc1O
REMARK SMILES IDX 5 1 6 2 7 3 8 4 9 5 10 6 3 7 4 8 2 9 1 10 11 11
REMARK H PARENT 11 12
REMARK Flexibility Score: inf
ROOT
ATOM      1  C   UNL     1       1.734   2.548  -4.377  1.00  0.00     0.101 A 
ATOM      2  C   UNL     1       2.274   3.477  -5.291  1.00  0.00     0.019 A 
ATOM      3  C   UNL     1       3.649   3.529  -5.526  1.00  0.00     0.001 A 
ATOM      4  C   UNL     1       4.508   2.660  -4.855  1.00  0.00     0.004 A 
ATOM      5  C   UNL     1       3.993   1.734  -3.947  1.00  0.00     0.047 A 
ATOM      6  C   UNL     1       2.613   1.669  -3.701  1.00  0.00     0.130 A 
ENDROOT
BRANCH   1   7
ATOM      7  C   UNL     1       0.265   2.516  -4.148  1.00  0.00     0.341 C 
ATOM      8  O   UNL     1      -0.370   1.434  -4.292  1.00  0.00    -0.246 OA
BRANCH   7   9
ATOM      9  O   UNL     1      -0.421   3.676  -3.772  1.00  0.00    -0.465 OA
ATOM     10  C   UNL     1      -1.535   4.180  -4.498  1.00  0.00     0.282 C 
ENDBRANCH   7   9
ENDBRANCH   1   7
BRANCH   6  11
ATOM     11  O   UNL     1       2.126   0.735  -2.789  1.00  0.00    -0.507 OA
ATOM     12  H   UNL     1       1.569   1.011  -1.988  1.00  0.00     0.293 HD
ENDBRANCH   6  11
TORSDOF 3
ENDMDL
MODEL 3
REMARK VINA RESULT:    -3.636     12.290     13.270
REMARK INTER + INTRA:          -4.444
REMARK INTER:                  -4.115
REMARK INTRA:                  -0.329
REMARK UNBOUND:                -0.276
REMARK SMILES COC(=O)c1ccccc1O
REMARK SMILES IDX 5 1 6 2 7 3 8 4 9 5 10 6 3 7 4 8 2 9 1 10 11 11
REMARK H PARENT 11 12
REMARK Flexibility Score: inf
ROOT
ATOM      1  C   UNL     1       2.552   2.440  -4.409  1.00  0.00     0.101 A 
ATOM      2  C   UNL     1       2.211   3.309  -5.466  1.00  0.00     0.019 A 
ATOM      3  C   UNL     1       0.902   3.368  -5.949  1.00  0.00     0.001 A 
ATOM      4  C   UNL     1      -0.088   2.563  -5.387  1.00  0.00     0.004 A 
ATOM      5  C   UNL     1       0.229   1.697  -4.340  1.00  0.00     0.047 A 
ATOM      6  C   UNL     1       1.540   1.628  -3.845  1.00  0.00     0.130 A 
ENDROOT
BRANCH   1   7
ATOM      7  C   UNL     1       3.954   2.400  -3.917  1.00  0.00     0.341 C 
ATOM      8  O   UNL     1       4.906   2.305  -4.740  1.00  0.00    -0.246 OA
BRANCH   7   9
ATOM      9  O   UNL     1       4.228   2.466  -2.547  1.00  0.00    -0.465 OA
ATOM     10  C   UNL     1       5.150   1.594  -1.903  1.00  0.00     0.282 C 
ENDBRANCH   7   9
ENDBRANCH   1   7
BRANCH   6  11
ATOM     11  O   UNL     1       1.828   0.753  -2.798  1.00  0.00    -0.507 OA
ATOM     12  H   UNL     1       1.568   0.963  -1.841  1.00  0.00     0.293 HD
ENDBRANCH   6  11
TORSDOF 3
ENDMDL
MODEL 4
REMARK VINA RESULT:    -3.631     12.463     13.449
REMARK INTER + INTRA:          -4.437
REMARK INTER:                  -4.113
REMARK INTRA:                  -0.325
REMARK UNBOUND:                -0.276
REMARK SMILES COC(=O)c1ccccc1O
REMARK SMILES IDX 5 1 6 2 7 3 8 4 9 5 10 6 3 7 4 8 2 9 1 10 11 11
REMARK H PARENT 11 12
REMARK Flexibility Score: inf
ROOT
ATOM      1  C   UNL     1       1.537   2.100  -4.022  1.00  0.00     0.101 A 
ATOM      2  C   UNL     1       1.952   0.924  -3.363  1.00  0.00     0.019 A 
ATOM      3  C   UNL     1       3.308   0.611  -3.248  1.00  0.00     0.001 A 
ATOM      4  C   UNL     1       4.271   1.463  -3.787  1.00  0.00     0.004 A 
ATOM      5  C   UNL     1       3.880   2.631  -4.444  1.00  0.00     0.047 A 
ATOM      6  C   UNL     1       2.522   2.958  -4.566  1.00  0.00     0.130 A 
ENDROOT
BRANCH   1   7
ATOM      7  C   UNL     1       0.086   2.406  -4.129  1.00  0.00     0.341 C 
ATOM      8  O   UNL     1      -0.717   1.514  -4.521  1.00  0.00    -0.246 OA
BRANCH   7   9
ATOM      9  O   UNL     1      -0.398   3.675  -3.797  1.00  0.00    -0.465 OA
ATOM     10  C   UNL     1      -1.465   4.300  -4.500  1.00  0.00     0.282 C 
ENDBRANCH   7   9
ENDBRANCH   1   7
BRANCH   6  11
ATOM     11  O   UNL     1       2.160   4.131  -5.227  1.00  0.00    -0.507 OA
ATOM     12  H   UNL     1       2.830   4.869  -5.409  1.00  0.00     0.293 HD
ENDBRANCH   6  11
TORSDOF 3
ENDMDL
MODEL 5
REMARK VINA RESULT:    -3.623      2.698      3.941
REMARK INTER + INTRA:          -4.429
REMARK INTER:                  -4.140
REMARK INTRA:                  -0.289
REMARK UNBOUND:                -0.276
REMARK SMILES COC(=O)c1ccccc1O
REMARK SMILES IDX 5 1 6 2 7 3 8 4 9 5 10 6 3 7 4 8 2 9 1 10 11 11
REMARK H PARENT 11 12
REMARK Flexibility Score: inf
ROOT
ATOM      1  C   UNL     1      -0.277  -0.301   6.852  1.00  0.00     0.101 A 
ATOM      2  C   UNL     1       0.462  -0.607   8.013  1.00  0.00     0.019 A 
ATOM      3  C   UNL     1       0.670   0.357   9.001  1.00  0.00     0.001 A 
ATOM      4  C   UNL     1       0.147   1.640   8.849  1.00  0.00     0.004 A 
ATOM      5  C   UNL     1      -0.587   1.962   7.706  1.00  0.00     0.047 A 
ATOM      6  C   UNL     1      -0.805   1.004   6.706  1.00  0.00     0.130 A 
ENDROOT
BRANCH   1   7
ATOM      7  C   UNL     1      -0.482  -1.349   5.817  1.00  0.00     0.341 C 
ATOM      8  O   UNL     1      -0.076  -1.155   4.637  1.00  0.00    -0.246 OA
BRANCH   7   9
ATOM      9  O   UNL     1      -1.122  -2.550   6.139  1.00  0.00    -0.465 OA
ATOM     10  C   UNL     1      -2.322  -2.602   6.902  1.00  0.00     0.282 C 
ENDBRANCH   7   9
ENDBRANCH   1   7
BRANCH   6  11
ATOM     11  O   UNL     1      -1.542   1.354   5.575  1.00  0.00    -0.507 OA
ATOM     12  H   UNL     1      -1.415   2.246   5.111  1.00  0.00     0.293 HD
ENDBRANCH   6  11
TORSDOF 3
ENDMDL
MODEL 6
REMARK VINA RESULT:    -3.596     12.785     13.879
REMARK INTER + INTRA:          -4.398
REMARK INTER:                  -4.096
REMARK INTRA:                  -0.302
REMARK UNBOUND:                -0.276
REMARK SMILES COC(=O)c1ccccc1O
REMARK SMILES IDX 5 1 6 2 7 3 8 4 9 5 10 6 3 7 4 8 2 9 1 10 11 11
REMARK H PARENT 11 12
REMARK Flexibility Score: inf
ROOT
ATOM      1  C   UNL     1       0.380   2.730  -5.554  1.00  0.00     0.101 A 
ATOM      2  C   UNL     1       0.292   2.679  -6.960  1.00  0.00     0.019 A 
ATOM      3  C   UNL     1      -0.947   2.763  -7.601  1.00  0.00     0.001 A 
ATOM      4  C   UNL     1      -2.114   2.900  -6.852  1.00  0.00     0.004 A 
ATOM      5  C   UNL     1      -2.047   2.953  -5.459  1.00  0.00     0.047 A 
ATOM      6  C   UNL     1      -0.811   2.869  -4.802  1.00  0.00     0.130 A 
ENDROOT
BRANCH   1   7
ATOM      7  C   UNL     1       1.712   2.637  -4.900  1.00  0.00     0.341 C 
ATOM      8  O   UNL     1       2.745   3.015  -5.521  1.00  0.00    -0.246 OA
BRANCH   7   9
ATOM      9  O   UNL     1       1.832   2.133  -3.601  1.00  0.00    -0.465 OA
ATOM     10  C   UNL     1       2.298   0.817  -3.325  1.00  0.00     0.282 C 
ENDBRANCH   7   9
ENDBRANCH   1   7
BRANCH   6  11
ATOM     11  O   UNL     1      -0.774   2.924  -3.409  1.00  0.00    -0.507 OA
ATOM     12  H   UNL     1      -1.591   2.720  -2.845  1.00  0.00     0.293 HD
ENDBRANCH   6  11
TORSDOF 3
ENDMDL
MODEL 7
REMARK VINA RESULT:    -3.595     12.441     12.866
REMARK INTER + INTRA:          -4.397
REMARK INTER:                  -4.114
REMARK INTRA:                  -0.282
REMARK UNBOUND:                -0.276
REMARK SMILES COC(=O)c1ccccc1O
REMARK SMILES IDX 5 1 6 2 7 3 8 4 9 5 10 6 3 7 4 8 2 9 1 10 11 11
REMARK H PARENT 11 12
REMARK Flexibility Score: inf
ROOT
ATOM      1  C   UNL     1       0.139   3.399  -4.414  1.00  0.00     0.101 A 
ATOM      2  C   UNL     1       0.322   4.795  -4.349  1.00  0.00     0.019 A 
ATOM      3  C   UNL     1      -0.772   5.662  -4.403  1.00  0.00     0.001 A 
ATOM      4  C   UNL     1      -2.063   5.152  -4.522  1.00  0.00     0.004 A 
ATOM      5  C   UNL     1      -2.265   3.773  -4.587  1.00  0.00     0.047 A 
ATOM      6  C   UNL     1      -1.176   2.890  -4.534  1.00  0.00     0.130 A 
ENDROOT
BRANCH   1   7
ATOM      7  C   UNL     1       1.323   2.501  -4.355  1.00  0.00     0.341 C 
ATOM      8  O   UNL     1       2.294   2.689  -5.141  1.00  0.00    -0.246 OA
BRANCH   7   9
ATOM      9  O   UNL     1       1.372   1.450  -3.434  1.00  0.00    -0.465 OA
ATOM     10  C   UNL     1       2.516   0.619  -3.274  1.00  0.00     0.282 C 
ENDBRANCH   7   9
ENDBRANCH   1   7
BRANCH   6  11
ATOM     11  O   UNL     1      -1.407   1.517  -4.602  1.00  0.00    -0.507 OA
ATOM     12  H   UNL     1      -1.948   1.103  -5.353  1.00  0.00     0.293 HD
ENDBRANCH   6  11
TORSDOF 3
ENDMDL
MODEL 8
REMARK VINA RESULT:    -3.591     12.497     13.566
REMARK INTER + INTRA:          -4.392
REMARK INTER:                  -4.116
REMARK INTRA:                  -0.276
REMARK UNBOUND:                -0.276
REMARK SMILES COC(=O)c1ccccc1O
REMARK SMILES IDX 5 1 6 2 7 3 8 4 9 5 10 6 3 7 4 8 2 9 1 10 11 11
REMARK H PARENT 11 12
REMARK Flexibility Score: inf
ROOT
ATOM      1  C   UNL     1      -1.363   3.641  -4.969  1.00  0.00     0.101 A 
ATOM      2  C   UNL     1      -2.381   4.485  -4.480  1.00  0.00     0.019 A 
ATOM      3  C   UNL     1      -3.536   4.718  -5.230  1.00  0.00     0.001 A 
ATOM      4  C   UNL     1      -3.695   4.116  -6.477  1.00  0.00     0.004 A 
ATOM      5  C   UNL     1      -2.698   3.277  -6.978  1.00  0.00     0.047 A 
ATOM      6  C   UNL     1      -1.533   3.034  -6.236  1.00  0.00     0.130 A 
ENDROOT
BRANCH   1   7
ATOM      7  C   UNL     1      -0.145   3.412  -4.148  1.00  0.00     0.341 C 
ATOM      8  O   UNL     1       0.643   4.370  -3.912  1.00  0.00    -0.246 OA
BRANCH   7   9
ATOM      9  O   UNL     1       0.136   2.142  -3.632  1.00  0.00    -0.465 OA
ATOM     10  C   UNL     1       1.414   1.529  -3.750  1.00  0.00     0.282 C 
ENDBRANCH   7   9
ENDBRANCH   1   7
BRANCH   6  11
ATOM     11  O   UNL     1      -0.554   2.192  -6.761  1.00  0.00    -0.507 OA
ATOM     12  H   UNL     1      -0.672   1.729  -7.655  1.00  0.00     0.293 HD
ENDBRANCH   6  11
TORSDOF 3
ENDMDL
MODEL 9
REMARK VINA RESULT:    -3.506     13.297     14.757
REMARK INTER + INTRA:          -4.294
REMARK INTER:                  -3.970
REMARK INTRA:                  -0.324
REMARK UNBOUND:                -0.276
REMARK SMILES COC(=O)c1ccccc1O
REMARK SMILES IDX 5 1 6 2 7 3 8 4 9 5 10 6 3 7 4 8 2 9 1 10 11 11
REMARK H PARENT 11 12
REMARK Flexibility Score: inf
ROOT
ATOM      1  C   UNL     1       0.017   2.731  -6.082  1.00  0.00     0.101 A 
ATOM      2  C   UNL     1       1.353   3.133  -6.290  1.00  0.00     0.019 A 
ATOM      3  C   UNL     1       2.329   2.894  -5.320  1.00  0.00     0.001 A 
ATOM      4  C   UNL     1       1.991   2.252  -4.130  1.00  0.00     0.004 A 
ATOM      5  C   UNL     1       0.675   1.846  -3.906  1.00  0.00     0.047 A 
ATOM      6  C   UNL     1      -0.316   2.079  -4.871  1.00  0.00     0.130 A 
ENDROOT
BRANCH   1   7
ATOM      7  C   UNL     1      -1.001   3.000  -7.132  1.00  0.00     0.341 C 
ATOM      8  O   UNL     1      -0.805   2.598  -8.314  1.00  0.00    -0.246 OA
BRANCH   7   9
ATOM      9  O   UNL     1      -2.175   3.694  -6.823  1.00  0.00    -0.465 OA
ATOM     10  C   UNL     1      -3.462   3.254  -7.242  1.00  0.00     0.282 C 
ENDBRANCH   7   9
ENDBRANCH   1   7
BRANCH   6  11
ATOM     11  O   UNL     1      -1.623   1.663  -4.620  1.00  0.00    -0.507 OA
ATOM     12  H   UNL     1      -1.830   0.734  -4.272  1.00  0.00     0.293 HD
ENDBRANCH   6  11
TORSDOF 3
ENDMDL
