MODEL 1
REMARK VINA RESULT:    -5.355      0.000      0.000
REMARK INTER + INTRA:          -5.355
REMARK INTER:                  -5.355
REMARK INTRA:                   0.000
REMARK UNBOUND:                 0.000
REMARK SMILES O=c1ccc2ccccc2o1
REMARK SMILES IDX 7 1 8 2 9 3 10 4 5 5 6 6 4 7 3 8 2 9 1 10 11 11
REMARK H PARENT
REMARK Flexibility Score: inf
ROOT
ATOM      1  C   UNL     1      21.326  -0.158 -22.362  1.00  0.00     0.001 A 
ATOM      2  C   UNL     1      21.907   1.025 -21.893  1.00  0.00     0.004 A 
ATOM      3  C   UNL     1      21.725   1.419 -20.564  1.00  0.00     0.048 A 
ATOM      4  C   UNL     1      20.958   0.633 -19.698  1.00  0.00     0.138 A 
ATOM      5  C   UNL     1      20.370  -0.562 -20.172  1.00  0.00     0.018 A 
ATOM      6  C   UNL     1      20.557  -0.953 -21.505  1.00  0.00     0.012 A 
ATOM      7  C   UNL     1      19.609  -1.328 -19.283  1.00  0.00     0.019 A 
ATOM      8  C   UNL     1      19.454  -0.896 -17.966  1.00  0.00     0.094 A 
ATOM      9  C   UNL     1      20.065   0.297 -17.568  1.00  0.00     0.336 A 
ATOM     10  O   UNL     1      19.937   0.704 -16.383  1.00  0.00    -0.246 OA
ATOM     11  O   UNL     1      20.784   1.008 -18.433  1.00  0.00    -0.423 OA
ENDROOT
TORSDOF 0
ENDMDL
MODEL 2
REMARK VINA RESULT:    -5.334      1.666      3.853
REMARK INTER + INTRA:          -5.334
REMARK INTER:                  -5.334
REMARK INTRA:                   0.000
REMARK UNBOUND:                 0.000
REMARK SMILES O=c1ccc2ccccc2o1
REMARK SMILES IDX 7 1 8 2 9 3 10 4 5 5 6 6 4 7 3 8 2 9 1 10 11 11
REMARK H PARENT
REMARK Flexibility Score: inf
ROOT
ATOM      1  C   UNL     1      19.523  -0.814 -17.836  1.00  0.00     0.001 A 
ATOM      2  C   UNL     1      20.294   0.298 -17.480  1.00  0.00     0.004 A 
ATOM      3  C   UNL     1      21.056   0.964 -18.445  1.00  0.00     0.048 A 
ATOM      4  C   UNL     1      21.051   0.519 -19.772  1.00  0.00     0.138 A 
ATOM      5  C   UNL     1      20.273  -0.605 -20.132  1.00  0.00     0.018 A 
ATOM      6  C   UNL     1      19.510  -1.268 -19.159  1.00  0.00     0.012 A 
ATOM      7  C   UNL     1      20.287  -1.026 -21.465  1.00  0.00     0.019 A 
ATOM      8  C   UNL     1      21.062  -0.332 -22.394  1.00  0.00     0.094 A 
ATOM      9  C   UNL     1      21.808   0.772 -21.965  1.00  0.00     0.336 A 
ATOM     10  O   UNL     1      22.514   1.411 -22.788  1.00  0.00    -0.246 OA
ATOM     11  O   UNL     1      21.776   1.152 -20.690  1.00  0.00    -0.423 OA
ENDROOT
TORSDOF 0
ENDMDL
MODEL 3
REMARK VINA RESULT:    -5.199      1.712      3.161
REMARK INTER + INTRA:          -5.199
REMARK INTER:                  -5.199
REMARK INTRA:                   0.000
REMARK UNBOUND:                 0.000
REMARK SMILES O=c1ccc2ccccc2o1
REMARK SMILES IDX 7 1 8 2 9 3 10 4 5 5 6 6 4 7 3 8 2 9 1 10 11 11
REMARK H PARENT
REMARK Flexibility Score: inf
ROOT
ATOM      1  C   UNL     1      19.149  -0.516 -20.294  1.00  0.00     0.001 A 
ATOM      2  C   UNL     1      18.815  -1.047 -19.043  1.00  0.00     0.004 A 
ATOM      3  C   UNL     1      19.562  -0.706 -17.912  1.00  0.00     0.048 A 
ATOM      4  C   UNL     1      20.649   0.167 -18.026  1.00  0.00     0.138 A 
ATOM      5  C   UNL     1      20.988   0.703 -19.290  1.00  0.00     0.018 A 
ATOM      6  C   UNL     1      20.234   0.357 -20.421  1.00  0.00     0.012 A 
ATOM      7  C   UNL     1      22.079   1.573 -19.374  1.00  0.00     0.019 A 
ATOM      8  C   UNL     1      22.797   1.885 -18.219  1.00  0.00     0.094 A 
ATOM      9  C   UNL     1      22.404   1.317 -17.002  1.00  0.00     0.336 A 
ATOM     10  O   UNL     1      23.038   1.586 -15.949  1.00  0.00    -0.246 OA
ATOM     11  O   UNL     1      21.361   0.491 -16.950  1.00  0.00    -0.423 OA
ENDROOT
TORSDOF 0
ENDMDL
MODEL 4
REMARK VINA RESULT:    -5.077      1.221      2.133
REMARK INTER + INTRA:          -5.077
REMARK INTER:                  -5.077
REMARK INTRA:                   0.000
REMARK UNBOUND:                 0.000
REMARK SMILES O=c1ccc2ccccc2o1
REMARK SMILES IDX 7 1 8 2 9 3 10 4 5 5 6 6 4 7 3 8 2 9 1 10 11 11
REMARK H PARENT
REMARK Flexibility Score: inf
ROOT
ATOM      1  C   UNL     1      21.897   0.921 -21.888  1.00  0.00     0.001 A 
ATOM      2  C   UNL     1      21.179  -0.198 -22.325  1.00  0.00     0.004 A 
ATOM      3  C   UNL     1      20.399  -0.928 -21.424  1.00  0.00     0.048 A 
ATOM      4  C   UNL     1      20.334  -0.544 -20.080  1.00  0.00     0.138 A 
ATOM      5  C   UNL     1      21.059   0.586 -19.638  1.00  0.00     0.018 A 
ATOM      6  C   UNL     1      21.840   1.315 -20.547  1.00  0.00     0.012 A 
ATOM      7  C   UNL     1      20.975   0.946 -18.290  1.00  0.00     0.019 A 
ATOM      8  C   UNL     1      20.185   0.188 -17.427  1.00  0.00     0.094 A 
ATOM      9  C   UNL     1      19.494  -0.918 -17.935  1.00  0.00     0.336 A 
ATOM     10  O   UNL     1      18.775  -1.615 -17.172  1.00  0.00    -0.246 OA
ATOM     11  O   UNL     1      19.591  -1.240 -19.223  1.00  0.00    -0.423 OA
ENDROOT
TORSDOF 0
ENDMDL
MODEL 5
REMARK VINA RESULT:    -4.976      1.878      4.346
REMARK INTER + INTRA:          -4.976
REMARK INTER:                  -4.976
REMARK INTRA:                   0.000
REMARK UNBOUND:                 0.000
REMARK SMILES O=c1ccc2ccccc2o1
REMARK SMILES IDX 7 1 8 2 9 3 10 4 5 5 6 6 4 7 3 8 2 9 1 10 11 11
REMARK H PARENT
REMARK Flexibility Score: inf
ROOT
ATOM      1  C   UNL     1      19.380  -0.263 -16.965  1.00  0.00     0.001 A 
ATOM      2  C   UNL     1      18.857  -1.374 -17.634  1.00  0.00     0.004 A 
ATOM      3  C   UNL     1      19.196  -1.615 -18.969  1.00  0.00     0.048 A 
ATOM      4  C   UNL     1      20.060  -0.743 -19.641  1.00  0.00     0.138 A 
ATOM      5  C   UNL     1      20.587   0.381 -18.965  1.00  0.00     0.018 A 
ATOM      6  C   UNL     1      20.244   0.616 -17.626  1.00  0.00     0.012 A 
ATOM      7  C   UNL     1      21.448   1.234 -19.663  1.00  0.00     0.019 A 
ATOM      8  C   UNL     1      21.758   0.955 -20.993  1.00  0.00     0.094 A 
ATOM      9  C   UNL     1      21.198  -0.176 -21.598  1.00  0.00     0.336 A 
ATOM     10  O   UNL     1      21.467  -0.444 -22.798  1.00  0.00    -0.246 OA
ATOM     11  O   UNL     1      20.382  -0.972 -20.912  1.00  0.00    -0.423 OA
ENDROOT
TORSDOF 0
ENDMDL
MODEL 6
REMARK VINA RESULT:    -4.877      1.901      3.808
REMARK INTER + INTRA:          -4.877
REMARK INTER:                  -4.877
REMARK INTRA:                   0.000
REMARK UNBOUND:                 0.000
REMARK SMILES O=c1ccc2ccccc2o1
REMARK SMILES IDX 7 1 8 2 9 3 10 4 5 5 6 6 4 7 3 8 2 9 1 10 11 11
REMARK H PARENT
REMARK Flexibility Score: inf
ROOT
ATOM      1  C   UNL     1      21.481   1.398 -15.907  1.00  0.00     0.001 A 
ATOM      2  C   UNL     1      22.495   1.741 -16.808  1.00  0.00     0.004 A 
ATOM      3  C   UNL     1      22.397   1.367 -18.151  1.00  0.00     0.048 A 
ATOM      4  C   UNL     1      21.284   0.648 -18.600  1.00  0.00     0.138 A 
ATOM      5  C   UNL     1      20.260   0.301 -17.690  1.00  0.00     0.018 A 
ATOM      6  C   UNL     1      20.364   0.679 -16.343  1.00  0.00     0.012 A 
ATOM      7  C   UNL     1      19.160  -0.418 -18.167  1.00  0.00     0.019 A 
ATOM      8  C   UNL     1      19.104  -0.770 -19.515  1.00  0.00     0.094 A 
ATOM      9  C   UNL     1      20.155  -0.393 -20.358  1.00  0.00     0.336 A 
ATOM     10  O   UNL     1      20.124  -0.700 -21.578  1.00  0.00    -0.246 OA
ATOM     11  O   UNL     1      21.191   0.292 -19.879  1.00  0.00    -0.423 OA
ENDROOT
TORSDOF 0
ENDMDL
MODEL 7
REMARK VINA RESULT:    -4.809     15.606     18.069
REMARK INTER + INTRA:          -4.809
REMARK INTER:                  -4.809
REMARK INTRA:                   0.000
REMARK UNBOUND:                 0.000
REMARK SMILES O=c1ccc2ccccc2o1
REMARK SMILES IDX 7 1 8 2 9 3 10 4 5 5 6 6 4 7 3 8 2 9 1 10 11 11
REMARK H PARENT
REMARK Flexibility Score: inf
ROOT
ATOM      1  C   UNL     1       7.562  -7.695  -5.908  1.00  0.00     0.001 A 
ATOM      2  C   UNL     1       7.868  -6.342  -5.723  1.00  0.00     0.004 A 
ATOM      3  C   UNL     1       8.869  -5.736  -6.488  1.00  0.00     0.048 A 
ATOM      4  C   UNL     1       9.569  -6.481  -7.443  1.00  0.00     0.138 A 
ATOM      5  C   UNL     1       9.261  -7.848  -7.630  1.00  0.00     0.018 A 
ATOM      6  C   UNL     1       8.256  -8.450  -6.859  1.00  0.00     0.012 A 
ATOM      7  C   UNL     1       9.978  -8.567  -8.592  1.00  0.00     0.019 A 
ATOM      8  C   UNL     1      10.968  -7.921  -9.332  1.00  0.00     0.094 A 
ATOM      9  C   UNL     1      11.219  -6.566  -9.093  1.00  0.00     0.336 A 
ATOM     10  O   UNL     1      12.108  -5.965  -9.751  1.00  0.00    -0.246 OA
ATOM     11  O   UNL     1      10.522  -5.904  -8.171  1.00  0.00    -0.423 OA
ENDROOT
TORSDOF 0
ENDMDL
MODEL 8
REMARK VINA RESULT:    -4.708      5.842      7.709
REMARK INTER + INTRA:          -4.708
REMARK INTER:                  -4.708
REMARK INTRA:                   0.000
REMARK UNBOUND:                 0.000
REMARK SMILES O=c1ccc2ccccc2o1
REMARK SMILES IDX 7 1 8 2 9 3 10 4 5 5 6 6 4 7 3 8 2 9 1 10 11 11
REMARK H PARENT
REMARK Flexibility Score: inf
ROOT
ATOM      1  C   UNL     1      25.058   7.352 -18.438  1.00  0.00     0.001 A 
ATOM      2  C   UNL     1      24.258   6.385 -17.820  1.00  0.00     0.004 A 
ATOM      3  C   UNL     1      23.521   5.484 -18.594  1.00  0.00     0.048 A 
ATOM      4  C   UNL     1      23.580   5.546 -19.990  1.00  0.00     0.138 A 
ATOM      5  C   UNL     1      24.387   6.523 -20.615  1.00  0.00     0.018 A 
ATOM      6  C   UNL     1      25.125   7.424 -19.834  1.00  0.00     0.012 A 
ATOM      7  C   UNL     1      24.426   6.561 -22.012  1.00  0.00     0.019 A 
ATOM      8  C   UNL     1      23.674   5.643 -22.743  1.00  0.00     0.094 A 
ATOM      9  C   UNL     1      22.897   4.703 -22.057  1.00  0.00     0.336 A 
ATOM     10  O   UNL     1      22.211   3.865 -22.699  1.00  0.00    -0.246 OA
ATOM     11  O   UNL     1      22.877   4.688 -20.726  1.00  0.00    -0.423 OA
ENDROOT
TORSDOF 0
ENDMDL
MODEL 9
REMARK VINA RESULT:    -4.693     14.914     16.844
REMARK INTER + INTRA:          -4.693
REMARK INTER:                  -4.693
REMARK INTRA:                   0.000
REMARK UNBOUND:                 0.000
REMARK SMILES O=c1ccc2ccccc2o1
REMARK SMILES IDX 7 1 8 2 9 3 10 4 5 5 6 6 4 7 3 8 2 9 1 10 11 11
REMARK H PARENT
REMARK Flexibility Score: inf
ROOT
ATOM      1  C   UNL     1      10.961  -5.625 -11.080  1.00  0.00     0.001 A 
ATOM      2  C   UNL     1      11.783  -6.151 -10.078  1.00  0.00     0.004 A 
ATOM      3  C   UNL     1      11.263  -6.411  -8.806  1.00  0.00     0.048 A 
ATOM      4  C   UNL     1       9.918  -6.144  -8.530  1.00  0.00     0.138 A 
ATOM      5  C   UNL     1       9.087  -5.612  -9.542  1.00  0.00     0.018 A 
ATOM      6  C   UNL     1       9.614  -5.354 -10.816  1.00  0.00     0.012 A 
ATOM      7  C   UNL     1       7.747  -5.356  -9.238  1.00  0.00     0.019 A 
ATOM      8  C   UNL     1       7.271  -5.630  -7.956  1.00  0.00     0.094 A 
ATOM      9  C   UNL     1       8.152  -6.156  -7.004  1.00  0.00     0.336 A 
ATOM     10  O   UNL     1       7.742  -6.411  -5.841  1.00  0.00    -0.246 OA
ATOM     11  O   UNL     1       9.424  -6.391  -7.320  1.00  0.00    -0.423 OA
ENDROOT
TORSDOF 0
ENDMDL
