MODEL 1
REMARK VINA RESULT:    -5.081      0.000      0.000
REMARK INTER + INTRA:         -12.318
REMARK INTER:                  -9.834
REMARK INTRA:                  -2.485
REMARK UNBOUND:                -2.485
REMARK SMILES CCCCCCCCCCCCCCCCCC(=O)[O-]
REMARK SMILES IDX 10 1 11 2 12 3 13 4 14 5 15 6 16 7 17 8 18 9 19 10 20 11
REMARK SMILES IDX 9 12 8 13 7 14 6 15 5 16 4 17 3 18 2 19 1 20
REMARK H PARENT
REMARK Flexibility Score: inf
ROOT
ATOM      1  C   UNL     1      24.495  35.185 147.388  1.00  0.00     0.000 C 
ENDROOT
BRANCH   1   2
ATOM      2  C   UNL     1      23.613  36.441 147.489  1.00  0.00     0.000 C 
BRANCH   2   3
ATOM      3  C   UNL     1      23.633  37.075 148.891  1.00  0.00     0.000 C 
BRANCH   3   4
ATOM      4  C   UNL     1      23.526  38.614 148.918  1.00  0.00     0.000 C 
BRANCH   4   5
ATOM      5  C   UNL     1      23.605  39.302 147.540  1.00  0.00     0.000 C 
BRANCH   5   6
ATOM      6  C   UNL     1      23.714  40.837 147.588  1.00  0.00     0.000 C 
BRANCH   6   7
ATOM      7  C   UNL     1      25.159  41.337 147.424  1.00  0.00     0.006 C 
BRANCH   7   8
ATOM      8  C   UNL     1      25.546  42.353 148.507  1.00  0.00     0.053 C 
BRANCH   8   9
ATOM      9  C   UNL     1      25.030  41.951 149.855  1.00  0.00     0.041 C 
ATOM     10  O   UNL     1      24.062  42.568 150.372  1.00  0.00    -0.550 OA
ATOM     11  O   UNL     1      25.642  40.921 150.557  1.00  0.00    -0.550 OA
ENDBRANCH   8   9
ENDBRANCH   7   8
ENDBRANCH   6   7
ENDBRANCH   5   6
ENDBRANCH   4   5
ENDBRANCH   3   4
ENDBRANCH   2   3
ENDBRANCH   1   2
BRANCH   1  12
ATOM     12  C   UNL     1      24.192  34.149 148.487  1.00  0.00     0.000 C 
BRANCH  12  13
ATOM     13  C   UNL     1      25.411  33.675 149.300  1.00  0.00    -0.000 C 
BRANCH  13  14
ATOM     14  C   UNL     1      26.701  33.609 148.464  1.00  0.00    -0.000 C 
BRANCH  14  15
ATOM     15  C   UNL     1      27.884  34.307 149.155  1.00  0.00    -0.000 C 
BRANCH  15  16
ATOM     16  C   UNL     1      27.433  35.244 150.289  1.00  0.00    -0.000 C 
BRANCH  16  17
ATOM     17  C   UNL     1      27.265  36.704 149.829  1.00  0.00    -0.000 C 
BRANCH  17  18
ATOM     18  C   UNL     1      27.907  37.037 148.470  1.00  0.00    -0.000 C 
BRANCH  18  19
ATOM     19  C   UNL     1      27.029  37.951 147.602  1.00  0.00    -0.003 C 
ATOM     20  C   UNL     1      27.883  38.850 146.714  1.00  0.00     0.004 C 
ENDBRANCH  18  19
ENDBRANCH  17  18
ENDBRANCH  16  17
ENDBRANCH  15  16
ENDBRANCH  14  15
ENDBRANCH  13  14
ENDBRANCH  12  13
ENDBRANCH   1  12
TORSDOF 16
ENDMDL
MODEL 2
REMARK VINA RESULT:    -5.038      2.833      5.276
REMARK INTER + INTRA:         -12.235
REMARK INTER:                  -9.349
REMARK INTRA:                  -2.886
REMARK UNBOUND:                -2.485
REMARK SMILES CCCCCCCCCCCCCCCCCC(=O)[O-]
REMARK SMILES IDX 10 1 11 2 12 3 13 4 14 5 15 6 16 7 17 8 18 9 19 10 20 11
REMARK SMILES IDX 9 12 8 13 7 14 6 15 5 16 4 17 3 18 2 19 1 20
REMARK H PARENT
REMARK Flexibility Score: inf
ROOT
ATOM      1  C   UNL     1      24.143  39.902 147.792  1.00  0.00     0.000 C 
ENDROOT
BRANCH   1   2
ATOM      2  C   UNL     1      24.630  40.212 149.217  1.00  0.00     0.000 C 
BRANCH   2   3
ATOM      3  C   UNL     1      26.162  40.159 149.352  1.00  0.00     0.000 C 
BRANCH   3   4
ATOM      4  C   UNL     1      26.731  38.816 149.855  1.00  0.00     0.000 C 
BRANCH   4   5
ATOM      5  C   UNL     1      27.708  38.114 148.891  1.00  0.00     0.000 C 
BRANCH   5   6
ATOM      6  C   UNL     1      27.146  37.844 147.483  1.00  0.00     0.000 C 
BRANCH   6   7
ATOM      7  C   UNL     1      28.041  36.908 146.653  1.00  0.00     0.006 C 
BRANCH   7   8
ATOM      8  C   UNL     1      28.914  37.678 145.654  1.00  0.00     0.053 C 
BRANCH   8   9
ATOM      9  C   UNL     1      30.369  37.586 146.002  1.00  0.00     0.041 C 
ATOM     10  O   UNL     1      31.245  37.826 145.130  1.00  0.00    -0.550 OA
ATOM     11  O   UNL     1      30.757  37.196 147.277  1.00  0.00    -0.550 OA
ENDBRANCH   8   9
ENDBRANCH   7   8
ENDBRANCH   6   7
ENDBRANCH   5   6
ENDBRANCH   4   5
ENDBRANCH   3   4
ENDBRANCH   2   3
ENDBRANCH   1   2
BRANCH   1  12
ATOM     12  C   UNL     1      23.285  38.626 147.714  1.00  0.00     0.000 C 
BRANCH  12  13
ATOM     13  C   UNL     1      23.252  37.775 148.997  1.00  0.00    -0.000 C 
BRANCH  13  14
ATOM     14  C   UNL     1      24.067  36.475 148.877  1.00  0.00    -0.000 C 
BRANCH  14  15
ATOM     15  C   UNL     1      24.050  35.901 147.450  1.00  0.00    -0.000 C 
BRANCH  15  16
ATOM     16  C   UNL     1      24.764  34.542 147.355  1.00  0.00    -0.000 C 
BRANCH  16  17
ATOM     17  C   UNL     1      25.644  34.241 148.582  1.00  0.00    -0.000 C 
BRANCH  17  18
ATOM     18  C   UNL     1      27.088  33.816 148.262  1.00  0.00    -0.000 C 
BRANCH  18  19
ATOM     19  C   UNL     1      28.096  34.268 149.328  1.00  0.00    -0.003 C 
ATOM     20  C   UNL     1      27.395  34.979 150.481  1.00  0.00     0.004 C 
ENDBRANCH  18  19
ENDBRANCH  17  18
ENDBRANCH  16  17
ENDBRANCH  15  16
ENDBRANCH  14  15
ENDBRANCH  13  14
ENDBRANCH  12  13
ENDBRANCH   1  12
TORSDOF 16
ENDMDL
MODEL 3
REMARK VINA RESULT:    -5.029      1.744      3.519
REMARK INTER + INTRA:         -12.218
REMARK INTER:                  -9.512
REMARK INTRA:                  -2.706
REMARK UNBOUND:                -2.485
REMARK SMILES CCCCCCCCCCCCCCCCCC(=O)[O-]
REMARK SMILES IDX 10 1 11 2 12 3 13 4 14 5 15 6 16 7 17 8 18 9 19 10 20 11
REMARK SMILES IDX 9 12 8 13 7 14 6 15 5 16 4 17 3 18 2 19 1 20
REMARK H PARENT
REMARK Flexibility Score: inf
ROOT
ATOM      1  C   UNL     1      25.077  37.491 148.323  1.00  0.00     0.000 C 
ENDROOT
BRANCH   1   2
ATOM      2  C   UNL     1      23.839  37.793 147.462  1.00  0.00     0.000 C 
BRANCH   2   3
ATOM      3  C   UNL     1      23.308  39.224 147.659  1.00  0.00     0.000 C 
BRANCH   3   4
ATOM      4  C   UNL     1      24.370  40.339 147.560  1.00  0.00     0.000 C 
BRANCH   4   5
ATOM      5  C   UNL     1      24.251  41.455 148.617  1.00  0.00     0.000 C 
BRANCH   5   6
ATOM      6  C   UNL     1      24.515  41.005 150.065  1.00  0.00     0.000 C 
BRANCH   6   7
ATOM      7  C   UNL     1      25.868  40.292 150.231  1.00  0.00     0.006 C 
BRANCH   7   8
ATOM      8  C   UNL     1      27.050  41.203 149.875  1.00  0.00     0.053 C 
BRANCH   8   9
ATOM      9  C   UNL     1      28.063  40.494 149.028  1.00  0.00     0.041 C 
ATOM     10  O   UNL     1      29.033  39.898 149.567  1.00  0.00    -0.550 OA
ATOM     11  O   UNL     1      27.957  40.524 147.643  1.00  0.00    -0.550 OA
ENDBRANCH   8   9
ENDBRANCH   7   8
ENDBRANCH   6   7
ENDBRANCH   5   6
ENDBRANCH   4   5
ENDBRANCH   3   4
ENDBRANCH   2   3
ENDBRANCH   1   2
BRANCH   1  12
ATOM     12  C   UNL     1      26.359  37.314 147.489  1.00  0.00     0.000 C 
BRANCH  12  13
ATOM     13  C   UNL     1      27.602  36.862 148.278  1.00  0.00    -0.000 C 
BRANCH  13  14
ATOM     14  C   UNL     1      27.342  36.740 149.790  1.00  0.00    -0.000 C 
BRANCH  14  15
ATOM     15  C   UNL     1      27.442  35.288 150.287  1.00  0.00    -0.000 C 
BRANCH  15  16
ATOM     16  C   UNL     1      27.772  34.301 149.154  1.00  0.00    -0.000 C 
BRANCH  16  17
ATOM     17  C   UNL     1      26.535  33.538 148.646  1.00  0.00    -0.000 C 
BRANCH  17  18
ATOM     18  C   UNL     1      25.223  33.856 149.385  1.00  0.00    -0.000 C 
BRANCH  18  19
ATOM     19  C   UNL     1      23.986  33.757 148.480  1.00  0.00    -0.003 C 
ATOM     20  C   UNL     1      24.324  34.144 147.044  1.00  0.00     0.004 C 
ENDBRANCH  18  19
ENDBRANCH  17  18
ENDBRANCH  16  17
ENDBRANCH  15  16
ENDBRANCH  14  15
ENDBRANCH  13  14
ENDBRANCH  12  13
ENDBRANCH   1  12
TORSDOF 16
ENDMDL
MODEL 4
REMARK VINA RESULT:    -5.023      2.391      4.873
REMARK INTER + INTRA:         -12.205
REMARK INTER:                  -9.435
REMARK INTRA:                  -2.770
REMARK UNBOUND:                -2.485
REMARK SMILES CCCCCCCCCCCCCCCCCC(=O)[O-]
REMARK SMILES IDX 10 1 11 2 12 3 13 4 14 5 15 6 16 7 17 8 18 9 19 10 20 11
REMARK SMILES IDX 9 12 8 13 7 14 6 15 5 16 4 17 3 18 2 19 1 20
REMARK H PARENT
REMARK Flexibility Score: inf
ROOT
ATOM      1  C   UNL     1      24.860  40.502 147.371  1.00  0.00     0.000 C 
ENDROOT
BRANCH   1   2
ATOM      2  C   UNL     1      25.204  41.595 148.397  1.00  0.00     0.000 C 
BRANCH   2   3
ATOM      3  C   UNL     1      24.322  41.531 149.657  1.00  0.00     0.000 C 
BRANCH   3   4
ATOM      4  C   UNL     1      25.061  41.158 150.958  1.00  0.00     0.000 C 
BRANCH   4   5
ATOM      5  C   UNL     1      25.537  39.694 151.047  1.00  0.00     0.000 C 
BRANCH   5   6
ATOM      6  C   UNL     1      27.054  39.495 150.873  1.00  0.00     0.000 C 
BRANCH   6   7
ATOM      7  C   UNL     1      27.398  38.318 149.944  1.00  0.00     0.006 C 
BRANCH   7   8
ATOM      8  C   UNL     1      27.855  38.789 148.557  1.00  0.00     0.053 C 
BRANCH   8   9
ATOM      9  C   UNL     1      29.166  38.176 148.167  1.00  0.00     0.041 C 
ATOM     10  O   UNL     1      30.247  38.733 148.491  1.00  0.00    -0.550 OA
ATOM     11  O   UNL     1      29.191  37.011 147.410  1.00  0.00    -0.550 OA
ENDBRANCH   8   9
ENDBRANCH   7   8
ENDBRANCH   6   7
ENDBRANCH   5   6
ENDBRANCH   4   5
ENDBRANCH   3   4
ENDBRANCH   2   3
ENDBRANCH   1   2
BRANCH   1  12
ATOM     12  C   UNL     1      23.618  39.680 147.761  1.00  0.00     0.000 C 
BRANCH  12  13
ATOM     13  C   UNL     1      23.705  38.172 147.463  1.00  0.00    -0.000 C 
BRANCH  13  14
ATOM     14  C   UNL     1      23.742  37.310 148.738  1.00  0.00    -0.000 C 
BRANCH  14  15
ATOM     15  C   UNL     1      24.592  36.040 148.562  1.00  0.00    -0.000 C 
BRANCH  15  16
ATOM     16  C   UNL     1      25.629  36.178 147.434  1.00  0.00    -0.000 C 
BRANCH  16  17
ATOM     17  C   UNL     1      26.423  34.882 147.189  1.00  0.00    -0.000 C 
BRANCH  17  18
ATOM     18  C   UNL     1      26.578  33.969 148.418  1.00  0.00    -0.000 C 
BRANCH  18  19
ATOM     19  C   UNL     1      27.859  34.250 149.216  1.00  0.00    -0.003 C 
ATOM     20  C   UNL     1      27.545  34.971 150.523  1.00  0.00     0.004 C 
ENDBRANCH  18  19
ENDBRANCH  17  18
ENDBRANCH  16  17
ENDBRANCH  15  16
ENDBRANCH  14  15
ENDBRANCH  13  14
ENDBRANCH  12  13
ENDBRANCH   1  12
TORSDOF 16
ENDMDL
MODEL 5
REMARK VINA RESULT:    -4.991      2.321      4.289
REMARK INTER + INTRA:         -12.145
REMARK INTER:                  -9.459
REMARK INTRA:                  -2.685
REMARK UNBOUND:                -2.485
REMARK SMILES CCCCCCCCCCCCCCCCCC(=O)[O-]
REMARK SMILES IDX 10 1 11 2 12 3 13 4 14 5 15 6 16 7 17 8 18 9 19 10 20 11
REMARK SMILES IDX 9 12 8 13 7 14 6 15 5 16 4 17 3 18 2 19 1 20
REMARK H PARENT
REMARK Flexibility Score: inf
ROOT
ATOM      1  C   UNL     1      23.167  38.399 148.821  1.00  0.00     0.000 C 
ENDROOT
BRANCH   1   2
ATOM      2  C   UNL     1      23.503  39.391 147.694  1.00  0.00     0.000 C 
BRANCH   2   3
ATOM      3  C   UNL     1      24.270  40.627 148.195  1.00  0.00     0.000 C 
BRANCH   3   4
ATOM      4  C   UNL     1      24.295  40.811 149.726  1.00  0.00     0.000 C 
BRANCH   4   5
ATOM      5  C   UNL     1      25.700  40.868 150.358  1.00  0.00     0.000 C 
BRANCH   5   6
ATOM      6  C   UNL     1      26.146  39.575 151.063  1.00  0.00     0.000 C 
BRANCH   6   7
ATOM      7  C   UNL     1      27.104  38.729 150.206  1.00  0.00     0.006 C 
BRANCH   7   8
ATOM      8  C   UNL     1      27.790  39.560 149.114  1.00  0.00     0.053 C 
BRANCH   8   9
ATOM      9  C   UNL     1      29.204  39.119 148.887  1.00  0.00     0.041 C 
ATOM     10  O   UNL     1      30.157  39.753 149.412  1.00  0.00    -0.550 OA
ATOM     11  O   UNL     1      29.472  38.032 148.065  1.00  0.00    -0.550 OA
ENDBRANCH   8   9
ENDBRANCH   7   8
ENDBRANCH   6   7
ENDBRANCH   5   6
ENDBRANCH   4   5
ENDBRANCH   3   4
ENDBRANCH   2   3
ENDBRANCH   1   2
BRANCH   1  12
ATOM     12  C   UNL     1      24.013  37.114 148.762  1.00  0.00     0.000 C 
BRANCH  12  13
ATOM     13  C   UNL     1      24.606  36.777 147.381  1.00  0.00    -0.000 C 
BRANCH  13  14
ATOM     14  C   UNL     1      26.143  36.855 147.352  1.00  0.00    -0.000 C 
BRANCH  14  15
ATOM     15  C   UNL     1      26.788  35.535 146.897  1.00  0.00    -0.000 C 
BRANCH  15  16
ATOM     16  C   UNL     1      27.501  34.803 148.047  1.00  0.00    -0.000 C 
BRANCH  16  17
ATOM     17  C   UNL     1      26.669  33.642 148.624  1.00  0.00    -0.000 C 
BRANCH  17  18
ATOM     18  C   UNL     1      25.615  34.051 149.668  1.00  0.00    -0.000 C 
BRANCH  18  19
ATOM     19  C   UNL     1      24.289  33.293 149.509  1.00  0.00    -0.003 C 
ATOM     20  C   UNL     1      23.942  33.096 148.037  1.00  0.00     0.004 C 
ENDBRANCH  18  19
ENDBRANCH  17  18
ENDBRANCH  16  17
ENDBRANCH  15  16
ENDBRANCH  14  15
ENDBRANCH  13  14
ENDBRANCH  12  13
ENDBRANCH   1  12
TORSDOF 16
ENDMDL
MODEL 6
REMARK VINA RESULT:    -4.974      2.750      5.634
REMARK INTER + INTRA:         -12.111
REMARK INTER:                  -9.458
REMARK INTRA:                  -2.653
REMARK UNBOUND:                -2.485
REMARK SMILES CCCCCCCCCCCCCCCCCC(=O)[O-]
REMARK SMILES IDX 10 1 11 2 12 3 13 4 14 5 15 6 16 7 17 8 18 9 19 10 20 11
REMARK SMILES IDX 9 12 8 13 7 14 6 15 5 16 4 17 3 18 2 19 1 20
REMARK H PARENT
REMARK Flexibility Score: inf
ROOT
ATOM      1  C   UNL     1      24.439  42.034 149.738  1.00  0.00     0.000 C 
ENDROOT
BRANCH   1   2
ATOM      2  C   UNL     1      24.865  42.387 148.303  1.00  0.00     0.000 C 
BRANCH   2   3
ATOM      3  C   UNL     1      24.885  41.166 147.367  1.00  0.00     0.000 C 
BRANCH   3   4
ATOM      4  C   UNL     1      23.702  40.190 147.534  1.00  0.00     0.000 C 
BRANCH   4   5
ATOM      5  C   UNL     1      24.074  38.694 147.497  1.00  0.00     0.000 C 
BRANCH   5   6
ATOM      6  C   UNL     1      23.252  37.799 148.441  1.00  0.00     0.000 C 
BRANCH   6   7
ATOM      7  C   UNL     1      24.012  36.533 148.875  1.00  0.00     0.006 C 
BRANCH   7   8
ATOM      8  C   UNL     1      24.052  35.474 147.766  1.00  0.00     0.053 C 
BRANCH   8   9
ATOM      9  C   UNL     1      24.146  34.087 148.326  1.00  0.00     0.041 C 
ATOM     10  O   UNL     1      24.356  33.913 149.555  1.00  0.00    -0.550 OA
ATOM     11  O   UNL     1      24.040  32.987 147.483  1.00  0.00    -0.550 OA
ENDBRANCH   8   9
ENDBRANCH   7   8
ENDBRANCH   6   7
ENDBRANCH   5   6
ENDBRANCH   4   5
ENDBRANCH   3   4
ENDBRANCH   2   3
ENDBRANCH   1   2
BRANCH   1  12
ATOM     12  C   UNL     1      25.584  41.432 150.574  1.00  0.00     0.000 C 
BRANCH  12  13
ATOM     13  C   UNL     1      25.452  39.930 150.886  1.00  0.00    -0.000 C 
BRANCH  13  14
ATOM     14  C   UNL     1      26.784  39.170 150.752  1.00  0.00    -0.000 C 
BRANCH  14  15
ATOM     15  C   UNL     1      27.210  38.988 149.286  1.00  0.00    -0.000 C 
BRANCH  15  16
ATOM     16  C   UNL     1      27.666  37.551 148.980  1.00  0.00    -0.000 C 
BRANCH  16  17
ATOM     17  C   UNL     1      27.244  36.546 150.067  1.00  0.00    -0.000 C 
BRANCH  17  18
ATOM     18  C   UNL     1      27.721  35.100 149.840  1.00  0.00    -0.000 C 
BRANCH  18  19
ATOM     19  C   UNL     1      27.941  34.768 148.357  1.00  0.00    -0.003 C 
ATOM     20  C   UNL     1      27.776  33.274 148.099  1.00  0.00     0.004 C 
ENDBRANCH  18  19
ENDBRANCH  17  18
ENDBRANCH  16  17
ENDBRANCH  15  16
ENDBRANCH  14  15
ENDBRANCH  13  14
ENDBRANCH  12  13
ENDBRANCH   1  12
TORSDOF 16
ENDMDL
MODEL 7
REMARK VINA RESULT:    -4.964      1.414      3.290
REMARK INTER + INTRA:         -12.092
REMARK INTER:                  -9.344
REMARK INTRA:                  -2.748
REMARK UNBOUND:                -2.485
REMARK SMILES CCCCCCCCCCCCCCCCCC(=O)[O-]
REMARK SMILES IDX 10 1 11 2 12 3 13 4 14 5 15 6 16 7 17 8 18 9 19 10 20 11
REMARK SMILES IDX 9 12 8 13 7 14 6 15 5 16 4 17 3 18 2 19 1 20
REMARK H PARENT
REMARK Flexibility Score: inf
ROOT
ATOM      1  C   UNL     1      24.220  38.048 147.605  1.00  0.00     0.000 C 
ENDROOT
BRANCH   1   2
ATOM      2  C   UNL     1      23.257  37.458 148.649  1.00  0.00     0.000 C 
BRANCH   2   3
ATOM      3  C   UNL     1      23.248  38.250 149.969  1.00  0.00     0.000 C 
BRANCH   3   4
ATOM      4  C   UNL     1      24.106  39.532 149.972  1.00  0.00     0.000 C 
BRANCH   4   5
ATOM      5  C   UNL     1      25.134  39.630 151.117  1.00  0.00     0.000 C 
BRANCH   5   6
ATOM      6  C   UNL     1      26.350  40.526 150.819  1.00  0.00     0.000 C 
BRANCH   6   7
ATOM      7  C   UNL     1      26.279  41.186 149.431  1.00  0.00     0.006 C 
BRANCH   7   8
ATOM      8  C   UNL     1      26.072  42.703 149.521  1.00  0.00     0.053 C 
BRANCH   8   9
ATOM      9  C   UNL     1      24.623  43.072 149.415  1.00  0.00     0.041 C 
ATOM     10  O   UNL     1      23.953  43.312 150.454  1.00  0.00    -0.550 OA
ATOM     11  O   UNL     1      24.004  43.114 148.172  1.00  0.00    -0.550 OA
ENDBRANCH   8   9
ENDBRANCH   7   8
ENDBRANCH   6   7
ENDBRANCH   5   6
ENDBRANCH   4   5
ENDBRANCH   3   4
ENDBRANCH   2   3
ENDBRANCH   1   2
BRANCH   1  12
ATOM     12  C   UNL     1      25.511  37.225 147.446  1.00  0.00     0.000 C 
BRANCH  12  13
ATOM     13  C   UNL     1      26.819  37.989 147.724  1.00  0.00    -0.000 C 
BRANCH  13  14
ATOM     14  C   UNL     1      27.838  37.163 148.528  1.00  0.00    -0.000 C 
BRANCH  14  15
ATOM     15  C   UNL     1      27.382  36.916 149.976  1.00  0.00    -0.000 C 
BRANCH  15  16
ATOM     16  C   UNL     1      27.335  35.419 150.330  1.00  0.00    -0.000 C 
BRANCH  16  17
ATOM     17  C   UNL     1      27.685  34.511 149.137  1.00  0.00    -0.000 C 
BRANCH  17  18
ATOM     18  C   UNL     1      26.508  33.699 148.568  1.00  0.00    -0.000 C 
BRANCH  18  19
ATOM     19  C   UNL     1      25.177  33.996 149.274  1.00  0.00    -0.003 C 
ATOM     20  C   UNL     1      24.005  33.375 148.523  1.00  0.00     0.004 C 
ENDBRANCH  18  19
ENDBRANCH  17  18
ENDBRANCH  16  17
ENDBRANCH  15  16
ENDBRANCH  14  15
ENDBRANCH  13  14
ENDBRANCH  12  13
ENDBRANCH   1  12
TORSDOF 16
ENDMDL
MODEL 8
REMARK VINA RESULT:    -4.950      2.561      5.854
REMARK INTER + INTRA:         -12.065
REMARK INTER:                  -9.529
REMARK INTRA:                  -2.536
REMARK UNBOUND:                -2.485
REMARK SMILES CCCCCCCCCCCCCCCCCC(=O)[O-]
REMARK SMILES IDX 10 1 11 2 12 3 13 4 14 5 15 6 16 7 17 8 18 9 19 10 20 11
REMARK SMILES IDX 9 12 8 13 7 14 6 15 5 16 4 17 3 18 2 19 1 20
REMARK H PARENT
REMARK Flexibility Score: inf
ROOT
ATOM      1  C   UNL     1      23.535  40.104 147.436  1.00  0.00     0.000 C 
ENDROOT
BRANCH   1   2
ATOM      2  C   UNL     1      23.539  38.817 148.278  1.00  0.00     0.000 C 
BRANCH   2   3
ATOM      3  C   UNL     1      23.587  37.541 147.420  1.00  0.00     0.000 C 
BRANCH   3   4
ATOM      4  C   UNL     1      24.179  36.300 148.119  1.00  0.00     0.000 C 
BRANCH   4   5
ATOM      5  C   UNL     1      23.941  34.961 147.393  1.00  0.00     0.000 C 
BRANCH   5   6
ATOM      6  C   UNL     1      24.051  33.712 148.287  1.00  0.00     0.000 C 
BRANCH   6   7
ATOM      7  C   UNL     1      25.264  33.759 149.232  1.00  0.00     0.006 C 
BRANCH   7   8
ATOM      8  C   UNL     1      26.588  33.555 148.484  1.00  0.00     0.053 C 
BRANCH   8   9
ATOM      9  C   UNL     1      27.701  34.347 149.099  1.00  0.00     0.041 C 
ATOM     10  O   UNL     1      28.740  34.602 148.435  1.00  0.00    -0.550 OA
ATOM     11  O   UNL     1      27.608  34.771 150.419  1.00  0.00    -0.550 OA
ENDBRANCH   8   9
ENDBRANCH   7   8
ENDBRANCH   6   7
ENDBRANCH   5   6
ENDBRANCH   4   5
ENDBRANCH   3   4
ENDBRANCH   2   3
ENDBRANCH   1   2
BRANCH   1  12
ATOM     12  C   UNL     1      24.446  41.203 148.014  1.00  0.00     0.000 C 
BRANCH  12  13
ATOM     13  C   UNL     1      24.285  41.468 149.523  1.00  0.00    -0.000 C 
BRANCH  13  14
ATOM     14  C   UNL     1      25.612  41.366 150.295  1.00  0.00    -0.000 C 
BRANCH  14  15
ATOM     15  C   UNL     1      25.757  40.029 151.040  1.00  0.00    -0.000 C 
BRANCH  15  16
ATOM     16  C   UNL     1      27.073  39.308 150.702  1.00  0.00    -0.000 C 
BRANCH  16  17
ATOM     17  C   UNL     1      26.866  38.073 149.806  1.00  0.00    -0.000 C 
BRANCH  17  18
ATOM     18  C   UNL     1      27.761  38.017 148.555  1.00  0.00    -0.000 C 
BRANCH  18  19
ATOM     19  C   UNL     1      27.094  38.624 147.313  1.00  0.00    -0.003 C 
ATOM     20  C   UNL     1      27.717  39.970 146.956  1.00  0.00     0.004 C 
ENDBRANCH  18  19
ENDBRANCH  17  18
ENDBRANCH  16  17
ENDBRANCH  15  16
ENDBRANCH  14  15
ENDBRANCH  13  14
ENDBRANCH  12  13
ENDBRANCH   1  12
TORSDOF 16
ENDMDL
MODEL 9
REMARK VINA RESULT:    -4.919      3.036      6.381
REMARK INTER + INTRA:         -12.004
REMARK INTER:                  -9.545
REMARK INTRA:                  -2.459
REMARK UNBOUND:                -2.485
REMARK SMILES CCCCCCCCCCCCCCCCCC(=O)[O-]
REMARK SMILES IDX 10 1 11 2 12 3 13 4 14 5 15 6 16 7 17 8 18 9 19 10 20 11
REMARK SMILES IDX 9 12 8 13 7 14 6 15 5 16 4 17 3 18 2 19 1 20
REMARK H PARENT
REMARK Flexibility Score: inf
ROOT
ATOM      1  C   UNL     1      23.925  37.910 147.667  1.00  0.00     0.000 C 
ENDROOT
BRANCH   1   2
ATOM      2  C   UNL     1      25.220  37.725 148.475  1.00  0.00     0.000 C 
BRANCH   2   3
ATOM      3  C   UNL     1      26.443  37.435 147.587  1.00  0.00     0.000 C 
BRANCH   3   4
ATOM      4  C   UNL     1      27.588  36.664 148.276  1.00  0.00     0.000 C 
BRANCH   4   5
ATOM      5  C   UNL     1      27.410  36.441 149.792  1.00  0.00     0.000 C 
BRANCH   5   6
ATOM      6  C   UNL     1      27.354  34.965 150.226  1.00  0.00     0.000 C 
BRANCH   6   7
ATOM      7  C   UNL     1      26.552  34.087 149.251  1.00  0.00     0.006 C 
BRANCH   7   8
ATOM      8  C   UNL     1      25.043  34.151 149.521  1.00  0.00     0.053 C 
BRANCH   8   9
ATOM      9  C   UNL     1      24.252  33.536 148.406  1.00  0.00     0.041 C 
ATOM     10  O   UNL     1      24.225  32.285 148.264  1.00  0.00    -0.550 OA
ATOM     11  O   UNL     1      23.579  34.346 147.501  1.00  0.00    -0.550 OA
ENDBRANCH   8   9
ENDBRANCH   7   8
ENDBRANCH   6   7
ENDBRANCH   5   6
ENDBRANCH   4   5
ENDBRANCH   3   4
ENDBRANCH   2   3
ENDBRANCH   1   2
BRANCH   1  12
ATOM     12  C   UNL     1      23.436  39.370 147.642  1.00  0.00     0.000 C 
BRANCH  12  13
ATOM     13  C   UNL     1      24.541  40.437 147.751  1.00  0.00    -0.000 C 
BRANCH  13  14
ATOM     14  C   UNL     1      24.005  41.813 148.187  1.00  0.00    -0.000 C 
BRANCH  14  15
ATOM     15  C   UNL     1      24.373  42.152 149.641  1.00  0.00    -0.000 C 
BRANCH  15  16
ATOM     16  C   UNL     1      24.801  40.912 150.444  1.00  0.00    -0.000 C 
BRANCH  16  17
ATOM     17  C   UNL     1      26.193  41.065 151.085  1.00  0.00    -0.000 C 
BRANCH  17  18
ATOM     18  C   UNL     1      27.152  39.884 150.851  1.00  0.00    -0.000 C 
BRANCH  18  19
ATOM     19  C   UNL     1      28.424  40.287 150.092  1.00  0.00    -0.003 C 
ATOM     20  C   UNL     1      28.124  40.557 148.621  1.00  0.00     0.004 C 
ENDBRANCH  18  19
ENDBRANCH  17  18
ENDBRANCH  16  17
ENDBRANCH  15  16
ENDBRANCH  14  15
ENDBRANCH  13  14
ENDBRANCH  12  13
ENDBRANCH   1  12
TORSDOF 16
ENDMDL
