MODEL 1
REMARK VINA RESULT:    -4.604      0.000      0.000
REMARK INTER + INTRA:          -7.022
REMARK INTER:                  -6.219
REMARK INTRA:                  -0.803
REMARK UNBOUND:                -0.803
REMARK SMILES CC(=O)CCC=C(C)CCC=C(C)C
REMARK SMILES IDX 7 1 6 2 8 3 9 4 10 5 11 6 13 7 12 8 14 9 5 10 4 11 2 12 3 13
REMARK SMILES IDX 1 14
REMARK H PARENT
REMARK Flexibility Score: inf
ROOT
ATOM      1  C   UNL     1       4.391  29.394  53.353  1.00  0.00    -0.077 C 
ATOM      2  C   UNL     1       4.665  28.452  52.421  1.00  0.00    -0.028 C 
ATOM      3  C   UNL     1       3.636  30.658  53.014  1.00  0.00     0.039 C 
ENDROOT
BRANCH   1   4
ATOM      4  C   UNL     1       4.855  29.175  54.779  1.00  0.00     0.034 C 
BRANCH   4   5
ATOM      5  C   UNL     1       4.124  28.000  55.443  1.00  0.00     0.032 C 
BRANCH   5   6
ATOM      6  C   UNL     1       3.151  28.470  56.497  1.00  0.00    -0.028 C 
ATOM      7  C   UNL     1       1.156  28.257  54.998  1.00  0.00     0.039 C 
ATOM      8  C   UNL     1       1.814  28.561  56.323  1.00  0.00    -0.080 C 
ATOM      9  C   UNL     1       0.967  28.999  57.490  1.00  0.00     0.039 C 
ENDBRANCH   5   6
ENDBRANCH   4   5
ENDBRANCH   1   4
BRANCH   2  10
ATOM     10  C   UNL     1       4.303  28.556  50.956  1.00  0.00     0.035 C 
BRANCH  10  11
ATOM     11  C   UNL     1       5.385  27.939  50.065  1.00  0.00     0.079 C 
BRANCH  11  12
ATOM     12  C   UNL     1       4.825  26.866  49.168  1.00  0.00     0.130 C 
ATOM     13  O   UNL     1       4.779  27.053  47.961  1.00  0.00    -0.300 OA
ATOM     14  C   UNL     1       4.317  25.572  49.728  1.00  0.00     0.087 C 
ENDBRANCH  11  12
ENDBRANCH  10  11
ENDBRANCH   2  10
TORSDOF 6
ENDMDL
MODEL 2
REMARK VINA RESULT:    -4.529      2.865      3.474
REMARK INTER + INTRA:          -6.921
REMARK INTER:                  -6.097
REMARK INTRA:                  -0.824
REMARK UNBOUND:                -0.803
REMARK SMILES CC(=O)CCC=C(C)CCC=C(C)C
REMARK SMILES IDX 7 1 6 2 8 3 9 4 10 5 11 6 13 7 12 8 14 9 5 10 4 11 2 12 3 13
REMARK SMILES IDX 1 14
REMARK H PARENT
REMARK Flexibility Score: inf
ROOT
ATOM      1  C   UNL     1       4.780  28.961  55.296  1.00  0.00    -0.077 C 
ATOM      2  C   UNL     1       5.744  29.829  54.910  1.00  0.00    -0.028 C 
ATOM      3  C   UNL     1       3.986  28.151  54.298  1.00  0.00     0.039 C 
ENDROOT
BRANCH   1   4
ATOM      4  C   UNL     1       4.488  28.797  56.775  1.00  0.00     0.034 C 
BRANCH   4   5
ATOM      5  C   UNL     1       3.274  27.890  57.020  1.00  0.00     0.032 C 
BRANCH   5   6
ATOM      6  C   UNL     1       2.069  28.677  57.475  1.00  0.00    -0.028 C 
ATOM      7  C   UNL     1       0.720  28.119  55.440  1.00  0.00     0.039 C 
ATOM      8  C   UNL     1       0.905  28.765  56.792  1.00  0.00    -0.080 C 
ATOM      9  C   UNL     1      -0.227  29.549  57.404  1.00  0.00     0.039 C 
ENDBRANCH   5   6
ENDBRANCH   4   5
ENDBRANCH   1   4
BRANCH   2  10
ATOM     10  C   UNL     1       6.113  30.125  53.474  1.00  0.00     0.035 C 
BRANCH  10  11
ATOM     11  C   UNL     1       5.463  31.423  52.984  1.00  0.00     0.079 C 
BRANCH  11  12
ATOM     12  C   UNL     1       4.128  31.168  52.331  1.00  0.00     0.130 C 
ATOM     13  O   UNL     1       3.105  31.526  52.894  1.00  0.00    -0.300 OA
ATOM     14  C   UNL     1       4.032  30.477  51.005  1.00  0.00     0.087 C 
ENDBRANCH  11  12
ENDBRANCH  10  11
ENDBRANCH   2  10
TORSDOF 6
ENDMDL
MODEL 3
REMARK VINA RESULT:    -4.346      2.982      6.698
REMARK INTER + INTRA:          -6.674
REMARK INTER:                  -6.227
REMARK INTRA:                  -0.447
REMARK UNBOUND:                -0.803
REMARK SMILES CC(=O)CCC=C(C)CCC=C(C)C
REMARK SMILES IDX 7 1 6 2 8 3 9 4 10 5 11 6 13 7 12 8 14 9 5 10 4 11 2 12 3 13
REMARK SMILES IDX 1 14
REMARK H PARENT
REMARK Flexibility Score: inf
ROOT
ATOM      1  C   UNL     1       4.197  29.450  52.870  1.00  0.00    -0.077 C 
ATOM      2  C   UNL     1       3.923  28.478  53.771  1.00  0.00    -0.028 C 
ATOM      3  C   UNL     1       3.560  30.818  52.951  1.00  0.00     0.039 C 
ENDROOT
BRANCH   1   4
ATOM      4  C   UNL     1       5.172  29.158  51.747  1.00  0.00     0.034 C 
BRANCH   4   5
ATOM      5  C   UNL     1       4.474  28.524  50.535  1.00  0.00     0.032 C 
BRANCH   5   6
ATOM      6  C   UNL     1       4.801  27.056  50.405  1.00  0.00    -0.028 C 
ATOM      7  C   UNL     1       4.272  26.978  47.958  1.00  0.00     0.039 C 
ATOM      8  C   UNL     1       4.745  26.356  49.251  1.00  0.00    -0.080 C 
ATOM      9  C   UNL     1       5.152  24.905  49.272  1.00  0.00     0.039 C 
ENDBRANCH   5   6
ENDBRANCH   4   5
ENDBRANCH   1   4
BRANCH   2  10
ATOM     10  C   UNL     1       2.942  28.613  54.914  1.00  0.00     0.035 C 
BRANCH  10  11
ATOM     11  C   UNL     1       3.610  28.328  56.263  1.00  0.00     0.079 C 
BRANCH  11  12
ATOM     12  C   UNL     1       2.598  28.225  57.376  1.00  0.00     0.130 C 
ATOM     13  O   UNL     1       2.829  27.503  58.335  1.00  0.00    -0.300 OA
ATOM     14  C   UNL     1       1.310  28.988  57.328  1.00  0.00     0.087 C 
ENDBRANCH  11  12
ENDBRANCH  10  11
ENDBRANCH   2  10
TORSDOF 6
ENDMDL
MODEL 4
REMARK VINA RESULT:    -4.307      3.150      6.616
REMARK INTER + INTRA:          -6.620
REMARK INTER:                  -5.971
REMARK INTRA:                  -0.649
REMARK UNBOUND:                -0.803
REMARK SMILES CC(=O)CCC=C(C)CCC=C(C)C
REMARK SMILES IDX 7 1 6 2 8 3 9 4 10 5 11 6 13 7 12 8 14 9 5 10 4 11 2 12 3 13
REMARK SMILES IDX 1 14
REMARK H PARENT
REMARK Flexibility Score: inf
ROOT
ATOM      1  C   UNL     1       3.739  28.582  54.862  1.00  0.00    -0.077 C 
ATOM      2  C   UNL     1       2.460  28.622  54.423  1.00  0.00    -0.028 C 
ATOM      3  C   UNL     1       4.124  27.874  56.139  1.00  0.00     0.039 C 
ENDROOT
BRANCH   1   4
ATOM      4  C   UNL     1       4.818  29.268  54.047  1.00  0.00     0.034 C 
BRANCH   4   5
ATOM      5  C   UNL     1       4.426  29.390  52.568  1.00  0.00     0.032 C 
BRANCH   5   6
ATOM      6  C   UNL     1       4.827  28.168  51.779  1.00  0.00    -0.028 C 
ATOM      7  C   UNL     1       3.833  29.009  49.639  1.00  0.00     0.039 C 
ATOM      8  C   UNL     1       4.596  27.995  50.458  1.00  0.00    -0.080 C 
ATOM      9  C   UNL     1       5.105  26.738  49.800  1.00  0.00     0.039 C 
ENDBRANCH   5   6
ENDBRANCH   4   5
ENDBRANCH   1   4
BRANCH   2  10
ATOM     10  C   UNL     1       1.279  28.021  55.151  1.00  0.00     0.035 C 
BRANCH  10  11
ATOM     11  C   UNL     1       0.144  29.037  55.314  1.00  0.00     0.079 C 
BRANCH  11  12
ATOM     12  C   UNL     1      -0.034  29.450  56.753  1.00  0.00     0.130 C 
ATOM     13  O   UNL     1      -1.106  29.907  57.120  1.00  0.00    -0.300 OA
ATOM     14  C   UNL     1       1.082  29.315  57.743  1.00  0.00     0.087 C 
ENDBRANCH  11  12
ENDBRANCH  10  11
ENDBRANCH   2  10
TORSDOF 6
ENDMDL
MODEL 5
REMARK VINA RESULT:    -4.227      2.526      6.478
REMARK INTER + INTRA:          -6.513
REMARK INTER:                  -6.010
REMARK INTRA:                  -0.504
REMARK UNBOUND:                -0.803
REMARK SMILES CC(=O)CCC=C(C)CCC=C(C)C
REMARK SMILES IDX 7 1 6 2 8 3 9 4 10 5 11 6 13 7 12 8 14 9 5 10 4 11 2 12 3 13
REMARK SMILES IDX 1 14
REMARK H PARENT
REMARK Flexibility Score: inf
ROOT
ATOM      1  C   UNL     1       4.230  29.301  53.137  1.00  0.00    -0.077 C 
ATOM      2  C   UNL     1       4.082  28.385  54.122  1.00  0.00    -0.028 C 
ATOM      3  C   UNL     1       3.527  30.638  53.175  1.00  0.00     0.039 C 
ENDROOT
BRANCH   1   4
ATOM      4  C   UNL     1       5.129  28.977  51.960  1.00  0.00     0.034 C 
BRANCH   4   5
ATOM      5  C   UNL     1       4.667  27.714  51.220  1.00  0.00     0.032 C 
BRANCH   5   6
ATOM      6  C   UNL     1       4.315  28.005  49.781  1.00  0.00    -0.028 C 
ATOM      7  C   UNL     1       4.768  25.663  49.016  1.00  0.00     0.039 C 
ATOM      8  C   UNL     1       4.326  27.089  48.787  1.00  0.00    -0.080 C 
ATOM      9  C   UNL     1       3.898  27.523  47.408  1.00  0.00     0.039 C 
ENDBRANCH   5   6
ENDBRANCH   4   5
ENDBRANCH   1   4
BRANCH   2  10
ATOM     10  C   UNL     1       3.188  28.554  55.329  1.00  0.00     0.035 C 
BRANCH  10  11
ATOM     11  C   UNL     1       1.740  28.166  55.015  1.00  0.00     0.079 C 
BRANCH  11  12
ATOM     12  C   UNL     1       0.762  29.180  55.551  1.00  0.00     0.130 C 
ATOM     13  O   UNL     1       0.290  30.018  54.797  1.00  0.00    -0.300 OA
ATOM     14  C   UNL     1       0.359  29.184  56.994  1.00  0.00     0.087 C 
ENDBRANCH  11  12
ENDBRANCH  10  11
ENDBRANCH   2  10
TORSDOF 6
ENDMDL
MODEL 6
REMARK VINA RESULT:    -4.142      3.774      6.370
REMARK INTER + INTRA:          -6.399
REMARK INTER:                  -5.647
REMARK INTRA:                  -0.752
REMARK UNBOUND:                -0.803
REMARK SMILES CC(=O)CCC=C(C)CCC=C(C)C
REMARK SMILES IDX 7 1 6 2 8 3 9 4 10 5 11 6 13 7 12 8 14 9 5 10 4 11 2 12 3 13
REMARK SMILES IDX 1 14
REMARK H PARENT
REMARK Flexibility Score: inf
ROOT
ATOM      1  C   UNL     1       4.403  28.784  55.177  1.00  0.00    -0.077 C 
ATOM      2  C   UNL     1       3.214  28.916  54.544  1.00  0.00    -0.028 C 
ATOM      3  C   UNL     1       4.589  27.837  56.340  1.00  0.00     0.039 C 
ENDROOT
BRANCH   1   4
ATOM      4  C   UNL     1       5.583  29.611  54.707  1.00  0.00     0.034 C 
BRANCH   4   5
ATOM      5  C   UNL     1       5.575  29.802  53.183  1.00  0.00     0.032 C 
BRANCH   5   6
ATOM      6  C   UNL     1       6.001  31.196  52.792  1.00  0.00    -0.028 C 
ATOM      7  C   UNL     1       3.698  31.889  52.092  1.00  0.00     0.039 C 
ATOM      8  C   UNL     1       5.166  32.153  52.330  1.00  0.00    -0.080 C 
ATOM      9  C   UNL     1       5.734  33.517  52.030  1.00  0.00     0.039 C 
ENDBRANCH   5   6
ENDBRANCH   4   5
ENDBRANCH   1   4
BRANCH   2  10
ATOM     10  C   UNL     1       1.946  28.190  54.931  1.00  0.00     0.035 C 
BRANCH  10  11
ATOM     11  C   UNL     1       0.803  29.170  55.214  1.00  0.00     0.079 C 
BRANCH  11  12
ATOM     12  C   UNL     1       0.516  29.282  56.690  1.00  0.00     0.130 C 
ATOM     13  O   UNL     1       1.441  29.244  57.487  1.00  0.00    -0.300 OA
ATOM     14  C   UNL     1      -0.884  29.435  57.200  1.00  0.00     0.087 C 
ENDBRANCH  11  12
ENDBRANCH  10  11
ENDBRANCH   2  10
TORSDOF 6
ENDMDL
MODEL 7
REMARK VINA RESULT:    -4.137      2.621      4.004
REMARK INTER + INTRA:          -6.391
REMARK INTER:                  -5.491
REMARK INTRA:                  -0.900
REMARK UNBOUND:                -0.803
REMARK SMILES CC(=O)CCC=C(C)CCC=C(C)C
REMARK SMILES IDX 7 1 6 2 8 3 9 4 10 5 11 6 13 7 12 8 14 9 5 10 4 11 2 12 3 13
REMARK SMILES IDX 1 14
REMARK H PARENT
REMARK Flexibility Score: inf
ROOT
ATOM      1  C   UNL     1       4.561  29.516  53.483  1.00  0.00    -0.077 C 
ATOM      2  C   UNL     1       4.267  30.794  53.151  1.00  0.00    -0.028 C 
ATOM      3  C   UNL     1       4.427  28.381  52.494  1.00  0.00     0.039 C 
ENDROOT
BRANCH   1   4
ATOM      4  C   UNL     1       5.038  29.213  54.889  1.00  0.00     0.034 C 
BRANCH   4   5
ATOM      5  C   UNL     1       4.287  28.023  55.504  1.00  0.00     0.032 C 
BRANCH   5   6
ATOM      6  C   UNL     1       3.281  28.469  56.537  1.00  0.00    -0.028 C 
ATOM      7  C   UNL     1       1.341  28.337  54.958  1.00  0.00     0.039 C 
ATOM      8  C   UNL     1       1.952  28.585  56.317  1.00  0.00    -0.080 C 
ATOM      9  C   UNL     1       1.068  28.993  57.467  1.00  0.00     0.039 C 
ENDBRANCH   5   6
ENDBRANCH   4   5
ENDBRANCH   1   4
BRANCH   2  10
ATOM     10  C   UNL     1       3.741  31.236  51.803  1.00  0.00     0.035 C 
BRANCH  10  11
ATOM     11  C   UNL     1       3.028  32.589  51.895  1.00  0.00     0.079 C 
BRANCH  11  12
ATOM     12  C   UNL     1       1.539  32.424  52.065  1.00  0.00     0.130 C 
ATOM     13  O   UNL     1       0.799  32.634  51.116  1.00  0.00    -0.300 OA
ATOM     14  C   UNL     1       0.947  32.013  53.378  1.00  0.00     0.087 C 
ENDBRANCH  11  12
ENDBRANCH  10  11
ENDBRANCH   2  10
TORSDOF 6
ENDMDL
MODEL 8
REMARK VINA RESULT:    -4.069     11.033     12.013
REMARK INTER + INTRA:          -6.300
REMARK INTER:                  -5.643
REMARK INTRA:                  -0.657
REMARK UNBOUND:                -0.803
REMARK SMILES CC(=O)CCC=C(C)CCC=C(C)C
REMARK SMILES IDX 7 1 6 2 8 3 9 4 10 5 11 6 13 7 12 8 14 9 5 10 4 11 2 12 3 13
REMARK SMILES IDX 1 14
REMARK H PARENT
REMARK Flexibility Score: inf
ROOT
ATOM      1  C   UNL     1      -7.862  30.371  55.960  1.00  0.00    -0.077 C 
ATOM      2  C   UNL     1      -8.188  29.233  56.616  1.00  0.00    -0.028 C 
ATOM      3  C   UNL     1      -7.917  30.469  54.454  1.00  0.00     0.039 C 
ENDROOT
BRANCH   1   4
ATOM      4  C   UNL     1      -7.428  31.582  56.761  1.00  0.00     0.034 C 
BRANCH   4   5
ATOM      5  C   UNL     1      -7.656  31.384  58.266  1.00  0.00     0.032 C 
BRANCH   5   6
ATOM      6  C   UNL     1      -6.425  31.729  59.069  1.00  0.00    -0.028 C 
ATOM      7  C   UNL     1      -5.297  29.542  58.602  1.00  0.00     0.039 C 
ATOM      8  C   UNL     1      -5.346  30.926  59.204  1.00  0.00    -0.080 C 
ATOM      9  C   UNL     1      -4.170  31.434  59.998  1.00  0.00     0.039 C 
ENDBRANCH   5   6
ENDBRANCH   4   5
ENDBRANCH   1   4
BRANCH   2  10
ATOM     10  C   UNL     1      -8.596  27.939  55.949  1.00  0.00     0.035 C 
BRANCH  10  11
ATOM     11  C   UNL     1      -7.592  26.818  56.237  1.00  0.00     0.079 C 
BRANCH  11  12
ATOM     12  C   UNL     1      -7.582  25.782  55.142  1.00  0.00     0.130 C 
ATOM     13  O   UNL     1      -7.583  26.140  53.974  1.00  0.00    -0.300 OA
ATOM     14  C   UNL     1      -7.576  24.317  55.459  1.00  0.00     0.087 C 
ENDBRANCH  11  12
ENDBRANCH  10  11
ENDBRANCH   2  10
TORSDOF 6
ENDMDL
MODEL 9
REMARK VINA RESULT:    -4.065     11.295     13.499
REMARK INTER + INTRA:          -6.294
REMARK INTER:                  -5.752
REMARK INTRA:                  -0.542
REMARK UNBOUND:                -0.803
REMARK SMILES CC(=O)CCC=C(C)CCC=C(C)C
REMARK SMILES IDX 7 1 6 2 8 3 9 4 10 5 11 6 13 7 12 8 14 9 5 10 4 11 2 12 3 13
REMARK SMILES IDX 1 14
REMARK H PARENT
REMARK Flexibility Score: inf
ROOT
ATOM      1  C   UNL     1      -6.115  30.002  58.097  1.00  0.00    -0.077 C 
ATOM      2  C   UNL     1      -7.091  30.864  57.729  1.00  0.00    -0.028 C 
ATOM      3  C   UNL     1      -4.976  30.420  58.997  1.00  0.00     0.039 C 
ENDROOT
BRANCH   1   4
ATOM      4  C   UNL     1      -6.166  28.574  57.592  1.00  0.00     0.034 C 
BRANCH   4   5
ATOM      5  C   UNL     1      -7.447  28.297  56.791  1.00  0.00     0.032 C 
BRANCH   5   6
ATOM      6  C   UNL     1      -7.662  26.819  56.574  1.00  0.00    -0.028 C 
ATOM      7  C   UNL     1      -6.711  26.844  54.257  1.00  0.00     0.039 C 
ATOM      8  C   UNL     1      -7.310  26.147  55.456  1.00  0.00    -0.080 C 
ATOM      9  C   UNL     1      -7.544  24.658  55.410  1.00  0.00     0.039 C 
ENDBRANCH   5   6
ENDBRANCH   4   5
ENDBRANCH   1   4
BRANCH   2  10
ATOM     10  C   UNL     1      -7.146  32.323  58.121  1.00  0.00     0.035 C 
BRANCH  10  11
ATOM     11  C   UNL     1      -8.481  32.961  57.726  1.00  0.00     0.079 C 
BRANCH  11  12
ATOM     12  C   UNL     1      -9.641  32.318  58.444  1.00  0.00     0.130 C 
ATOM     13  O   UNL     1      -9.584  32.154  59.653  1.00  0.00    -0.300 OA
ATOM     14  C   UNL     1     -10.863  31.870  57.701  1.00  0.00     0.087 C 
ENDBRANCH  11  12
ENDBRANCH  10  11
ENDBRANCH   2  10
TORSDOF 6
ENDMDL
