MODEL 1
REMARK VINA RESULT:    -7.863      0.000      0.000
REMARK INTER + INTRA:         -12.465
REMARK INTER:                 -11.540
REMARK INTRA:                  -0.925
REMARK UNBOUND:                -0.925
REMARK SMILES O=c1c(O[C@H]2O[C@H](CO)[C@H](O)[C@H](O)[C@@H]2O)c(-c2ccc(O)c(O)c2)oc2cc(O)cc(O)c12
REMARK SMILES IDX 4 1 3 2 16 3 25 4 2 5 26 6 1 7 33 8 27 9 31 10 28 11 30 12
REMARK SMILES IDX 17 13 18 14 19 15 20 16 24 17 22 18 21 19 23 21 32 23 29 25
REMARK SMILES IDX 5 27 14 28 6 29 12 30 7 31 10 32 15 33 13 35 8 37 9 38 11 40
REMARK H PARENT 21 20 23 22 32 24 29 26 15 34 13 36 9 39 11 41
REMARK Flexibility Score: inf
ROOT
ATOM      1  O   UNL     1       5.817  15.333  18.820  1.00  0.00    -0.454 OA
ENDROOT
BRANCH   1   2
ATOM      2  C   UNL     1       5.249  15.589  17.562  1.00  0.00     0.214 A 
ATOM      3  C   UNL     1       4.635  14.532  16.862  1.00  0.00     0.180 A 
ATOM      4  O   UNL     1       4.120  14.740  15.654  1.00  0.00    -0.452 OA
ATOM      5  C   UNL     1       5.276  16.865  16.966  1.00  0.00     0.239 A 
ATOM      6  C   UNL     1       4.133  15.922  15.052  1.00  0.00     0.146 A 
ATOM      7  O   UNL     1       5.775  17.840  17.588  1.00  0.00    -0.285 OA
ATOM      8  C   UNL     1       4.715  17.046  15.683  1.00  0.00     0.111 A 
ATOM      9  C   UNL     1       3.555  16.045  13.784  1.00  0.00     0.094 A 
ATOM     10  C   UNL     1       4.710  18.294  15.013  1.00  0.00     0.134 A 
ATOM     11  C   UNL     1       3.549  17.281  13.128  1.00  0.00     0.123 A 
ATOM     12  C   UNL     1       4.125  18.397  13.741  1.00  0.00     0.093 A 
BRANCH   3  13
ATOM     13  C   UNL     1       4.584  13.162  17.415  1.00  0.00     0.025 A 
ATOM     14  C   UNL     1       5.335  12.117  16.850  1.00  0.00     0.016 A 
ATOM     15  C   UNL     1       5.270  10.832  17.391  1.00  0.00     0.051 A 
ATOM     16  C   UNL     1       4.456  10.570  18.503  1.00  0.00     0.157 A 
ATOM     17  C   UNL     1       3.786  12.902  18.541  1.00  0.00     0.062 A 
ATOM     18  C   UNL     1       3.711  11.612  19.079  1.00  0.00     0.158 A 
BRANCH  16  19
ATOM     19  O   UNL     1       4.386   9.283  19.034  1.00  0.00    -0.504 OA
ATOM     20  H   UNL     1       3.570   8.958  19.538  1.00  0.00     0.293 HD
ENDBRANCH  16  19
BRANCH  18  21
ATOM     21  O   UNL     1       2.890  11.384  20.182  1.00  0.00    -0.504 OA
ATOM     22  H   UNL     1       1.935  11.723  20.223  1.00  0.00     0.293 HD
ENDBRANCH  18  21
ENDBRANCH   3  13
BRANCH  10  23
ATOM     23  O   UNL     1       5.280  19.428  15.595  1.00  0.00    -0.507 OA
ATOM     24  H   UNL     1       4.728  20.249  15.815  1.00  0.00     0.293 HD
ENDBRANCH  10  23
BRANCH  11  25
ATOM     25  O   UNL     1       2.970  17.413  11.868  1.00  0.00    -0.508 OA
ATOM     26  H   UNL     1       2.454  16.655  11.438  1.00  0.00     0.293 HD
ENDBRANCH  11  25
ENDBRANCH   1   2
BRANCH   1  27
ATOM     27  C   UNL     1       5.867  16.268  19.904  1.00  0.00     0.339 C 
ATOM     28  C   UNL     1       7.283  16.277  20.515  1.00  0.00     0.214 C 
ATOM     29  O   UNL     1       4.882  15.989  20.891  1.00  0.00    -0.332 OA
ATOM     30  C   UNL     1       7.552  14.950  21.248  1.00  0.00     0.180 C 
ATOM     31  C   UNL     1       5.057  14.701  21.465  1.00  0.00     0.179 C 
ATOM     32  C   UNL     1       6.404  14.622  22.223  1.00  0.00     0.177 C 
BRANCH  28  33
ATOM     33  O   UNL     1       7.410  17.355  21.408  1.00  0.00    -0.384 OA
ATOM     34  H   UNL     1       8.382  17.477  21.577  1.00  0.00     0.211 HD
ENDBRANCH  28  33
BRANCH  30  35
ATOM     35  O   UNL     1       8.775  15.023  21.935  1.00  0.00    -0.387 OA
ATOM     36  H   UNL     1       8.570  14.919  22.900  1.00  0.00     0.211 HD
ENDBRANCH  30  35
BRANCH  31  37
ATOM     37  C   UNL     1       3.860  14.421  22.388  1.00  0.00     0.191 C 
BRANCH  37  38
ATOM     38  O   UNL     1       3.608  13.046  22.484  1.00  0.00    -0.394 OA
ATOM     39  H   UNL     1       3.968  12.624  21.660  1.00  0.00     0.210 HD
ENDBRANCH  37  38
ENDBRANCH  31  37
BRANCH  32  40
ATOM     40  O   UNL     1       6.419  15.532  23.298  1.00  0.00    -0.387 OA
ATOM     41  H   UNL     1       5.766  15.204  23.968  1.00  0.00     0.211 HD
ENDBRANCH  32  40
ENDBRANCH   1  27
TORSDOF 12
ENDMDL
MODEL 2
REMARK VINA RESULT:    -7.749      1.570      2.101
REMARK INTER + INTRA:         -12.297
REMARK INTER:                 -11.185
REMARK INTRA:                  -1.112
REMARK UNBOUND:                -0.925
REMARK SMILES O=c1c(O[C@H]2O[C@H](CO)[C@H](O)[C@H](O)[C@@H]2O)c(-c2ccc(O)c(O)c2)oc2cc(O)cc(O)c12
REMARK SMILES IDX 4 1 3 2 16 3 25 4 2 5 26 6 1 7 33 8 27 9 31 10 28 11 30 12
REMARK SMILES IDX 17 13 18 14 19 15 20 16 24 17 22 18 21 19 23 21 32 23 29 25
REMARK SMILES IDX 5 27 14 28 6 29 12 30 7 31 10 32 15 33 13 35 8 37 9 38 11 40
REMARK H PARENT 21 20 23 22 32 24 29 26 15 34 13 36 9 39 11 41
REMARK Flexibility Score: inf
ROOT
ATOM      1  O   UNL     1       3.755  16.071  18.273  1.00  0.00    -0.454 OA
ENDROOT
BRANCH   1   2
ATOM      2  C   UNL     1       3.714  16.239  16.879  1.00  0.00     0.214 A 
ATOM      3  C   UNL     1       3.710  15.098  16.054  1.00  0.00     0.180 A 
ATOM      4  O   UNL     1       3.708  15.230  14.731  1.00  0.00    -0.452 OA
ATOM      5  C   UNL     1       3.687  17.509  16.272  1.00  0.00     0.239 A 
ATOM      6  C   UNL     1       3.692  16.406  14.117  1.00  0.00     0.146 A 
ATOM      7  O   UNL     1       3.641  18.547  16.985  1.00  0.00    -0.285 OA
ATOM      8  C   UNL     1       3.681  17.608  14.864  1.00  0.00     0.111 A 
ATOM      9  C   UNL     1       3.678  16.444  12.719  1.00  0.00     0.094 A 
ATOM     10  C   UNL     1       3.662  18.847  14.177  1.00  0.00     0.134 A 
ATOM     11  C   UNL     1       3.655  17.670  12.046  1.00  0.00     0.123 A 
ATOM     12  C   UNL     1       3.649  18.863  12.773  1.00  0.00     0.093 A 
BRANCH   3  13
ATOM     13  C   UNL     1       3.757  13.732  16.617  1.00  0.00     0.025 A 
ATOM     14  C   UNL     1       2.776  13.277  17.515  1.00  0.00     0.016 A 
ATOM     15  C   UNL     1       2.843  11.982  18.033  1.00  0.00     0.051 A 
ATOM     16  C   UNL     1       3.887  11.122  17.661  1.00  0.00     0.157 A 
ATOM     17  C   UNL     1       4.789  12.862  16.231  1.00  0.00     0.062 A 
ATOM     18  C   UNL     1       4.864  11.567  16.756  1.00  0.00     0.158 A 
BRANCH  16  19
ATOM     19  O   UNL     1       3.955   9.833  18.189  1.00  0.00    -0.504 OA
ATOM     20  H   UNL     1       4.290   9.660  19.129  1.00  0.00     0.293 HD
ENDBRANCH  16  19
BRANCH  18  21
ATOM     21  O   UNL     1       5.917  10.738  16.370  1.00  0.00    -0.504 OA
ATOM     22  H   UNL     1       6.621  11.035  15.705  1.00  0.00     0.293 HD
ENDBRANCH  18  21
ENDBRANCH   3  13
BRANCH  10  23
ATOM     23  O   UNL     1       3.659  20.058  14.873  1.00  0.00    -0.507 OA
ATOM     24  H   UNL     1       3.558  20.093  15.881  1.00  0.00     0.293 HD
ENDBRANCH  10  23
BRANCH  11  25
ATOM     25  O   UNL     1       3.636  17.716  10.654  1.00  0.00    -0.508 OA
ATOM     26  H   UNL     1       4.236  18.346  10.135  1.00  0.00     0.293 HD
ENDBRANCH  11  25
ENDBRANCH   1   2
BRANCH   1  27
ATOM     27  C   UNL     1       4.803  16.543  19.126  1.00  0.00     0.339 C 
ATOM     28  C   UNL     1       6.166  16.066  18.584  1.00  0.00     0.214 C 
ATOM     29  O   UNL     1       4.614  16.136  20.475  1.00  0.00    -0.332 OA
ATOM     30  C   UNL     1       6.300  14.542  18.756  1.00  0.00     0.180 C 
ATOM     31  C   UNL     1       4.601  14.720  20.603  1.00  0.00     0.179 C 
ATOM     32  C   UNL     1       5.971  14.124  20.203  1.00  0.00     0.177 C 
BRANCH  28  33
ATOM     33  O   UNL     1       7.206  16.720  19.266  1.00  0.00    -0.384 OA
ATOM     34  H   UNL     1       6.852  16.974  20.159  1.00  0.00     0.211 HD
ENDBRANCH  28  33
BRANCH  30  35
ATOM     35  O   UNL     1       7.598  14.133  18.409  1.00  0.00    -0.387 OA
ATOM     36  H   UNL     1       7.746  14.412  17.469  1.00  0.00     0.211 HD
ENDBRANCH  30  35
BRANCH  31  37
ATOM     37  C   UNL     1       4.224  14.374  22.054  1.00  0.00     0.191 C 
BRANCH  37  38
ATOM     38  O   UNL     1       4.949  15.157  22.963  1.00  0.00    -0.394 OA
ATOM     39  H   UNL     1       5.522  14.538  23.490  1.00  0.00     0.210 HD
ENDBRANCH  37  38
ENDBRANCH  31  37
BRANCH  32  40
ATOM     40  O   UNL     1       6.982  14.583  21.070  1.00  0.00    -0.387 OA
ATOM     41  H   UNL     1       7.698  14.972  20.504  1.00  0.00     0.211 HD
ENDBRANCH  32  40
ENDBRANCH   1  27
TORSDOF 12
ENDMDL
MODEL 3
REMARK VINA RESULT:    -7.205      1.742      4.912
REMARK INTER + INTRA:         -11.499
REMARK INTER:                 -10.744
REMARK INTRA:                  -0.755
REMARK UNBOUND:                -0.925
REMARK SMILES O=c1c(O[C@H]2O[C@H](CO)[C@H](O)[C@H](O)[C@@H]2O)c(-c2ccc(O)c(O)c2)oc2cc(O)cc(O)c12
REMARK SMILES IDX 4 1 3 2 16 3 25 4 2 5 26 6 1 7 33 8 27 9 31 10 28 11 30 12
REMARK SMILES IDX 17 13 18 14 19 15 20 16 24 17 22 18 21 19 23 21 32 23 29 25
REMARK SMILES IDX 5 27 14 28 6 29 12 30 7 31 10 32 15 33 13 35 8 37 9 38 11 40
REMARK H PARENT 21 20 23 22 32 24 29 26 15 34 13 36 9 39 11 41
REMARK Flexibility Score: inf
ROOT
ATOM      1  O   UNL     1       3.189  13.169  18.795  1.00  0.00    -0.454 OA
ENDROOT
BRANCH   1   2
ATOM      2  C   UNL     1       3.563  14.165  17.877  1.00  0.00     0.214 A 
ATOM      3  C   UNL     1       4.542  15.105  18.252  1.00  0.00     0.180 A 
ATOM      4  O   UNL     1       4.888  16.079  17.416  1.00  0.00    -0.452 OA
ATOM      5  C   UNL     1       2.988  14.265  16.596  1.00  0.00     0.239 A 
ATOM      6  C   UNL     1       4.366  16.217  16.204  1.00  0.00     0.146 A 
ATOM      7  O   UNL     1       2.146  13.409  16.214  1.00  0.00    -0.285 OA
ATOM      8  C   UNL     1       3.385  15.311  15.735  1.00  0.00     0.111 A 
ATOM      9  C   UNL     1       4.803  17.267  15.390  1.00  0.00     0.094 A 
ATOM     10  C   UNL     1       2.850  15.485  14.435  1.00  0.00     0.134 A 
ATOM     11  C   UNL     1       4.274  17.432  14.106  1.00  0.00     0.123 A 
ATOM     12  C   UNL     1       3.302  16.547  13.635  1.00  0.00     0.093 A 
BRANCH   3  13
ATOM     13  C   UNL     1       5.176  15.076  19.587  1.00  0.00     0.025 A 
ATOM     14  C   UNL     1       6.573  15.086  19.734  1.00  0.00     0.016 A 
ATOM     15  C   UNL     1       7.148  15.058  21.006  1.00  0.00     0.051 A 
ATOM     16  C   UNL     1       6.337  15.021  22.150  1.00  0.00     0.157 A 
ATOM     17  C   UNL     1       4.367  15.060  20.735  1.00  0.00     0.062 A 
ATOM     18  C   UNL     1       4.940  15.022  22.011  1.00  0.00     0.158 A 
BRANCH  16  19
ATOM     19  O   UNL     1       6.915  14.984  23.418  1.00  0.00    -0.504 OA
ATOM     20  H   UNL     1       6.454  14.533  24.200  1.00  0.00     0.293 HD
ENDBRANCH  16  19
BRANCH  18  21
ATOM     21  O   UNL     1       4.106  14.982  23.128  1.00  0.00    -0.504 OA
ATOM     22  H   UNL     1       4.391  15.350  24.028  1.00  0.00     0.293 HD
ENDBRANCH  18  21
ENDBRANCH   3  13
BRANCH  10  23
ATOM     23  O   UNL     1       1.875  14.620  13.934  1.00  0.00    -0.507 OA
ATOM     24  H   UNL     1       1.387  14.812  13.066  1.00  0.00     0.293 HD
ENDBRANCH  10  23
BRANCH  11  25
ATOM     25  O   UNL     1       4.708  18.473  13.288  1.00  0.00    -0.508 OA
ATOM     26  H   UNL     1       5.688  18.726  13.224  1.00  0.00     0.293 HD
ENDBRANCH  11  25
ENDBRANCH   1   2
BRANCH   1  27
ATOM     27  C   UNL     1       4.020  12.075  19.202  1.00  0.00     0.339 C 
ATOM     28  C   UNL     1       3.578  10.791  18.471  1.00  0.00     0.214 C 
ATOM     29  O   UNL     1       4.007  11.896  20.612  1.00  0.00    -0.332 OA
ATOM     30  C   UNL     1       2.202  10.334  18.989  1.00  0.00     0.180 C 
ATOM     31  C   UNL     1       2.703  11.610  21.098  1.00  0.00     0.179 C 
ATOM     32  C   UNL     1       2.192  10.266  20.528  1.00  0.00     0.177 C 
BRANCH  28  33
ATOM     33  O   UNL     1       4.529   9.776  18.674  1.00  0.00    -0.384 OA
ATOM     34  H   UNL     1       4.837   9.852  19.616  1.00  0.00     0.211 HD
ENDBRANCH  28  33
BRANCH  30  35
ATOM     35  O   UNL     1       1.876   9.083  18.439  1.00  0.00    -0.387 OA
ATOM     36  H   UNL     1       1.200   9.247  17.731  1.00  0.00     0.211 HD
ENDBRANCH  30  35
BRANCH  31  37
ATOM     37  C   UNL     1       2.755  11.601  22.635  1.00  0.00     0.191 C 
BRANCH  37  38
ATOM     38  O   UNL     1       2.057  10.504  23.157  1.00  0.00    -0.394 OA
ATOM     39  H   UNL     1       2.574  10.173  23.939  1.00  0.00     0.210 HD
ENDBRANCH  37  38
ENDBRANCH  31  37
BRANCH  32  40
ATOM     40  O   UNL     1       3.009   9.203  20.961  1.00  0.00    -0.387 OA
ATOM     41  H   UNL     1       3.535   9.535  21.734  1.00  0.00     0.211 HD
ENDBRANCH  32  40
ENDBRANCH   1  27
TORSDOF 12
ENDMDL
MODEL 4
REMARK VINA RESULT:    -7.051      1.434      2.691
REMARK INTER + INTRA:         -11.273
REMARK INTER:                 -10.402
REMARK INTRA:                  -0.871
REMARK UNBOUND:                -0.925
REMARK SMILES O=c1c(O[C@H]2O[C@H](CO)[C@H](O)[C@H](O)[C@@H]2O)c(-c2ccc(O)c(O)c2)oc2cc(O)cc(O)c12
REMARK SMILES IDX 4 1 3 2 16 3 25 4 2 5 26 6 1 7 33 8 27 9 31 10 28 11 30 12
REMARK SMILES IDX 17 13 18 14 19 15 20 16 24 17 22 18 21 19 23 21 32 23 29 25
REMARK SMILES IDX 5 27 14 28 6 29 12 30 7 31 10 32 15 33 13 35 8 37 9 38 11 40
REMARK H PARENT 21 20 23 22 32 24 29 26 15 34 13 36 9 39 11 41
REMARK Flexibility Score: inf
ROOT
ATOM      1  O   UNL     1       4.063  15.553  18.273  1.00  0.00    -0.454 OA
ENDROOT
BRANCH   1   2
ATOM      2  C   UNL     1       3.908  15.853  16.909  1.00  0.00     0.214 A 
ATOM      3  C   UNL     1       3.580  14.814  16.016  1.00  0.00     0.180 A 
ATOM      4  O   UNL     1       3.462  15.065  14.715  1.00  0.00    -0.452 OA
ATOM      5  C   UNL     1       4.076  17.154  16.398  1.00  0.00     0.239 A 
ATOM      6  C   UNL     1       3.621  16.272  14.190  1.00  0.00     0.146 A 
ATOM      7  O   UNL     1       4.320  18.111  17.180  1.00  0.00    -0.285 OA
ATOM      8  C   UNL     1       3.937  17.380  15.012  1.00  0.00     0.111 A 
ATOM      9  C   UNL     1       3.464  16.440  12.810  1.00  0.00     0.094 A 
ATOM     10  C   UNL     1       4.098  18.656  14.418  1.00  0.00     0.134 A 
ATOM     11  C   UNL     1       3.620  17.703  12.230  1.00  0.00     0.123 A 
ATOM     12  C   UNL     1       3.937  18.803  13.031  1.00  0.00     0.093 A 
BRANCH   3  13
ATOM     13  C   UNL     1       3.408  13.420  16.475  1.00  0.00     0.025 A 
ATOM     14  C   UNL     1       2.181  12.966  16.989  1.00  0.00     0.016 A 
ATOM     15  C   UNL     1       2.043  11.644  17.416  1.00  0.00     0.051 A 
ATOM     16  C   UNL     1       3.126  10.756  17.334  1.00  0.00     0.157 A 
ATOM     17  C   UNL     1       4.483  12.523  16.375  1.00  0.00     0.062 A 
ATOM     18  C   UNL     1       4.351  11.200  16.811  1.00  0.00     0.158 A 
BRANCH  16  19
ATOM     19  O   UNL     1       2.987   9.439  17.771  1.00  0.00    -0.504 OA
ATOM     20  H   UNL     1       3.766   8.923  18.163  1.00  0.00     0.293 HD
ENDBRANCH  16  19
BRANCH  18  21
ATOM     21  O   UNL     1       5.448  10.343  16.721  1.00  0.00    -0.504 OA
ATOM     22  H   UNL     1       5.983  10.240  15.867  1.00  0.00     0.293 HD
ENDBRANCH  18  21
ENDBRANCH   3  13
BRANCH  10  23
ATOM     23  O   UNL     1       4.418  19.776  15.190  1.00  0.00    -0.507 OA
ATOM     24  H   UNL     1       4.886  19.690  16.084  1.00  0.00     0.293 HD
ENDBRANCH  10  23
BRANCH  11  25
ATOM     25  O   UNL     1       3.460  17.879  10.857  1.00  0.00    -0.508 OA
ATOM     26  H   UNL     1       2.541  17.922  10.430  1.00  0.00     0.293 HD
ENDBRANCH  11  25
ENDBRANCH   1   2
BRANCH   1  27
ATOM     27  C   UNL     1       4.979  14.586  18.801  1.00  0.00     0.339 C 
ATOM     28  C   UNL     1       4.320  13.839  19.978  1.00  0.00     0.214 C 
ATOM     29  O   UNL     1       6.210  15.180  19.192  1.00  0.00    -0.332 OA
ATOM     30  C   UNL     1       4.154  14.787  21.181  1.00  0.00     0.180 C 
ATOM     31  C   UNL     1       6.028  16.156  20.209  1.00  0.00     0.179 C 
ATOM     32  C   UNL     1       5.482  15.502  21.500  1.00  0.00     0.177 C 
BRANCH  28  33
ATOM     33  O   UNL     1       5.107  12.734  20.343  1.00  0.00    -0.384 OA
ATOM     34  H   UNL     1       5.552  12.411  19.515  1.00  0.00     0.211 HD
ENDBRANCH  28  33
BRANCH  30  35
ATOM     35  O   UNL     1       3.701  14.066  22.299  1.00  0.00    -0.387 OA
ATOM     36  H   UNL     1       3.194  14.703  22.865  1.00  0.00     0.211 HD
ENDBRANCH  30  35
BRANCH  31  37
ATOM     37  C   UNL     1       7.376  16.858  20.446  1.00  0.00     0.191 C 
BRANCH  37  38
ATOM     38  O   UNL     1       7.554  17.163  21.802  1.00  0.00    -0.394 OA
ATOM     39  H   UNL     1       7.052  16.482  22.323  1.00  0.00     0.210 HD
ENDBRANCH  37  38
ENDBRANCH  31  37
BRANCH  32  40
ATOM     40  O   UNL     1       6.408  14.574  22.014  1.00  0.00    -0.387 OA
ATOM     41  H   UNL     1       6.035  14.230  22.866  1.00  0.00     0.211 HD
ENDBRANCH  32  40
ENDBRANCH   1  27
TORSDOF 12
ENDMDL
MODEL 5
REMARK VINA RESULT:    -7.010      2.581      8.137
REMARK INTER + INTRA:         -11.213
REMARK INTER:                  -9.478
REMARK INTRA:                  -1.735
REMARK UNBOUND:                -0.925
REMARK SMILES O=c1c(O[C@H]2O[C@H](CO)[C@H](O)[C@H](O)[C@@H]2O)c(-c2ccc(O)c(O)c2)oc2cc(O)cc(O)c12
REMARK SMILES IDX 4 1 3 2 16 3 25 4 2 5 26 6 1 7 33 8 27 9 31 10 28 11 30 12
REMARK SMILES IDX 17 13 18 14 19 15 20 16 24 17 22 18 21 19 23 21 32 23 29 25
REMARK SMILES IDX 5 27 14 28 6 29 12 30 7 31 10 32 15 33 13 35 8 37 9 38 11 40
REMARK H PARENT 21 20 23 22 32 24 29 26 15 34 13 36 9 39 11 41
REMARK Flexibility Score: inf
ROOT
ATOM      1  O   UNL     1       3.835  12.955  17.830  1.00  0.00    -0.454 OA
ENDROOT
BRANCH   1   2
ATOM      2  C   UNL     1       3.472  12.311  19.024  1.00  0.00     0.214 A 
ATOM      3  C   UNL     1       3.184  13.092  20.160  1.00  0.00     0.180 A 
ATOM      4  O   UNL     1       2.873  12.505  21.312  1.00  0.00    -0.452 OA
ATOM      5  C   UNL     1       3.393  10.909  19.132  1.00  0.00     0.239 A 
ATOM      6  C   UNL     1       2.797  11.190  21.462  1.00  0.00     0.146 A 
ATOM      7  O   UNL     1       3.597  10.187  18.121  1.00  0.00    -0.285 OA
ATOM      8  C   UNL     1       3.054  10.325  20.372  1.00  0.00     0.111 A 
ATOM      9  C   UNL     1       2.448  10.666  22.711  1.00  0.00     0.094 A 
ATOM     10  C   UNL     1       2.962   8.924  20.565  1.00  0.00     0.134 A 
ATOM     11  C   UNL     1       2.354   9.282  22.895  1.00  0.00     0.123 A 
ATOM     12  C   UNL     1       2.612   8.419  21.827  1.00  0.00     0.093 A 
BRANCH   3  13
ATOM     13  C   UNL     1       3.265  14.567  20.129  1.00  0.00     0.025 A 
ATOM     14  C   UNL     1       2.124  15.358  19.912  1.00  0.00     0.016 A 
ATOM     15  C   UNL     1       2.227  16.750  19.887  1.00  0.00     0.051 A 
ATOM     16  C   UNL     1       3.468  17.373  20.081  1.00  0.00     0.157 A 
ATOM     17  C   UNL     1       4.503  15.195  20.344  1.00  0.00     0.062 A 
ATOM     18  C   UNL     1       4.611  16.590  20.310  1.00  0.00     0.158 A 
BRANCH  16  19
ATOM     19  O   UNL     1       3.568  18.764  20.046  1.00  0.00    -0.504 OA
ATOM     20  H   UNL     1       3.358  19.333  20.857  1.00  0.00     0.293 HD
ENDBRANCH  16  19
BRANCH  18  21
ATOM     21  O   UNL     1       5.860  17.179  20.502  1.00  0.00    -0.504 OA
ATOM     22  H   UNL     1       5.963  18.127  20.843  1.00  0.00     0.293 HD
ENDBRANCH  18  21
ENDBRANCH   3  13
BRANCH  10  23
ATOM     23  O   UNL     1       3.216   8.033  19.520  1.00  0.00    -0.507 OA
ATOM     24  H   UNL     1       2.953   8.245  18.564  1.00  0.00     0.293 HD
ENDBRANCH  10  23
BRANCH  11  25
ATOM     25  O   UNL     1       2.003   8.753  24.135  1.00  0.00    -0.508 OA
ATOM     26  H   UNL     1       2.562   8.924  24.963  1.00  0.00     0.293 HD
ENDBRANCH  11  25
ENDBRANCH   1   2
BRANCH   1  27
ATOM     27  C   UNL     1       2.936  13.267  16.760  1.00  0.00     0.339 C 
ATOM     28  C   UNL     1       3.475  12.674  15.442  1.00  0.00     0.214 C 
ATOM     29  O   UNL     1       2.715  14.666  16.643  1.00  0.00    -0.332 OA
ATOM     30  C   UNL     1       4.742  13.430  15.001  1.00  0.00     0.180 C 
ATOM     31  C   UNL     1       3.918  15.372  16.372  1.00  0.00     0.179 C 
ATOM     32  C   UNL     1       4.499  14.952  15.001  1.00  0.00     0.177 C 
BRANCH  28  33
ATOM     33  O   UNL     1       2.491  12.761  14.442  1.00  0.00    -0.384 OA
ATOM     34  H   UNL     1       2.397  13.724  14.213  1.00  0.00     0.211 HD
ENDBRANCH  28  33
BRANCH  30  35
ATOM     35  O   UNL     1       5.139  12.995  13.725  1.00  0.00    -0.387 OA
ATOM     36  H   UNL     1       4.396  12.446  13.365  1.00  0.00     0.211 HD
ENDBRANCH  30  35
BRANCH  31  37
ATOM     37  C   UNL     1       3.614  16.878  16.432  1.00  0.00     0.191 C 
BRANCH  37  38
ATOM     38  O   UNL     1       2.351  17.159  15.893  1.00  0.00    -0.394 OA
ATOM     39  H   UNL     1       2.113  16.402  15.295  1.00  0.00     0.210 HD
ENDBRANCH  37  38
ENDBRANCH  31  37
BRANCH  32  40
ATOM     40  O   UNL     1       3.609  15.290  13.963  1.00  0.00    -0.387 OA
ATOM     41  H   UNL     1       3.305  16.219  14.130  1.00  0.00     0.211 HD
ENDBRANCH  32  40
ENDBRANCH   1  27
TORSDOF 12
ENDMDL
MODEL 6
REMARK VINA RESULT:    -6.999      2.071      5.135
REMARK INTER + INTRA:         -11.197
REMARK INTER:                  -9.947
REMARK INTRA:                  -1.249
REMARK UNBOUND:                -0.925
REMARK SMILES O=c1c(O[C@H]2O[C@H](CO)[C@H](O)[C@H](O)[C@@H]2O)c(-c2ccc(O)c(O)c2)oc2cc(O)cc(O)c12
REMARK SMILES IDX 4 1 3 2 16 3 25 4 2 5 26 6 1 7 33 8 27 9 31 10 28 11 30 12
REMARK SMILES IDX 17 13 18 14 19 15 20 16 24 17 22 18 21 19 23 21 32 23 29 25
REMARK SMILES IDX 5 27 14 28 6 29 12 30 7 31 10 32 15 33 13 35 8 37 9 38 11 40
REMARK H PARENT 21 20 23 22 32 24 29 26 15 34 13 36 9 39 11 41
REMARK Flexibility Score: inf
ROOT
ATOM      1  O   UNL     1       4.963  14.426  17.336  1.00  0.00    -0.454 OA
ENDROOT
BRANCH   1   2
ATOM      2  C   UNL     1       4.511  15.752  17.440  1.00  0.00     0.214 A 
ATOM      3  C   UNL     1       3.976  16.196  18.664  1.00  0.00     0.180 A 
ATOM      4  O   UNL     1       3.509  17.436  18.779  1.00  0.00    -0.452 OA
ATOM      5  C   UNL     1       4.564  16.654  16.361  1.00  0.00     0.239 A 
ATOM      6  C   UNL     1       3.530  18.315  17.786  1.00  0.00     0.146 A 
ATOM      7  O   UNL     1       5.082  16.300  15.268  1.00  0.00    -0.285 OA
ATOM      8  C   UNL     1       4.063  17.964  16.523  1.00  0.00     0.111 A 
ATOM      9  C   UNL     1       3.027  19.602  18.007  1.00  0.00     0.094 A 
ATOM     10  C   UNL     1       4.072  18.928  15.485  1.00  0.00     0.134 A 
ATOM     11  C   UNL     1       3.043  20.552  16.979  1.00  0.00     0.123 A 
ATOM     12  C   UNL     1       3.561  20.213  15.727  1.00  0.00     0.093 A 
BRANCH   3  13
ATOM     13  C   UNL     1       3.870  15.301  19.836  1.00  0.00     0.025 A 
ATOM     14  C   UNL     1       2.741  14.488  20.035  1.00  0.00     0.016 A 
ATOM     15  C   UNL     1       2.665  13.650  21.149  1.00  0.00     0.051 A 
ATOM     16  C   UNL     1       3.714  13.610  22.080  1.00  0.00     0.157 A 
ATOM     17  C   UNL     1       4.928  15.243  20.757  1.00  0.00     0.062 A 
ATOM     18  C   UNL     1       4.850  14.411  21.881  1.00  0.00     0.158 A 
BRANCH  16  19
ATOM     19  O   UNL     1       3.630  12.780  23.197  1.00  0.00    -0.504 OA
ATOM     20  H   UNL     1       4.381  12.719  23.873  1.00  0.00     0.293 HD
ENDBRANCH  16  19
BRANCH  18  21
ATOM     21  O   UNL     1       5.908  14.398  22.789  1.00  0.00    -0.504 OA
ATOM     22  H   UNL     1       6.614  13.671  22.784  1.00  0.00     0.293 HD
ENDBRANCH  18  21
ENDBRANCH   3  13
BRANCH  10  23
ATOM     23  O   UNL     1       4.580  18.622  14.221  1.00  0.00    -0.507 OA
ATOM     24  H   UNL     1       5.543  18.335  14.088  1.00  0.00     0.293 HD
ENDBRANCH  10  23
BRANCH  11  25
ATOM     25  O   UNL     1       2.548  21.836  17.193  1.00  0.00    -0.508 OA
ATOM     26  H   UNL     1       2.156  22.387  16.437  1.00  0.00     0.293 HD
ENDBRANCH  11  25
ENDBRANCH   1   2
BRANCH   1  27
ATOM     27  C   UNL     1       4.523  13.484  16.350  1.00  0.00     0.339 C 
ATOM     28  C   UNL     1       3.252  12.769  16.850  1.00  0.00     0.214 C 
ATOM     29  O   UNL     1       5.542  12.550  16.017  1.00  0.00    -0.332 OA
ATOM     30  C   UNL     1       3.595  11.837  18.026  1.00  0.00     0.180 C 
ATOM     31  C   UNL     1       5.951  11.788  17.144  1.00  0.00     0.179 C 
ATOM     32  C   UNL     1       4.782  10.921  17.668  1.00  0.00     0.177 C 
BRANCH  28  33
ATOM     33  O   UNL     1       2.678  12.029  15.802  1.00  0.00    -0.384 OA
ATOM     34  H   UNL     1       2.983  11.089  15.911  1.00  0.00     0.211 HD
ENDBRANCH  28  33
BRANCH  30  35
ATOM     35  O   UNL     1       2.470  11.071  18.374  1.00  0.00    -0.387 OA
ATOM     36  H   UNL     1       1.911  10.994  17.558  1.00  0.00     0.211 HD
ENDBRANCH  30  35
BRANCH  31  37
ATOM     37  C   UNL     1       7.162  10.933  16.731  1.00  0.00     0.191 C 
BRANCH  37  38
ATOM     38  O   UNL     1       7.376   9.889  17.641  1.00  0.00    -0.394 OA
ATOM     39  H   UNL     1       8.275   9.513  17.448  1.00  0.00     0.210 HD
ENDBRANCH  37  38
ENDBRANCH  31  37
BRANCH  32  40
ATOM     40  O   UNL     1       4.383   9.987  16.692  1.00  0.00    -0.387 OA
ATOM     41  H   UNL     1       4.471  10.432  15.810  1.00  0.00     0.211 HD
ENDBRANCH  32  40
ENDBRANCH   1  27
TORSDOF 12
ENDMDL
MODEL 7
REMARK VINA RESULT:    -6.957      2.335      6.852
REMARK INTER + INTRA:         -11.135
REMARK INTER:                 -10.405
REMARK INTRA:                  -0.730
REMARK UNBOUND:                -0.925
REMARK SMILES O=c1c(O[C@H]2O[C@H](CO)[C@H](O)[C@H](O)[C@@H]2O)c(-c2ccc(O)c(O)c2)oc2cc(O)cc(O)c12
REMARK SMILES IDX 4 1 3 2 16 3 25 4 2 5 26 6 1 7 33 8 27 9 31 10 28 11 30 12
REMARK SMILES IDX 17 13 18 14 19 15 20 16 24 17 22 18 21 19 23 21 32 23 29 25
REMARK SMILES IDX 5 27 14 28 6 29 12 30 7 31 10 32 15 33 13 35 8 37 9 38 11 40
REMARK H PARENT 21 20 23 22 32 24 29 26 15 34 13 36 9 39 11 41
REMARK Flexibility Score: inf
ROOT
ATOM      1  O   UNL     1       3.458  13.388  19.902  1.00  0.00    -0.454 OA
ENDROOT
BRANCH   1   2
ATOM      2  C   UNL     1       3.201  12.066  19.503  1.00  0.00     0.214 A 
ATOM      3  C   UNL     1       3.163  11.763  18.128  1.00  0.00     0.180 A 
ATOM      4  O   UNL     1       2.886  10.527  17.724  1.00  0.00    -0.452 OA
ATOM      5  C   UNL     1       2.971  11.029  20.428  1.00  0.00     0.239 A 
ATOM      6  C   UNL     1       2.654   9.523  18.559  1.00  0.00     0.146 A 
ATOM      7  O   UNL     1       3.048  11.260  21.664  1.00  0.00    -0.285 OA
ATOM      8  C   UNL     1       2.686   9.729  19.959  1.00  0.00     0.111 A 
ATOM      9  C   UNL     1       2.385   8.253  18.039  1.00  0.00     0.094 A 
ATOM     10  C   UNL     1       2.435   8.635  20.823  1.00  0.00     0.134 A 
ATOM     11  C   UNL     1       2.142   7.175  18.897  1.00  0.00     0.123 A 
ATOM     12  C   UNL     1       2.166   7.368  20.280  1.00  0.00     0.093 A 
BRANCH   3  13
ATOM     13  C   UNL     1       3.375  12.802  17.098  1.00  0.00     0.025 A 
ATOM     14  C   UNL     1       2.831  14.090  17.235  1.00  0.00     0.016 A 
ATOM     15  C   UNL     1       3.047  15.054  16.248  1.00  0.00     0.051 A 
ATOM     16  C   UNL     1       3.809  14.747  15.112  1.00  0.00     0.157 A 
ATOM     17  C   UNL     1       4.156  12.504  15.970  1.00  0.00     0.062 A 
ATOM     18  C   UNL     1       4.365  13.465  14.974  1.00  0.00     0.158 A 
BRANCH  16  19
ATOM     19  O   UNL     1       4.014  15.709  14.124  1.00  0.00    -0.504 OA
ATOM     20  H   UNL     1       4.725  16.424  14.217  1.00  0.00     0.293 HD
ENDBRANCH  16  19
BRANCH  18  21
ATOM     21  O   UNL     1       5.125  13.127  13.854  1.00  0.00    -0.504 OA
ATOM     22  H   UNL     1       5.582  13.826  13.281  1.00  0.00     0.293 HD
ENDBRANCH  18  21
ENDBRANCH   3  13
BRANCH  10  23
ATOM     23  O   UNL     1       2.448   8.793  22.211  1.00  0.00    -0.507 OA
ATOM     24  H   UNL     1       1.684   8.468  22.791  1.00  0.00     0.293 HD
ENDBRANCH  10  23
BRANCH  11  25
ATOM     25  O   UNL     1       1.878   5.907  18.386  1.00  0.00    -0.508 OA
ATOM     26  H   UNL     1       2.465   5.488  17.673  1.00  0.00     0.293 HD
ENDBRANCH  11  25
ENDBRANCH   1   2
BRANCH   1  27
ATOM     27  C   UNL     1       4.532  13.793  20.759  1.00  0.00     0.339 C 
ATOM     28  C   UNL     1       4.329  15.261  21.184  1.00  0.00     0.214 C 
ATOM     29  O   UNL     1       5.800  13.606  20.144  1.00  0.00    -0.332 OA
ATOM     30  C   UNL     1       4.536  16.196  19.978  1.00  0.00     0.180 C 
ATOM     31  C   UNL     1       5.929  14.369  18.952  1.00  0.00     0.179 C 
ATOM     32  C   UNL     1       5.867  15.883  19.267  1.00  0.00     0.177 C 
BRANCH  28  33
ATOM     33  O   UNL     1       5.233  15.590  22.208  1.00  0.00    -0.384 OA
ATOM     34  H   UNL     1       5.077  16.545  22.435  1.00  0.00     0.211 HD
ENDBRANCH  28  33
BRANCH  30  35
ATOM     35  O   UNL     1       4.507  17.535  20.401  1.00  0.00    -0.387 OA
ATOM     36  H   UNL     1       3.662  17.927  20.058  1.00  0.00     0.211 HD
ENDBRANCH  30  35
BRANCH  31  37
ATOM     37  C   UNL     1       7.252  13.977  18.272  1.00  0.00     0.191 C 
BRANCH  37  38
ATOM     38  O   UNL     1       7.126  12.761  17.588  1.00  0.00    -0.394 OA
ATOM     39  H   UNL     1       7.670  12.833  16.760  1.00  0.00     0.210 HD
ENDBRANCH  37  38
ENDBRANCH  31  37
BRANCH  32  40
ATOM     40  O   UNL     1       6.945  16.262  20.089  1.00  0.00    -0.387 OA
ATOM     41  H   UNL     1       6.834  17.227  20.291  1.00  0.00     0.211 HD
ENDBRANCH  32  40
ENDBRANCH   1  27
TORSDOF 12
ENDMDL
MODEL 8
REMARK VINA RESULT:    -6.889      2.034      6.664
REMARK INTER + INTRA:         -11.035
REMARK INTER:                 -10.044
REMARK INTRA:                  -0.992
REMARK UNBOUND:                -0.925
REMARK SMILES O=c1c(O[C@H]2O[C@H](CO)[C@H](O)[C@H](O)[C@@H]2O)c(-c2ccc(O)c(O)c2)oc2cc(O)cc(O)c12
REMARK SMILES IDX 4 1 3 2 16 3 25 4 2 5 26 6 1 7 33 8 27 9 31 10 28 11 30 12
REMARK SMILES IDX 17 13 18 14 19 15 20 16 24 17 22 18 21 19 23 21 32 23 29 25
REMARK SMILES IDX 5 27 14 28 6 29 12 30 7 31 10 32 15 33 13 35 8 37 9 38 11 40
REMARK H PARENT 21 20 23 22 32 24 29 26 15 34 13 36 9 39 11 41
REMARK Flexibility Score: inf
ROOT
ATOM      1  O   UNL     1       4.541  14.058  17.051  1.00  0.00    -0.454 OA
ENDROOT
BRANCH   1   2
ATOM      2  C   UNL     1       4.132  12.874  17.686  1.00  0.00     0.214 A 
ATOM      3  C   UNL     1       4.486  12.666  19.034  1.00  0.00     0.180 A 
ATOM      4  O   UNL     1       4.142  11.538  19.648  1.00  0.00    -0.452 OA
ATOM      5  C   UNL     1       3.387  11.880  17.024  1.00  0.00     0.239 A 
ATOM      6  C   UNL     1       3.449  10.571  19.060  1.00  0.00     0.146 A 
ATOM      7  O   UNL     1       3.014  12.059  15.834  1.00  0.00    -0.285 OA
ATOM      8  C   UNL     1       3.037  10.698  17.713  1.00  0.00     0.111 A 
ATOM      9  C   UNL     1       3.123   9.426  19.794  1.00  0.00     0.094 A 
ATOM     10  C   UNL     1       2.296   9.648  17.116  1.00  0.00     0.134 A 
ATOM     11  C   UNL     1       2.388   8.394  19.200  1.00  0.00     0.123 A 
ATOM     12  C   UNL     1       1.980   8.506  17.869  1.00  0.00     0.093 A 
BRANCH   3  13
ATOM     13  C   UNL     1       5.283  13.655  19.789  1.00  0.00     0.025 A 
ATOM     14  C   UNL     1       6.420  14.261  19.227  1.00  0.00     0.016 A 
ATOM     15  C   UNL     1       7.156  15.194  19.960  1.00  0.00     0.051 A 
ATOM     16  C   UNL     1       6.768  15.535  21.265  1.00  0.00     0.157 A 
ATOM     17  C   UNL     1       4.885  14.015  21.086  1.00  0.00     0.062 A 
ATOM     18  C   UNL     1       5.627  14.942  21.828  1.00  0.00     0.158 A 
BRANCH  16  19
ATOM     19  O   UNL     1       7.512  16.460  21.998  1.00  0.00    -0.504 OA
ATOM     20  H   UNL     1       8.157  16.169  22.722  1.00  0.00     0.293 HD
ENDBRANCH  16  19
BRANCH  18  21
ATOM     21  O   UNL     1       5.217  15.258  23.123  1.00  0.00    -0.504 OA
ATOM     22  H   UNL     1       5.801  15.079  23.932  1.00  0.00     0.293 HD
ENDBRANCH  18  21
ENDBRANCH   3  13
BRANCH  10  23
ATOM     23  O   UNL     1       1.876   9.726  15.787  1.00  0.00    -0.507 OA
ATOM     24  H   UNL     1       0.975  10.116  15.535  1.00  0.00     0.293 HD
ENDBRANCH  10  23
BRANCH  11  25
ATOM     25  O   UNL     1       2.055   7.252  19.926  1.00  0.00    -0.508 OA
ATOM     26  H   UNL     1       1.977   7.268  20.936  1.00  0.00     0.293 HD
ENDBRANCH  11  25
ENDBRANCH   1   2
BRANCH   1  27
ATOM     27  C   UNL     1       3.656  15.046  16.510  1.00  0.00     0.339 C 
ATOM     28  C   UNL     1       4.445  15.997  15.587  1.00  0.00     0.214 C 
ATOM     29  O   UNL     1       2.977  15.766  17.530  1.00  0.00    -0.332 OA
ATOM     30  C   UNL     1       5.401  16.870  16.419  1.00  0.00     0.180 C 
ATOM     31  C   UNL     1       3.880  16.459  18.380  1.00  0.00     0.179 C 
ATOM     32  C   UNL     1       4.652  17.540  17.587  1.00  0.00     0.177 C 
BRANCH  28  33
ATOM     33  O   UNL     1       3.555  16.811  14.866  1.00  0.00    -0.384 OA
ATOM     34  H   UNL     1       3.352  16.336  14.017  1.00  0.00     0.211 HD
ENDBRANCH  28  33
BRANCH  30  35
ATOM     35  O   UNL     1       6.001  17.840  15.598  1.00  0.00    -0.387 OA
ATOM     36  H   UNL     1       5.825  18.721  16.018  1.00  0.00     0.211 HD
ENDBRANCH  30  35
BRANCH  31  37
ATOM     37  C   UNL     1       3.075  17.063  19.543  1.00  0.00     0.191 C 
BRANCH  37  38
ATOM     38  O   UNL     1       3.757  18.142  20.122  1.00  0.00    -0.394 OA
ATOM     39  H   UNL     1       4.340  18.531  19.417  1.00  0.00     0.210 HD
ENDBRANCH  37  38
ENDBRANCH  31  37
BRANCH  32  40
ATOM     40  O   UNL     1       3.765  18.513  17.086  1.00  0.00    -0.387 OA
ATOM     41  H   UNL     1       3.270  18.884  17.861  1.00  0.00     0.211 HD
ENDBRANCH  32  40
ENDBRANCH   1  27
TORSDOF 12
ENDMDL
MODEL 9
REMARK VINA RESULT:    -6.528      1.816      2.626
REMARK INTER + INTRA:         -10.506
REMARK INTER:                  -9.038
REMARK INTRA:                  -1.468
REMARK UNBOUND:                -0.925
REMARK SMILES O=c1c(O[C@H]2O[C@H](CO)[C@H](O)[C@H](O)[C@@H]2O)c(-c2ccc(O)c(O)c2)oc2cc(O)cc(O)c12
REMARK SMILES IDX 4 1 3 2 16 3 25 4 2 5 26 6 1 7 33 8 27 9 31 10 28 11 30 12
REMARK SMILES IDX 17 13 18 14 19 15 20 16 24 17 22 18 21 19 23 21 32 23 29 25
REMARK SMILES IDX 5 27 14 28 6 29 12 30 7 31 10 32 15 33 13 35 8 37 9 38 11 40
REMARK H PARENT 21 20 23 22 32 24 29 26 15 34 13 36 9 39 11 41
REMARK Flexibility Score: inf
ROOT
ATOM      1  O   UNL     1       3.957  14.939  18.496  1.00  0.00    -0.454 OA
ENDROOT
BRANCH   1   2
ATOM      2  C   UNL     1       3.880  15.356  17.157  1.00  0.00     0.214 A 
ATOM      3  C   UNL     1       3.628  14.397  16.157  1.00  0.00     0.180 A 
ATOM      4  O   UNL     1       3.585  14.760  14.879  1.00  0.00    -0.452 OA
ATOM      5  C   UNL     1       4.053  16.700  16.773  1.00  0.00     0.239 A 
ATOM      6  C   UNL     1       3.753  16.011  14.472  1.00  0.00     0.146 A 
ATOM      7  O   UNL     1       4.231  17.587  17.650  1.00  0.00    -0.285 OA
ATOM      8  C   UNL     1       3.996  17.046  15.406  1.00  0.00     0.111 A 
ATOM      9  C   UNL     1       3.677  16.298  13.105  1.00  0.00     0.094 A 
ATOM     10  C   UNL     1       4.168  18.372  14.938  1.00  0.00     0.134 A 
ATOM     11  C   UNL     1       3.844  17.610  12.649  1.00  0.00     0.123 A 
ATOM     12  C   UNL     1       4.090  18.638  13.562  1.00  0.00     0.093 A 
BRANCH   3  13
ATOM     13  C   UNL     1       3.454  12.965  16.481  1.00  0.00     0.025 A 
ATOM     14  C   UNL     1       2.205  12.334  16.358  1.00  0.00     0.016 A 
ATOM     15  C   UNL     1       2.067  10.980  16.670  1.00  0.00     0.051 A 
ATOM     16  C   UNL     1       3.174  10.236  17.106  1.00  0.00     0.157 A 
ATOM     17  C   UNL     1       4.565  12.213  16.897  1.00  0.00     0.062 A 
ATOM     18  C   UNL     1       4.428  10.858  17.220  1.00  0.00     0.158 A 
BRANCH  16  19
ATOM     19  O   UNL     1       3.030   8.886  17.425  1.00  0.00    -0.504 OA
ATOM     20  H   UNL     1       3.511   8.162  16.906  1.00  0.00     0.293 HD
ENDBRANCH  16  19
BRANCH  18  21
ATOM     21  O   UNL     1       5.546  10.148  17.654  1.00  0.00    -0.504 OA
ATOM     22  H   UNL     1       6.491  10.449  17.447  1.00  0.00     0.293 HD
ENDBRANCH  18  21
ENDBRANCH   3  13
BRANCH  10  23
ATOM     23  O   UNL     1       4.418  19.423  15.823  1.00  0.00    -0.507 OA
ATOM     24  H   UNL     1       4.810  20.303  15.508  1.00  0.00     0.293 HD
ENDBRANCH  10  23
BRANCH  11  25
ATOM     25  O   UNL     1       3.765  17.904  11.290  1.00  0.00    -0.508 OA
ATOM     26  H   UNL     1       3.740  18.860  10.953  1.00  0.00     0.293 HD
ENDBRANCH  11  25
ENDBRANCH   1   2
BRANCH   1  27
ATOM     27  C   UNL     1       2.876  14.989  19.435  1.00  0.00     0.339 C 
ATOM     28  C   UNL     1       3.364  15.627  20.751  1.00  0.00     0.214 C 
ATOM     29  O   UNL     1       2.312  13.705  19.663  1.00  0.00    -0.332 OA
ATOM     30  C   UNL     1       4.343  14.678  21.468  1.00  0.00     0.180 C 
ATOM     31  C   UNL     1       3.264  12.795  20.197  1.00  0.00     0.179 C 
ATOM     32  C   UNL     1       3.743  13.264  21.591  1.00  0.00     0.177 C 
BRANCH  28  33
ATOM     33  O   UNL     1       2.266  15.902  21.584  1.00  0.00    -0.384 OA
ATOM     34  H   UNL     1       1.517  15.327  21.274  1.00  0.00     0.211 HD
ENDBRANCH  28  33
BRANCH  30  35
ATOM     35  O   UNL     1       4.661  15.190  22.737  1.00  0.00    -0.387 OA
ATOM     36  H   UNL     1       5.531  14.791  22.998  1.00  0.00     0.211 HD
ENDBRANCH  30  35
BRANCH  31  37
ATOM     37  C   UNL     1       2.617  11.400  20.250  1.00  0.00     0.191 C 
BRANCH  37  38
ATOM     38  O   UNL     1       2.969  10.726  21.427  1.00  0.00    -0.394 OA
ATOM     39  H   UNL     1       2.237  10.083  21.625  1.00  0.00     0.210 HD
ENDBRANCH  37  38
ENDBRANCH  31  37
BRANCH  32  40
ATOM     40  O   UNL     1       2.669  13.282  22.502  1.00  0.00    -0.387 OA
ATOM     41  H   UNL     1       2.432  14.233  22.656  1.00  0.00     0.211 HD
ENDBRANCH  32  40
ENDBRANCH   1  27
TORSDOF 12
ENDMDL
