MODEL 1
REMARK VINA RESULT:    11.420      0.000      0.000
REMARK INTER + INTRA:          17.890
REMARK INTER:                  17.762
REMARK INTRA:                   0.128
REMARK UNBOUND:                 0.128
REMARK SMILES C[C@]12C[C@]3(O)O[C@H](O1)[C@@]1(COC(=O)c4ccccc4)[C@@H]3C[C@]12O[C@@H]1O[C@H](CO)[C@H](O)[C@H](O)[C@H]1O
REMARK SMILES IDX 1 1 2 2 3 3 4 4 20 5 21 6 22 7 9 8 7 9 8 10 6 11 23 12 24 13
REMARK SMILES IDX 33 14 25 15 31 16 26 17 29 18 34 19 32 21 27 23 28 24 30 26
REMARK SMILES IDX 5 28 10 30 11 31 12 32 13 33 14 34 15 35 19 36 16 37 18 38
REMARK SMILES IDX 17 39
REMARK H PARENT 34 20 32 22 28 25 30 27 5 29
REMARK Flexibility Score: inf
ROOT
ATOM      1  C   UNL     1      20.258  11.789 -10.955  1.00  0.00     0.046 C 
ATOM      2  C   UNL     1      20.517  11.011  -9.593  1.00  0.00     0.104 C 
ATOM      3  C   UNL     1      21.797  10.135  -9.717  1.00  0.00     0.104 C 
ATOM      4  C   UNL     1      21.965   9.391  -8.378  1.00  0.00     0.175 C 
ATOM      5  C   UNL     1      21.855  10.393  -7.148  1.00  0.00     0.070 C 
ATOM      6  C   UNL     1      21.889  11.919  -7.531  1.00  0.00     0.050 C 
ATOM      7  C   UNL     1      20.436  11.704  -8.106  1.00  0.00     0.115 C 
ATOM      8  C   UNL     1      20.312  10.510  -7.127  1.00  0.00     0.096 C 
ATOM      9  C   UNL     1      19.801   9.430  -8.121  1.00  0.00     0.267 C 
ATOM     10  O   UNL     1      19.554   9.976  -9.406  1.00  0.00    -0.342 OA
ATOM     11  O   UNL     1      20.832   8.507  -8.200  1.00  0.00    -0.320 OA
ENDROOT
BRANCH   7  12
ATOM     12  O   UNL     1      19.336  12.647  -7.942  1.00  0.00    -0.339 OA
BRANCH  12  13
ATOM     13  C   UNL     1      18.975  13.583  -9.101  1.00  0.00     0.282 C 
ATOM     14  C   UNL     1      17.668  13.934  -9.964  1.00  0.00     0.202 C 
ATOM     15  O   UNL     1      19.362  14.750  -8.538  1.00  0.00    -0.341 OA
ATOM     16  C   UNL     1      17.981  15.294 -10.777  1.00  0.00     0.179 C 
ATOM     17  C   UNL     1      20.268  15.480  -9.411  1.00  0.00     0.178 C 
ATOM     18  C   UNL     1      19.528  15.748 -10.776  1.00  0.00     0.177 C 
BRANCH  14  19
ATOM     19  O   UNL     1      17.154  12.872 -10.846  1.00  0.00    -0.385 OA
ATOM     20  H   UNL     1      17.198  13.208 -11.838  1.00  0.00     0.211 HD
ENDBRANCH  14  19
BRANCH  16  21
ATOM     21  O   UNL     1      17.044  16.300 -10.591  1.00  0.00    -0.387 OA
ATOM     22  H   UNL     1      16.145  15.880 -10.766  1.00  0.00     0.211 HD
ENDBRANCH  16  21
BRANCH  17  23
ATOM     23  C   UNL     1      20.274  16.826  -8.471  1.00  0.00     0.191 C 
BRANCH  23  24
ATOM     24  O   UNL     1      19.528  16.922  -7.278  1.00  0.00    -0.394 OA
ATOM     25  H   UNL     1      20.287  17.063  -6.570  1.00  0.00     0.210 HD
ENDBRANCH  23  24
ENDBRANCH  17  23
BRANCH  18  26
ATOM     26  O   UNL     1      20.065  17.080 -11.124  1.00  0.00    -0.387 OA
ATOM     27  H   UNL     1      20.383  17.408 -10.217  1.00  0.00     0.211 HD
ENDBRANCH  18  26
ENDBRANCH  12  13
ENDBRANCH   7  12
BRANCH   4  28
ATOM     28  O   UNL     1      23.079   8.554  -8.379  1.00  0.00    -0.365 OA
ATOM     29  H   UNL     1      22.738   7.657  -8.656  1.00  0.00     0.214 HD
ENDBRANCH   4  28
BRANCH   8  30
ATOM     30  C   UNL     1      19.933  10.566  -5.534  1.00  0.00     0.249 C 
BRANCH  30  31
ATOM     31  O   UNL     1      20.848  10.084  -4.436  1.00  0.00    -0.461 OA
BRANCH  31  32
ATOM     32  C   UNL     1      21.080   8.684  -4.237  1.00  0.00     0.338 C 
ATOM     33  O   UNL     1      21.329   7.950  -5.266  1.00  0.00    -0.246 OA
BRANCH  32  34
ATOM     34  C   UNL     1      20.869   7.813  -2.893  1.00  0.00     0.060 A 
ATOM     35  C   UNL     1      20.495   8.475  -1.635  1.00  0.00     0.015 A 
ATOM     36  C   UNL     1      20.583   6.376  -3.032  1.00  0.00     0.015 A 
ATOM     37  C   UNL     1      20.107   7.634  -0.510  1.00  0.00     0.001 A 
ATOM     38  C   UNL     1      20.237   5.583  -1.870  1.00  0.00     0.001 A 
ATOM     39  C   UNL     1      19.999   6.194  -0.691  1.00  0.00     0.000 A 
ENDBRANCH  32  34
ENDBRANCH  31  32
ENDBRANCH  30  31
ENDBRANCH   8  30
TORSDOF 12
ENDMDL
MODEL 2
REMARK VINA RESULT:    12.447      1.340      2.231
REMARK INTER + INTRA:          19.487
REMARK INTER:                  17.741
REMARK INTRA:                   1.746
REMARK UNBOUND:                 0.128
REMARK SMILES C[C@]12C[C@]3(O)O[C@H](O1)[C@@]1(COC(=O)c4ccccc4)[C@@H]3C[C@]12O[C@@H]1O[C@H](CO)[C@H](O)[C@H](O)[C@H]1O
REMARK SMILES IDX 1 1 2 2 3 3 4 4 20 5 21 6 22 7 9 8 7 9 8 10 6 11 23 12 24 13
REMARK SMILES IDX 33 14 25 15 31 16 26 17 29 18 34 19 32 21 27 23 28 24 30 26
REMARK SMILES IDX 5 28 10 30 11 31 12 32 13 33 14 34 15 35 19 36 16 37 18 38
REMARK SMILES IDX 17 39
REMARK H PARENT 34 20 32 22 28 25 30 27 5 29
REMARK Flexibility Score: inf
ROOT
ATOM      1  C   UNL     1      18.142  11.278  -9.852  1.00  0.00     0.046 C 
ATOM      2  C   UNL     1      19.032  10.709  -8.664  1.00  0.00     0.104 C 
ATOM      3  C   UNL     1      20.075   9.696  -9.220  1.00  0.00     0.104 C 
ATOM      4  C   UNL     1      20.876   9.166  -8.016  1.00  0.00     0.175 C 
ATOM      5  C   UNL     1      21.397  10.360  -7.104  1.00  0.00     0.070 C 
ATOM      6  C   UNL     1      21.253  11.792  -7.741  1.00  0.00     0.050 C 
ATOM      7  C   UNL     1      19.703  11.639  -7.489  1.00  0.00     0.115 C 
ATOM      8  C   UNL     1      20.068  10.638  -6.363  1.00  0.00     0.096 C 
ATOM      9  C   UNL     1      19.122   9.470  -6.758  1.00  0.00     0.267 C 
ATOM     10  O   UNL     1      18.277   9.823  -7.840  1.00  0.00    -0.342 OA
ATOM     11  O   UNL     1      19.969   8.444  -7.146  1.00  0.00    -0.320 OA
ENDROOT
BRANCH   7  12
ATOM     12  O   UNL     1      18.838  12.704  -6.998  1.00  0.00    -0.339 OA
BRANCH  12  13
ATOM     13  C   UNL     1      18.952  14.103  -7.614  1.00  0.00     0.282 C 
ATOM     14  C   UNL     1      19.747  15.462  -7.303  1.00  0.00     0.202 C 
ATOM     15  O   UNL     1      19.334  13.738  -8.859  1.00  0.00    -0.341 OA
ATOM     16  C   UNL     1      19.634  16.396  -8.616  1.00  0.00     0.179 C 
ATOM     17  C   UNL     1      18.478  14.340  -9.869  1.00  0.00     0.178 C 
ATOM     18  C   UNL     1      18.554  15.906  -9.709  1.00  0.00     0.177 C 
BRANCH  14  19
ATOM     19  O   UNL     1      19.363  16.186  -6.079  1.00  0.00    -0.385 OA
ATOM     20  H   UNL     1      18.778  17.013  -6.346  1.00  0.00     0.211 HD
ENDBRANCH  14  19
BRANCH  16  21
ATOM     21  O   UNL     1      20.852  16.839  -9.109  1.00  0.00    -0.387 OA
ATOM     22  H   UNL     1      20.901  16.518 -10.062  1.00  0.00     0.211 HD
ENDBRANCH  16  21
BRANCH  17  23
ATOM     23  C   UNL     1      19.405  13.832 -11.125  1.00  0.00     0.191 C 
BRANCH  23  24
ATOM     24  O   UNL     1      20.532  13.001 -10.949  1.00  0.00    -0.394 OA
ATOM     25  H   UNL     1      20.878  12.912 -11.934  1.00  0.00     0.210 HD
ENDBRANCH  23  24
ENDBRANCH  17  23
BRANCH  18  26
ATOM     26  O   UNL     1      18.462  16.333 -11.121  1.00  0.00    -0.387 OA
ATOM     27  H   UNL     1      17.462  16.482 -11.217  1.00  0.00     0.211 HD
ENDBRANCH  18  26
ENDBRANCH  12  13
ENDBRANCH   7  12
BRANCH   4  28
ATOM     28  O   UNL     1      21.835   8.230  -8.393  1.00  0.00    -0.365 OA
ATOM     29  H   UNL     1      22.195   8.554  -9.267  1.00  0.00     0.214 HD
ENDBRANCH   4  28
BRANCH   8  30
ATOM     30  C   UNL     1      20.526  10.991  -4.830  1.00  0.00     0.249 C 
BRANCH  30  31
ATOM     31  O   UNL     1      21.476  10.143  -4.021  1.00  0.00    -0.461 OA
BRANCH  31  32
ATOM     32  C   UNL     1      21.222   8.747  -3.820  1.00  0.00     0.338 C 
ATOM     33  O   UNL     1      21.121   7.985  -4.853  1.00  0.00    -0.246 OA
BRANCH  32  34
ATOM     34  C   UNL     1      20.826   7.987  -2.451  1.00  0.00     0.060 A 
ATOM     35  C   UNL     1      20.212   8.732  -1.343  1.00  0.00     0.015 A 
ATOM     36  C   UNL     1      20.638   6.529  -2.494  1.00  0.00     0.015 A 
ATOM     37  C   UNL     1      19.677   7.972  -0.221  1.00  0.00     0.001 A 
ATOM     38  C   UNL     1      20.136   5.820  -1.332  1.00  0.00     0.001 A 
ATOM     39  C   UNL     1      19.671   6.518  -0.275  1.00  0.00     0.000 A 
ENDBRANCH  32  34
ENDBRANCH  31  32
ENDBRANCH  30  31
ENDBRANCH   8  30
TORSDOF 12
ENDMDL
