MODEL 1
REMARK VINA RESULT:    -4.250      0.000      0.000
REMARK INTER + INTRA:          -9.752
REMARK INTER:                  -7.729
REMARK INTRA:                  -2.023
REMARK UNBOUND:                -2.023
REMARK SMILES CCCCCCCCCCCCCC[C@H](C)C(=O)[O-]
REMARK SMILES IDX 9 1 10 2 11 3 12 4 13 5 14 6 15 7 16 8 17 9 18 10 19 11 8 12
REMARK SMILES IDX 7 13 6 14 5 15 4 16 3 17 2 18 1 19
REMARK H PARENT
REMARK Flexibility Score: inf
ROOT
ATOM      1  C   UNL     1    -110.533 -41.426 -65.624  1.00  0.00     0.000 C 
ENDROOT
BRANCH   1   2
ATOM      2  C   UNL     1    -111.879 -40.684 -65.752  1.00  0.00     0.000 C 
BRANCH   2   3
ATOM      3  C   UNL     1    -113.090 -41.406 -65.126  1.00  0.00     0.000 C 
BRANCH   3   4
ATOM      4  C   UNL     1    -114.166 -41.865 -66.127  1.00  0.00     0.000 C 
BRANCH   4   5
ATOM      5  C   UNL     1    -113.671 -42.979 -67.065  1.00  0.00     0.001 C 
BRANCH   5   6
ATOM      6  C   UNL     1    -113.815 -42.620 -68.557  1.00  0.00     0.009 C 
BRANCH   6   7
ATOM      7  C   UNL     1    -112.465 -42.460 -69.298  1.00  0.00     0.032 C 
ATOM      8  C   UNL     1    -111.408 -43.397 -68.703  1.00  0.00     0.014 C 
BRANCH   7   9
ATOM      9  C   UNL     1    -111.961 -41.043 -69.253  1.00  0.00     0.044 C 
ATOM     10  O   UNL     1    -112.769 -40.075 -69.265  1.00  0.00    -0.550 OA
ATOM     11  O   UNL     1    -110.594 -40.795 -69.186  1.00  0.00    -0.550 OA
ENDBRANCH   7   9
ENDBRANCH   6   7
ENDBRANCH   5   6
ENDBRANCH   4   5
ENDBRANCH   3   4
ENDBRANCH   2   3
ENDBRANCH   1   2
BRANCH   1  12
ATOM     12  C   UNL     1    -110.614 -42.816 -64.966  1.00  0.00     0.000 C 
BRANCH  12  13
ATOM     13  C   UNL     1    -109.494 -43.763 -65.434  1.00  0.00    -0.000 C 
BRANCH  13  14
ATOM     14  C   UNL     1    -108.172 -43.525 -64.686  1.00  0.00    -0.000 C 
BRANCH  14  15
ATOM     15  C   UNL     1    -108.373 -43.369 -63.168  1.00  0.00    -0.000 C 
BRANCH  15  16
ATOM     16  C   UNL     1    -107.797 -42.050 -62.627  1.00  0.00    -0.000 C 
BRANCH  16  17
ATOM     17  C   UNL     1    -107.338 -41.100 -63.748  1.00  0.00    -0.000 C 
BRANCH  17  18
ATOM     18  C   UNL     1    -107.169 -39.653 -63.260  1.00  0.00    -0.003 C 
ATOM     19  C   UNL     1    -105.890 -39.444 -62.449  1.00  0.00     0.004 C 
ENDBRANCH  17  18
ENDBRANCH  16  17
ENDBRANCH  15  16
ENDBRANCH  14  15
ENDBRANCH  13  14
ENDBRANCH  12  13
ENDBRANCH   1  12
TORSDOF 14
ENDMDL
MODEL 2
REMARK VINA RESULT:    -4.200      1.518      2.634
REMARK INTER + INTRA:          -9.662
REMARK INTER:                  -7.900
REMARK INTRA:                  -1.761
REMARK UNBOUND:                -2.023
REMARK SMILES CCCCCCCCCCCCCC[C@H](C)C(=O)[O-]
REMARK SMILES IDX 9 1 10 2 11 3 12 4 13 5 14 6 15 7 16 8 17 9 18 10 19 11 8 12
REMARK SMILES IDX 7 13 6 14 5 15 4 16 3 17 2 18 1 19
REMARK H PARENT
REMARK Flexibility Score: inf
ROOT
ATOM      1  C   UNL     1    -111.241 -42.135 -65.572  1.00  0.00     0.000 C 
ENDROOT
BRANCH   1   2
ATOM      2  C   UNL     1    -112.115 -40.867 -65.517  1.00  0.00     0.000 C 
BRANCH   2   3
ATOM      3  C   UNL     1    -113.633 -41.117 -65.404  1.00  0.00     0.000 C 
BRANCH   3   4
ATOM      4  C   UNL     1    -114.145 -42.370 -66.137  1.00  0.00     0.000 C 
BRANCH   4   5
ATOM      5  C   UNL     1    -114.226 -42.177 -67.661  1.00  0.00     0.001 C 
BRANCH   5   6
ATOM      6  C   UNL     1    -113.364 -43.188 -68.444  1.00  0.00     0.009 C 
BRANCH   6   7
ATOM      7  C   UNL     1    -112.321 -42.532 -69.381  1.00  0.00     0.032 C 
ATOM      8  C   UNL     1    -112.335 -41.007 -69.221  1.00  0.00     0.014 C 
BRANCH   7   9
ATOM      9  C   UNL     1    -112.557 -42.886 -70.823  1.00  0.00     0.044 C 
ATOM     10  O   UNL     1    -111.661 -42.686 -71.687  1.00  0.00    -0.550 OA
ATOM     11  O   UNL     1    -113.768 -43.450 -71.210  1.00  0.00    -0.550 OA
ENDBRANCH   7   9
ENDBRANCH   6   7
ENDBRANCH   5   6
ENDBRANCH   4   5
ENDBRANCH   3   4
ENDBRANCH   2   3
ENDBRANCH   1   2
BRANCH   1  12
ATOM     12  C   UNL     1    -109.724 -41.881 -65.650  1.00  0.00     0.000 C 
BRANCH  12  13
ATOM     13  C   UNL     1    -109.374 -40.383 -65.717  1.00  0.00    -0.000 C 
BRANCH  13  14
ATOM     14  C   UNL     1    -107.901 -40.108 -65.374  1.00  0.00    -0.000 C 
BRANCH  14  15
ATOM     15  C   UNL     1    -107.740 -39.063 -64.255  1.00  0.00    -0.000 C 
BRANCH  15  16
ATOM     16  C   UNL     1    -107.032 -39.630 -63.013  1.00  0.00    -0.000 C 
BRANCH  16  17
ATOM     17  C   UNL     1    -106.823 -41.152 -63.094  1.00  0.00    -0.000 C 
BRANCH  17  18
ATOM     18  C   UNL     1    -107.696 -41.920 -62.090  1.00  0.00    -0.003 C 
ATOM     19  C   UNL     1    -108.135 -43.290 -62.609  1.00  0.00     0.004 C 
ENDBRANCH  17  18
ENDBRANCH  16  17
ENDBRANCH  15  16
ENDBRANCH  14  15
ENDBRANCH  13  14
ENDBRANCH  12  13
ENDBRANCH   1  12
TORSDOF 14
ENDMDL
MODEL 3
REMARK VINA RESULT:    -4.195      1.832      4.313
REMARK INTER + INTRA:          -9.651
REMARK INTER:                  -7.220
REMARK INTRA:                  -2.431
REMARK UNBOUND:                -2.023
REMARK SMILES CCCCCCCCCCCCCC[C@H](C)C(=O)[O-]
REMARK SMILES IDX 9 1 10 2 11 3 12 4 13 5 14 6 15 7 16 8 17 9 18 10 19 11 8 12
REMARK SMILES IDX 7 13 6 14 5 15 4 16 3 17 2 18 1 19
REMARK H PARENT
REMARK Flexibility Score: inf
ROOT
ATOM      1  C   UNL     1    -107.777 -42.166 -62.301  1.00  0.00     0.000 C 
ENDROOT
BRANCH   1   2
ATOM      2  C   UNL     1    -108.165 -43.209 -63.368  1.00  0.00     0.000 C 
BRANCH   2   3
ATOM      3  C   UNL     1    -109.569 -43.031 -63.982  1.00  0.00     0.000 C 
BRANCH   3   4
ATOM      4  C   UNL     1    -109.726 -43.563 -65.418  1.00  0.00     0.000 C 
BRANCH   4   5
ATOM      5  C   UNL     1    -110.939 -42.959 -66.147  1.00  0.00     0.001 C 
BRANCH   5   6
ATOM      6  C   UNL     1    -111.252 -41.516 -65.704  1.00  0.00     0.009 C 
BRANCH   6   7
ATOM      7  C   UNL     1    -112.734 -41.283 -65.322  1.00  0.00     0.032 C 
ATOM      8  C   UNL     1    -113.141 -42.195 -64.159  1.00  0.00     0.014 C 
BRANCH   7   9
ATOM      9  C   UNL     1    -113.659 -41.512 -66.485  1.00  0.00     0.044 C 
ATOM     10  O   UNL     1    -113.685 -40.704 -67.452  1.00  0.00    -0.550 OA
ATOM     11  O   UNL     1    -114.488 -42.629 -66.503  1.00  0.00    -0.550 OA
ENDBRANCH   7   9
ENDBRANCH   6   7
ENDBRANCH   5   6
ENDBRANCH   4   5
ENDBRANCH   3   4
ENDBRANCH   2   3
ENDBRANCH   1   2
BRANCH   1  12
ATOM     12  C   UNL     1    -106.262 -41.976 -62.095  1.00  0.00     0.000 C 
BRANCH  12  13
ATOM     13  C   UNL     1    -105.787 -40.555 -62.446  1.00  0.00    -0.000 C 
BRANCH  13  14
ATOM     14  C   UNL     1    -106.951 -39.621 -62.819  1.00  0.00    -0.000 C 
BRANCH  14  15
ATOM     15  C   UNL     1    -106.523 -38.501 -63.783  1.00  0.00    -0.000 C 
BRANCH  15  16
ATOM     16  C   UNL     1    -107.342 -38.495 -65.085  1.00  0.00    -0.000 C 
BRANCH  16  17
ATOM     17  C   UNL     1    -108.168 -39.780 -65.270  1.00  0.00    -0.000 C 
BRANCH  17  18
ATOM     18  C   UNL     1    -107.678 -40.631 -66.451  1.00  0.00    -0.003 C 
ATOM     19  C   UNL     1    -106.453 -41.478 -66.106  1.00  0.00     0.004 C 
ENDBRANCH  17  18
ENDBRANCH  16  17
ENDBRANCH  15  16
ENDBRANCH  14  15
ENDBRANCH  13  14
ENDBRANCH  12  13
ENDBRANCH   1  12
TORSDOF 14
ENDMDL
MODEL 4
REMARK VINA RESULT:    -4.181      3.523      6.977
REMARK INTER + INTRA:          -9.626
REMARK INTER:                  -7.667
REMARK INTRA:                  -1.959
REMARK UNBOUND:                -2.023
REMARK SMILES CCCCCCCCCCCCCC[C@H](C)C(=O)[O-]
REMARK SMILES IDX 9 1 10 2 11 3 12 4 13 5 14 6 15 7 16 8 17 9 18 10 19 11 8 12
REMARK SMILES IDX 7 13 6 14 5 15 4 16 3 17 2 18 1 19
REMARK H PARENT
REMARK Flexibility Score: inf
ROOT
ATOM      1  C   UNL     1    -112.940 -42.908 -64.689  1.00  0.00     0.000 C 
ENDROOT
BRANCH   1   2
ATOM      2  C   UNL     1    -112.490 -43.259 -63.256  1.00  0.00     0.000 C 
BRANCH   2   3
ATOM      3  C   UNL     1    -111.029 -43.735 -63.123  1.00  0.00     0.000 C 
BRANCH   3   4
ATOM      4  C   UNL     1    -110.195 -43.653 -64.415  1.00  0.00     0.000 C 
BRANCH   4   5
ATOM      5  C   UNL     1    -108.790 -43.073 -64.180  1.00  0.00     0.001 C 
BRANCH   5   6
ATOM      6  C   UNL     1    -108.320 -43.203 -62.718  1.00  0.00     0.009 C 
BRANCH   6   7
ATOM      7  C   UNL     1    -107.698 -41.909 -62.140  1.00  0.00     0.032 C 
ATOM      8  C   UNL     1    -107.361 -40.923 -63.264  1.00  0.00     0.014 C 
BRANCH   7   9
ATOM      9  C   UNL     1    -106.460 -42.189 -61.332  1.00  0.00     0.044 C 
ATOM     10  O   UNL     1    -106.079 -43.374 -61.135  1.00  0.00    -0.550 OA
ATOM     11  O   UNL     1    -105.721 -41.135 -60.807  1.00  0.00    -0.550 OA
ENDBRANCH   7   9
ENDBRANCH   6   7
ENDBRANCH   5   6
ENDBRANCH   4   5
ENDBRANCH   3   4
ENDBRANCH   2   3
ENDBRANCH   1   2
BRANCH   1  12
ATOM     12  C   UNL     1    -113.426 -41.459 -64.884  1.00  0.00     0.000 C 
BRANCH  12  13
ATOM     13  C   UNL     1    -112.714 -40.744 -66.046  1.00  0.00    -0.000 C 
BRANCH  13  14
ATOM     14  C   UNL     1    -111.198 -40.622 -65.821  1.00  0.00    -0.000 C 
BRANCH  14  15
ATOM     15  C   UNL     1    -110.395 -40.758 -67.127  1.00  0.00    -0.000 C 
BRANCH  15  16
ATOM     16  C   UNL     1    -110.413 -42.189 -67.688  1.00  0.00    -0.000 C 
BRANCH  16  17
ATOM     17  C   UNL     1    -111.200 -42.300 -69.005  1.00  0.00    -0.000 C 
BRANCH  17  18
ATOM     18  C   UNL     1    -112.054 -43.575 -69.076  1.00  0.00    -0.003 C 
ATOM     19  C   UNL     1    -113.456 -43.385 -68.496  1.00  0.00     0.004 C 
ENDBRANCH  17  18
ENDBRANCH  16  17
ENDBRANCH  15  16
ENDBRANCH  14  15
ENDBRANCH  13  14
ENDBRANCH  12  13
ENDBRANCH   1  12
TORSDOF 14
ENDMDL
MODEL 5
REMARK VINA RESULT:    -4.109     15.394     18.245
REMARK INTER + INTRA:          -9.496
REMARK INTER:                  -7.175
REMARK INTRA:                  -2.321
REMARK UNBOUND:                -2.023
REMARK SMILES CCCCCCCCCCCCCC[C@H](C)C(=O)[O-]
REMARK SMILES IDX 9 1 10 2 11 3 12 4 13 5 14 6 15 7 16 8 17 9 18 10 19 11 8 12
REMARK SMILES IDX 7 13 6 14 5 15 4 16 3 17 2 18 1 19
REMARK H PARENT
REMARK Flexibility Score: inf
ROOT
ATOM      1  C   UNL     1    -107.915 -26.756 -60.396  1.00  0.00     0.000 C 
ENDROOT
BRANCH   1   2
ATOM      2  C   UNL     1    -107.185 -25.416 -60.176  1.00  0.00     0.000 C 
BRANCH   2   3
ATOM      3  C   UNL     1    -106.542 -24.803 -61.437  1.00  0.00     0.000 C 
BRANCH   3   4
ATOM      4  C   UNL     1    -105.045 -24.469 -61.310  1.00  0.00     0.000 C 
BRANCH   4   5
ATOM      5  C   UNL     1    -104.216 -25.646 -60.767  1.00  0.00     0.001 C 
BRANCH   5   6
ATOM      6  C   UNL     1    -103.204 -25.221 -59.684  1.00  0.00     0.009 C 
BRANCH   6   7
ATOM      7  C   UNL     1    -103.374 -25.967 -58.338  1.00  0.00     0.032 C 
ATOM      8  C   UNL     1    -103.770 -27.429 -58.577  1.00  0.00     0.014 C 
BRANCH   7   9
ATOM      9  C   UNL     1    -104.398 -25.310 -57.454  1.00  0.00     0.044 C 
ATOM     10  O   UNL     1    -105.568 -25.773 -57.374  1.00  0.00    -0.550 OA
ATOM     11  O   UNL     1    -104.053 -24.188 -56.708  1.00  0.00    -0.550 OA
ENDBRANCH   7   9
ENDBRANCH   6   7
ENDBRANCH   5   6
ENDBRANCH   4   5
ENDBRANCH   3   4
ENDBRANCH   2   3
ENDBRANCH   1   2
BRANCH   1  12
ATOM     12  C   UNL     1    -107.042 -28.012 -60.217  1.00  0.00     0.000 C 
BRANCH  12  13
ATOM     13  C   UNL     1    -106.439 -28.513 -61.541  1.00  0.00    -0.000 C 
BRANCH  13  14
ATOM     14  C   UNL     1    -107.331 -28.189 -62.752  1.00  0.00    -0.000 C 
BRANCH  14  15
ATOM     15  C   UNL     1    -106.541 -28.142 -64.072  1.00  0.00    -0.000 C 
BRANCH  15  16
ATOM     16  C   UNL     1    -105.448 -27.060 -64.069  1.00  0.00    -0.000 C 
BRANCH  16  17
ATOM     17  C   UNL     1    -105.690 -25.972 -65.130  1.00  0.00    -0.000 C 
BRANCH  17  18
ATOM     18  C   UNL     1    -106.985 -25.184 -64.881  1.00  0.00    -0.003 C 
ATOM     19  C   UNL     1    -107.094 -23.930 -65.749  1.00  0.00     0.004 C 
ENDBRANCH  17  18
ENDBRANCH  16  17
ENDBRANCH  15  16
ENDBRANCH  14  15
ENDBRANCH  13  14
ENDBRANCH  12  13
ENDBRANCH   1  12
TORSDOF 14
ENDMDL
MODEL 6
REMARK VINA RESULT:    -4.106      2.680      6.304
REMARK INTER + INTRA:          -9.489
REMARK INTER:                  -7.050
REMARK INTRA:                  -2.439
REMARK UNBOUND:                -2.023
REMARK SMILES CCCCCCCCCCCCCC[C@H](C)C(=O)[O-]
REMARK SMILES IDX 9 1 10 2 11 3 12 4 13 5 14 6 15 7 16 8 17 9 18 10 19 11 8 12
REMARK SMILES IDX 7 13 6 14 5 15 4 16 3 17 2 18 1 19
REMARK H PARENT
REMARK Flexibility Score: inf
ROOT
ATOM      1  C   UNL     1    -112.173 -41.322 -65.402  1.00  0.00     0.000 C 
ENDROOT
BRANCH   1   2
ATOM      2  C   UNL     1    -111.838 -42.582 -64.580  1.00  0.00     0.000 C 
BRANCH   2   3
ATOM      3  C   UNL     1    -110.629 -43.395 -65.085  1.00  0.00     0.000 C 
BRANCH   3   4
ATOM      4  C   UNL     1    -109.290 -43.071 -64.399  1.00  0.00     0.000 C 
BRANCH   4   5
ATOM      5  C   UNL     1    -108.127 -42.935 -65.396  1.00  0.00     0.001 C 
BRANCH   5   6
ATOM      6  C   UNL     1    -107.353 -41.610 -65.243  1.00  0.00     0.009 C 
BRANCH   6   7
ATOM      7  C   UNL     1    -108.174 -40.475 -64.585  1.00  0.00     0.032 C 
ATOM      8  C   UNL     1    -108.843 -39.602 -65.653  1.00  0.00     0.014 C 
BRANCH   7   9
ATOM      9  C   UNL     1    -107.327 -39.611 -63.691  1.00  0.00     0.044 C 
ATOM     10  O   UNL     1    -107.085 -39.960 -62.504  1.00  0.00    -0.550 OA
ATOM     11  O   UNL     1    -106.794 -38.422 -64.178  1.00  0.00    -0.550 OA
ENDBRANCH   7   9
ENDBRANCH   6   7
ENDBRANCH   5   6
ENDBRANCH   4   5
ENDBRANCH   3   4
ENDBRANCH   2   3
ENDBRANCH   1   2
BRANCH   1  12
ATOM     12  C   UNL     1    -113.663 -41.148 -65.752  1.00  0.00     0.000 C 
BRANCH  12  13
ATOM     13  C   UNL     1    -113.960 -41.406 -67.240  1.00  0.00    -0.000 C 
BRANCH  13  14
ATOM     14  C   UNL     1    -113.662 -42.857 -67.655  1.00  0.00    -0.000 C 
BRANCH  14  15
ATOM     15  C   UNL     1    -113.649 -43.042 -69.183  1.00  0.00    -0.000 C 
BRANCH  15  16
ATOM     16  C   UNL     1    -112.233 -43.273 -69.739  1.00  0.00    -0.000 C 
BRANCH  16  17
ATOM     17  C   UNL     1    -111.205 -43.572 -68.634  1.00  0.00    -0.000 C 
BRANCH  17  18
ATOM     18  C   UNL     1    -110.006 -42.612 -68.669  1.00  0.00    -0.003 C 
ATOM     19  C   UNL     1    -110.421 -41.141 -68.631  1.00  0.00     0.004 C 
ENDBRANCH  17  18
ENDBRANCH  16  17
ENDBRANCH  15  16
ENDBRANCH  14  15
ENDBRANCH  13  14
ENDBRANCH  12  13
ENDBRANCH   1  12
TORSDOF 14
ENDMDL
MODEL 7
REMARK VINA RESULT:    -4.072      2.539      5.930
REMARK INTER + INTRA:          -9.427
REMARK INTER:                  -6.776
REMARK INTRA:                  -2.651
REMARK UNBOUND:                -2.023
REMARK SMILES CCCCCCCCCCCCCC[C@H](C)C(=O)[O-]
REMARK SMILES IDX 9 1 10 2 11 3 12 4 13 5 14 6 15 7 16 8 17 9 18 10 19 11 8 12
REMARK SMILES IDX 7 13 6 14 5 15 4 16 3 17 2 18 1 19
REMARK H PARENT
REMARK Flexibility Score: inf
ROOT
ATOM      1  C   UNL     1    -113.388 -41.823 -64.544  1.00  0.00     0.000 C 
ENDROOT
BRANCH   1   2
ATOM      2  C   UNL     1    -112.584 -43.075 -64.138  1.00  0.00     0.000 C 
BRANCH   2   3
ATOM      3  C   UNL     1    -111.051 -42.914 -64.176  1.00  0.00     0.000 C 
BRANCH   3   4
ATOM      4  C   UNL     1    -110.346 -43.644 -65.333  1.00  0.00     0.000 C 
BRANCH   4   5
ATOM      5  C   UNL     1    -109.099 -42.898 -65.837  1.00  0.00     0.001 C 
BRANCH   5   6
ATOM      6  C   UNL     1    -108.932 -41.504 -65.200  1.00  0.00     0.009 C 
BRANCH   6   7
ATOM      7  C   UNL     1    -109.046 -40.334 -66.208  1.00  0.00     0.032 C 
ATOM      8  C   UNL     1    -109.300 -40.864 -67.623  1.00  0.00     0.014 C 
BRANCH   7   9
ATOM      9  C   UNL     1    -107.814 -39.471 -66.211  1.00  0.00     0.044 C 
ATOM     10  O   UNL     1    -106.851 -39.730 -66.981  1.00  0.00    -0.550 OA
ATOM     11  O   UNL     1    -107.738 -38.368 -65.366  1.00  0.00    -0.550 OA
ENDBRANCH   7   9
ENDBRANCH   6   7
ENDBRANCH   5   6
ENDBRANCH   4   5
ENDBRANCH   3   4
ENDBRANCH   2   3
ENDBRANCH   1   2
BRANCH   1  12
ATOM     12  C   UNL     1    -112.620 -40.807 -65.411  1.00  0.00     0.000 C 
BRANCH  12  13
ATOM     13  C   UNL     1    -112.966 -40.918 -66.906  1.00  0.00    -0.000 C 
BRANCH  13  14
ATOM     14  C   UNL     1    -114.096 -41.926 -67.175  1.00  0.00    -0.000 C 
BRANCH  14  15
ATOM     15  C   UNL     1    -113.659 -43.066 -68.112  1.00  0.00    -0.000 C 
BRANCH  15  16
ATOM     16  C   UNL     1    -112.151 -43.043 -68.410  1.00  0.00    -0.000 C 
BRANCH  16  17
ATOM     17  C   UNL     1    -111.846 -42.961 -69.916  1.00  0.00    -0.000 C 
BRANCH  17  18
ATOM     18  C   UNL     1    -112.574 -41.796 -70.603  1.00  0.00    -0.003 C 
ATOM     19  C   UNL     1    -111.882 -40.450 -70.384  1.00  0.00     0.004 C 
ENDBRANCH  17  18
ENDBRANCH  16  17
ENDBRANCH  15  16
ENDBRANCH  14  15
ENDBRANCH  13  14
ENDBRANCH  12  13
ENDBRANCH   1  12
TORSDOF 14
ENDMDL
MODEL 8
REMARK VINA RESULT:    -4.069      1.422      1.777
REMARK INTER + INTRA:          -9.422
REMARK INTER:                  -7.434
REMARK INTRA:                  -1.988
REMARK UNBOUND:                -2.023
REMARK SMILES CCCCCCCCCCCCCC[C@H](C)C(=O)[O-]
REMARK SMILES IDX 9 1 10 2 11 3 12 4 13 5 14 6 15 7 16 8 17 9 18 10 19 11 8 12
REMARK SMILES IDX 7 13 6 14 5 15 4 16 3 17 2 18 1 19
REMARK H PARENT
REMARK Flexibility Score: inf
ROOT
ATOM      1  C   UNL     1    -110.222 -41.645 -65.349  1.00  0.00     0.000 C 
ENDROOT
BRANCH   1   2
ATOM      2  C   UNL     1    -111.264 -42.638 -64.796  1.00  0.00     0.000 C 
BRANCH   2   3
ATOM      3  C   UNL     1    -112.728 -42.336 -65.177  1.00  0.00     0.000 C 
BRANCH   3   4
ATOM      4  C   UNL     1    -112.948 -41.007 -65.921  1.00  0.00     0.000 C 
BRANCH   4   5
ATOM      5  C   UNL     1    -113.067 -41.189 -67.444  1.00  0.00     0.001 C 
BRANCH   5   6
ATOM      6  C   UNL     1    -113.692 -42.542 -67.842  1.00  0.00     0.009 C 
BRANCH   6   7
ATOM      7  C   UNL     1    -112.850 -43.347 -68.862  1.00  0.00     0.032 C 
ATOM      8  C   UNL     1    -111.365 -43.309 -68.486  1.00  0.00     0.014 C 
BRANCH   7   9
ATOM      9  C   UNL     1    -113.025 -42.835 -70.265  1.00  0.00     0.044 C 
ATOM     10  O   UNL     1    -112.275 -41.927 -70.714  1.00  0.00    -0.550 OA
ATOM     11  O   UNL     1    -114.013 -43.374 -71.083  1.00  0.00    -0.550 OA
ENDBRANCH   7   9
ENDBRANCH   6   7
ENDBRANCH   5   6
ENDBRANCH   4   5
ENDBRANCH   3   4
ENDBRANCH   2   3
ENDBRANCH   1   2
BRANCH   1  12
ATOM     12  C   UNL     1    -108.894 -42.278 -65.804  1.00  0.00     0.000 C 
BRANCH  12  13
ATOM     13  C   UNL     1    -108.600 -43.616 -65.103  1.00  0.00    -0.000 C 
BRANCH  13  14
ATOM     14  C   UNL     1    -107.532 -43.482 -64.005  1.00  0.00    -0.000 C 
BRANCH  14  15
ATOM     15  C   UNL     1    -108.144 -43.303 -62.604  1.00  0.00    -0.000 C 
BRANCH  15  16
ATOM     16  C   UNL     1    -107.580 -42.079 -61.864  1.00  0.00    -0.000 C 
BRANCH  16  17
ATOM     17  C   UNL     1    -106.691 -41.201 -62.762  1.00  0.00    -0.000 C 
BRANCH  17  18
ATOM     18  C   UNL     1    -107.275 -39.797 -62.977  1.00  0.00    -0.003 C 
ATOM     19  C   UNL     1    -106.901 -39.197 -64.332  1.00  0.00     0.004 C 
ENDBRANCH  17  18
ENDBRANCH  16  17
ENDBRANCH  15  16
ENDBRANCH  14  15
ENDBRANCH  13  14
ENDBRANCH  12  13
ENDBRANCH   1  12
TORSDOF 14
ENDMDL
MODEL 9
REMARK VINA RESULT:    -4.056      1.585      2.966
REMARK INTER + INTRA:          -9.398
REMARK INTER:                  -7.185
REMARK INTRA:                  -2.213
REMARK UNBOUND:                -2.023
REMARK SMILES CCCCCCCCCCCCCC[C@H](C)C(=O)[O-]
REMARK SMILES IDX 9 1 10 2 11 3 12 4 13 5 14 6 15 7 16 8 17 9 18 10 19 11 8 12
REMARK SMILES IDX 7 13 6 14 5 15 4 16 3 17 2 18 1 19
REMARK H PARENT
REMARK Flexibility Score: inf
ROOT
ATOM      1  C   UNL     1    -113.174 -41.037 -65.835  1.00  0.00     0.000 C 
ENDROOT
BRANCH   1   2
ATOM      2  C   UNL     1    -114.047 -41.479 -67.026  1.00  0.00     0.000 C 
BRANCH   2   3
ATOM      3  C   UNL     1    -113.708 -42.865 -67.612  1.00  0.00     0.000 C 
BRANCH   3   4
ATOM      4  C   UNL     1    -113.687 -42.936 -69.149  1.00  0.00     0.000 C 
BRANCH   4   5
ATOM      5  C   UNL     1    -112.289 -43.241 -69.712  1.00  0.00     0.001 C 
BRANCH   5   6
ATOM      6  C   UNL     1    -111.229 -43.455 -68.612  1.00  0.00     0.009 C 
BRANCH   6   7
ATOM      7  C   UNL     1    -110.088 -42.409 -68.628  1.00  0.00     0.032 C 
ATOM      8  C   UNL     1    -110.659 -40.987 -68.668  1.00  0.00     0.014 C 
BRANCH   7   9
ATOM      9  C   UNL     1    -109.156 -42.608 -69.792  1.00  0.00     0.044 C 
ATOM     10  O   UNL     1    -109.235 -41.868 -70.809  1.00  0.00    -0.550 OA
ATOM     11  O   UNL     1    -108.190 -43.607 -69.744  1.00  0.00    -0.550 OA
ENDBRANCH   7   9
ENDBRANCH   6   7
ENDBRANCH   5   6
ENDBRANCH   4   5
ENDBRANCH   3   4
ENDBRANCH   2   3
ENDBRANCH   1   2
BRANCH   1  12
ATOM     12  C   UNL     1    -113.400 -41.825 -64.531  1.00  0.00     0.000 C 
BRANCH  12  13
ATOM     13  C   UNL     1    -112.257 -42.807 -64.222  1.00  0.00    -0.000 C 
BRANCH  13  14
ATOM     14  C   UNL     1    -110.989 -42.511 -65.042  1.00  0.00    -0.000 C 
BRANCH  14  15
ATOM     15  C   UNL     1    -110.065 -43.735 -65.163  1.00  0.00    -0.000 C 
BRANCH  15  16
ATOM     16  C   UNL     1    -108.585 -43.385 -64.934  1.00  0.00    -0.000 C 
BRANCH  16  17
ATOM     17  C   UNL     1    -108.354 -41.873 -64.766  1.00  0.00    -0.000 C 
BRANCH  17  18
ATOM     18  C   UNL     1    -107.556 -41.537 -63.497  1.00  0.00    -0.003 C 
ATOM     19  C   UNL     1    -107.818 -42.515 -62.352  1.00  0.00     0.004 C 
ENDBRANCH  17  18
ENDBRANCH  16  17
ENDBRANCH  15  16
ENDBRANCH  14  15
ENDBRANCH  13  14
ENDBRANCH  12  13
ENDBRANCH   1  12
TORSDOF 14
ENDMDL
