MODEL 1
REMARK VINA RESULT:    -4.472      0.000      0.000
REMARK INTER + INTRA:          -7.853
REMARK INTER:                  -6.825
REMARK INTRA:                  -1.028
REMARK UNBOUND:                -1.028
REMARK SMILES O=C([O-])CCCCCCCCC(=O)[O-]
REMARK SMILES IDX 7 1 6 2 5 3 4 4 2 5 1 6 3 7 8 8 9 9 10 10 11 11 12 12 13 13
REMARK SMILES IDX 14 14
REMARK H PARENT
REMARK Flexibility Score: inf
ROOT
ATOM      1  C   UNL     1      62.837  30.020  13.630  1.00  0.00     0.000 C 
ENDROOT
BRANCH   1   2
ATOM      2  C   UNL     1      62.516  31.111  12.596  1.00  0.00     0.000 C 
BRANCH   2   3
ATOM      3  C   UNL     1      61.921  32.351  13.273  1.00  0.00     0.006 C 
BRANCH   3   4
ATOM      4  C   UNL     1      60.392  32.351  13.177  1.00  0.00     0.053 C 
BRANCH   4   5
ATOM      5  C   UNL     1      59.786  31.926  14.477  1.00  0.00     0.041 C 
ATOM      6  O   UNL     1      60.464  31.972  15.537  1.00  0.00    -0.550 OA
ATOM      7  O   UNL     1      58.456  31.526  14.527  1.00  0.00    -0.550 OA
ENDBRANCH   4   5
ENDBRANCH   3   4
ENDBRANCH   2   3
ENDBRANCH   1   2
BRANCH   1   8
ATOM      8  C   UNL     1      62.211  28.662  13.274  1.00  0.00     0.000 C 
BRANCH   8   9
ATOM      9  C   UNL     1      60.762  28.531  13.771  1.00  0.00     0.000 C 
BRANCH   9  10
ATOM     10  C   UNL     1      59.808  28.020  12.678  1.00  0.00     0.006 C 
BRANCH  10  11
ATOM     11  C   UNL     1      59.372  29.126  11.708  1.00  0.00     0.053 C 
BRANCH  11  12
ATOM     12  C   UNL     1      59.921  28.866  10.341  1.00  0.00     0.041 C 
ATOM     13  O   UNL     1      59.613  29.620   9.380  1.00  0.00    -0.550 OA
ATOM     14  O   UNL     1      60.813  27.821  10.136  1.00  0.00    -0.550 OA
ENDBRANCH  11  12
ENDBRANCH  10  11
ENDBRANCH   9  10
ENDBRANCH   8   9
ENDBRANCH   1   8
TORSDOF 9
ENDMDL
MODEL 2
REMARK VINA RESULT:    -4.393      1.779      4.485
REMARK INTER + INTRA:          -7.733
REMARK INTER:                  -6.793
REMARK INTRA:                  -0.940
REMARK UNBOUND:                -1.028
REMARK SMILES O=C([O-])CCCCCCCCC(=O)[O-]
REMARK SMILES IDX 7 1 6 2 5 3 4 4 2 5 1 6 3 7 8 8 9 9 10 10 11 11 12 12 13 13
REMARK SMILES IDX 14 14
REMARK H PARENT
REMARK Flexibility Score: inf
ROOT
ATOM      1  C   UNL     1      62.832  28.953  11.184  1.00  0.00     0.000 C 
ENDROOT
BRANCH   1   2
ATOM      2  C   UNL     1      61.605  29.423  10.388  1.00  0.00     0.000 C 
BRANCH   2   3
ATOM      3  C   UNL     1      60.470  28.396  10.472  1.00  0.00     0.006 C 
BRANCH   3   4
ATOM      4  C   UNL     1      59.273  28.959  11.244  1.00  0.00     0.053 C 
BRANCH   4   5
ATOM      5  C   UNL     1      59.144  28.287  12.574  1.00  0.00     0.041 C 
ATOM      6  O   UNL     1      58.120  27.606  12.843  1.00  0.00    -0.550 OA
ATOM      7  O   UNL     1      60.178  28.371  13.499  1.00  0.00    -0.550 OA
ENDBRANCH   4   5
ENDBRANCH   3   4
ENDBRANCH   2   3
ENDBRANCH   1   2
BRANCH   1   8
ATOM      8  C   UNL     1      63.141  29.858  12.388  1.00  0.00     0.000 C 
BRANCH   8   9
ATOM      9  C   UNL     1      62.964  31.351  12.066  1.00  0.00     0.000 C 
BRANCH   9  10
ATOM     10  C   UNL     1      62.117  32.085  13.120  1.00  0.00     0.006 C 
BRANCH  10  11
ATOM     11  C   UNL     1      60.613  32.011  12.826  1.00  0.00     0.053 C 
BRANCH  11  12
ATOM     12  C   UNL     1      59.826  32.306  14.064  1.00  0.00     0.041 C 
ATOM     13  O   UNL     1      58.847  31.581  14.381  1.00  0.00    -0.550 OA
ATOM     14  O   UNL     1      60.204  33.353  14.897  1.00  0.00    -0.550 OA
ENDBRANCH  11  12
ENDBRANCH  10  11
ENDBRANCH   9  10
ENDBRANCH   8   9
ENDBRANCH   1   8
TORSDOF 9
ENDMDL
MODEL 3
REMARK VINA RESULT:    -4.318     12.357     13.804
REMARK INTER + INTRA:          -7.618
REMARK INTER:                  -6.511
REMARK INTRA:                  -1.108
REMARK UNBOUND:                -1.028
REMARK SMILES O=C([O-])CCCCCCCCC(=O)[O-]
REMARK SMILES IDX 7 1 6 2 5 3 4 4 2 5 1 6 3 7 8 8 9 9 10 10 11 11 12 12 13 13
REMARK SMILES IDX 14 14
REMARK H PARENT
REMARK Flexibility Score: inf
ROOT
ATOM      1  C   UNL     1      63.577  29.816  25.787  1.00  0.00     0.000 C 
ENDROOT
BRANCH   1   2
ATOM      2  C   UNL     1      64.826  29.043  26.238  1.00  0.00     0.000 C 
BRANCH   2   3
ATOM      3  C   UNL     1      65.238  28.004  25.188  1.00  0.00     0.006 C 
BRANCH   3   4
ATOM      4  C   UNL     1      64.486  26.686  25.393  1.00  0.00     0.053 C 
BRANCH   4   5
ATOM      5  C   UNL     1      63.720  26.322  24.161  1.00  0.00     0.041 C 
ATOM      6  O   UNL     1      63.156  25.200  24.073  1.00  0.00    -0.550 OA
ATOM      7  O   UNL     1      63.586  27.242  23.128  1.00  0.00    -0.550 OA
ENDBRANCH   4   5
ENDBRANCH   3   4
ENDBRANCH   2   3
ENDBRANCH   1   2
BRANCH   1   8
ATOM      8  C   UNL     1      62.556  30.008  26.920  1.00  0.00     0.000 C 
BRANCH   8   9
ATOM      9  C   UNL     1      62.441  28.770  27.826  1.00  0.00     0.000 C 
BRANCH   9  10
ATOM     10  C   UNL     1      61.063  28.093  27.725  1.00  0.00     0.006 C 
BRANCH  10  11
ATOM     11  C   UNL     1      61.081  26.847  26.831  1.00  0.00     0.053 C 
BRANCH  11  12
ATOM     12  C   UNL     1      60.239  27.068  25.613  1.00  0.00     0.041 C 
ATOM     13  O   UNL     1      60.583  27.918  24.750  1.00  0.00    -0.550 OA
ATOM     14  O   UNL     1      59.101  26.299  25.405  1.00  0.00    -0.550 OA
ENDBRANCH  11  12
ENDBRANCH  10  11
ENDBRANCH   9  10
ENDBRANCH   8   9
ENDBRANCH   1   8
TORSDOF 9
ENDMDL
MODEL 4
REMARK VINA RESULT:    -4.305      1.863      2.479
REMARK INTER + INTRA:          -7.598
REMARK INTER:                  -6.755
REMARK INTRA:                  -0.842
REMARK UNBOUND:                -1.028
REMARK SMILES O=C([O-])CCCCCCCCC(=O)[O-]
REMARK SMILES IDX 7 1 6 2 5 3 4 4 2 5 1 6 3 7 8 8 9 9 10 10 11 11 12 12 13 13
REMARK SMILES IDX 14 14
REMARK H PARENT
REMARK Flexibility Score: inf
ROOT
ATOM      1  C   UNL     1      63.198  29.947  11.971  1.00  0.00     0.000 C 
ENDROOT
BRANCH   1   2
ATOM      2  C   UNL     1      63.125  31.480  11.901  1.00  0.00     0.000 C 
BRANCH   2   3
ATOM      3  C   UNL     1      62.227  32.038  13.011  1.00  0.00     0.006 C 
BRANCH   3   4
ATOM      4  C   UNL     1      60.766  31.632  12.793  1.00  0.00     0.053 C 
BRANCH   4   5
ATOM      5  C   UNL     1      59.907  32.154  13.901  1.00  0.00     0.041 C 
ATOM      6  O   UNL     1      58.841  31.560  14.210  1.00  0.00    -0.550 OA
ATOM      7  O   UNL     1      60.307  33.270  14.625  1.00  0.00    -0.550 OA
ENDBRANCH   4   5
ENDBRANCH   3   4
ENDBRANCH   2   3
ENDBRANCH   1   2
BRANCH   1   8
ATOM      8  C   UNL     1      63.030  29.280  10.595  1.00  0.00     0.000 C 
BRANCH   8   9
ATOM      9  C   UNL     1      61.584  29.353  10.077  1.00  0.00     0.000 C 
BRANCH   9  10
ATOM     10  C   UNL     1      60.709  28.206  10.610  1.00  0.00     0.006 C 
BRANCH  10  11
ATOM     11  C   UNL     1      59.394  28.702  11.226  1.00  0.00     0.053 C 
BRANCH  11  12
ATOM     12  C   UNL     1      59.217  28.135  12.600  1.00  0.00     0.041 C 
ATOM     13  O   UNL     1      60.146  28.217  13.445  1.00  0.00    -0.550 OA
ATOM     14  O   UNL     1      58.006  27.558  12.963  1.00  0.00    -0.550 OA
ENDBRANCH  11  12
ENDBRANCH  10  11
ENDBRANCH   9  10
ENDBRANCH   8   9
ENDBRANCH   1   8
TORSDOF 9
ENDMDL
MODEL 5
REMARK VINA RESULT:    -4.304     12.167     13.707
REMARK INTER + INTRA:          -7.597
REMARK INTER:                  -6.629
REMARK INTRA:                  -0.968
REMARK UNBOUND:                -1.028
REMARK SMILES O=C([O-])CCCCCCCCC(=O)[O-]
REMARK SMILES IDX 7 1 6 2 5 3 4 4 2 5 1 6 3 7 8 8 9 9 10 10 11 11 12 12 13 13
REMARK SMILES IDX 14 14
REMARK H PARENT
REMARK Flexibility Score: inf
ROOT
ATOM      1  C   UNL     1      61.811  29.260  24.997  1.00  0.00     0.000 C 
ENDROOT
BRANCH   1   2
ATOM      2  C   UNL     1      61.134  27.912  24.705  1.00  0.00     0.000 C 
BRANCH   2   3
ATOM      3  C   UNL     1      60.448  27.359  25.960  1.00  0.00     0.006 C 
BRANCH   3   4
ATOM      4  C   UNL     1      61.470  26.738  26.918  1.00  0.00     0.053 C 
BRANCH   4   5
ATOM      5  C   UNL     1      61.418  27.416  28.251  1.00  0.00     0.041 C 
ATOM      6  O   UNL     1      62.325  28.222  28.588  1.00  0.00    -0.550 OA
ATOM      7  O   UNL     1      60.342  27.195  29.101  1.00  0.00    -0.550 OA
ENDBRANCH   4   5
ENDBRANCH   3   4
ENDBRANCH   2   3
ENDBRANCH   1   2
BRANCH   1   8
ATOM      8  C   UNL     1      63.275  29.303  24.530  1.00  0.00     0.000 C 
BRANCH   8   9
ATOM      9  C   UNL     1      64.253  28.803  25.606  1.00  0.00     0.000 C 
BRANCH   9  10
ATOM     10  C   UNL     1      65.249  27.766  25.060  1.00  0.00     0.006 C 
BRANCH  10  11
ATOM     11  C   UNL     1      64.653  26.354  24.988  1.00  0.00     0.053 C 
BRANCH  11  12
ATOM     12  C   UNL     1      64.640  25.867  23.573  1.00  0.00     0.041 C 
ATOM     13  O   UNL     1      65.644  25.275  23.097  1.00  0.00    -0.550 OA
ATOM     14  O   UNL     1      63.499  26.021  22.795  1.00  0.00    -0.550 OA
ENDBRANCH  11  12
ENDBRANCH  10  11
ENDBRANCH   9  10
ENDBRANCH   8   9
ENDBRANCH   1   8
TORSDOF 9
ENDMDL
MODEL 6
REMARK VINA RESULT:    -4.281     12.827     13.883
REMARK INTER + INTRA:          -7.562
REMARK INTER:                  -6.587
REMARK INTRA:                  -0.975
REMARK UNBOUND:                -1.028
REMARK SMILES O=C([O-])CCCCCCCCC(=O)[O-]
REMARK SMILES IDX 7 1 6 2 5 3 4 4 2 5 1 6 3 7 8 8 9 9 10 10 11 11 12 12 13 13
REMARK SMILES IDX 14 14
REMARK H PARENT
REMARK Flexibility Score: inf
ROOT
ATOM      1  C   UNL     1      62.635  30.042  27.329  1.00  0.00     0.000 C 
ENDROOT
BRANCH   1   2
ATOM      2  C   UNL     1      62.490  28.654  27.973  1.00  0.00     0.000 C 
BRANCH   2   3
ATOM      3  C   UNL     1      61.061  28.122  27.816  1.00  0.00     0.006 C 
BRANCH   3   4
ATOM      4  C   UNL     1      61.043  26.822  27.007  1.00  0.00     0.053 C 
BRANCH   4   5
ATOM      5  C   UNL     1      60.356  27.032  25.694  1.00  0.00     0.041 C 
ATOM      6  O   UNL     1      59.274  26.439  25.443  1.00  0.00    -0.550 OA
ATOM      7  O   UNL     1      60.886  27.920  24.766  1.00  0.00    -0.550 OA
ENDBRANCH   4   5
ENDBRANCH   3   4
ENDBRANCH   2   3
ENDBRANCH   1   2
BRANCH   1   8
ATOM      8  C   UNL     1      63.534  30.027  26.081  1.00  0.00     0.000 C 
BRANCH   8   9
ATOM      9  C   UNL     1      64.709  29.044  26.213  1.00  0.00     0.000 C 
BRANCH   9  10
ATOM     10  C   UNL     1      64.781  28.052  25.039  1.00  0.00     0.006 C 
BRANCH  10  11
ATOM     11  C   UNL     1      64.450  26.614  25.459  1.00  0.00     0.053 C 
BRANCH  11  12
ATOM     12  C   UNL     1      64.297  25.741  24.253  1.00  0.00     0.041 C 
ATOM     13  O   UNL     1      65.276  25.541  23.486  1.00  0.00    -0.550 OA
ATOM     14  O   UNL     1      63.086  25.108  24.001  1.00  0.00    -0.550 OA
ENDBRANCH  11  12
ENDBRANCH  10  11
ENDBRANCH   9  10
ENDBRANCH   8   9
ENDBRANCH   1   8
TORSDOF 9
ENDMDL
MODEL 7
REMARK VINA RESULT:    -4.257      0.790      5.106
REMARK INTER + INTRA:          -7.526
REMARK INTER:                  -6.614
REMARK INTRA:                  -0.912
REMARK UNBOUND:                -1.028
REMARK SMILES O=C([O-])CCCCCCCCC(=O)[O-]
REMARK SMILES IDX 7 1 6 2 5 3 4 4 2 5 1 6 3 7 8 8 9 9 10 10 11 11 12 12 13 13
REMARK SMILES IDX 14 14
REMARK H PARENT
REMARK Flexibility Score: inf
ROOT
ATOM      1  C   UNL     1      62.228  28.625  13.056  1.00  0.00     0.000 C 
ENDROOT
BRANCH   1   2
ATOM      2  C   UNL     1      60.823  28.620  13.678  1.00  0.00     0.000 C 
BRANCH   2   3
ATOM      3  C   UNL     1      59.755  28.328  12.618  1.00  0.00     0.006 C 
BRANCH   3   4
ATOM      4  C   UNL     1      59.688  29.452  11.580  1.00  0.00     0.053 C 
BRANCH   4   5
ATOM      5  C   UNL     1      59.811  28.896  10.196  1.00  0.00     0.041 C 
ATOM      6  O   UNL     1      59.172  29.417   9.245  1.00  0.00    -0.550 OA
ATOM      7  O   UNL     1      60.669  27.832   9.948  1.00  0.00    -0.550 OA
ENDBRANCH   4   5
ENDBRANCH   3   4
ENDBRANCH   2   3
ENDBRANCH   1   2
BRANCH   1   8
ATOM      8  C   UNL     1      63.066  29.839  13.491  1.00  0.00     0.000 C 
BRANCH   8   9
ATOM      9  C   UNL     1      62.785  31.086  12.637  1.00  0.00     0.000 C 
BRANCH   9  10
ATOM     10  C   UNL     1      62.425  32.315  13.490  1.00  0.00     0.006 C 
BRANCH  10  11
ATOM     11  C   UNL     1      60.911  32.542  13.591  1.00  0.00     0.053 C 
BRANCH  11  12
ATOM     12  C   UNL     1      60.486  32.588  15.025  1.00  0.00     0.041 C 
ATOM     13  O   UNL     1      60.496  31.540  15.723  1.00  0.00    -0.550 OA
ATOM     14  O   UNL     1      60.127  33.798  15.606  1.00  0.00    -0.550 OA
ENDBRANCH  11  12
ENDBRANCH  10  11
ENDBRANCH   9  10
ENDBRANCH   8   9
ENDBRANCH   1   8
TORSDOF 9
ENDMDL
MODEL 8
REMARK VINA RESULT:    -4.227     11.972     13.966
REMARK INTER + INTRA:          -7.480
REMARK INTER:                  -6.418
REMARK INTRA:                  -1.061
REMARK UNBOUND:                -1.028
REMARK SMILES O=C([O-])CCCCCCCCC(=O)[O-]
REMARK SMILES IDX 7 1 6 2 5 3 4 4 2 5 1 6 3 7 8 8 9 9 10 10 11 11 12 12 13 13
REMARK SMILES IDX 14 14
REMARK H PARENT
REMARK Flexibility Score: inf
ROOT
ATOM      1  C   UNL     1      64.263  29.682  24.846  1.00  0.00     0.000 C 
ENDROOT
BRANCH   1   2
ATOM      2  C   UNL     1      65.114  28.536  25.414  1.00  0.00     0.000 C 
BRANCH   2   3
ATOM      3  C   UNL     1      65.461  27.517  24.322  1.00  0.00     0.006 C 
BRANCH   3   4
ATOM      4  C   UNL     1      64.850  26.147  24.633  1.00  0.00     0.053 C 
BRANCH   4   5
ATOM      5  C   UNL     1      63.781  25.813  23.642  1.00  0.00     0.041 C 
ATOM      6  O   UNL     1      62.958  24.892  23.884  1.00  0.00    -0.550 OA
ATOM      7  O   UNL     1      63.663  26.552  22.471  1.00  0.00    -0.550 OA
ENDBRANCH   4   5
ENDBRANCH   3   4
ENDBRANCH   2   3
ENDBRANCH   1   2
BRANCH   1   8
ATOM      8  C   UNL     1      62.843  29.715  25.433  1.00  0.00     0.000 C 
BRANCH   8   9
ATOM      9  C   UNL     1      61.851  28.859  24.628  1.00  0.00     0.000 C 
BRANCH   9  10
ATOM     10  C   UNL     1      60.978  27.967  25.527  1.00  0.00     0.006 C 
BRANCH  10  11
ATOM     11  C   UNL     1      61.800  27.181  26.557  1.00  0.00     0.053 C 
BRANCH  11  12
ATOM     12  C   UNL     1      61.315  27.473  27.943  1.00  0.00     0.041 C 
ATOM     13  O   UNL     1      61.477  26.628  28.862  1.00  0.00    -0.550 OA
ATOM     14  O   UNL     1      60.730  28.700  28.231  1.00  0.00    -0.550 OA
ENDBRANCH  11  12
ENDBRANCH  10  11
ENDBRANCH   9  10
ENDBRANCH   8   9
ENDBRANCH   1   8
TORSDOF 9
ENDMDL
MODEL 9
REMARK VINA RESULT:    -4.223     11.524     13.761
REMARK INTER + INTRA:          -7.474
REMARK INTER:                  -6.793
REMARK INTRA:                  -0.681
REMARK UNBOUND:                -1.028
REMARK SMILES O=C([O-])CCCCCCCCC(=O)[O-]
REMARK SMILES IDX 7 1 6 2 5 3 4 4 2 5 1 6 3 7 8 8 9 9 10 10 11 11 12 12 13 13
REMARK SMILES IDX 14 14
REMARK H PARENT
REMARK Flexibility Score: inf
ROOT
ATOM      1  C   UNL     1      62.995  25.889  24.849  1.00  0.00     0.000 C 
ENDROOT
BRANCH   1   2
ATOM      2  C   UNL     1      64.370  26.344  25.365  1.00  0.00     0.000 C 
BRANCH   2   3
ATOM      3  C   UNL     1      65.268  26.795  24.207  1.00  0.00     0.006 C 
BRANCH   3   4
ATOM      4  C   UNL     1      65.303  25.743  23.095  1.00  0.00     0.053 C 
BRANCH   4   5
ATOM      5  C   UNL     1      65.737  26.360  21.803  1.00  0.00     0.041 C 
ATOM      6  O   UNL     1      65.629  27.602  21.626  1.00  0.00    -0.550 OA
ATOM      7  O   UNL     1      66.307  25.570  20.812  1.00  0.00    -0.550 OA
ENDBRANCH   4   5
ENDBRANCH   3   4
ENDBRANCH   2   3
ENDBRANCH   1   2
BRANCH   1   8
ATOM      8  C   UNL     1      61.855  26.816  25.302  1.00  0.00     0.000 C 
BRANCH   8   9
ATOM      9  C   UNL     1      61.734  28.074  24.426  1.00  0.00     0.000 C 
BRANCH   9  10
ATOM     10  C   UNL     1      61.511  29.350  25.257  1.00  0.00     0.006 C 
BRANCH  10  11
ATOM     11  C   UNL     1      62.554  29.521  26.370  1.00  0.00     0.053 C 
BRANCH  11  12
ATOM     12  C   UNL     1      61.878  29.670  27.697  1.00  0.00     0.041 C 
ATOM     13  O   UNL     1      62.296  30.517  28.529  1.00  0.00    -0.550 OA
ATOM     14  O   UNL     1      60.755  28.908  27.996  1.00  0.00    -0.550 OA
ENDBRANCH  11  12
ENDBRANCH  10  11
ENDBRANCH   9  10
ENDBRANCH   8   9
ENDBRANCH   1   8
TORSDOF 9
ENDMDL
