MODEL 1
REMARK VINA RESULT:    -3.959      0.000      0.000
REMARK INTER + INTRA:          -5.883
REMARK INTER:                  -5.348
REMARK INTRA:                  -0.535
REMARK UNBOUND:                -0.535
REMARK SMILES O=C[C@H](O)[C@@H](O)[C@@H](O)CO
REMARK SMILES IDX 7 1 9 2 10 3 5 5 3 6 2 7 1 8 4 9 6 11 8 13
REMARK H PARENT 10 4 4 10 6 12 8 14
REMARK Flexibility Score: inf
ROOT
ATOM      1  C   UNL     1      -3.415  10.700  18.041  1.00  0.00     0.171 C 
ENDROOT
BRANCH   1   2
ATOM      2  C   UNL     1      -2.595  11.745  18.824  1.00  0.00     0.190 C 
BRANCH   2   3
ATOM      3  O   UNL     1      -1.653  12.382  18.002  1.00  0.00    -0.394 OA
ATOM      4  H   UNL     1      -0.816  12.462  18.528  1.00  0.00     0.210 HD
ENDBRANCH   2   3
ENDBRANCH   1   2
BRANCH   1   5
ATOM      5  C   UNL     1      -4.867  11.149  17.714  1.00  0.00     0.181 C 
BRANCH   5   6
ATOM      6  C   UNL     1      -4.983  12.543  17.032  1.00  0.00     0.209 C 
BRANCH   6   7
ATOM      7  C   UNL     1      -6.393  13.074  17.066  1.00  0.00     0.258 C 
ATOM      8  O   UNL     1      -7.245  12.537  17.756  1.00  0.00    -0.300 OA
ENDBRANCH   6   7
BRANCH   6   9
ATOM      9  O   UNL     1      -4.576  12.442  15.690  1.00  0.00    -0.383 OA
ATOM     10  H   UNL     1      -5.209  12.989  15.154  1.00  0.00     0.211 HD
ENDBRANCH   6   9
ENDBRANCH   5   6
BRANCH   5  11
ATOM     11  O   UNL     1      -5.483  10.165  16.918  1.00  0.00    -0.387 OA
ATOM     12  H   UNL     1      -6.423  10.077  17.222  1.00  0.00     0.211 HD
ENDBRANCH   5  11
ENDBRANCH   1   5
BRANCH   1  13
ATOM     13  O   UNL     1      -2.744  10.319  16.866  1.00  0.00    -0.388 OA
ATOM     14  H   UNL     1      -2.069  11.022  16.678  1.00  0.00     0.211 HD
ENDBRANCH   1  13
TORSDOF 8
ENDMDL
MODEL 2
REMARK VINA RESULT:    -3.951      1.227      2.136
REMARK INTER + INTRA:          -5.872
REMARK INTER:                  -5.318
REMARK INTRA:                  -0.554
REMARK UNBOUND:                -0.535
REMARK SMILES O=C[C@H](O)[C@@H](O)[C@@H](O)CO
REMARK SMILES IDX 7 1 9 2 10 3 5 5 3 6 2 7 1 8 4 9 6 11 8 13
REMARK H PARENT 10 4 4 10 6 12 8 14
REMARK Flexibility Score: inf
ROOT
ATOM      1  C   UNL     1      -3.754  11.566  17.441  1.00  0.00     0.171 C 
ENDROOT
BRANCH   1   2
ATOM      2  C   UNL     1      -2.783  10.431  17.825  1.00  0.00     0.190 C 
BRANCH   2   3
ATOM      3  O   UNL     1      -2.516   9.590  16.734  1.00  0.00    -0.394 OA
ATOM      4  H   UNL     1      -3.048   8.763  16.869  1.00  0.00     0.210 HD
ENDBRANCH   2   3
ENDBRANCH   1   2
BRANCH   1   5
ATOM      5  C   UNL     1      -5.255  11.179  17.551  1.00  0.00     0.181 C 
BRANCH   5   6
ATOM      6  C   UNL     1      -6.240  12.177  16.874  1.00  0.00     0.209 C 
BRANCH   6   7
ATOM      7  C   UNL     1      -5.753  12.619  15.518  1.00  0.00     0.258 C 
ATOM      8  O   UNL     1      -5.743  13.801  15.214  1.00  0.00    -0.300 OA
ENDBRANCH   6   7
BRANCH   6   9
ATOM      9  O   UNL     1      -6.387  13.313  17.688  1.00  0.00    -0.383 OA
ATOM     10  H   UNL     1      -6.759  13.002  18.555  1.00  0.00     0.211 HD
ENDBRANCH   6   9
ENDBRANCH   5   6
BRANCH   5  11
ATOM     11  O   UNL     1      -5.435   9.887  17.023  1.00  0.00    -0.387 OA
ATOM     12  H   UNL     1      -4.858   9.807  16.220  1.00  0.00     0.211 HD
ENDBRANCH   5  11
ENDBRANCH   1   5
BRANCH   1  13
ATOM     13  O   UNL     1      -3.490  12.724  18.195  1.00  0.00    -0.388 OA
ATOM     14  H   UNL     1      -4.266  13.332  18.070  1.00  0.00     0.211 HD
ENDBRANCH   1  13
TORSDOF 8
ENDMDL
MODEL 3
REMARK VINA RESULT:    -3.932      1.256      1.810
REMARK INTER + INTRA:          -5.847
REMARK INTER:                  -5.287
REMARK INTRA:                  -0.559
REMARK UNBOUND:                -0.535
REMARK SMILES O=C[C@H](O)[C@@H](O)[C@@H](O)CO
REMARK SMILES IDX 7 1 9 2 10 3 5 5 3 6 2 7 1 8 4 9 6 11 8 13
REMARK H PARENT 10 4 4 10 6 12 8 14
REMARK Flexibility Score: inf
ROOT
ATOM      1  C   UNL     1      -3.238  11.542  17.505  1.00  0.00     0.171 C 
ENDROOT
BRANCH   1   2
ATOM      2  C   UNL     1      -2.426  10.299  17.923  1.00  0.00     0.190 C 
BRANCH   2   3
ATOM      3  O   UNL     1      -2.050   9.532  16.810  1.00  0.00    -0.394 OA
ATOM      4  H   UNL     1      -2.885   9.171  16.411  1.00  0.00     0.210 HD
ENDBRANCH   2   3
ENDBRANCH   1   2
BRANCH   1   5
ATOM      5  C   UNL     1      -4.774  11.308  17.456  1.00  0.00     0.181 C 
BRANCH   5   6
ATOM      6  C   UNL     1      -5.539  12.193  16.430  1.00  0.00     0.209 C 
BRANCH   6   7
ATOM      7  C   UNL     1      -6.577  11.408  15.669  1.00  0.00     0.258 C 
ATOM      8  O   UNL     1      -7.425  10.760  16.261  1.00  0.00    -0.300 OA
ENDBRANCH   6   7
BRANCH   6   9
ATOM      9  O   UNL     1      -4.627  12.736  15.509  1.00  0.00    -0.383 OA
ATOM     10  H   UNL     1      -3.808  12.972  16.019  1.00  0.00     0.211 HD
ENDBRANCH   6   9
ENDBRANCH   5   6
BRANCH   5  11
ATOM     11  O   UNL     1      -5.022   9.946  17.202  1.00  0.00    -0.387 OA
ATOM     12  H   UNL     1      -4.204   9.440  17.448  1.00  0.00     0.211 HD
ENDBRANCH   5  11
ENDBRANCH   1   5
BRANCH   1  13
ATOM     13  O   UNL     1      -2.936  12.637  18.334  1.00  0.00    -0.388 OA
ATOM     14  H   UNL     1      -2.375  13.258  17.800  1.00  0.00     0.211 HD
ENDBRANCH   1  13
TORSDOF 8
ENDMDL
MODEL 4
REMARK VINA RESULT:    -3.910      1.361      2.185
REMARK INTER + INTRA:          -5.817
REMARK INTER:                  -5.223
REMARK INTRA:                  -0.593
REMARK UNBOUND:                -0.535
REMARK SMILES O=C[C@H](O)[C@@H](O)[C@@H](O)CO
REMARK SMILES IDX 7 1 9 2 10 3 5 5 3 6 2 7 1 8 4 9 6 11 8 13
REMARK H PARENT 10 4 4 10 6 12 8 14
REMARK Flexibility Score: inf
ROOT
ATOM      1  C   UNL     1      -2.333  11.838  18.512  1.00  0.00     0.171 C 
ENDROOT
BRANCH   1   2
ATOM      2  C   UNL     1      -1.748  11.179  19.778  1.00  0.00     0.190 C 
BRANCH   2   3
ATOM      3  O   UNL     1      -1.093   9.975  19.476  1.00  0.00    -0.394 OA
ATOM      4  H   UNL     1      -0.342   9.885  20.118  1.00  0.00     0.210 HD
ENDBRANCH   2   3
ENDBRANCH   1   2
BRANCH   1   5
ATOM      5  C   UNL     1      -3.470  11.018  17.839  1.00  0.00     0.181 C 
BRANCH   5   6
ATOM      6  C   UNL     1      -4.601  11.873  17.197  1.00  0.00     0.209 C 
BRANCH   6   7
ATOM      7  C   UNL     1      -5.847  11.064  16.945  1.00  0.00     0.258 C 
ATOM      8  O   UNL     1      -5.880   9.871  17.204  1.00  0.00    -0.300 OA
ENDBRANCH   6   7
BRANCH   6   9
ATOM      9  O   UNL     1      -4.154  12.398  15.973  1.00  0.00    -0.383 OA
ATOM     10  H   UNL     1      -3.198  12.141  15.880  1.00  0.00     0.211 HD
ENDBRANCH   6   9
ENDBRANCH   5   6
BRANCH   5  11
ATOM     11  O   UNL     1      -2.907  10.158  16.878  1.00  0.00    -0.387 OA
ATOM     12  H   UNL     1      -2.695   9.300  17.330  1.00  0.00     0.211 HD
ENDBRANCH   5  11
ENDBRANCH   1   5
BRANCH   1  13
ATOM     13  O   UNL     1      -2.769  13.146  18.787  1.00  0.00    -0.388 OA
ATOM     14  H   UNL     1      -2.449  13.719  18.042  1.00  0.00     0.211 HD
ENDBRANCH   1  13
TORSDOF 8
ENDMDL
MODEL 5
REMARK VINA RESULT:    -3.852     19.252     20.088
REMARK INTER + INTRA:          -5.738
REMARK INTER:                  -5.054
REMARK INTRA:                  -0.685
REMARK UNBOUND:                -0.535
REMARK SMILES O=C[C@H](O)[C@@H](O)[C@@H](O)CO
REMARK SMILES IDX 7 1 9 2 10 3 5 5 3 6 2 7 1 8 4 9 6 11 8 13
REMARK H PARENT 10 4 4 10 6 12 8 14
REMARK Flexibility Score: inf
ROOT
ATOM      1  C   UNL     1       8.785  27.394  19.731  1.00  0.00     0.171 C 
ENDROOT
BRANCH   1   2
ATOM      2  C   UNL     1       8.335  28.125  21.013  1.00  0.00     0.190 C 
BRANCH   2   3
ATOM      3  O   UNL     1       7.036  27.753  21.389  1.00  0.00    -0.394 OA
ATOM      4  H   UNL     1       6.543  28.589  21.594  1.00  0.00     0.210 HD
ENDBRANCH   2   3
ENDBRANCH   1   2
BRANCH   1   5
ATOM      5  C   UNL     1       7.734  27.422  18.585  1.00  0.00     0.181 C 
BRANCH   5   6
ATOM      6  C   UNL     1       8.333  27.447  17.148  1.00  0.00     0.209 C 
BRANCH   6   7
ATOM      7  C   UNL     1       7.268  27.601  16.094  1.00  0.00     0.258 C 
ATOM      8  O   UNL     1       6.616  26.638  15.721  1.00  0.00    -0.300 OA
ENDBRANCH   6   7
BRANCH   6   9
ATOM      9  O   UNL     1       9.028  26.249  16.911  1.00  0.00    -0.383 OA
ATOM     10  H   UNL     1       9.006  25.729  17.757  1.00  0.00     0.211 HD
ENDBRANCH   6   9
ENDBRANCH   5   6
BRANCH   5  11
ATOM     11  O   UNL     1       6.868  26.323  18.731  1.00  0.00    -0.387 OA
ATOM     12  H   UNL     1       7.382  25.503  18.511  1.00  0.00     0.211 HD
ENDBRANCH   5  11
ENDBRANCH   1   5
BRANCH   1  13
ATOM     13  O   UNL     1      10.018  27.895  19.277  1.00  0.00    -0.388 OA
ATOM     14  H   UNL     1      10.578  28.054  20.082  1.00  0.00     0.211 HD
ENDBRANCH   1  13
TORSDOF 8
ENDMDL
MODEL 6
REMARK VINA RESULT:    -3.789      1.414      3.984
REMARK INTER + INTRA:          -5.654
REMARK INTER:                  -4.969
REMARK INTRA:                  -0.685
REMARK UNBOUND:                -0.535
REMARK SMILES O=C[C@H](O)[C@@H](O)[C@@H](O)CO
REMARK SMILES IDX 7 1 9 2 10 3 5 5 3 6 2 7 1 8 4 9 6 11 8 13
REMARK H PARENT 10 4 4 10 6 12 8 14
REMARK Flexibility Score: inf
ROOT
ATOM      1  C   UNL     1      -5.586  11.605  16.573  1.00  0.00     0.171 C 
ENDROOT
BRANCH   1   2
ATOM      2  C   UNL     1      -5.728  13.000  15.929  1.00  0.00     0.190 C 
BRANCH   2   3
ATOM      3  O   UNL     1      -4.731  13.227  14.968  1.00  0.00    -0.394 OA
ATOM      4  H   UNL     1      -4.100  13.888  15.355  1.00  0.00     0.210 HD
ENDBRANCH   2   3
ENDBRANCH   1   2
BRANCH   1   5
ATOM      5  C   UNL     1      -4.358  11.465  17.516  1.00  0.00     0.181 C 
BRANCH   5   6
ATOM      6  C   UNL     1      -4.133  10.036  18.090  1.00  0.00     0.209 C 
BRANCH   6   7
ATOM      7  C   UNL     1      -2.672   9.673  18.146  1.00  0.00     0.258 C 
ATOM      8  O   UNL     1      -2.091   9.266  17.151  1.00  0.00    -0.300 OA
ENDBRANCH   6   7
BRANCH   6   9
ATOM      9  O   UNL     1      -4.796   9.098  17.281  1.00  0.00    -0.383 OA
ATOM     10  H   UNL     1      -4.129   8.403  17.036  1.00  0.00     0.211 HD
ENDBRANCH   6   9
ENDBRANCH   5   6
BRANCH   5  11
ATOM     11  O   UNL     1      -3.206  11.902  16.835  1.00  0.00    -0.387 OA
ATOM     12  H   UNL     1      -3.439  11.990  15.875  1.00  0.00     0.211 HD
ENDBRANCH   5  11
ENDBRANCH   1   5
BRANCH   1  13
ATOM     13  O   UNL     1      -6.766  11.247  17.249  1.00  0.00    -0.388 OA
ATOM     14  H   UNL     1      -7.451  11.060  16.554  1.00  0.00     0.211 HD
ENDBRANCH   1  13
TORSDOF 8
ENDMDL
MODEL 7
REMARK VINA RESULT:    -3.773      1.040      1.618
REMARK INTER + INTRA:          -5.632
REMARK INTER:                  -5.019
REMARK INTRA:                  -0.613
REMARK UNBOUND:                -0.535
REMARK SMILES O=C[C@H](O)[C@@H](O)[C@@H](O)CO
REMARK SMILES IDX 7 1 9 2 10 3 5 5 3 6 2 7 1 8 4 9 6 11 8 13
REMARK H PARENT 10 4 4 10 6 12 8 14
REMARK Flexibility Score: inf
ROOT
ATOM      1  C   UNL     1      -3.348  10.596  17.764  1.00  0.00     0.171 C 
ENDROOT
BRANCH   1   2
ATOM      2  C   UNL     1      -2.339  11.206  18.758  1.00  0.00     0.190 C 
BRANCH   2   3
ATOM      3  O   UNL     1      -1.642  12.283  18.189  1.00  0.00    -0.394 OA
ATOM      4  H   UNL     1      -2.304  13.007  18.035  1.00  0.00     0.210 HD
ENDBRANCH   2   3
ENDBRANCH   1   2
BRANCH   1   5
ATOM      5  C   UNL     1      -4.249  11.644  17.052  1.00  0.00     0.181 C 
BRANCH   5   6
ATOM      6  C   UNL     1      -5.695  11.161  16.741  1.00  0.00     0.209 C 
BRANCH   6   7
ATOM      7  C   UNL     1      -6.721  11.864  17.592  1.00  0.00     0.258 C 
ATOM      8  O   UNL     1      -6.948  13.054  17.440  1.00  0.00    -0.300 OA
ENDBRANCH   6   7
BRANCH   6   9
ATOM      9  O   UNL     1      -5.788   9.780  16.980  1.00  0.00    -0.383 OA
ATOM     10  H   UNL     1      -5.451   9.622  17.901  1.00  0.00     0.211 HD
ENDBRANCH   6   9
ENDBRANCH   5   6
BRANCH   5  11
ATOM     11  O   UNL     1      -4.285  12.818  17.828  1.00  0.00    -0.387 OA
ATOM     12  H   UNL     1      -5.003  12.710  18.505  1.00  0.00     0.211 HD
ENDBRANCH   5  11
ENDBRANCH   1   5
BRANCH   1  13
ATOM     13  O   UNL     1      -2.689   9.793  16.816  1.00  0.00    -0.388 OA
ATOM     14  H   UNL     1      -1.743  10.093  16.791  1.00  0.00     0.211 HD
ENDBRANCH   1  13
TORSDOF 8
ENDMDL
MODEL 8
REMARK VINA RESULT:    -3.632      0.917      3.699
REMARK INTER + INTRA:          -5.441
REMARK INTER:                  -4.884
REMARK INTRA:                  -0.557
REMARK UNBOUND:                -0.535
REMARK SMILES O=C[C@H](O)[C@@H](O)[C@@H](O)CO
REMARK SMILES IDX 7 1 9 2 10 3 5 5 3 6 2 7 1 8 4 9 6 11 8 13
REMARK H PARENT 10 4 4 10 6 12 8 14
REMARK Flexibility Score: inf
ROOT
ATOM      1  C   UNL     1      -5.784  10.863  16.908  1.00  0.00     0.171 C 
ENDROOT
BRANCH   1   2
ATOM      2  C   UNL     1      -7.067  11.509  17.469  1.00  0.00     0.190 C 
BRANCH   2   3
ATOM      3  O   UNL     1      -6.928  12.899  17.600  1.00  0.00    -0.394 OA
ATOM      4  H   UNL     1      -7.697  13.218  18.141  1.00  0.00     0.210 HD
ENDBRANCH   2   3
ENDBRANCH   1   2
BRANCH   1   5
ATOM      5  C   UNL     1      -4.480  11.633  17.261  1.00  0.00     0.181 C 
BRANCH   5   6
ATOM      6  C   UNL     1      -3.345  10.757  17.865  1.00  0.00     0.209 C 
BRANCH   6   7
ATOM      7  C   UNL     1      -2.279  11.591  18.528  1.00  0.00     0.258 C 
ATOM      8  O   UNL     1      -2.478  12.768  18.786  1.00  0.00    -0.300 OA
ENDBRANCH   6   7
BRANCH   6   9
ATOM      9  O   UNL     1      -2.749   9.996  16.846  1.00  0.00    -0.383 OA
ATOM     10  H   UNL     1      -2.923  10.470  15.991  1.00  0.00     0.211 HD
ENDBRANCH   6   9
ENDBRANCH   5   6
BRANCH   5  11
ATOM     11  O   UNL     1      -4.018  12.301  16.111  1.00  0.00    -0.387 OA
ATOM     12  H   UNL     1      -4.193  11.714  15.331  1.00  0.00     0.211 HD
ENDBRANCH   5  11
ENDBRANCH   1   5
BRANCH   1  13
ATOM     13  O   UNL     1      -5.684   9.520  17.313  1.00  0.00    -0.388 OA
ATOM     14  H   UNL     1      -5.135   9.509  18.141  1.00  0.00     0.211 HD
ENDBRANCH   1  13
TORSDOF 8
ENDMDL
MODEL 9
REMARK VINA RESULT:    -3.566      2.421      4.196
REMARK INTER + INTRA:          -5.352
REMARK INTER:                  -4.484
REMARK INTRA:                  -0.868
REMARK UNBOUND:                -0.535
REMARK SMILES O=C[C@H](O)[C@@H](O)[C@@H](O)CO
REMARK SMILES IDX 7 1 9 2 10 3 5 5 3 6 2 7 1 8 4 9 6 11 8 13
REMARK H PARENT 10 4 4 10 6 12 8 14
REMARK Flexibility Score: inf
ROOT
ATOM      1  C   UNL     1      -2.739  11.178  17.601  1.00  0.00     0.171 C 
ENDROOT
BRANCH   1   2
ATOM      2  C   UNL     1      -2.409  12.131  18.767  1.00  0.00     0.190 C 
BRANCH   2   3
ATOM      3  O   UNL     1      -1.233  11.746  19.430  1.00  0.00    -0.394 OA
ATOM      4  H   UNL     1      -0.583  12.488  19.322  1.00  0.00     0.210 HD
ENDBRANCH   2   3
ENDBRANCH   1   2
BRANCH   1   5
ATOM      5  C   UNL     1      -3.264   9.785  18.051  1.00  0.00     0.181 C 
BRANCH   5   6
ATOM      6  C   UNL     1      -2.405   8.577  17.575  1.00  0.00     0.209 C 
BRANCH   6   7
ATOM      7  C   UNL     1      -1.496   8.067  18.663  1.00  0.00     0.258 C 
ATOM      8  O   UNL     1      -0.755   8.828  19.265  1.00  0.00    -0.300 OA
ENDBRANCH   6   7
BRANCH   6   9
ATOM      9  O   UNL     1      -1.616   8.966  16.480  1.00  0.00    -0.383 OA
ATOM     10  H   UNL     1      -1.238   8.136  16.086  1.00  0.00     0.211 HD
ENDBRANCH   6   9
ENDBRANCH   5   6
BRANCH   5  11
ATOM     11  O   UNL     1      -3.385   9.773  19.453  1.00  0.00    -0.387 OA
ATOM     12  H   UNL     1      -3.416  10.716  19.761  1.00  0.00     0.211 HD
ENDBRANCH   5  11
ENDBRANCH   1   5
BRANCH   1  13
ATOM     13  O   UNL     1      -3.645  11.777  16.708  1.00  0.00    -0.388 OA
ATOM     14  H   UNL     1      -3.377  11.497  15.794  1.00  0.00     0.211 HD
ENDBRANCH   1  13
TORSDOF 8
ENDMDL
