MODEL 1
REMARK VINA RESULT:    -3.326      0.000      0.000
REMARK INTER + INTRA:          -5.704
REMARK INTER:                  -5.076
REMARK INTRA:                  -0.628
REMARK UNBOUND:                -0.628
REMARK SMILES CCCCCCCCCCC(=O)[O-]
REMARK SMILES IDX 7 1 8 2 9 3 10 4 11 5 12 6 13 7 6 8 5 9 4 10 3 11 2 12 1 13
REMARK H PARENT
REMARK Flexibility Score: inf
ROOT
ATOM      1  C   UNL     1       4.067  69.496  21.185  1.00  0.00     0.000 C 
ENDROOT
BRANCH   1   2
ATOM      2  C   UNL     1       2.964  69.433  20.113  1.00  0.00     0.000 C 
BRANCH   2   3
ATOM      3  C   UNL     1       3.227  70.388  18.937  1.00  0.00     0.006 C 
BRANCH   3   4
ATOM      4  C   UNL     1       1.949  71.069  18.430  1.00  0.00     0.053 C 
BRANCH   4   5
ATOM      5  C   UNL     1       1.926  72.507  18.841  1.00  0.00     0.041 C 
ATOM      6  O   UNL     1       1.088  72.911  19.688  1.00  0.00    -0.550 OA
ATOM      7  O   UNL     1       2.864  73.393  18.324  1.00  0.00    -0.550 OA
ENDBRANCH   4   5
ENDBRANCH   3   4
ENDBRANCH   2   3
ENDBRANCH   1   2
BRANCH   1   8
ATOM      8  C   UNL     1       3.666  68.779  22.484  1.00  0.00     0.000 C 
BRANCH   8   9
ATOM      9  C   UNL     1       4.666  69.028  23.626  1.00  0.00    -0.000 C 
BRANCH   9  10
ATOM     10  C   UNL     1       5.996  69.631  23.136  1.00  0.00    -0.000 C 
BRANCH  10  11
ATOM     11  C   UNL     1       7.232  68.735  23.336  1.00  0.00    -0.000 C 
BRANCH  11  12
ATOM     12  C   UNL     1       6.954  67.255  23.031  1.00  0.00    -0.003 C 
ATOM     13  C   UNL     1       7.018  66.982  21.531  1.00  0.00     0.004 C 
ENDBRANCH  11  12
ENDBRANCH  10  11
ENDBRANCH   9  10
ENDBRANCH   8   9
ENDBRANCH   1   8
TORSDOF 9
ENDMDL
MODEL 2
REMARK VINA RESULT:    -3.294      3.014      5.937
REMARK INTER + INTRA:          -5.655
REMARK INTER:                  -4.583
REMARK INTRA:                  -1.072
REMARK UNBOUND:                -0.628
REMARK SMILES CCCCCCCCCCC(=O)[O-]
REMARK SMILES IDX 7 1 8 2 9 3 10 4 11 5 12 6 13 7 6 8 5 9 4 10 3 11 2 12 1 13
REMARK H PARENT
REMARK Flexibility Score: inf
ROOT
ATOM      1  C   UNL     1       3.106  67.984  19.037  1.00  0.00     0.000 C 
ENDROOT
BRANCH   1   2
ATOM      2  C   UNL     1       2.725  67.917  20.527  1.00  0.00     0.000 C 
BRANCH   2   3
ATOM      3  C   UNL     1       3.215  69.141  21.317  1.00  0.00     0.006 C 
BRANCH   3   4
ATOM      4  C   UNL     1       4.683  69.482  21.031  1.00  0.00     0.053 C 
BRANCH   4   5
ATOM      5  C   UNL     1       5.521  69.243  22.247  1.00  0.00     0.041 C 
ATOM      6  O   UNL     1       5.284  69.869  23.313  1.00  0.00    -0.550 OA
ATOM      7  O   UNL     1       6.533  68.291  22.219  1.00  0.00    -0.550 OA
ENDBRANCH   4   5
ENDBRANCH   3   4
ENDBRANCH   2   3
ENDBRANCH   1   2
BRANCH   1   8
ATOM      8  C   UNL     1       1.893  68.256  18.132  1.00  0.00     0.000 C 
BRANCH   8   9
ATOM      9  C   UNL     1       1.765  69.741  17.750  1.00  0.00    -0.000 C 
BRANCH   9  10
ATOM     10  C   UNL     1       0.879  70.536  18.727  1.00  0.00    -0.000 C 
BRANCH  10  11
ATOM     11  C   UNL     1       1.489  71.856  19.235  1.00  0.00    -0.000 C 
BRANCH  11  12
ATOM     12  C   UNL     1       2.971  72.013  18.863  1.00  0.00    -0.003 C 
ATOM     13  C   UNL     1       3.198  73.270  18.027  1.00  0.00     0.004 C 
ENDBRANCH  11  12
ENDBRANCH  10  11
ENDBRANCH   9  10
ENDBRANCH   8   9
ENDBRANCH   1   8
TORSDOF 9
ENDMDL
MODEL 3
REMARK VINA RESULT:    -3.249      4.246      7.198
REMARK INTER + INTRA:          -5.586
REMARK INTER:                  -5.263
REMARK INTRA:                  -0.323
REMARK UNBOUND:                -0.628
REMARK SMILES CCCCCCCCCCC(=O)[O-]
REMARK SMILES IDX 7 1 8 2 9 3 10 4 11 5 12 6 13 7 6 8 5 9 4 10 3 11 2 12 1 13
REMARK H PARENT
REMARK Flexibility Score: inf
ROOT
ATOM      1  C   UNL     1       4.932  69.210  22.760  1.00  0.00     0.000 C 
ENDROOT
BRANCH   1   2
ATOM      2  C   UNL     1       6.298  69.589  23.361  1.00  0.00     0.000 C 
BRANCH   2   3
ATOM      3  C   UNL     1       7.112  68.361  23.798  1.00  0.00     0.006 C 
BRANCH   3   4
ATOM      4  C   UNL     1       7.867  67.705  22.634  1.00  0.00     0.053 C 
BRANCH   4   5
ATOM      5  C   UNL     1       9.312  67.531  22.982  1.00  0.00     0.041 C 
ATOM      6  O   UNL     1      10.031  66.736  22.323  1.00  0.00    -0.550 OA
ATOM      7  O   UNL     1       9.876  68.283  24.005  1.00  0.00    -0.550 OA
ENDBRANCH   4   5
ENDBRANCH   3   4
ENDBRANCH   2   3
ENDBRANCH   1   2
BRANCH   1   8
ATOM      8  C   UNL     1       4.888  69.399  21.235  1.00  0.00     0.000 C 
BRANCH   8   9
ATOM      9  C   UNL     1       3.453  69.370  20.680  1.00  0.00    -0.000 C 
BRANCH   9  10
ATOM     10  C   UNL     1       3.240  70.359  19.520  1.00  0.00    -0.000 C 
BRANCH  10  11
ATOM     11  C   UNL     1       1.841  71.000  19.457  1.00  0.00    -0.000 C 
BRANCH  11  12
ATOM     12  C   UNL     1       1.872  72.462  18.989  1.00  0.00    -0.003 C 
ATOM     13  C   UNL     1       3.160  72.768  18.229  1.00  0.00     0.004 C 
ENDBRANCH  11  12
ENDBRANCH  10  11
ENDBRANCH   9  10
ENDBRANCH   8   9
ENDBRANCH   1   8
TORSDOF 9
ENDMDL
MODEL 4
REMARK VINA RESULT:    -3.211      8.286     10.191
REMARK INTER + INTRA:          -5.529
REMARK INTER:                  -4.507
REMARK INTRA:                  -1.022
REMARK UNBOUND:                -0.628
REMARK SMILES CCCCCCCCCCC(=O)[O-]
REMARK SMILES IDX 7 1 8 2 9 3 10 4 11 5 12 6 13 7 6 8 5 9 4 10 3 11 2 12 1 13
REMARK H PARENT
REMARK Flexibility Score: inf
ROOT
ATOM      1  C   UNL     1      -6.563  73.083  22.012  1.00  0.00     0.000 C 
ENDROOT
BRANCH   1   2
ATOM      2  C   UNL     1      -6.755  72.299  20.702  1.00  0.00     0.000 C 
BRANCH   2   3
ATOM      3  C   UNL     1      -5.640  72.576  19.680  1.00  0.00     0.006 C 
BRANCH   3   4
ATOM      4  C   UNL     1      -5.800  71.757  18.393  1.00  0.00     0.053 C 
BRANCH   4   5
ATOM      5  C   UNL     1      -6.661  72.489  17.412  1.00  0.00     0.041 C 
ATOM      6  O   UNL     1      -6.136  73.172  16.495  1.00  0.00    -0.550 OA
ATOM      7  O   UNL     1      -8.044  72.375  17.481  1.00  0.00    -0.550 OA
ENDBRANCH   4   5
ENDBRANCH   3   4
ENDBRANCH   2   3
ENDBRANCH   1   2
BRANCH   1   8
ATOM      8  C   UNL     1      -5.487  74.175  21.893  1.00  0.00     0.000 C 
BRANCH   8   9
ATOM      9  C   UNL     1      -4.869  74.543  23.252  1.00  0.00    -0.000 C 
BRANCH   9  10
ATOM     10  C   UNL     1      -4.312  73.322  24.008  1.00  0.00    -0.000 C 
BRANCH  10  11
ATOM     11  C   UNL     1      -3.148  72.596  23.307  1.00  0.00    -0.000 C 
BRANCH  11  12
ATOM     12  C   UNL     1      -3.492  71.151  22.917  1.00  0.00    -0.003 C 
ATOM     13  C   UNL     1      -2.986  70.826  21.515  1.00  0.00     0.004 C 
ENDBRANCH  11  12
ENDBRANCH  10  11
ENDBRANCH   9  10
ENDBRANCH   8   9
ENDBRANCH   1   8
TORSDOF 9
ENDMDL
MODEL 5
REMARK VINA RESULT:    -3.156     10.375     12.560
REMARK INTER + INTRA:          -5.443
REMARK INTER:                  -4.883
REMARK INTRA:                  -0.561
REMARK UNBOUND:                -0.628
REMARK SMILES CCCCCCCCCCC(=O)[O-]
REMARK SMILES IDX 7 1 8 2 9 3 10 4 11 5 12 6 13 7 6 8 5 9 4 10 3 11 2 12 1 13
REMARK H PARENT
REMARK Flexibility Score: inf
ROOT
ATOM      1  C   UNL     1       2.423  65.154  11.542  1.00  0.00     0.000 C 
ENDROOT
BRANCH   1   2
ATOM      2  C   UNL     1       2.754  65.350  13.033  1.00  0.00     0.000 C 
BRANCH   2   3
ATOM      3  C   UNL     1       3.180  64.042  13.719  1.00  0.00     0.006 C 
BRANCH   3   4
ATOM      4  C   UNL     1       2.099  63.486  14.656  1.00  0.00     0.053 C 
BRANCH   4   5
ATOM      5  C   UNL     1       2.696  62.511  15.621  1.00  0.00     0.041 C 
ATOM      6  O   UNL     1       2.087  62.216  16.682  1.00  0.00    -0.550 OA
ATOM      7  O   UNL     1       3.903  61.890  15.324  1.00  0.00    -0.550 OA
ENDBRANCH   4   5
ENDBRANCH   3   4
ENDBRANCH   2   3
ENDBRANCH   1   2
BRANCH   1   8
ATOM      8  C   UNL     1       1.431  66.205  11.017  1.00  0.00     0.000 C 
BRANCH   8   9
ATOM      9  C   UNL     1       1.519  66.388   9.492  1.00  0.00    -0.000 C 
BRANCH   9  10
ATOM     10  C   UNL     1       0.919  65.204   8.712  1.00  0.00    -0.000 C 
BRANCH  10  11
ATOM     11  C   UNL     1       1.802  64.658   7.574  1.00  0.00    -0.000 C 
BRANCH  11  12
ATOM     12  C   UNL     1       3.111  64.034   8.079  1.00  0.00    -0.003 C 
ATOM     13  C   UNL     1       2.844  62.748   8.855  1.00  0.00     0.004 C 
ENDBRANCH  11  12
ENDBRANCH  10  11
ENDBRANCH   9  10
ENDBRANCH   8   9
ENDBRANCH   1   8
TORSDOF 9
ENDMDL
MODEL 6
REMARK VINA RESULT:    -3.144      5.484      7.338
REMARK INTER + INTRA:          -5.425
REMARK INTER:                  -4.926
REMARK INTRA:                  -0.500
REMARK UNBOUND:                -0.628
REMARK SMILES CCCCCCCCCCC(=O)[O-]
REMARK SMILES IDX 7 1 8 2 9 3 10 4 11 5 12 6 13 7 6 8 5 9 4 10 3 11 2 12 1 13
REMARK H PARENT
REMARK Flexibility Score: inf
ROOT
ATOM      1  C   UNL     1       1.630  69.700  14.643  1.00  0.00     0.000 C 
ENDROOT
BRANCH   1   2
ATOM      2  C   UNL     1       1.439  70.376  13.273  1.00  0.00     0.000 C 
BRANCH   2   3
ATOM      3  C   UNL     1       2.731  71.023  12.749  1.00  0.00     0.006 C 
BRANCH   3   4
ATOM      4  C   UNL     1       2.519  72.466  12.272  1.00  0.00     0.053 C 
BRANCH   4   5
ATOM      5  C   UNL     1       3.775  73.003  11.662  1.00  0.00     0.041 C 
ATOM      6  O   UNL     1       4.072  74.220  11.790  1.00  0.00    -0.550 OA
ATOM      7  O   UNL     1       4.644  72.149  10.993  1.00  0.00    -0.550 OA
ENDBRANCH   4   5
ENDBRANCH   3   4
ENDBRANCH   2   3
ENDBRANCH   1   2
BRANCH   1   8
ATOM      8  C   UNL     1       2.610  70.468  15.546  1.00  0.00     0.000 C 
BRANCH   8   9
ATOM      9  C   UNL     1       2.684  69.882  16.966  1.00  0.00    -0.000 C 
BRANCH   9  10
ATOM     10  C   UNL     1       1.439  70.205  17.813  1.00  0.00    -0.000 C 
BRANCH  10  11
ATOM     11  C   UNL     1       1.601  71.388  18.786  1.00  0.00    -0.000 C 
BRANCH  11  12
ATOM     12  C   UNL     1       3.007  72.004  18.752  1.00  0.00    -0.003 C 
ATOM     13  C   UNL     1       2.985  73.389  18.113  1.00  0.00     0.004 C 
ENDBRANCH  11  12
ENDBRANCH  10  11
ENDBRANCH   9  10
ENDBRANCH   8   9
ENDBRANCH   1   8
TORSDOF 9
ENDMDL
MODEL 7
REMARK VINA RESULT:    -3.096      4.247      7.926
REMARK INTER + INTRA:          -5.352
REMARK INTER:                  -4.883
REMARK INTRA:                  -0.469
REMARK UNBOUND:                -0.628
REMARK SMILES CCCCCCCCCCC(=O)[O-]
REMARK SMILES IDX 7 1 8 2 9 3 10 4 11 5 12 6 13 7 6 8 5 9 4 10 3 11 2 12 1 13
REMARK H PARENT
REMARK Flexibility Score: inf
ROOT
ATOM      1  C   UNL     1       2.810  69.185  16.222  1.00  0.00     0.000 C 
ENDROOT
BRANCH   1   2
ATOM      2  C   UNL     1       2.163  70.333  17.017  1.00  0.00     0.000 C 
BRANCH   2   3
ATOM      3  C   UNL     1       2.585  70.340  18.495  1.00  0.00     0.006 C 
BRANCH   3   4
ATOM      4  C   UNL     1       3.367  71.603  18.882  1.00  0.00     0.053 C 
BRANCH   4   5
ATOM      5  C   UNL     1       2.512  72.818  18.708  1.00  0.00     0.041 C 
ATOM      6  O   UNL     1       1.427  72.925  19.338  1.00  0.00    -0.550 OA
ATOM      7  O   UNL     1       2.937  73.856  17.889  1.00  0.00    -0.550 OA
ENDBRANCH   4   5
ENDBRANCH   3   4
ENDBRANCH   2   3
ENDBRANCH   1   2
BRANCH   1   8
ATOM      8  C   UNL     1       3.369  69.651  14.867  1.00  0.00     0.000 C 
BRANCH   8   9
ATOM      9  C   UNL     1       2.650  70.900  14.331  1.00  0.00    -0.000 C 
BRANCH   9  10
ATOM     10  C   UNL     1       2.929  71.159  12.839  1.00  0.00    -0.000 C 
BRANCH  10  11
ATOM     11  C   UNL     1       3.599  72.510  12.525  1.00  0.00    -0.000 C 
BRANCH  11  12
ATOM     12  C   UNL     1       2.874  73.296  11.422  1.00  0.00    -0.003 C 
ATOM     13  C   UNL     1       1.660  72.527  10.908  1.00  0.00     0.004 C 
ENDBRANCH  11  12
ENDBRANCH  10  11
ENDBRANCH   9  10
ENDBRANCH   8   9
ENDBRANCH   1   8
TORSDOF 9
ENDMDL
MODEL 8
REMARK VINA RESULT:    -3.090     14.449     15.868
REMARK INTER + INTRA:          -5.344
REMARK INTER:                  -4.913
REMARK INTRA:                  -0.431
REMARK UNBOUND:                -0.628
REMARK SMILES CCCCCCCCCCC(=O)[O-]
REMARK SMILES IDX 7 1 8 2 9 3 10 4 11 5 12 6 13 7 6 8 5 9 4 10 3 11 2 12 1 13
REMARK H PARENT
REMARK Flexibility Score: inf
ROOT
ATOM      1  C   UNL     1       4.627  66.999   5.665  1.00  0.00     0.000 C 
ENDROOT
BRANCH   1   2
ATOM      2  C   UNL     1       5.454  66.511   4.461  1.00  0.00     0.000 C 
BRANCH   2   3
ATOM      3  C   UNL     1       6.709  67.365   4.223  1.00  0.00     0.006 C 
BRANCH   3   4
ATOM      4  C   UNL     1       6.925  68.419   5.318  1.00  0.00     0.053 C 
BRANCH   4   5
ATOM      5  C   UNL     1       8.260  69.075   5.155  1.00  0.00     0.041 C 
ATOM      6  O   UNL     1       9.272  68.605   5.738  1.00  0.00    -0.550 OA
ATOM      7  O   UNL     1       8.396  70.176   4.318  1.00  0.00    -0.550 OA
ENDBRANCH   4   5
ENDBRANCH   3   4
ENDBRANCH   2   3
ENDBRANCH   1   2
BRANCH   1   8
ATOM      8  C   UNL     1       4.043  65.837   6.487  1.00  0.00     0.000 C 
BRANCH   8   9
ATOM      9  C   UNL     1       2.515  65.929   6.633  1.00  0.00    -0.000 C 
BRANCH   9  10
ATOM     10  C   UNL     1       2.046  65.827   8.096  1.00  0.00    -0.000 C 
BRANCH  10  11
ATOM     11  C   UNL     1       1.097  64.652   8.396  1.00  0.00    -0.000 C 
BRANCH  11  12
ATOM     12  C   UNL     1       1.665  63.295   7.954  1.00  0.00    -0.003 C 
ATOM     13  C   UNL     1       2.848  62.885   8.826  1.00  0.00     0.004 C 
ENDBRANCH  11  12
ENDBRANCH  10  11
ENDBRANCH   9  10
ENDBRANCH   8   9
ENDBRANCH   1   8
TORSDOF 9
ENDMDL
MODEL 9
REMARK VINA RESULT:    -3.050     10.589     12.880
REMARK INTER + INTRA:          -5.283
REMARK INTER:                  -4.399
REMARK INTRA:                  -0.884
REMARK UNBOUND:                -0.628
REMARK SMILES CCCCCCCCCCC(=O)[O-]
REMARK SMILES IDX 7 1 8 2 9 3 10 4 11 5 12 6 13 7 6 8 5 9 4 10 3 11 2 12 1 13
REMARK H PARENT
REMARK Flexibility Score: inf
ROOT
ATOM      1  C   UNL     1       0.775  66.111   9.752  1.00  0.00     0.000 C 
ENDROOT
BRANCH   1   2
ATOM      2  C   UNL     1       1.189  66.505  11.182  1.00  0.00     0.000 C 
BRANCH   2   3
ATOM      3  C   UNL     1       2.218  65.535  11.787  1.00  0.00     0.006 C 
BRANCH   3   4
ATOM      4  C   UNL     1       2.559  65.869  13.245  1.00  0.00     0.053 C 
BRANCH   4   5
ATOM      5  C   UNL     1       3.528  64.870  13.796  1.00  0.00     0.041 C 
ATOM      6  O   UNL     1       3.240  63.645  13.801  1.00  0.00    -0.550 OA
ATOM      7  O   UNL     1       4.770  65.288  14.257  1.00  0.00    -0.550 OA
ENDBRANCH   4   5
ENDBRANCH   3   4
ENDBRANCH   2   3
ENDBRANCH   1   2
BRANCH   1   8
ATOM      8  C   UNL     1       1.376  67.044   8.688  1.00  0.00     0.000 C 
BRANCH   8   9
ATOM      9  C   UNL     1       2.770  66.588   8.225  1.00  0.00    -0.000 C 
BRANCH   9  10
ATOM     10  C   UNL     1       2.730  65.296   7.388  1.00  0.00    -0.000 C 
BRANCH  10  11
ATOM     11  C   UNL     1       3.405  64.075   8.039  1.00  0.00    -0.000 C 
BRANCH  11  12
ATOM     12  C   UNL     1       2.397  63.036   8.552  1.00  0.00    -0.003 C 
ATOM     13  C   UNL     1       1.176  62.959   7.639  1.00  0.00     0.004 C 
ENDBRANCH  11  12
ENDBRANCH  10  11
ENDBRANCH   9  10
ENDBRANCH   8   9
ENDBRANCH   1   8
TORSDOF 9
ENDMDL
