MODEL 1
REMARK VINA RESULT:    -3.702      0.000      0.000
REMARK INTER + INTRA:         -13.515
REMARK INTER:                  -8.464
REMARK INTRA:                  -5.051
REMARK UNBOUND:                -5.051
REMARK SMILES CCCCCCCCCCCCCCCCCCCCCCCC(=O)[O-]
REMARK SMILES IDX 13 1 14 2 15 3 16 4 17 5 18 6 19 7 20 8 21 9 22 10 23 11
REMARK SMILES IDX 24 12 25 13 26 14 12 15 11 16 10 17 9 18 8 19 7 20 6 21 5 22
REMARK SMILES IDX 4 23 3 24 2 25 1 26
REMARK H PARENT
REMARK Flexibility Score: inf
ROOT
ATOM      1  C   UNL     1      16.900  49.602  38.248  1.00  0.00     0.000 C 
ENDROOT
BRANCH   1   2
ATOM      2  C   UNL     1      16.582  49.117  36.826  1.00  0.00     0.000 C 
BRANCH   2   3
ATOM      3  C   UNL     1      16.670  50.241  35.781  1.00  0.00     0.000 C 
BRANCH   3   4
ATOM      4  C   UNL     1      16.846  49.699  34.350  1.00  0.00     0.000 C 
BRANCH   4   5
ATOM      5  C   UNL     1      16.523  48.199  34.243  1.00  0.00     0.000 C 
BRANCH   5   6
ATOM      6  C   UNL     1      17.454  47.462  33.265  1.00  0.00     0.000 C 
BRANCH   6   7
ATOM      7  C   UNL     1      17.911  46.103  33.822  1.00  0.00     0.000 C 
BRANCH   7   8
ATOM      8  C   UNL     1      18.128  46.146  35.343  1.00  0.00     0.000 C 
BRANCH   8   9
ATOM      9  C   UNL     1      19.608  46.313  35.733  1.00  0.00     0.000 C 
BRANCH   9  10
ATOM     10  C   UNL     1      20.048  47.768  35.988  1.00  0.00     0.006 C 
BRANCH  10  11
ATOM     11  C   UNL     1      21.312  48.155  35.204  1.00  0.00     0.053 C 
BRANCH  11  12
ATOM     12  C   UNL     1      20.962  48.548  33.800  1.00  0.00     0.041 C 
ATOM     13  O   UNL     1      21.078  47.715  32.863  1.00  0.00    -0.550 OA
ATOM     14  O   UNL     1      20.455  49.814  33.538  1.00  0.00    -0.550 OA
ENDBRANCH  11  12
ENDBRANCH  10  11
ENDBRANCH   9  10
ENDBRANCH   8   9
ENDBRANCH   7   8
ENDBRANCH   6   7
ENDBRANCH   5   6
ENDBRANCH   4   5
ENDBRANCH   3   4
ENDBRANCH   2   3
ENDBRANCH   1   2
BRANCH   1  15
ATOM     15  C   UNL     1      18.035  48.770  38.865  1.00  0.00     0.000 C 
BRANCH  15  16
ATOM     16  C   UNL     1      18.637  49.418  40.123  1.00  0.00     0.000 C 
BRANCH  16  17
ATOM     17  C   UNL     1      18.183  50.874  40.318  1.00  0.00     0.000 C 
BRANCH  17  18
ATOM     18  C   UNL     1      19.337  51.745  40.838  1.00  0.00    -0.000 C 
BRANCH  18  19
ATOM     19  C   UNL     1      20.599  50.934  41.187  1.00  0.00    -0.000 C 
BRANCH  19  20
ATOM     20  C   UNL     1      21.898  51.426  40.522  1.00  0.00    -0.000 C 
BRANCH  20  21
ATOM     21  C   UNL     1      22.576  50.351  39.653  1.00  0.00    -0.000 C 
BRANCH  21  22
ATOM     22  C   UNL     1      21.797  50.071  38.358  1.00  0.00    -0.000 C 
BRANCH  22  23
ATOM     23  C   UNL     1      21.479  51.350  37.568  1.00  0.00    -0.000 C 
BRANCH  23  24
ATOM     24  C   UNL     1      20.083  51.265  36.933  1.00  0.00    -0.000 C 
BRANCH  24  25
ATOM     25  C   UNL     1      19.236  52.520  37.193  1.00  0.00    -0.003 C 
ATOM     26  C   UNL     1      20.056  53.694  37.723  1.00  0.00     0.004 C 
ENDBRANCH  24  25
ENDBRANCH  23  24
ENDBRANCH  22  23
ENDBRANCH  21  22
ENDBRANCH  20  21
ENDBRANCH  19  20
ENDBRANCH  18  19
ENDBRANCH  17  18
ENDBRANCH  16  17
ENDBRANCH  15  16
ENDBRANCH   1  15
TORSDOF 22
ENDMDL
MODEL 2
REMARK VINA RESULT:    -3.626      2.501      6.061
REMARK INTER + INTRA:         -13.341
REMARK INTER:                  -8.682
REMARK INTRA:                  -4.659
REMARK UNBOUND:                -5.051
REMARK SMILES CCCCCCCCCCCCCCCCCCCCCCCC(=O)[O-]
REMARK SMILES IDX 13 1 14 2 15 3 16 4 17 5 18 6 19 7 20 8 21 9 22 10 23 11
REMARK SMILES IDX 24 12 25 13 26 14 12 15 11 16 10 17 9 18 8 19 7 20 6 21 5 22
REMARK SMILES IDX 4 23 3 24 2 25 1 26
REMARK H PARENT
REMARK Flexibility Score: inf
ROOT
ATOM      1  C   UNL     1      21.620  47.671  33.391  1.00  0.00     0.000 C 
ENDROOT
BRANCH   1   2
ATOM      2  C   UNL     1      21.456  46.359  34.172  1.00  0.00     0.000 C 
BRANCH   2   3
ATOM      3  C   UNL     1      20.007  46.112  34.623  1.00  0.00     0.000 C 
BRANCH   3   4
ATOM      4  C   UNL     1      19.775  46.502  36.094  1.00  0.00     0.000 C 
BRANCH   4   5
ATOM      5  C   UNL     1      18.707  47.597  36.252  1.00  0.00     0.000 C 
BRANCH   5   6
ATOM      6  C   UNL     1      19.261  48.874  36.908  1.00  0.00     0.000 C 
BRANCH   6   7
ATOM      7  C   UNL     1      20.797  48.936  36.834  1.00  0.00     0.000 C 
BRANCH   7   8
ATOM      8  C   UNL     1      21.300  50.338  36.453  1.00  0.00     0.000 C 
BRANCH   8   9
ATOM      9  C   UNL     1      20.343  51.460  36.897  1.00  0.00     0.000 C 
BRANCH   9  10
ATOM     10  C   UNL     1      20.981  52.529  37.806  1.00  0.00     0.006 C 
BRANCH  10  11
ATOM     11  C   UNL     1      22.420  52.182  38.217  1.00  0.00     0.053 C 
BRANCH  11  12
ATOM     12  C   UNL     1      22.452  51.633  39.612  1.00  0.00     0.041 C 
ATOM     13  O   UNL     1      22.083  52.346  40.581  1.00  0.00    -0.550 OA
ATOM     14  O   UNL     1      22.836  50.317  39.833  1.00  0.00    -0.550 OA
ENDBRANCH  11  12
ENDBRANCH  10  11
ENDBRANCH   9  10
ENDBRANCH   8   9
ENDBRANCH   7   8
ENDBRANCH   6   7
ENDBRANCH   5   6
ENDBRANCH   4   5
ENDBRANCH   3   4
ENDBRANCH   2   3
ENDBRANCH   1   2
BRANCH   1  15
ATOM     15  C   UNL     1      20.249  48.254  33.015  1.00  0.00     0.000 C 
BRANCH  15  16
ATOM     16  C   UNL     1      20.240  49.791  32.985  1.00  0.00     0.000 C 
BRANCH  16  17
ATOM     17  C   UNL     1      18.828  50.377  32.834  1.00  0.00     0.000 C 
BRANCH  17  18
ATOM     18  C   UNL     1      18.705  51.718  33.574  1.00  0.00    -0.000 C 
BRANCH  18  19
ATOM     19  C   UNL     1      17.598  51.719  34.645  1.00  0.00    -0.000 C 
BRANCH  19  20
ATOM     20  C   UNL     1      16.717  50.457  34.676  1.00  0.00    -0.000 C 
BRANCH  20  21
ATOM     21  C   UNL     1      16.075  50.202  36.051  1.00  0.00    -0.000 C 
BRANCH  21  22
ATOM     22  C   UNL     1      16.305  51.368  37.027  1.00  0.00    -0.000 C 
BRANCH  22  23
ATOM     23  C   UNL     1      16.489  50.898  38.478  1.00  0.00    -0.000 C 
BRANCH  23  24
ATOM     24  C   UNL     1      17.691  51.600  39.129  1.00  0.00    -0.000 C 
BRANCH  24  25
ATOM     25  C   UNL     1      18.079  50.980  40.479  1.00  0.00    -0.003 C 
ATOM     26  C   UNL     1      19.208  49.956  40.365  1.00  0.00     0.004 C 
ENDBRANCH  24  25
ENDBRANCH  23  24
ENDBRANCH  22  23
ENDBRANCH  21  22
ENDBRANCH  20  21
ENDBRANCH  19  20
ENDBRANCH  18  19
ENDBRANCH  17  18
ENDBRANCH  16  17
ENDBRANCH  15  16
ENDBRANCH   1  15
TORSDOF 22
ENDMDL
MODEL 3
REMARK VINA RESULT:    -3.574      8.192     12.230
REMARK INTER + INTRA:         -13.221
REMARK INTER:                  -9.946
REMARK INTRA:                  -3.275
REMARK UNBOUND:                -5.051
REMARK SMILES CCCCCCCCCCCCCCCCCCCCCCCC(=O)[O-]
REMARK SMILES IDX 13 1 14 2 15 3 16 4 17 5 18 6 19 7 20 8 21 9 22 10 23 11
REMARK SMILES IDX 24 12 25 13 26 14 12 15 11 16 10 17 9 18 8 19 7 20 6 21 5 22
REMARK SMILES IDX 4 23 3 24 2 25 1 26
REMARK H PARENT
REMARK Flexibility Score: inf
ROOT
ATOM      1  C   UNL     1      17.036  45.642  24.289  1.00  0.00     0.000 C 
ENDROOT
BRANCH   1   2
ATOM      2  C   UNL     1      18.501  46.099  24.236  1.00  0.00     0.000 C 
BRANCH   2   3
ATOM      3  C   UNL     1      19.217  45.960  25.590  1.00  0.00     0.000 C 
BRANCH   3   4
ATOM      4  C   UNL     1      18.427  46.608  26.741  1.00  0.00     0.000 C 
BRANCH   4   5
ATOM      5  C   UNL     1      19.100  46.402  28.108  1.00  0.00     0.000 C 
BRANCH   5   6
ATOM      6  C   UNL     1      18.958  47.628  29.028  1.00  0.00     0.000 C 
BRANCH   6   7
ATOM      7  C   UNL     1      18.736  48.923  28.227  1.00  0.00     0.000 C 
BRANCH   7   8
ATOM      8  C   UNL     1      18.528  50.140  29.144  1.00  0.00     0.000 C 
BRANCH   8   9
ATOM      9  C   UNL     1      17.255  50.033  30.003  1.00  0.00     0.000 C 
BRANCH   9  10
ATOM     10  C   UNL     1      16.192  51.112  29.717  1.00  0.00     0.006 C 
BRANCH  10  11
ATOM     11  C   UNL     1      16.736  52.541  29.869  1.00  0.00     0.053 C 
BRANCH  11  12
ATOM     12  C   UNL     1      15.634  53.490  30.232  1.00  0.00     0.041 C 
ATOM     13  O   UNL     1      14.532  53.049  30.650  1.00  0.00    -0.550 OA
ATOM     14  O   UNL     1      15.845  54.861  30.162  1.00  0.00    -0.550 OA
ENDBRANCH  11  12
ENDBRANCH  10  11
ENDBRANCH   9  10
ENDBRANCH   8   9
ENDBRANCH   7   8
ENDBRANCH   6   7
ENDBRANCH   5   6
ENDBRANCH   4   5
ENDBRANCH   3   4
ENDBRANCH   2   3
ENDBRANCH   1   2
BRANCH   1  15
ATOM     15  C   UNL     1      16.121  46.668  23.602  1.00  0.00     0.000 C 
BRANCH  15  16
ATOM     16  C   UNL     1      16.893  47.870  23.032  1.00  0.00     0.000 C 
BRANCH  16  17
ATOM     17  C   UNL     1      16.446  49.208  23.640  1.00  0.00     0.000 C 
BRANCH  17  18
ATOM     18  C   UNL     1      16.467  49.150  25.175  1.00  0.00    -0.000 C 
BRANCH  18  19
ATOM     19  C   UNL     1      15.784  50.362  25.836  1.00  0.00    -0.000 C 
BRANCH  19  20
ATOM     20  C   UNL     1      16.711  51.557  26.129  1.00  0.00    -0.000 C 
BRANCH  20  21
ATOM     21  C   UNL     1      16.468  52.753  25.192  1.00  0.00    -0.000 C 
BRANCH  21  22
ATOM     22  C   UNL     1      15.031  52.783  24.644  1.00  0.00    -0.000 C 
BRANCH  22  23
ATOM     23  C   UNL     1      14.177  53.888  25.282  1.00  0.00    -0.000 C 
BRANCH  23  24
ATOM     24  C   UNL     1      12.798  53.346  25.687  1.00  0.00    -0.000 C 
BRANCH  24  25
ATOM     25  C   UNL     1      12.649  53.181  27.207  1.00  0.00    -0.003 C 
ATOM     26  C   UNL     1      13.070  51.798  27.702  1.00  0.00     0.004 C 
ENDBRANCH  24  25
ENDBRANCH  23  24
ENDBRANCH  22  23
ENDBRANCH  21  22
ENDBRANCH  20  21
ENDBRANCH  19  20
ENDBRANCH  18  19
ENDBRANCH  17  18
ENDBRANCH  16  17
ENDBRANCH  15  16
ENDBRANCH   1  15
TORSDOF 22
ENDMDL
MODEL 4
REMARK VINA RESULT:    -3.565      1.606      2.352
REMARK INTER + INTRA:         -13.202
REMARK INTER:                  -9.114
REMARK INTRA:                  -4.087
REMARK UNBOUND:                -5.051
REMARK SMILES CCCCCCCCCCCCCCCCCCCCCCCC(=O)[O-]
REMARK SMILES IDX 13 1 14 2 15 3 16 4 17 5 18 6 19 7 20 8 21 9 22 10 23 11
REMARK SMILES IDX 24 12 25 13 26 14 12 15 11 16 10 17 9 18 8 19 7 20 6 21 5 22
REMARK SMILES IDX 4 23 3 24 2 25 1 26
REMARK H PARENT
REMARK Flexibility Score: inf
ROOT
ATOM      1  C   UNL     1      16.430  50.657  38.612  1.00  0.00     0.000 C 
ENDROOT
BRANCH   1   2
ATOM      2  C   UNL     1      16.502  51.251  37.198  1.00  0.00     0.000 C 
BRANCH   2   3
ATOM      3  C   UNL     1      16.587  50.174  36.104  1.00  0.00     0.000 C 
BRANCH   3   4
ATOM      4  C   UNL     1      16.954  48.790  36.669  1.00  0.00     0.000 C 
BRANCH   4   5
ATOM      5  C   UNL     1      16.386  47.638  35.824  1.00  0.00     0.000 C 
BRANCH   5   6
ATOM      6  C   UNL     1      17.472  46.649  35.367  1.00  0.00     0.000 C 
BRANCH   6   7
ATOM      7  C   UNL     1      18.642  46.580  36.364  1.00  0.00     0.000 C 
BRANCH   7   8
ATOM      8  C   UNL     1      20.001  46.468  35.653  1.00  0.00     0.000 C 
BRANCH   8   9
ATOM      9  C   UNL     1      19.891  46.615  34.124  1.00  0.00     0.000 C 
BRANCH   9  10
ATOM     10  C   UNL     1      20.841  47.659  33.507  1.00  0.00     0.006 C 
BRANCH  10  11
ATOM     11  C   UNL     1      22.214  47.699  34.197  1.00  0.00     0.053 C 
BRANCH  11  12
ATOM     12  C   UNL     1      23.015  46.481  33.848  1.00  0.00     0.041 C 
ATOM     13  O   UNL     1      23.183  46.157  32.643  1.00  0.00    -0.550 OA
ATOM     14  O   UNL     1      23.623  45.738  34.851  1.00  0.00    -0.550 OA
ENDBRANCH  11  12
ENDBRANCH  10  11
ENDBRANCH   9  10
ENDBRANCH   8   9
ENDBRANCH   7   8
ENDBRANCH   6   7
ENDBRANCH   5   6
ENDBRANCH   4   5
ENDBRANCH   3   4
ENDBRANCH   2   3
ENDBRANCH   1   2
BRANCH   1  15
ATOM     15  C   UNL     1      16.844  51.700  39.662  1.00  0.00     0.000 C 
BRANCH  15  16
ATOM     16  C   UNL     1      18.270  51.482  40.193  1.00  0.00     0.000 C 
BRANCH  16  17
ATOM     17  C   UNL     1      18.711  50.011  40.129  1.00  0.00     0.000 C 
BRANCH  17  18
ATOM     18  C   UNL     1      20.108  49.828  40.743  1.00  0.00    -0.000 C 
BRANCH  18  19
ATOM     19  C   UNL     1      20.861  51.157  40.941  1.00  0.00    -0.000 C 
BRANCH  19  20
ATOM     20  C   UNL     1      22.392  51.069  40.792  1.00  0.00    -0.000 C 
BRANCH  20  21
ATOM     21  C   UNL     1      22.931  51.898  39.613  1.00  0.00    -0.000 C 
BRANCH  21  22
ATOM     22  C   UNL     1      21.839  52.756  38.954  1.00  0.00    -0.000 C 
BRANCH  22  23
ATOM     23  C   UNL     1      21.653  52.435  37.463  1.00  0.00    -0.000 C 
BRANCH  23  24
ATOM     24  C   UNL     1      20.237  51.905  37.193  1.00  0.00    -0.000 C 
BRANCH  24  25
ATOM     25  C   UNL     1      20.239  50.503  36.565  1.00  0.00    -0.003 C 
ATOM     26  C   UNL     1      21.191  49.536  37.267  1.00  0.00     0.004 C 
ENDBRANCH  24  25
ENDBRANCH  23  24
ENDBRANCH  22  23
ENDBRANCH  21  22
ENDBRANCH  20  21
ENDBRANCH  19  20
ENDBRANCH  18  19
ENDBRANCH  17  18
ENDBRANCH  16  17
ENDBRANCH  15  16
ENDBRANCH   1  15
TORSDOF 22
ENDMDL
MODEL 5
REMARK VINA RESULT:    -3.531      2.348      4.193
REMARK INTER + INTRA:         -13.122
REMARK INTER:                  -8.564
REMARK INTRA:                  -4.559
REMARK UNBOUND:                -5.051
REMARK SMILES CCCCCCCCCCCCCCCCCCCCCCCC(=O)[O-]
REMARK SMILES IDX 13 1 14 2 15 3 16 4 17 5 18 6 19 7 20 8 21 9 22 10 23 11
REMARK SMILES IDX 24 12 25 13 26 14 12 15 11 16 10 17 9 18 8 19 7 20 6 21 5 22
REMARK SMILES IDX 4 23 3 24 2 25 1 26
REMARK H PARENT
REMARK Flexibility Score: inf
ROOT
ATOM      1  C   UNL     1      16.966  48.916  35.338  1.00  0.00     0.000 C 
ENDROOT
BRANCH   1   2
ATOM      2  C   UNL     1      17.007  47.716  36.296  1.00  0.00     0.000 C 
BRANCH   2   3
ATOM      3  C   UNL     1      18.349  47.593  37.037  1.00  0.00     0.000 C 
BRANCH   3   4
ATOM      4  C   UNL     1      19.366  48.658  36.591  1.00  0.00     0.000 C 
BRANCH   4   5
ATOM      5  C   UNL     1      20.615  48.045  35.935  1.00  0.00     0.000 C 
BRANCH   5   6
ATOM      6  C   UNL     1      21.226  48.957  34.857  1.00  0.00     0.000 C 
BRANCH   6   7
ATOM      7  C   UNL     1      20.192  49.945  34.289  1.00  0.00     0.000 C 
BRANCH   7   8
ATOM      8  C   UNL     1      20.265  50.037  32.756  1.00  0.00     0.000 C 
BRANCH   8   9
ATOM      9  C   UNL     1      19.354  51.136  32.178  1.00  0.00     0.000 C 
BRANCH   9  10
ATOM     10  C   UNL     1      18.357  51.743  33.186  1.00  0.00     0.006 C 
BRANCH  10  11
ATOM     11  C   UNL     1      16.902  51.686  32.694  1.00  0.00     0.053 C 
BRANCH  11  12
ATOM     12  C   UNL     1      16.550  52.935  31.944  1.00  0.00     0.041 C 
ATOM     13  O   UNL     1      16.164  53.960  32.565  1.00  0.00    -0.550 OA
ATOM     14  O   UNL     1      16.704  52.985  30.564  1.00  0.00    -0.550 OA
ENDBRANCH  11  12
ENDBRANCH  10  11
ENDBRANCH   9  10
ENDBRANCH   8   9
ENDBRANCH   7   8
ENDBRANCH   6   7
ENDBRANCH   5   6
ENDBRANCH   4   5
ENDBRANCH   3   4
ENDBRANCH   2   3
ENDBRANCH   1   2
BRANCH   1  15
ATOM     15  C   UNL     1      15.944  49.959  35.818  1.00  0.00     0.000 C 
BRANCH  15  16
ATOM     16  C   UNL     1      16.556  51.002  36.767  1.00  0.00     0.000 C 
BRANCH  16  17
ATOM     17  C   UNL     1      16.343  50.656  38.250  1.00  0.00     0.000 C 
BRANCH  17  18
ATOM     18  C   UNL     1      16.944  51.739  39.160  1.00  0.00    -0.000 C 
BRANCH  18  19
ATOM     19  C   UNL     1      17.862  51.167  40.256  1.00  0.00    -0.000 C 
BRANCH  19  20
ATOM     20  C   UNL     1      18.339  49.722  40.021  1.00  0.00    -0.000 C 
BRANCH  20  21
ATOM     21  C   UNL     1      19.802  49.494  40.441  1.00  0.00    -0.000 C 
BRANCH  21  22
ATOM     22  C   UNL     1      20.714  50.665  40.038  1.00  0.00    -0.000 C 
BRANCH  22  23
ATOM     23  C   UNL     1      21.676  50.301  38.897  1.00  0.00    -0.000 C 
BRANCH  23  24
ATOM     24  C   UNL     1      21.652  51.376  37.800  1.00  0.00    -0.000 C 
BRANCH  24  25
ATOM     25  C   UNL     1      20.505  52.382  37.983  1.00  0.00    -0.003 C 
ATOM     26  C   UNL     1      19.815  52.746  36.670  1.00  0.00     0.004 C 
ENDBRANCH  24  25
ENDBRANCH  23  24
ENDBRANCH  22  23
ENDBRANCH  21  22
ENDBRANCH  20  21
ENDBRANCH  19  20
ENDBRANCH  18  19
ENDBRANCH  17  18
ENDBRANCH  16  17
ENDBRANCH  15  16
ENDBRANCH   1  15
TORSDOF 22
ENDMDL
MODEL 6
REMARK VINA RESULT:    -3.500      1.624      2.850
REMARK INTER + INTRA:         -13.053
REMARK INTER:                  -9.000
REMARK INTRA:                  -4.053
REMARK UNBOUND:                -5.051
REMARK SMILES CCCCCCCCCCCCCCCCCCCCCCCC(=O)[O-]
REMARK SMILES IDX 13 1 14 2 15 3 16 4 17 5 18 6 19 7 20 8 21 9 22 10 23 11
REMARK SMILES IDX 24 12 25 13 26 14 12 15 11 16 10 17 9 18 8 19 7 20 6 21 5 22
REMARK SMILES IDX 4 23 3 24 2 25 1 26
REMARK H PARENT
REMARK Flexibility Score: inf
ROOT
ATOM      1  C   UNL     1      17.236  50.581  38.943  1.00  0.00     0.000 C 
ENDROOT
BRANCH   1   2
ATOM      2  C   UNL     1      17.798  49.154  38.996  1.00  0.00     0.000 C 
BRANCH   2   3
ATOM      3  C   UNL     1      18.130  48.592  37.604  1.00  0.00     0.000 C 
BRANCH   3   4
ATOM      4  C   UNL     1      16.874  48.388  36.738  1.00  0.00     0.000 C 
BRANCH   4   5
ATOM      5  C   UNL     1      16.826  49.341  35.532  1.00  0.00     0.000 C 
BRANCH   5   6
ATOM      6  C   UNL     1      18.064  50.251  35.449  1.00  0.00     0.000 C 
BRANCH   6   7
ATOM      7  C   UNL     1      17.752  51.578  34.735  1.00  0.00     0.000 C 
BRANCH   7   8
ATOM      8  C   UNL     1      18.672  51.814  33.526  1.00  0.00     0.000 C 
BRANCH   8   9
ATOM      9  C   UNL     1      18.322  50.917  32.324  1.00  0.00     0.000 C 
BRANCH   9  10
ATOM     10  C   UNL     1      19.483  50.041  31.813  1.00  0.00     0.006 C 
BRANCH  10  11
ATOM     11  C   UNL     1      19.490  48.637  32.438  1.00  0.00     0.053 C 
BRANCH  11  12
ATOM     12  C   UNL     1      20.724  48.433  33.263  1.00  0.00     0.041 C 
ATOM     13  O   UNL     1      21.425  47.398  33.109  1.00  0.00    -0.550 OA
ATOM     14  O   UNL     1      21.131  49.412  34.161  1.00  0.00    -0.550 OA
ENDBRANCH  11  12
ENDBRANCH  10  11
ENDBRANCH   9  10
ENDBRANCH   8   9
ENDBRANCH   7   8
ENDBRANCH   6   7
ENDBRANCH   5   6
ENDBRANCH   4   5
ENDBRANCH   3   4
ENDBRANCH   2   3
ENDBRANCH   1   2
BRANCH   1  15
ATOM     15  C   UNL     1      17.641  51.373  40.196  1.00  0.00     0.000 C 
BRANCH  15  16
ATOM     16  C   UNL     1      18.948  50.865  40.827  1.00  0.00     0.000 C 
BRANCH  16  17
ATOM     17  C   UNL     1      19.529  51.842  41.862  1.00  0.00     0.000 C 
BRANCH  17  18
ATOM     18  C   UNL     1      20.988  51.489  42.194  1.00  0.00    -0.000 C 
BRANCH  18  19
ATOM     19  C   UNL     1      22.005  52.454  41.557  1.00  0.00    -0.000 C 
BRANCH  19  20
ATOM     20  C   UNL     1      23.235  51.780  40.919  1.00  0.00    -0.000 C 
BRANCH  20  21
ATOM     21  C   UNL     1      23.080  51.550  39.406  1.00  0.00    -0.000 C 
BRANCH  21  22
ATOM     22  C   UNL     1      22.389  50.215  39.085  1.00  0.00    -0.000 C 
BRANCH  22  23
ATOM     23  C   UNL     1      21.278  50.359  38.035  1.00  0.00    -0.000 C 
BRANCH  23  24
ATOM     24  C   UNL     1      21.355  51.730  37.345  1.00  0.00    -0.000 C 
BRANCH  24  25
ATOM     25  C   UNL     1      20.051  52.531  37.472  1.00  0.00    -0.003 C 
ATOM     26  C   UNL     1      20.106  53.594  38.567  1.00  0.00     0.004 C 
ENDBRANCH  24  25
ENDBRANCH  23  24
ENDBRANCH  22  23
ENDBRANCH  21  22
ENDBRANCH  20  21
ENDBRANCH  19  20
ENDBRANCH  18  19
ENDBRANCH  17  18
ENDBRANCH  16  17
ENDBRANCH  15  16
ENDBRANCH   1  15
TORSDOF 22
ENDMDL
MODEL 7
REMARK VINA RESULT:    -3.482      6.772     10.763
REMARK INTER + INTRA:         -13.012
REMARK INTER:                  -9.825
REMARK INTRA:                  -3.187
REMARK UNBOUND:                -5.051
REMARK SMILES CCCCCCCCCCCCCCCCCCCCCCCC(=O)[O-]
REMARK SMILES IDX 13 1 14 2 15 3 16 4 17 5 18 6 19 7 20 8 21 9 22 10 23 11
REMARK SMILES IDX 24 12 25 13 26 14 12 15 11 16 10 17 9 18 8 19 7 20 6 21 5 22
REMARK SMILES IDX 4 23 3 24 2 25 1 26
REMARK H PARENT
REMARK Flexibility Score: inf
ROOT
ATOM      1  C   UNL     1      17.093  50.986  26.942  1.00  0.00     0.000 C 
ENDROOT
BRANCH   1   2
ATOM      2  C   UNL     1      17.086  50.344  28.337  1.00  0.00     0.000 C 
BRANCH   2   3
ATOM      3  C   UNL     1      18.470  49.828  28.761  1.00  0.00     0.000 C 
BRANCH   3   4
ATOM      4  C   UNL     1      19.513  50.955  28.860  1.00  0.00     0.000 C 
BRANCH   4   5
ATOM      5  C   UNL     1      19.381  51.770  30.158  1.00  0.00     0.000 C 
BRANCH   5   6
ATOM      6  C   UNL     1      19.489  50.894  31.419  1.00  0.00     0.000 C 
BRANCH   6   7
ATOM      7  C   UNL     1      18.617  51.433  32.566  1.00  0.00     0.000 C 
BRANCH   7   8
ATOM      8  C   UNL     1      17.575  50.404  33.033  1.00  0.00     0.000 C 
BRANCH   8   9
ATOM      9  C   UNL     1      16.429  50.210  32.023  1.00  0.00     0.000 C 
BRANCH   9  10
ATOM     10  C   UNL     1      15.890  48.770  31.927  1.00  0.00     0.006 C 
BRANCH  10  11
ATOM     11  C   UNL     1      14.620  48.551  32.765  1.00  0.00     0.053 C 
BRANCH  11  12
ATOM     12  C   UNL     1      13.518  47.991  31.917  1.00  0.00     0.041 C 
ATOM     13  O   UNL     1      12.610  48.746  31.481  1.00  0.00    -0.550 OA
ATOM     14  O   UNL     1      13.528  46.649  31.562  1.00  0.00    -0.550 OA
ENDBRANCH  11  12
ENDBRANCH  10  11
ENDBRANCH   9  10
ENDBRANCH   8   9
ENDBRANCH   7   8
ENDBRANCH   6   7
ENDBRANCH   5   6
ENDBRANCH   4   5
ENDBRANCH   3   4
ENDBRANCH   2   3
ENDBRANCH   1   2
BRANCH   1  15
ATOM     15  C   UNL     1      15.838  50.583  26.151  1.00  0.00     0.000 C 
BRANCH  15  16
ATOM     16  C   UNL     1      15.774  51.232  24.759  1.00  0.00     0.000 C 
BRANCH  16  17
ATOM     17  C   UNL     1      15.636  52.762  24.821  1.00  0.00     0.000 C 
BRANCH  17  18
ATOM     18  C   UNL     1      14.245  53.208  24.344  1.00  0.00    -0.000 C 
BRANCH  18  19
ATOM     19  C   UNL     1      13.441  53.948  25.430  1.00  0.00    -0.000 C 
BRANCH  19  20
ATOM     20  C   UNL     1      12.424  53.081  26.195  1.00  0.00    -0.000 C 
BRANCH  20  21
ATOM     21  C   UNL     1      13.041  52.343  27.396  1.00  0.00    -0.000 C 
BRANCH  21  22
ATOM     22  C   UNL     1      14.062  53.210  28.151  1.00  0.00    -0.000 C 
BRANCH  22  23
ATOM     23  C   UNL     1      13.786  53.269  29.662  1.00  0.00    -0.000 C 
BRANCH  23  24
ATOM     24  C   UNL     1      15.055  52.933  30.460  1.00  0.00    -0.000 C 
BRANCH  24  25
ATOM     25  C   UNL     1      15.783  54.186  30.968  1.00  0.00    -0.003 C 
ATOM     26  C   UNL     1      16.128  54.116  32.455  1.00  0.00     0.004 C 
ENDBRANCH  24  25
ENDBRANCH  23  24
ENDBRANCH  22  23
ENDBRANCH  21  22
ENDBRANCH  20  21
ENDBRANCH  19  20
ENDBRANCH  18  19
ENDBRANCH  17  18
ENDBRANCH  16  17
ENDBRANCH  15  16
ENDBRANCH   1  15
TORSDOF 22
ENDMDL
MODEL 8
REMARK VINA RESULT:    -3.465      2.759      4.190
REMARK INTER + INTRA:         -12.973
REMARK INTER:                  -9.232
REMARK INTRA:                  -3.740
REMARK UNBOUND:                -5.051
REMARK SMILES CCCCCCCCCCCCCCCCCCCCCCCC(=O)[O-]
REMARK SMILES IDX 13 1 14 2 15 3 16 4 17 5 18 6 19 7 20 8 21 9 22 10 23 11
REMARK SMILES IDX 24 12 25 13 26 14 12 15 11 16 10 17 9 18 8 19 7 20 6 21 5 22
REMARK SMILES IDX 4 23 3 24 2 25 1 26
REMARK H PARENT
REMARK Flexibility Score: inf
ROOT
ATOM      1  C   UNL     1      17.214  50.434  38.823  1.00  0.00     0.000 C 
ENDROOT
BRANCH   1   2
ATOM      2  C   UNL     1      18.054  49.148  38.814  1.00  0.00     0.000 C 
BRANCH   2   3
ATOM      3  C   UNL     1      18.408  48.679  37.393  1.00  0.00     0.000 C 
BRANCH   3   4
ATOM      4  C   UNL     1      17.160  48.460  36.519  1.00  0.00     0.000 C 
BRANCH   4   5
ATOM      5  C   UNL     1      17.119  49.399  35.302  1.00  0.00     0.000 C 
BRANCH   5   6
ATOM      6  C   UNL     1      18.468  50.093  35.044  1.00  0.00     0.000 C 
BRANCH   6   7
ATOM      7  C   UNL     1      18.284  51.497  34.442  1.00  0.00     0.000 C 
BRANCH   7   8
ATOM      8  C   UNL     1      18.819  51.582  33.003  1.00  0.00     0.000 C 
BRANCH   8   9
ATOM      9  C   UNL     1      17.998  50.742  32.007  1.00  0.00     0.000 C 
BRANCH   9  10
ATOM     10  C   UNL     1      16.637  51.352  31.618  1.00  0.00     0.006 C 
BRANCH  10  11
ATOM     11  C   UNL     1      16.770  52.538  30.650  1.00  0.00     0.053 C 
BRANCH  11  12
ATOM     12  C   UNL     1      16.032  53.732  31.175  1.00  0.00     0.041 C 
ATOM     13  O   UNL     1      15.339  54.440  30.398  1.00  0.00    -0.550 OA
ATOM     14  O   UNL     1      16.063  54.028  32.531  1.00  0.00    -0.550 OA
ENDBRANCH  11  12
ENDBRANCH  10  11
ENDBRANCH   9  10
ENDBRANCH   8   9
ENDBRANCH   7   8
ENDBRANCH   6   7
ENDBRANCH   5   6
ENDBRANCH   4   5
ENDBRANCH   3   4
ENDBRANCH   2   3
ENDBRANCH   1   2
BRANCH   1  15
ATOM     15  C   UNL     1      17.658  51.365  39.962  1.00  0.00     0.000 C 
BRANCH  15  16
ATOM     16  C   UNL     1      18.912  50.859  40.694  1.00  0.00     0.000 C 
BRANCH  16  17
ATOM     17  C   UNL     1      19.472  51.882  41.695  1.00  0.00     0.000 C 
BRANCH  17  18
ATOM     18  C   UNL     1      20.909  51.523  42.105  1.00  0.00    -0.000 C 
BRANCH  18  19
ATOM     19  C   UNL     1      21.953  52.538  41.603  1.00  0.00    -0.000 C 
BRANCH  19  20
ATOM     20  C   UNL     1      23.256  51.920  41.061  1.00  0.00    -0.000 C 
BRANCH  20  21
ATOM     21  C   UNL     1      23.211  51.648  39.547  1.00  0.00    -0.000 C 
BRANCH  21  22
ATOM     22  C   UNL     1      22.607  50.273  39.219  1.00  0.00    -0.000 C 
BRANCH  22  23
ATOM     23  C   UNL     1      21.574  50.335  38.083  1.00  0.00    -0.000 C 
BRANCH  23  24
ATOM     24  C   UNL     1      21.551  51.732  37.444  1.00  0.00    -0.000 C 
BRANCH  24  25
ATOM     25  C   UNL     1      20.160  52.383  37.495  1.00  0.00    -0.003 C 
ATOM     26  C   UNL     1      20.116  53.630  38.376  1.00  0.00     0.004 C 
ENDBRANCH  24  25
ENDBRANCH  23  24
ENDBRANCH  22  23
ENDBRANCH  21  22
ENDBRANCH  20  21
ENDBRANCH  19  20
ENDBRANCH  18  19
ENDBRANCH  17  18
ENDBRANCH  16  17
ENDBRANCH  15  16
ENDBRANCH   1  15
TORSDOF 22
ENDMDL
MODEL 9
REMARK VINA RESULT:    -3.450      1.824      2.416
REMARK INTER + INTRA:         -12.937
REMARK INTER:                  -9.267
REMARK INTRA:                  -3.670
REMARK UNBOUND:                -5.051
REMARK SMILES CCCCCCCCCCCCCCCCCCCCCCCC(=O)[O-]
REMARK SMILES IDX 13 1 14 2 15 3 16 4 17 5 18 6 19 7 20 8 21 9 22 10 23 11
REMARK SMILES IDX 24 12 25 13 26 14 12 15 11 16 10 17 9 18 8 19 7 20 6 21 5 22
REMARK SMILES IDX 4 23 3 24 2 25 1 26
REMARK H PARENT
REMARK Flexibility Score: inf
ROOT
ATOM      1  C   UNL     1      17.514  51.232  39.757  1.00  0.00     0.000 C 
ENDROOT
BRANCH   1   2
ATOM      2  C   UNL     1      16.688  51.352  38.468  1.00  0.00     0.000 C 
BRANCH   2   3
ATOM      3  C   UNL     1      16.472  49.999  37.771  1.00  0.00     0.000 C 
BRANCH   3   4
ATOM      4  C   UNL     1      16.649  50.091  36.244  1.00  0.00     0.000 C 
BRANCH   4   5
ATOM      5  C   UNL     1      17.076  48.752  35.618  1.00  0.00     0.000 C 
BRANCH   5   6
ATOM      6  C   UNL     1      18.589  48.682  35.346  1.00  0.00     0.000 C 
BRANCH   6   7
ATOM      7  C   UNL     1      18.985  49.492  34.099  1.00  0.00     0.000 C 
BRANCH   7   8
ATOM      8  C   UNL     1      20.289  48.976  33.467  1.00  0.00     0.000 C 
BRANCH   8   9
ATOM      9  C   UNL     1      21.428  48.817  34.491  1.00  0.00     0.000 C 
BRANCH   9  10
ATOM     10  C   UNL     1      22.080  47.420  34.518  1.00  0.00     0.006 C 
BRANCH  10  11
ATOM     11  C   UNL     1      21.407  46.429  33.555  1.00  0.00     0.053 C 
BRANCH  11  12
ATOM     12  C   UNL     1      22.438  45.654  32.790  1.00  0.00     0.041 C 
ATOM     13  O   UNL     1      22.142  44.545  32.275  1.00  0.00    -0.550 OA
ATOM     14  O   UNL     1      23.707  46.185  32.600  1.00  0.00    -0.550 OA
ENDBRANCH  11  12
ENDBRANCH  10  11
ENDBRANCH   9  10
ENDBRANCH   8   9
ENDBRANCH   7   8
ENDBRANCH   6   7
ENDBRANCH   5   6
ENDBRANCH   4   5
ENDBRANCH   3   4
ENDBRANCH   2   3
ENDBRANCH   1   2
BRANCH   1  15
ATOM     15  C   UNL     1      18.289  49.905  39.783  1.00  0.00     0.000 C 
BRANCH  15  16
ATOM     16  C   UNL     1      19.368  49.865  40.878  1.00  0.00     0.000 C 
BRANCH  16  17
ATOM     17  C   UNL     1      19.587  51.229  41.550  1.00  0.00     0.000 C 
BRANCH  17  18
ATOM     18  C   UNL     1      20.972  51.301  42.213  1.00  0.00    -0.000 C 
BRANCH  18  19
ATOM     19  C   UNL     1      21.918  52.307  41.530  1.00  0.00    -0.000 C 
BRANCH  19  20
ATOM     20  C   UNL     1      23.112  51.679  40.785  1.00  0.00    -0.000 C 
BRANCH  20  21
ATOM     21  C   UNL     1      22.997  51.796  39.255  1.00  0.00    -0.000 C 
BRANCH  21  22
ATOM     22  C   UNL     1      22.181  50.646  38.641  1.00  0.00    -0.000 C 
BRANCH  22  23
ATOM     23  C   UNL     1      21.700  50.956  37.216  1.00  0.00    -0.000 C 
BRANCH  23  24
ATOM     24  C   UNL     1      20.194  51.260  37.203  1.00  0.00    -0.000 C 
BRANCH  24  25
ATOM     25  C   UNL     1      19.891  52.743  36.942  1.00  0.00    -0.003 C 
ATOM     26  C   UNL     1      19.921  53.591  38.211  1.00  0.00     0.004 C 
ENDBRANCH  24  25
ENDBRANCH  23  24
ENDBRANCH  22  23
ENDBRANCH  21  22
ENDBRANCH  20  21
ENDBRANCH  19  20
ENDBRANCH  18  19
ENDBRANCH  17  18
ENDBRANCH  16  17
ENDBRANCH  15  16
ENDBRANCH   1  15
TORSDOF 22
ENDMDL
