MODEL 1
REMARK VINA RESULT:    -2.580      0.000      0.000
REMARK INTER + INTRA:          -5.376
REMARK INTER:                  -4.089
REMARK INTRA:                  -1.287
REMARK UNBOUND:                -1.287
REMARK SMILES CCCCCCCCCCCC(=O)[O-]
REMARK SMILES IDX 7 1 8 2 9 3 10 4 11 5 12 6 13 7 14 8 6 9 5 10 4 11 3 12 2 13
REMARK SMILES IDX 1 14
REMARK H PARENT
REMARK Flexibility Score: inf
ROOT
ATOM      1  C   UNL     1      52.674 -35.639  24.277  1.00  0.00     0.000 C 
ENDROOT
BRANCH   1   2
ATOM      2  C   UNL     1      54.205 -35.488  24.218  1.00  0.00     0.000 C 
BRANCH   2   3
ATOM      3  C   UNL     1      54.748 -34.763  22.971  1.00  0.00     0.000 C 
BRANCH   3   4
ATOM      4  C   UNL     1      55.510 -35.656  21.975  1.00  0.00     0.006 C 
BRANCH   4   5
ATOM      5  C   UNL     1      56.454 -36.647  22.667  1.00  0.00     0.053 C 
BRANCH   5   6
ATOM      6  C   UNL     1      57.859 -36.134  22.643  1.00  0.00     0.041 C 
ATOM      7  O   UNL     1      58.715 -36.668  21.888  1.00  0.00    -0.550 OA
ATOM      8  O   UNL     1      58.212 -35.035  23.415  1.00  0.00    -0.550 OA
ENDBRANCH   5   6
ENDBRANCH   4   5
ENDBRANCH   3   4
ENDBRANCH   2   3
ENDBRANCH   1   2
BRANCH   1   9
ATOM      9  C   UNL     1      51.957 -34.897  23.136  1.00  0.00     0.000 C 
BRANCH   9  10
ATOM     10  C   UNL     1      50.682 -34.180  23.607  1.00  0.00    -0.000 C 
BRANCH  10  11
ATOM     11  C   UNL     1      50.960 -32.770  24.151  1.00  0.00    -0.000 C 
BRANCH  11  12
ATOM     12  C   UNL     1      52.084 -32.090  23.359  1.00  0.00    -0.000 C 
BRANCH  12  13
ATOM     13  C   UNL     1      53.166 -31.545  24.299  1.00  0.00    -0.003 C 
ATOM     14  C   UNL     1      53.069 -32.183  25.681  1.00  0.00     0.004 C 
ENDBRANCH  12  13
ENDBRANCH  11  12
ENDBRANCH  10  11
ENDBRANCH   9  10
ENDBRANCH   1   9
TORSDOF 10
ENDMDL
MODEL 2
REMARK VINA RESULT:    -2.540      0.887      2.344
REMARK INTER + INTRA:          -5.312
REMARK INTER:                  -4.167
REMARK INTRA:                  -1.145
REMARK UNBOUND:                -1.287
REMARK SMILES CCCCCCCCCCCC(=O)[O-]
REMARK SMILES IDX 7 1 8 2 9 3 10 4 11 5 12 6 13 7 14 8 6 9 5 10 4 11 3 12 2 13
REMARK SMILES IDX 1 14
REMARK H PARENT
REMARK Flexibility Score: inf
ROOT
ATOM      1  C   UNL     1      54.967 -33.933  24.766  1.00  0.00     0.000 C 
ENDROOT
BRANCH   1   2
ATOM      2  C   UNL     1      54.527 -35.288  24.183  1.00  0.00     0.000 C 
BRANCH   2   3
ATOM      3  C   UNL     1      54.334 -35.315  22.654  1.00  0.00     0.000 C 
BRANCH   3   4
ATOM      4  C   UNL     1      55.524 -35.875  21.855  1.00  0.00     0.006 C 
BRANCH   4   5
ATOM      5  C   UNL     1      56.492 -36.689  22.722  1.00  0.00     0.053 C 
BRANCH   5   6
ATOM      6  C   UNL     1      57.859 -36.081  22.691  1.00  0.00     0.041 C 
ATOM      7  O   UNL     1      58.116 -35.063  23.386  1.00  0.00    -0.550 OA
ATOM      8  O   UNL     1      58.864 -36.669  21.933  1.00  0.00    -0.550 OA
ENDBRANCH   5   6
ENDBRANCH   4   5
ENDBRANCH   3   4
ENDBRANCH   2   3
ENDBRANCH   1   2
BRANCH   1   9
ATOM      9  C   UNL     1      54.599 -32.745  23.860  1.00  0.00     0.000 C 
BRANCH   9  10
ATOM     10  C   UNL     1      53.991 -31.570  24.644  1.00  0.00    -0.000 C 
BRANCH  10  11
ATOM     11  C   UNL     1      52.457 -31.546  24.581  1.00  0.00    -0.000 C 
BRANCH  11  12
ATOM     12  C   UNL     1      51.966 -31.668  23.133  1.00  0.00    -0.000 C 
BRANCH  12  13
ATOM     13  C   UNL     1      50.669 -32.484  23.059  1.00  0.00    -0.003 C 
ATOM     14  C   UNL     1      50.940 -33.970  23.284  1.00  0.00     0.004 C 
ENDBRANCH  12  13
ENDBRANCH  11  12
ENDBRANCH  10  11
ENDBRANCH   9  10
ENDBRANCH   1   9
TORSDOF 10
ENDMDL
MODEL 3
REMARK VINA RESULT:    -2.497      1.167      1.835
REMARK INTER + INTRA:          -5.243
REMARK INTER:                  -4.543
REMARK INTRA:                  -0.700
REMARK UNBOUND:                -1.287
REMARK SMILES CCCCCCCCCCCC(=O)[O-]
REMARK SMILES IDX 7 1 8 2 9 3 10 4 11 5 12 6 13 7 14 8 6 9 5 10 4 11 3 12 2 13
REMARK SMILES IDX 1 14
REMARK H PARENT
REMARK Flexibility Score: inf
ROOT
ATOM      1  C   UNL     1      54.074 -34.124  23.938  1.00  0.00     0.000 C 
ENDROOT
BRANCH   1   2
ATOM      2  C   UNL     1      55.263 -34.371  22.992  1.00  0.00     0.000 C 
BRANCH   2   3
ATOM      3  C   UNL     1      55.154 -35.631  22.111  1.00  0.00     0.000 C 
BRANCH   3   4
ATOM      4  C   UNL     1      56.218 -36.710  22.379  1.00  0.00     0.006 C 
BRANCH   4   5
ATOM      5  C   UNL     1      57.195 -36.317  23.493  1.00  0.00     0.053 C 
BRANCH   5   6
ATOM      6  C   UNL     1      58.593 -36.250  22.964  1.00  0.00     0.041 C 
ATOM      7  O   UNL     1      58.940 -36.978  21.997  1.00  0.00    -0.550 OA
ATOM      8  O   UNL     1      59.499 -35.347  23.505  1.00  0.00    -0.550 OA
ENDBRANCH   5   6
ENDBRANCH   4   5
ENDBRANCH   3   4
ENDBRANCH   2   3
ENDBRANCH   1   2
BRANCH   1   9
ATOM      9  C   UNL     1      53.041 -35.265  23.908  1.00  0.00     0.000 C 
BRANCH   9  10
ATOM     10  C   UNL     1      51.755 -34.878  23.160  1.00  0.00    -0.000 C 
BRANCH  10  11
ATOM     11  C   UNL     1      50.938 -33.807  23.897  1.00  0.00    -0.000 C 
BRANCH  11  12
ATOM     12  C   UNL     1      49.901 -33.170  22.964  1.00  0.00    -0.000 C 
BRANCH  12  13
ATOM     13  C   UNL     1      50.195 -31.680  22.749  1.00  0.00    -0.003 C 
ATOM     14  C   UNL     1      51.638 -31.345  23.117  1.00  0.00     0.004 C 
ENDBRANCH  12  13
ENDBRANCH  11  12
ENDBRANCH  10  11
ENDBRANCH   9  10
ENDBRANCH   1   9
TORSDOF 10
ENDMDL
MODEL 4
REMARK VINA RESULT:    -2.495      1.996      2.603
REMARK INTER + INTRA:          -5.241
REMARK INTER:                  -4.566
REMARK INTRA:                  -0.675
REMARK UNBOUND:                -1.287
REMARK SMILES CCCCCCCCCCCC(=O)[O-]
REMARK SMILES IDX 7 1 8 2 9 3 10 4 11 5 12 6 13 7 14 8 6 9 5 10 4 11 3 12 2 13
REMARK SMILES IDX 1 14
REMARK H PARENT
REMARK Flexibility Score: inf
ROOT
ATOM      1  C   UNL     1      52.425 -33.464  24.024  1.00  0.00     0.000 C 
ENDROOT
BRANCH   1   2
ATOM      2  C   UNL     1      53.786 -32.775  23.822  1.00  0.00     0.000 C 
BRANCH   2   3
ATOM      3  C   UNL     1      54.915 -33.686  23.300  1.00  0.00     0.000 C 
BRANCH   3   4
ATOM      4  C   UNL     1      54.486 -35.120  22.944  1.00  0.00     0.006 C 
BRANCH   4   5
ATOM      5  C   UNL     1      55.453 -35.806  21.971  1.00  0.00     0.053 C 
BRANCH   5   6
ATOM      6  C   UNL     1      56.707 -36.210  22.680  1.00  0.00     0.041 C 
ATOM      7  O   UNL     1      57.825 -36.080  22.115  1.00  0.00    -0.550 OA
ATOM      8  O   UNL     1      56.647 -36.685  23.984  1.00  0.00    -0.550 OA
ENDBRANCH   5   6
ENDBRANCH   4   5
ENDBRANCH   3   4
ENDBRANCH   2   3
ENDBRANCH   1   2
BRANCH   1   9
ATOM      9  C   UNL     1      51.240 -32.593  23.571  1.00  0.00     0.000 C 
BRANCH   9  10
ATOM     10  C   UNL     1      51.692 -31.273  22.925  1.00  0.00    -0.000 C 
BRANCH  10  11
ATOM     11  C   UNL     1      50.549 -30.255  22.792  1.00  0.00    -0.000 C 
BRANCH  11  12
ATOM     12  C   UNL     1      50.923 -28.922  23.452  1.00  0.00    -0.000 C 
BRANCH  12  13
ATOM     13  C   UNL     1      52.385 -28.929  23.916  1.00  0.00    -0.003 C 
ATOM     14  C   UNL     1      53.028 -27.557  23.732  1.00  0.00     0.004 C 
ENDBRANCH  12  13
ENDBRANCH  11  12
ENDBRANCH  10  11
ENDBRANCH   9  10
ENDBRANCH   1   9
TORSDOF 10
ENDMDL
MODEL 5
REMARK VINA RESULT:    -2.473      1.251      2.691
REMARK INTER + INTRA:          -5.206
REMARK INTER:                  -3.955
REMARK INTRA:                  -1.251
REMARK UNBOUND:                -1.287
REMARK SMILES CCCCCCCCCCCC(=O)[O-]
REMARK SMILES IDX 7 1 8 2 9 3 10 4 11 5 12 6 13 7 14 8 6 9 5 10 4 11 3 12 2 13
REMARK SMILES IDX 1 14
REMARK H PARENT
REMARK Flexibility Score: inf
ROOT
ATOM      1  C   UNL     1      53.897 -32.025  24.467  1.00  0.00     0.000 C 
ENDROOT
BRANCH   1   2
ATOM      2  C   UNL     1      54.550 -33.418  24.522  1.00  0.00     0.000 C 
BRANCH   2   3
ATOM      3  C   UNL     1      54.984 -33.996  23.160  1.00  0.00     0.000 C 
BRANCH   3   4
ATOM      4  C   UNL     1      54.618 -35.473  22.931  1.00  0.00     0.006 C 
BRANCH   4   5
ATOM      5  C   UNL     1      55.612 -36.196  22.013  1.00  0.00     0.053 C 
BRANCH   5   6
ATOM      6  C   UNL     1      56.914 -36.409  22.717  1.00  0.00     0.041 C 
ATOM      7  O   UNL     1      57.998 -36.108  22.151  1.00  0.00    -0.550 OA
ATOM      8  O   UNL     1      56.930 -36.893  24.019  1.00  0.00    -0.550 OA
ENDBRANCH   5   6
ENDBRANCH   4   5
ENDBRANCH   3   4
ENDBRANCH   2   3
ENDBRANCH   1   2
BRANCH   1   9
ATOM      9  C   UNL     1      52.587 -32.011  23.660  1.00  0.00     0.000 C 
BRANCH   9  10
ATOM     10  C   UNL     1      51.543 -32.994  24.213  1.00  0.00    -0.000 C 
BRANCH  10  11
ATOM     11  C   UNL     1      50.859 -33.816  23.109  1.00  0.00    -0.000 C 
BRANCH  11  12
ATOM     12  C   UNL     1      50.917 -35.315  23.427  1.00  0.00    -0.000 C 
BRANCH  12  13
ATOM     13  C   UNL     1      51.492 -35.559  24.828  1.00  0.00    -0.003 C 
ATOM     14  C   UNL     1      51.374 -37.028  25.224  1.00  0.00     0.004 C 
ENDBRANCH  12  13
ENDBRANCH  11  12
ENDBRANCH  10  11
ENDBRANCH   9  10
ENDBRANCH   1   9
TORSDOF 10
ENDMDL
MODEL 6
REMARK VINA RESULT:    -2.472      1.476      2.911
REMARK INTER + INTRA:          -5.204
REMARK INTER:                  -3.727
REMARK INTRA:                  -1.477
REMARK UNBOUND:                -1.287
REMARK SMILES CCCCCCCCCCCC(=O)[O-]
REMARK SMILES IDX 7 1 8 2 9 3 10 4 11 5 12 6 13 7 14 8 6 9 5 10 4 11 3 12 2 13
REMARK SMILES IDX 1 14
REMARK H PARENT
REMARK Flexibility Score: inf
ROOT
ATOM      1  C   UNL     1      50.185 -33.085  23.774  1.00  0.00     0.000 C 
ENDROOT
BRANCH   1   2
ATOM      2  C   UNL     1      50.289 -34.464  23.098  1.00  0.00     0.000 C 
BRANCH   2   3
ATOM      3  C   UNL     1      51.497 -35.320  23.529  1.00  0.00     0.000 C 
BRANCH   3   4
ATOM      4  C   UNL     1      52.868 -34.790  23.075  1.00  0.00     0.006 C 
BRANCH   4   5
ATOM      5  C   UNL     1      54.039 -35.527  23.738  1.00  0.00     0.053 C 
BRANCH   5   6
ATOM      6  C   UNL     1      55.192 -35.633  22.791  1.00  0.00     0.041 C 
ATOM      7  O   UNL     1      55.008 -36.023  21.608  1.00  0.00    -0.550 OA
ATOM      8  O   UNL     1      56.465 -35.254  23.200  1.00  0.00    -0.550 OA
ENDBRANCH   5   6
ENDBRANCH   4   5
ENDBRANCH   3   4
ENDBRANCH   2   3
ENDBRANCH   1   2
BRANCH   1   9
ATOM      9  C   UNL     1      50.356 -31.920  22.783  1.00  0.00     0.000 C 
BRANCH   9  10
ATOM     10  C   UNL     1      51.623 -31.093  23.056  1.00  0.00    -0.000 C 
BRANCH  10  11
ATOM     11  C   UNL     1      52.134 -31.249  24.497  1.00  0.00    -0.000 C 
BRANCH  11  12
ATOM     12  C   UNL     1      53.650 -31.476  24.519  1.00  0.00    -0.000 C 
BRANCH  12  13
ATOM     13  C   UNL     1      54.062 -32.328  25.726  1.00  0.00    -0.003 C 
ATOM     14  C   UNL     1      52.849 -33.000  26.365  1.00  0.00     0.004 C 
ENDBRANCH  12  13
ENDBRANCH  11  12
ENDBRANCH  10  11
ENDBRANCH   9  10
ENDBRANCH   1   9
TORSDOF 10
ENDMDL
MODEL 7
REMARK VINA RESULT:    -2.393      3.440      6.183
REMARK INTER + INTRA:          -5.078
REMARK INTER:                  -4.471
REMARK INTRA:                  -0.607
REMARK UNBOUND:                -1.287
REMARK SMILES CCCCCCCCCCCC(=O)[O-]
REMARK SMILES IDX 7 1 8 2 9 3 10 4 11 5 12 6 13 7 14 8 6 9 5 10 4 11 3 12 2 13
REMARK SMILES IDX 1 14
REMARK H PARENT
REMARK Flexibility Score: inf
ROOT
ATOM      1  C   UNL     1      50.400 -34.119  23.491  1.00  0.00     0.000 C 
ENDROOT
BRANCH   1   2
ATOM      2  C   UNL     1      50.381 -32.702  22.891  1.00  0.00     0.000 C 
BRANCH   2   3
ATOM      3  C   UNL     1      51.589 -31.816  23.254  1.00  0.00     0.000 C 
BRANCH   3   4
ATOM      4  C   UNL     1      51.375 -30.305  23.054  1.00  0.00     0.006 C 
BRANCH   4   5
ATOM      5  C   UNL     1      51.689 -29.489  24.314  1.00  0.00     0.053 C 
BRANCH   5   6
ATOM      6  C   UNL     1      52.877 -28.610  24.085  1.00  0.00     0.041 C 
ATOM      7  O   UNL     1      54.015 -28.961  24.496  1.00  0.00    -0.550 OA
ATOM      8  O   UNL     1      52.739 -27.425  23.372  1.00  0.00    -0.550 OA
ENDBRANCH   5   6
ENDBRANCH   4   5
ENDBRANCH   3   4
ENDBRANCH   2   3
ENDBRANCH   1   2
BRANCH   1   9
ATOM      9  C   UNL     1      51.700 -34.882  23.178  1.00  0.00     0.000 C 
BRANCH   9  10
ATOM     10  C   UNL     1      52.441 -35.331  24.447  1.00  0.00    -0.000 C 
BRANCH  10  11
ATOM     11  C   UNL     1      53.932 -35.606  24.198  1.00  0.00    -0.000 C 
BRANCH  11  12
ATOM     12  C   UNL     1      54.427 -34.857  22.954  1.00  0.00    -0.000 C 
BRANCH  12  13
ATOM     13  C   UNL     1      55.120 -35.813  21.975  1.00  0.00    -0.003 C 
ATOM     14  C   UNL     1      56.504 -36.212  22.481  1.00  0.00     0.004 C 
ENDBRANCH  12  13
ENDBRANCH  11  12
ENDBRANCH  10  11
ENDBRANCH   9  10
ENDBRANCH   1   9
TORSDOF 10
ENDMDL
MODEL 8
REMARK VINA RESULT:    -2.374      3.978      6.701
REMARK INTER + INTRA:          -5.049
REMARK INTER:                  -4.504
REMARK INTRA:                  -0.544
REMARK UNBOUND:                -1.287
REMARK SMILES CCCCCCCCCCCC(=O)[O-]
REMARK SMILES IDX 7 1 8 2 9 3 10 4 11 5 12 6 13 7 14 8 6 9 5 10 4 11 3 12 2 13
REMARK SMILES IDX 1 14
REMARK H PARENT
REMARK Flexibility Score: inf
ROOT
ATOM      1  C   UNL     1      53.439 -35.318  23.803  1.00  0.00     0.000 C 
ENDROOT
BRANCH   1   2
ATOM      2  C   UNL     1      52.093 -34.906  23.181  1.00  0.00     0.000 C 
BRANCH   2   3
ATOM      3  C   UNL     1      51.342 -33.781  23.922  1.00  0.00     0.000 C 
BRANCH   3   4
ATOM      4  C   UNL     1      50.804 -32.653  23.023  1.00  0.00     0.006 C 
BRANCH   4   5
ATOM      5  C   UNL     1      51.701 -31.409  23.029  1.00  0.00     0.053 C 
BRANCH   5   6
ATOM      6  C   UNL     1      50.976 -30.245  23.627  1.00  0.00     0.041 C 
ATOM      7  O   UNL     1      51.056 -29.107  23.094  1.00  0.00    -0.550 OA
ATOM      8  O   UNL     1      50.171 -30.427  24.744  1.00  0.00    -0.550 OA
ENDBRANCH   5   6
ENDBRANCH   4   5
ENDBRANCH   3   4
ENDBRANCH   2   3
ENDBRANCH   1   2
BRANCH   1   9
ATOM      9  C   UNL     1      54.648 -34.743  23.044  1.00  0.00     0.000 C 
BRANCH   9  10
ATOM     10  C   UNL     1      55.192 -35.709  21.979  1.00  0.00    -0.000 C 
BRANCH  10  11
ATOM     11  C   UNL     1      56.317 -36.608  22.513  1.00  0.00    -0.000 C 
BRANCH  11  12
ATOM     12  C   UNL     1      57.189 -35.851  23.523  1.00  0.00    -0.000 C 
BRANCH  12  13
ATOM     13  C   UNL     1      58.631 -35.720  23.016  1.00  0.00    -0.003 C 
ATOM     14  C   UNL     1      59.007 -36.893  22.115  1.00  0.00     0.004 C 
ENDBRANCH  12  13
ENDBRANCH  11  12
ENDBRANCH  10  11
ENDBRANCH   9  10
ENDBRANCH   1   9
TORSDOF 10
ENDMDL
MODEL 9
REMARK VINA RESULT:    -2.361      2.714      5.372
REMARK INTER + INTRA:          -5.029
REMARK INTER:                  -3.667
REMARK INTRA:                  -1.362
REMARK UNBOUND:                -1.287
REMARK SMILES CCCCCCCCCCCC(=O)[O-]
REMARK SMILES IDX 7 1 8 2 9 3 10 4 11 5 12 6 13 7 14 8 6 9 5 10 4 11 3 12 2 13
REMARK SMILES IDX 1 14
REMARK H PARENT
REMARK Flexibility Score: inf
ROOT
ATOM      1  C   UNL     1      55.217 -35.792  21.971  1.00  0.00     0.000 C 
ENDROOT
BRANCH   1   2
ATOM      2  C   UNL     1      54.198 -35.440  23.070  1.00  0.00     0.000 C 
BRANCH   2   3
ATOM      3  C   UNL     1      54.624 -34.306  24.024  1.00  0.00     0.000 C 
BRANCH   3   4
ATOM      4  C   UNL     1      55.304 -33.103  23.347  1.00  0.00     0.006 C 
BRANCH   4   5
ATOM      5  C   UNL     1      55.332 -31.856  24.240  1.00  0.00     0.053 C 
BRANCH   5   6
ATOM      6  C   UNL     1      56.645 -31.150  24.110  1.00  0.00     0.041 C 
ATOM      7  O   UNL     1      56.706 -29.898  24.232  1.00  0.00    -0.550 OA
ATOM      8  O   UNL     1      57.809 -31.879  23.904  1.00  0.00    -0.550 OA
ENDBRANCH   5   6
ENDBRANCH   4   5
ENDBRANCH   3   4
ENDBRANCH   2   3
ENDBRANCH   1   2
BRANCH   1   9
ATOM      9  C   UNL     1      56.322 -36.742  22.464  1.00  0.00     0.000 C 
BRANCH   9  10
ATOM     10  C   UNL     1      57.674 -36.032  22.645  1.00  0.00    -0.000 C 
BRANCH  10  11
ATOM     11  C   UNL     1      58.040 -35.819  24.121  1.00  0.00    -0.000 C 
BRANCH  11  12
ATOM     12  C   UNL     1      57.457 -36.935  24.997  1.00  0.00    -0.000 C 
BRANCH  12  13
ATOM     13  C   UNL     1      56.811 -36.360  26.264  1.00  0.00    -0.003 C 
ATOM     14  C   UNL     1      55.440 -36.982  26.514  1.00  0.00     0.004 C 
ENDBRANCH  12  13
ENDBRANCH  11  12
ENDBRANCH  10  11
ENDBRANCH   9  10
ENDBRANCH   1   9
TORSDOF 10
ENDMDL
