MODEL 1
REMARK VINA RESULT:    -3.047      0.000      0.000
REMARK INTER + INTRA:          -3.748
REMARK INTER:                  -3.670
REMARK INTRA:                  -0.077
REMARK UNBOUND:                -0.077
REMARK SMILES CCCCCO
REMARK SMILES IDX 4 1 3 2 2 3 1 4 5 5 6 6
REMARK H PARENT 6 7
REMARK Flexibility Score: inf
ROOT
ATOM      1  C   UNL     1     176.780 174.005 170.085  1.00  0.00     0.028 C 
ENDROOT
BRANCH   1   2
ATOM      2  C   UNL     1     177.101 173.419 168.700  1.00  0.00     0.002 C 
BRANCH   2   3
ATOM      3  C   UNL     1     176.321 174.111 167.572  1.00  0.00    -0.003 C 
ATOM      4  C   UNL     1     174.829 173.778 167.592  1.00  0.00     0.004 C 
ENDBRANCH   2   3
ENDBRANCH   1   2
BRANCH   1   5
ATOM      5  C   UNL     1     176.836 175.537 170.078  1.00  0.00     0.156 C 
BRANCH   5   6
ATOM      6  O   UNL     1     175.585 176.087 170.392  1.00  0.00    -0.396 OA
ATOM      7  H   UNL     1     175.130 176.270 169.529  1.00  0.00     0.210 HD
ENDBRANCH   5   6
ENDBRANCH   1   5
TORSDOF 4
ENDMDL
MODEL 2
REMARK VINA RESULT:    -3.045     11.064     11.923
REMARK INTER + INTRA:          -3.745
REMARK INTER:                  -3.677
REMARK INTRA:                  -0.068
REMARK UNBOUND:                -0.077
REMARK SMILES CCCCCO
REMARK SMILES IDX 4 1 3 2 2 3 1 4 5 5 6 6
REMARK H PARENT 6 7
REMARK Flexibility Score: inf
ROOT
ATOM      1  C   UNL     1     165.971 177.573 166.214  1.00  0.00     0.028 C 
ENDROOT
BRANCH   1   2
ATOM      2  C   UNL     1     165.608 178.498 167.387  1.00  0.00     0.002 C 
BRANCH   2   3
ATOM      3  C   UNL     1     164.510 177.909 168.285  1.00  0.00    -0.003 C 
ATOM      4  C   UNL     1     163.259 178.785 168.345  1.00  0.00     0.004 C 
ENDBRANCH   2   3
ENDBRANCH   1   2
BRANCH   1   5
ATOM      5  C   UNL     1     165.547 176.124 166.484  1.00  0.00     0.156 C 
BRANCH   5   6
ATOM      6  O   UNL     1     166.667 175.298 166.657  1.00  0.00    -0.396 OA
ATOM      7  H   UNL     1     167.041 175.133 165.753  1.00  0.00     0.210 HD
ENDBRANCH   5   6
ENDBRANCH   1   5
TORSDOF 4
ENDMDL
MODEL 3
REMARK VINA RESULT:    -3.032      1.796      3.067
REMARK INTER + INTRA:          -3.730
REMARK INTER:                  -3.688
REMARK INTRA:                  -0.041
REMARK UNBOUND:                -0.077
REMARK SMILES CCCCCO
REMARK SMILES IDX 4 1 3 2 2 3 1 4 5 5 6 6
REMARK H PARENT 6 7
REMARK Flexibility Score: inf
ROOT
ATOM      1  C   UNL     1     176.516 173.594 168.642  1.00  0.00     0.028 C 
ENDROOT
BRANCH   1   2
ATOM      2  C   UNL     1     176.767 173.905 170.126  1.00  0.00     0.002 C 
BRANCH   2   3
ATOM      3  C   UNL     1     178.238 173.719 170.526  1.00  0.00    -0.003 C 
ATOM      4  C   UNL     1     179.096 173.164 169.390  1.00  0.00     0.004 C 
ENDBRANCH   2   3
ENDBRANCH   1   2
BRANCH   1   5
ATOM      5  C   UNL     1     175.997 174.822 167.886  1.00  0.00     0.156 C 
BRANCH   5   6
ATOM      6  O   UNL     1     174.662 174.644 167.493  1.00  0.00    -0.396 OA
ATOM      7  H   UNL     1     174.326 175.535 167.217  1.00  0.00     0.210 HD
ENDBRANCH   5   6
ENDBRANCH   1   5
TORSDOF 4
ENDMDL
MODEL 4
REMARK VINA RESULT:    -2.996     12.263     12.991
REMARK INTER + INTRA:          -3.686
REMARK INTER:                  -3.648
REMARK INTRA:                  -0.038
REMARK UNBOUND:                -0.077
REMARK SMILES CCCCCO
REMARK SMILES IDX 4 1 3 2 2 3 1 4 5 5 6 6
REMARK H PARENT 6 7
REMARK Flexibility Score: inf
ROOT
ATOM      1  C   UNL     1     173.675 162.245 168.162  1.00  0.00     0.028 C 
ENDROOT
BRANCH   1   2
ATOM      2  C   UNL     1     174.547 162.407 169.417  1.00  0.00     0.002 C 
BRANCH   2   3
ATOM      3  C   UNL     1     175.941 161.783 169.252  1.00  0.00    -0.003 C 
ATOM      4  C   UNL     1     176.956 162.751 168.645  1.00  0.00     0.004 C 
ENDBRANCH   2   3
ENDBRANCH   1   2
BRANCH   1   5
ATOM      5  C   UNL     1     172.363 161.517 168.474  1.00  0.00     0.156 C 
BRANCH   5   6
ATOM      6  O   UNL     1     172.245 161.261 169.848  1.00  0.00    -0.396 OA
ATOM      7  H   UNL     1     172.039 162.129 170.282  1.00  0.00     0.210 HD
ENDBRANCH   5   6
ENDBRANCH   1   5
TORSDOF 4
ENDMDL
MODEL 5
REMARK VINA RESULT:    -2.968      2.093      2.223
REMARK INTER + INTRA:          -3.653
REMARK INTER:                  -3.643
REMARK INTRA:                  -0.010
REMARK UNBOUND:                -0.077
REMARK SMILES CCCCCO
REMARK SMILES IDX 4 1 3 2 2 3 1 4 5 5 6 6
REMARK H PARENT 6 7
REMARK Flexibility Score: inf
ROOT
ATOM      1  C   UNL     1     177.444 173.882 170.209  1.00  0.00     0.028 C 
ENDROOT
BRANCH   1   2
ATOM      2  C   UNL     1     177.153 173.262 168.833  1.00  0.00     0.002 C 
BRANCH   2   3
ATOM      3  C   UNL     1     176.448 174.240 167.882  1.00  0.00    -0.003 C 
ATOM      4  C   UNL     1     174.987 173.870 167.627  1.00  0.00     0.004 C 
ENDBRANCH   2   3
ENDBRANCH   1   2
BRANCH   1   5
ATOM      5  C   UNL     1     178.879 173.597 170.666  1.00  0.00     0.156 C 
BRANCH   5   6
ATOM      6  O   UNL     1     178.957 173.534 172.065  1.00  0.00    -0.396 OA
ATOM      7  H   UNL     1     178.795 172.588 172.317  1.00  0.00     0.210 HD
ENDBRANCH   5   6
ENDBRANCH   1   5
TORSDOF 4
ENDMDL
MODEL 6
REMARK VINA RESULT:    -2.938     12.848     13.300
REMARK INTER + INTRA:          -3.616
REMARK INTER:                  -3.606
REMARK INTRA:                  -0.010
REMARK UNBOUND:                -0.077
REMARK SMILES CCCCCO
REMARK SMILES IDX 4 1 3 2 2 3 1 4 5 5 6 6
REMARK H PARENT 6 7
REMARK Flexibility Score: inf
ROOT
ATOM      1  C   UNL     1     171.968 161.555 167.659  1.00  0.00     0.028 C 
ENDROOT
BRANCH   1   2
ATOM      2  C   UNL     1     172.409 162.676 166.705  1.00  0.00     0.002 C 
BRANCH   2   3
ATOM      3  C   UNL     1     172.752 162.154 165.302  1.00  0.00    -0.003 C 
ATOM      4  C   UNL     1     173.332 163.237 164.392  1.00  0.00     0.004 C 
ENDBRANCH   2   3
ENDBRANCH   1   2
BRANCH   1   5
ATOM      5  C   UNL     1     172.793 161.554 168.951  1.00  0.00     0.156 C 
BRANCH   5   6
ATOM      6  O   UNL     1     172.038 161.068 170.029  1.00  0.00    -0.396 OA
ATOM      7  H   UNL     1     171.778 160.139 169.798  1.00  0.00     0.210 HD
ENDBRANCH   5   6
ENDBRANCH   1   5
TORSDOF 4
ENDMDL
MODEL 7
REMARK VINA RESULT:    -2.917     18.706     19.493
REMARK INTER + INTRA:          -3.591
REMARK INTER:                  -3.575
REMARK INTRA:                  -0.016
REMARK UNBOUND:                -0.077
REMARK SMILES CCCCCO
REMARK SMILES IDX 4 1 3 2 2 3 1 4 5 5 6 6
REMARK H PARENT 6 7
REMARK Flexibility Score: inf
ROOT
ATOM      1  C   UNL     1     160.427 164.555 168.206  1.00  0.00     0.028 C 
ENDROOT
BRANCH   1   2
ATOM      2  C   UNL     1     160.028 163.071 168.209  1.00  0.00     0.002 C 
BRANCH   2   3
ATOM      3  C   UNL     1     160.951 162.214 169.088  1.00  0.00    -0.003 C 
ATOM      4  C   UNL     1     160.182 161.291 170.032  1.00  0.00     0.004 C 
ENDBRANCH   2   3
ENDBRANCH   1   2
BRANCH   1   5
ATOM      5  C   UNL     1     159.267 165.455 168.644  1.00  0.00     0.156 C 
BRANCH   5   6
ATOM      6  O   UNL     1     159.631 166.244 169.746  1.00  0.00    -0.396 OA
ATOM      7  H   UNL     1     159.857 165.617 170.481  1.00  0.00     0.210 HD
ENDBRANCH   5   6
ENDBRANCH   1   5
TORSDOF 4
ENDMDL
MODEL 8
REMARK VINA RESULT:    -2.844     16.948     18.327
REMARK INTER + INTRA:          -3.503
REMARK INTER:                  -3.451
REMARK INTRA:                  -0.052
REMARK UNBOUND:                -0.077
REMARK SMILES CCCCCO
REMARK SMILES IDX 4 1 3 2 2 3 1 4 5 5 6 6
REMARK H PARENT 6 7
REMARK Flexibility Score: inf
ROOT
ATOM      1  C   UNL     1     159.686 166.557 167.396  1.00  0.00     0.028 C 
ENDROOT
BRANCH   1   2
ATOM      2  C   UNL     1     159.768 165.363 166.431  1.00  0.00     0.002 C 
BRANCH   2   3
ATOM      3  C   UNL     1     161.215 164.999 166.066  1.00  0.00    -0.003 C 
ATOM      4  C   UNL     1     162.210 166.106 166.413  1.00  0.00     0.004 C 
ENDBRANCH   2   3
ENDBRANCH   1   2
BRANCH   1   5
ATOM      5  C   UNL     1     158.925 166.197 168.678  1.00  0.00     0.156 C 
BRANCH   5   6
ATOM      6  O   UNL     1     159.767 166.265 169.797  1.00  0.00    -0.396 OA
ATOM      7  H   UNL     1     160.322 165.442 169.786  1.00  0.00     0.210 HD
ENDBRANCH   5   6
ENDBRANCH   1   5
TORSDOF 4
ENDMDL
MODEL 9
REMARK VINA RESULT:    -2.813     11.632     12.769
REMARK INTER + INTRA:          -3.466
REMARK INTER:                  -3.452
REMARK INTRA:                  -0.014
REMARK UNBOUND:                -0.077
REMARK SMILES CCCCCO
REMARK SMILES IDX 4 1 3 2 2 3 1 4 5 5 6 6
REMARK H PARENT 6 7
REMARK Flexibility Score: inf
ROOT
ATOM      1  C   UNL     1     163.320 178.190 168.482  1.00  0.00     0.028 C 
ENDROOT
BRANCH   1   2
ATOM      2  C   UNL     1     164.739 177.901 167.967  1.00  0.00     0.002 C 
BRANCH   2   3
ATOM      3  C   UNL     1     164.788 176.693 167.021  1.00  0.00    -0.003 C 
ATOM      4  C   UNL     1     165.966 176.749 166.048  1.00  0.00     0.004 C 
ENDBRANCH   2   3
ENDBRANCH   1   2
BRANCH   1   5
ATOM      5  C   UNL     1     163.218 178.004 170.000  1.00  0.00     0.156 C 
BRANCH   5   6
ATOM      6  O   UNL     1     162.129 177.186 170.334  1.00  0.00    -0.396 OA
ATOM      7  H   UNL     1     162.492 176.273 170.476  1.00  0.00     0.210 HD
ENDBRANCH   5   6
ENDBRANCH   1   5
TORSDOF 4
ENDMDL
