MODEL 1
REMARK VINA RESULT:    -6.223      0.000      0.000
REMARK INTER + INTRA:          -9.259
REMARK INTER:                  -7.861
REMARK INTRA:                  -1.398
REMARK UNBOUND:                -1.398
REMARK SMILES O=C(C=Cc1ccc(O)cc1)c1ccc(O)cc1O
REMARK SMILES IDX 4 1 3 2 5 3 6 4 7 5 8 6 11 7 10 8 9 9 2 11 1 12 12 13 18 14
REMARK SMILES IDX 13 15 17 16 14 17 15 18 19 19 16 21
REMARK H PARENT 9 10 19 20 16 22
REMARK Flexibility Score: inf
ROOT
ATOM      1  C   UNL     1      11.469  18.273   1.700  1.00  0.00     0.012 C 
ATOM      2  C   UNL     1      10.542  18.804   0.888  1.00  0.00     0.053 C 
ENDROOT
BRANCH   1   3
ATOM      3  C   UNL     1      12.788  18.870   2.001  1.00  0.00    -0.025 A 
ATOM      4  C   UNL     1      12.867  19.937   2.907  1.00  0.00     0.012 A 
ATOM      5  C   UNL     1      14.097  20.549   3.172  1.00  0.00     0.047 A 
ATOM      6  C   UNL     1      15.256  20.112   2.515  1.00  0.00     0.115 A 
ATOM      7  C   UNL     1      13.947  18.455   1.322  1.00  0.00     0.012 A 
ATOM      8  C   UNL     1      15.176  19.068   1.588  1.00  0.00     0.047 A 
BRANCH   6   9
ATOM      9  O   UNL     1      16.486  20.711   2.772  1.00  0.00    -0.508 OA
ATOM     10  H   UNL     1      16.988  21.220   2.053  1.00  0.00     0.293 HD
ENDBRANCH   6   9
ENDBRANCH   1   3
BRANCH   2  11
ATOM     11  C   UNL     1      10.748  19.980   0.006  1.00  0.00     0.189 C 
ATOM     12  O   UNL     1      10.174  21.072   0.266  1.00  0.00    -0.289 OA
BRANCH  11  13
ATOM     13  C   UNL     1      11.650  19.907  -1.167  1.00  0.00     0.064 A 
ATOM     14  C   UNL     1      12.799  20.726  -1.236  1.00  0.00     0.130 A 
ATOM     15  C   UNL     1      11.390  19.007  -2.218  1.00  0.00     0.020 A 
ATOM     16  C   UNL     1      13.655  20.640  -2.344  1.00  0.00     0.093 A 
ATOM     17  C   UNL     1      12.249  18.931  -3.317  1.00  0.00     0.047 A 
ATOM     18  C   UNL     1      13.381  19.746  -3.384  1.00  0.00     0.119 A 
BRANCH  14  19
ATOM     19  O   UNL     1      13.078  21.634  -0.215  1.00  0.00    -0.507 OA
ATOM     20  H   UNL     1      12.369  22.262   0.147  1.00  0.00     0.293 HD
ENDBRANCH  14  19
BRANCH  18  21
ATOM     21  O   UNL     1      14.228  19.657  -4.487  1.00  0.00    -0.508 OA
ATOM     22  H   UNL     1      14.232  20.367  -5.210  1.00  0.00     0.293 HD
ENDBRANCH  18  21
ENDBRANCH  11  13
ENDBRANCH   2  11
TORSDOF 6
ENDMDL
MODEL 2
REMARK VINA RESULT:    -6.117      3.641      5.162
REMARK INTER + INTRA:          -9.125
REMARK INTER:                  -7.850
REMARK INTRA:                  -1.275
REMARK UNBOUND:                -1.398
REMARK SMILES O=C(C=Cc1ccc(O)cc1)c1ccc(O)cc1O
REMARK SMILES IDX 4 1 3 2 5 3 6 4 7 5 8 6 11 7 10 8 9 9 2 11 1 12 12 13 18 14
REMARK SMILES IDX 13 15 17 16 14 17 15 18 19 19 16 21
REMARK H PARENT 9 10 19 20 16 22
REMARK Flexibility Score: inf
ROOT
ATOM      1  C   UNL     1      11.955  17.421   5.088  1.00  0.00     0.012 C 
ATOM      2  C   UNL     1      11.950  17.107   3.783  1.00  0.00     0.053 C 
ENDROOT
BRANCH   1   3
ATOM      3  C   UNL     1      11.650  18.755   5.649  1.00  0.00    -0.025 A 
ATOM      4  C   UNL     1      10.345  19.258   5.550  1.00  0.00     0.012 A 
ATOM      5  C   UNL     1      10.043  20.536   6.031  1.00  0.00     0.047 A 
ATOM      6  C   UNL     1      11.050  21.331   6.597  1.00  0.00     0.115 A 
ATOM      7  C   UNL     1      12.663  19.567   6.189  1.00  0.00     0.012 A 
ATOM      8  C   UNL     1      12.359  20.845   6.670  1.00  0.00     0.047 A 
BRANCH   6   9
ATOM      9  O   UNL     1      10.761  22.604   7.081  1.00  0.00    -0.508 OA
ATOM     10  H   UNL     1      11.008  22.881   8.024  1.00  0.00     0.293 HD
ENDBRANCH   6   9
ENDBRANCH   1   3
BRANCH   2  11
ATOM     11  C   UNL     1      11.824  18.079   2.667  1.00  0.00     0.189 C 
ATOM     12  O   UNL     1      10.996  17.870   1.740  1.00  0.00    -0.289 OA
BRANCH  11  13
ATOM     13  C   UNL     1      12.633  19.320   2.639  1.00  0.00     0.064 A 
ATOM     14  C   UNL     1      12.006  20.580   2.527  1.00  0.00     0.130 A 
ATOM     15  C   UNL     1      14.036  19.263   2.745  1.00  0.00     0.020 A 
ATOM     16  C   UNL     1      12.779  21.750   2.515  1.00  0.00     0.093 A 
ATOM     17  C   UNL     1      14.797  20.436   2.731  1.00  0.00     0.047 A 
ATOM     18  C   UNL     1      14.173  21.679   2.615  1.00  0.00     0.119 A 
BRANCH  14  19
ATOM     19  O   UNL     1      10.618  20.666   2.410  1.00  0.00    -0.507 OA
ATOM     20  H   UNL     1      10.116  20.191   1.669  1.00  0.00     0.293 HD
ENDBRANCH  14  19
BRANCH  18  21
ATOM     21  O   UNL     1      14.946  22.838   2.603  1.00  0.00    -0.508 OA
ATOM     22  H   UNL     1      15.243  23.285   3.462  1.00  0.00     0.293 HD
ENDBRANCH  18  21
ENDBRANCH  11  13
ENDBRANCH   2  11
TORSDOF 6
ENDMDL
MODEL 3
REMARK VINA RESULT:    -6.102      3.852      6.248
REMARK INTER + INTRA:          -9.105
REMARK INTER:                  -7.921
REMARK INTRA:                  -1.184
REMARK UNBOUND:                -1.398
REMARK SMILES O=C(C=Cc1ccc(O)cc1)c1ccc(O)cc1O
REMARK SMILES IDX 4 1 3 2 5 3 6 4 7 5 8 6 11 7 10 8 9 9 2 11 1 12 12 13 18 14
REMARK SMILES IDX 13 15 17 16 14 17 15 18 19 19 16 21
REMARK H PARENT 9 10 19 20 16 22
REMARK Flexibility Score: inf
ROOT
ATOM      1  C   UNL     1      11.446  18.143   2.286  1.00  0.00     0.012 C 
ATOM      2  C   UNL     1      10.935  17.332   3.226  1.00  0.00     0.053 C 
ENDROOT
BRANCH   1   3
ATOM      3  C   UNL     1      12.473  19.181   2.515  1.00  0.00    -0.025 A 
ATOM      4  C   UNL     1      12.095  20.531   2.519  1.00  0.00     0.012 A 
ATOM      5  C   UNL     1      13.057  21.533   2.687  1.00  0.00     0.047 A 
ATOM      6  C   UNL     1      14.409  21.193   2.831  1.00  0.00     0.115 A 
ATOM      7  C   UNL     1      13.834  18.846   2.629  1.00  0.00     0.012 A 
ATOM      8  C   UNL     1      14.794  19.849   2.797  1.00  0.00     0.047 A 
BRANCH   6   9
ATOM      9  O   UNL     1      15.375  22.181   3.001  1.00  0.00    -0.508 OA
ATOM     10  H   UNL     1      15.281  22.898   3.711  1.00  0.00     0.293 HD
ENDBRANCH   6   9
ENDBRANCH   1   3
BRANCH   2  11
ATOM     11  C   UNL     1      11.169  17.460   4.687  1.00  0.00     0.189 C 
ATOM     12  O   UNL     1      11.381  16.431   5.384  1.00  0.00    -0.289 OA
BRANCH  11  13
ATOM     13  C   UNL     1      11.195  18.788   5.345  1.00  0.00     0.064 A 
ATOM     14  C   UNL     1      12.355  19.230   6.017  1.00  0.00     0.130 A 
ATOM     15  C   UNL     1      10.073  19.636   5.289  1.00  0.00     0.020 A 
ATOM     16  C   UNL     1      12.375  20.494   6.624  1.00  0.00     0.093 A 
ATOM     17  C   UNL     1      10.103  20.894   5.899  1.00  0.00     0.047 A 
ATOM     18  C   UNL     1      11.250  21.324   6.568  1.00  0.00     0.119 A 
BRANCH  14  19
ATOM     19  O   UNL     1      13.478  18.406   6.096  1.00  0.00    -0.507 OA
ATOM     20  H   UNL     1      13.409  17.437   6.385  1.00  0.00     0.293 HD
ENDBRANCH  14  19
BRANCH  18  21
ATOM     21  O   UNL     1      11.264  22.581   7.170  1.00  0.00    -0.508 OA
ATOM     22  H   UNL     1      10.569  22.846   7.858  1.00  0.00     0.293 HD
ENDBRANCH  18  21
ENDBRANCH  11  13
ENDBRANCH   2  11
TORSDOF 6
ENDMDL
MODEL 4
REMARK VINA RESULT:    -6.084      2.850      4.466
REMARK INTER + INTRA:          -9.082
REMARK INTER:                  -7.696
REMARK INTRA:                  -1.387
REMARK UNBOUND:                -1.398
REMARK SMILES O=C(C=Cc1ccc(O)cc1)c1ccc(O)cc1O
REMARK SMILES IDX 4 1 3 2 5 3 6 4 7 5 8 6 11 7 10 8 9 9 2 11 1 12 12 13 18 14
REMARK SMILES IDX 13 15 17 16 14 17 15 18 19 19 16 21
REMARK H PARENT 9 10 19 20 16 22
REMARK Flexibility Score: inf
ROOT
ATOM      1  C   UNL     1      11.998  17.123   2.999  1.00  0.00     0.012 C 
ATOM      2  C   UNL     1      12.618  17.409   1.843  1.00  0.00     0.053 C 
ENDROOT
BRANCH   1   3
ATOM      3  C   UNL     1      11.922  18.017   4.174  1.00  0.00    -0.025 A 
ATOM      4  C   UNL     1      10.859  18.926   4.278  1.00  0.00     0.012 A 
ATOM      5  C   UNL     1      10.792  19.813   5.357  1.00  0.00     0.047 A 
ATOM      6  C   UNL     1      11.800  19.815   6.330  1.00  0.00     0.115 A 
ATOM      7  C   UNL     1      12.947  18.044   5.136  1.00  0.00     0.012 A 
ATOM      8  C   UNL     1      12.878  18.932   6.214  1.00  0.00     0.047 A 
BRANCH   6   9
ATOM      9  O   UNL     1      11.743  20.693   7.410  1.00  0.00    -0.508 OA
ATOM     10  H   UNL     1      10.908  20.783   7.975  1.00  0.00     0.293 HD
ENDBRANCH   6   9
ENDBRANCH   1   3
BRANCH   2  11
ATOM     11  C   UNL     1      13.493  18.585   1.607  1.00  0.00     0.189 C 
ATOM     12  O   UNL     1      14.734  18.427   1.448  1.00  0.00    -0.289 OA
BRANCH  11  13
ATOM     13  C   UNL     1      12.929  19.953   1.519  1.00  0.00     0.064 A 
ATOM     14  C   UNL     1      13.367  20.965   2.401  1.00  0.00     0.130 A 
ATOM     15  C   UNL     1      11.965  20.269   0.542  1.00  0.00     0.020 A 
ATOM     16  C   UNL     1      12.838  22.260   2.300  1.00  0.00     0.093 A 
ATOM     17  C   UNL     1      11.444  21.562   0.452  1.00  0.00     0.047 A 
ATOM     18  C   UNL     1      11.876  22.558   1.329  1.00  0.00     0.119 A 
BRANCH  14  19
ATOM     19  O   UNL     1      14.314  20.679   3.385  1.00  0.00    -0.507 OA
ATOM     20  H   UNL     1      14.793  21.413   3.892  1.00  0.00     0.293 HD
ENDBRANCH  14  19
BRANCH  18  21
ATOM     21  O   UNL     1      11.346  23.843   1.225  1.00  0.00    -0.508 OA
ATOM     22  H   UNL     1      11.943  24.659   1.156  1.00  0.00     0.293 HD
ENDBRANCH  18  21
ENDBRANCH  11  13
ENDBRANCH   2  11
TORSDOF 6
ENDMDL
MODEL 5
REMARK VINA RESULT:    -6.008      2.567      3.767
REMARK INTER + INTRA:          -8.987
REMARK INTER:                  -7.751
REMARK INTRA:                  -1.236
REMARK UNBOUND:                -1.398
REMARK SMILES O=C(C=Cc1ccc(O)cc1)c1ccc(O)cc1O
REMARK SMILES IDX 4 1 3 2 5 3 6 4 7 5 8 6 11 7 10 8 9 9 2 11 1 12 12 13 18 14
REMARK SMILES IDX 13 15 17 16 14 17 15 18 19 19 16 21
REMARK H PARENT 9 10 19 20 16 22
REMARK Flexibility Score: inf
ROOT
ATOM      1  C   UNL     1      14.127  21.803   2.705  1.00  0.00     0.012 C 
ATOM      2  C   UNL     1      13.528  22.247   1.589  1.00  0.00     0.053 C 
ENDROOT
BRANCH   1   3
ATOM      3  C   UNL     1      13.500  20.940   3.728  1.00  0.00    -0.025 A 
ATOM      4  C   UNL     1      12.814  21.532   4.799  1.00  0.00     0.012 A 
ATOM      5  C   UNL     1      12.254  20.737   5.804  1.00  0.00     0.047 A 
ATOM      6  C   UNL     1      12.393  19.342   5.758  1.00  0.00     0.115 A 
ATOM      7  C   UNL     1      13.663  19.544   3.702  1.00  0.00     0.012 A 
ATOM      8  C   UNL     1      13.102  18.750   4.708  1.00  0.00     0.047 A 
BRANCH   6   9
ATOM      9  O   UNL     1      11.838  18.541   6.752  1.00  0.00    -0.508 OA
ATOM     10  H   UNL     1      11.506  18.933   7.625  1.00  0.00     0.293 HD
ENDBRANCH   6   9
ENDBRANCH   1   3
BRANCH   2  11
ATOM     11  C   UNL     1      12.082  22.109   1.278  1.00  0.00     0.189 C 
ATOM     12  O   UNL     1      11.270  23.002   1.643  1.00  0.00    -0.289 OA
BRANCH  11  13
ATOM     13  C   UNL     1      11.573  20.948   0.510  1.00  0.00     0.064 A 
ATOM     14  C   UNL     1      10.705  20.015   1.117  1.00  0.00     0.130 A 
ATOM     15  C   UNL     1      11.927  20.771  -0.841  1.00  0.00     0.020 A 
ATOM     16  C   UNL     1      10.217  18.927   0.378  1.00  0.00     0.093 A 
ATOM     17  C   UNL     1      11.436  19.684  -1.568  1.00  0.00     0.047 A 
ATOM     18  C   UNL     1      10.583  18.760  -0.962  1.00  0.00     0.119 A 
BRANCH  14  19
ATOM     19  O   UNL     1      10.344  20.159   2.457  1.00  0.00    -0.507 OA
ATOM     20  H   UNL     1      10.622  19.482   3.159  1.00  0.00     0.293 HD
ENDBRANCH  14  19
BRANCH  18  21
ATOM     21  O   UNL     1      10.101  17.681  -1.700  1.00  0.00    -0.508 OA
ATOM     22  H   UNL     1       9.228  17.737  -2.213  1.00  0.00     0.293 HD
ENDBRANCH  18  21
ENDBRANCH  11  13
ENDBRANCH   2  11
TORSDOF 6
ENDMDL
MODEL 6
REMARK VINA RESULT:    -5.984      2.869      4.343
REMARK INTER + INTRA:          -8.956
REMARK INTER:                  -7.911
REMARK INTRA:                  -1.045
REMARK UNBOUND:                -1.398
REMARK SMILES O=C(C=Cc1ccc(O)cc1)c1ccc(O)cc1O
REMARK SMILES IDX 4 1 3 2 5 3 6 4 7 5 8 6 11 7 10 8 9 9 2 11 1 12 12 13 18 14
REMARK SMILES IDX 13 15 17 16 14 17 15 18 19 19 16 21
REMARK H PARENT 9 10 19 20 16 22
REMARK Flexibility Score: inf
ROOT
ATOM      1  C   UNL     1      12.311  21.349   4.851  1.00  0.00     0.012 C 
ATOM      2  C   UNL     1      13.192  21.786   3.936  1.00  0.00     0.053 C 
ENDROOT
BRANCH   1   3
ATOM      3  C   UNL     1      11.931  19.937   5.067  1.00  0.00    -0.025 A 
ATOM      4  C   UNL     1      12.778  19.104   5.813  1.00  0.00     0.012 A 
ATOM      5  C   UNL     1      12.462  17.754   5.991  1.00  0.00     0.047 A 
ATOM      6  C   UNL     1      11.306  17.218   5.407  1.00  0.00     0.115 A 
ATOM      7  C   UNL     1      10.789  19.389   4.457  1.00  0.00     0.012 A 
ATOM      8  C   UNL     1      10.474  18.038   4.637  1.00  0.00     0.047 A 
BRANCH   6   9
ATOM      9  O   UNL     1      10.980  15.876   5.579  1.00  0.00    -0.508 OA
ATOM     10  H   UNL     1      10.177  15.462   5.119  1.00  0.00     0.293 HD
ENDBRANCH   6   9
ENDBRANCH   1   3
BRANCH   2  11
ATOM     11  C   UNL     1      13.793  20.957   2.861  1.00  0.00     0.189 C 
ATOM     12  O   UNL     1      14.833  20.282   3.092  1.00  0.00    -0.289 OA
BRANCH  11  13
ATOM     13  C   UNL     1      13.172  20.878   1.518  1.00  0.00     0.064 A 
ATOM     14  C   UNL     1      13.976  20.750   0.365  1.00  0.00     0.130 A 
ATOM     15  C   UNL     1      11.771  20.905   1.374  1.00  0.00     0.020 A 
ATOM     16  C   UNL     1      13.378  20.660  -0.900  1.00  0.00     0.093 A 
ATOM     17  C   UNL     1      11.186  20.817   0.107  1.00  0.00     0.047 A 
ATOM     18  C   UNL     1      11.986  20.696  -1.030  1.00  0.00     0.119 A 
BRANCH  14  19
ATOM     19  O   UNL     1      15.367  20.729   0.477  1.00  0.00    -0.507 OA
ATOM     20  H   UNL     1      15.962  21.183  -0.206  1.00  0.00     0.293 HD
ENDBRANCH  14  19
BRANCH  18  21
ATOM     21  O   UNL     1      11.387  20.609  -2.286  1.00  0.00    -0.508 OA
ATOM     22  H   UNL     1      11.938  20.498  -3.129  1.00  0.00     0.293 HD
ENDBRANCH  18  21
ENDBRANCH  11  13
ENDBRANCH   2  11
TORSDOF 6
ENDMDL
MODEL 7
REMARK VINA RESULT:    -5.980      2.915      4.563
REMARK INTER + INTRA:          -8.952
REMARK INTER:                  -7.617
REMARK INTRA:                  -1.335
REMARK UNBOUND:                -1.398
REMARK SMILES O=C(C=Cc1ccc(O)cc1)c1ccc(O)cc1O
REMARK SMILES IDX 4 1 3 2 5 3 6 4 7 5 8 6 11 7 10 8 9 9 2 11 1 12 12 13 18 14
REMARK SMILES IDX 13 15 17 16 14 17 15 18 19 19 16 21
REMARK H PARENT 9 10 19 20 16 22
REMARK Flexibility Score: inf
ROOT
ATOM      1  C   UNL     1      10.387  18.085   3.179  1.00  0.00     0.012 C 
ATOM      2  C   UNL     1      10.357  18.644   1.959  1.00  0.00     0.053 C 
ENDROOT
BRANCH   1   3
ATOM      3  C   UNL     1      10.946  18.712   4.396  1.00  0.00    -0.025 A 
ATOM      4  C   UNL     1      12.180  18.265   4.892  1.00  0.00     0.012 A 
ATOM      5  C   UNL     1      12.705  18.811   6.068  1.00  0.00     0.047 A 
ATOM      6  C   UNL     1      11.992  19.792   6.770  1.00  0.00     0.115 A 
ATOM      7  C   UNL     1      10.219  19.674   5.119  1.00  0.00     0.012 A 
ATOM      8  C   UNL     1      10.748  20.218   6.294  1.00  0.00     0.047 A 
BRANCH   6   9
ATOM      9  O   UNL     1      12.507  20.344   7.940  1.00  0.00    -0.508 OA
ATOM     10  H   UNL     1      13.291  19.923   8.424  1.00  0.00     0.293 HD
ENDBRANCH   6   9
ENDBRANCH   1   3
BRANCH   2  11
ATOM     11  C   UNL     1      11.045  19.903   1.576  1.00  0.00     0.189 C 
ATOM     12  O   UNL     1      10.399  20.828   1.013  1.00  0.00    -0.289 OA
BRANCH  11  13
ATOM     13  C   UNL     1      12.481  20.112   1.877  1.00  0.00     0.064 A 
ATOM     14  C   UNL     1      12.893  21.203   2.671  1.00  0.00     0.130 A 
ATOM     15  C   UNL     1      13.452  19.214   1.395  1.00  0.00     0.020 A 
ATOM     16  C   UNL     1      14.253  21.385   2.963  1.00  0.00     0.093 A 
ATOM     17  C   UNL     1      14.805  19.405   1.690  1.00  0.00     0.047 A 
ATOM     18  C   UNL     1      15.208  20.489   2.471  1.00  0.00     0.119 A 
BRANCH  14  19
ATOM     19  O   UNL     1      11.954  22.115   3.155  1.00  0.00    -0.507 OA
ATOM     20  H   UNL     1      11.695  22.942   2.629  1.00  0.00     0.293 HD
ENDBRANCH  14  19
BRANCH  18  21
ATOM     21  O   UNL     1      16.561  20.664   2.756  1.00  0.00    -0.508 OA
ATOM     22  H   UNL     1      17.263  20.018   2.415  1.00  0.00     0.293 HD
ENDBRANCH  18  21
ENDBRANCH  11  13
ENDBRANCH   2  11
TORSDOF 6
ENDMDL
MODEL 8
REMARK VINA RESULT:    -5.927      1.341      5.061
REMARK INTER + INTRA:          -8.884
REMARK INTER:                  -7.517
REMARK INTRA:                  -1.367
REMARK UNBOUND:                -1.398
REMARK SMILES O=C(C=Cc1ccc(O)cc1)c1ccc(O)cc1O
REMARK SMILES IDX 4 1 3 2 5 3 6 4 7 5 8 6 11 7 10 8 9 9 2 11 1 12 12 13 18 14
REMARK SMILES IDX 13 15 17 16 14 17 15 18 19 19 16 21
REMARK H PARENT 9 10 19 20 16 22
REMARK Flexibility Score: inf
ROOT
ATOM      1  C   UNL     1      10.372  20.479  -0.488  1.00  0.00     0.012 C 
ATOM      2  C   UNL     1      10.268  20.018   0.768  1.00  0.00     0.053 C 
ENDROOT
BRANCH   1   3
ATOM      3  C   UNL     1      11.333  19.995  -1.502  1.00  0.00    -0.025 A 
ATOM      4  C   UNL     1      12.470  20.764  -1.792  1.00  0.00     0.012 A 
ATOM      5  C   UNL     1      13.368  20.349  -2.780  1.00  0.00     0.047 A 
ATOM      6  C   UNL     1      13.126  19.173  -3.503  1.00  0.00     0.115 A 
ATOM      7  C   UNL     1      11.078  18.833  -2.250  1.00  0.00     0.012 A 
ATOM      8  C   UNL     1      11.978  18.420  -3.238  1.00  0.00     0.047 A 
BRANCH   6   9
ATOM      9  O   UNL     1      14.014  18.749  -4.488  1.00  0.00    -0.508 OA
ATOM     10  H   UNL     1      14.967  18.487  -4.265  1.00  0.00     0.293 HD
ENDBRANCH   6   9
ENDBRANCH   1   3
BRANCH   2  11
ATOM     11  C   UNL     1      11.217  19.079   1.418  1.00  0.00     0.189 C 
ATOM     12  O   UNL     1      10.867  17.892   1.655  1.00  0.00    -0.289 OA
BRANCH  11  13
ATOM     13  C   UNL     1      12.594  19.503   1.766  1.00  0.00     0.064 A 
ATOM     14  C   UNL     1      13.708  18.864   1.177  1.00  0.00     0.130 A 
ATOM     15  C   UNL     1      12.813  20.561   2.668  1.00  0.00     0.020 A 
ATOM     16  C   UNL     1      15.007  19.281   1.501  1.00  0.00     0.093 A 
ATOM     17  C   UNL     1      14.112  20.967   2.985  1.00  0.00     0.047 A 
ATOM     18  C   UNL     1      15.210  20.329   2.405  1.00  0.00     0.119 A 
BRANCH  14  19
ATOM     19  O   UNL     1      13.522  17.806   0.287  1.00  0.00    -0.507 OA
ATOM     20  H   UNL     1      14.280  17.181   0.038  1.00  0.00     0.293 HD
ENDBRANCH  14  19
BRANCH  18  21
ATOM     21  O   UNL     1      16.499  20.747   2.732  1.00  0.00    -0.508 OA
ATOM     22  H   UNL     1      17.112  20.176   3.301  1.00  0.00     0.293 HD
ENDBRANCH  18  21
ENDBRANCH  11  13
ENDBRANCH   2  11
TORSDOF 6
ENDMDL
MODEL 9
REMARK VINA RESULT:    -5.909      4.065      7.238
REMARK INTER + INTRA:          -8.862
REMARK INTER:                  -7.480
REMARK INTRA:                  -1.382
REMARK UNBOUND:                -1.398
REMARK SMILES O=C(C=Cc1ccc(O)cc1)c1ccc(O)cc1O
REMARK SMILES IDX 4 1 3 2 5 3 6 4 7 5 8 6 11 7 10 8 9 9 2 11 1 12 12 13 18 14
REMARK SMILES IDX 13 15 17 16 14 17 15 18 19 19 16 21
REMARK H PARENT 9 10 19 20 16 22
REMARK Flexibility Score: inf
ROOT
ATOM      1  C   UNL     1      13.706  18.875   4.172  1.00  0.00     0.012 C 
ATOM      2  C   UNL     1      13.113  18.251   5.202  1.00  0.00     0.053 C 
ENDROOT
BRANCH   1   3
ATOM      3  C   UNL     1      13.094  19.939   3.348  1.00  0.00    -0.025 A 
ATOM      4  C   UNL     1      13.223  21.277   3.747  1.00  0.00     0.012 A 
ATOM      5  C   UNL     1      12.612  22.296   3.009  1.00  0.00     0.047 A 
ATOM      6  C   UNL     1      11.848  21.983   1.876  1.00  0.00     0.115 A 
ATOM      7  C   UNL     1      12.301  19.627   2.229  1.00  0.00     0.012 A 
ATOM      8  C   UNL     1      11.692  20.648   1.492  1.00  0.00     0.047 A 
BRANCH   6   9
ATOM      9  O   UNL     1      11.237  22.989   1.132  1.00  0.00    -0.508 OA
ATOM     10  H   UNL     1      11.301  23.963   1.404  1.00  0.00     0.293 HD
ENDBRANCH   6   9
ENDBRANCH   1   3
BRANCH   2  11
ATOM     11  C   UNL     1      11.682  18.382   5.575  1.00  0.00     0.189 C 
ATOM     12  O   UNL     1      10.878  17.442   5.331  1.00  0.00    -0.289 OA
BRANCH  11  13
ATOM     13  C   UNL     1      11.179  19.593   6.267  1.00  0.00     0.064 A 
ATOM     14  C   UNL     1      10.127  20.350   5.707  1.00  0.00     0.130 A 
ATOM     15  C   UNL     1      11.725  19.992   7.501  1.00  0.00     0.020 A 
ATOM     16  C   UNL     1       9.648  21.486   6.376  1.00  0.00     0.093 A 
ATOM     17  C   UNL     1      11.241  21.126   8.158  1.00  0.00     0.047 A 
ATOM     18  C   UNL     1      10.205  21.876   7.598  1.00  0.00     0.119 A 
BRANCH  14  19
ATOM     19  O   UNL     1       9.572  19.984   4.480  1.00  0.00    -0.507 OA
ATOM     20  H   UNL     1      10.147  19.843   3.657  1.00  0.00     0.293 HD
ENDBRANCH  14  19
BRANCH  18  21
ATOM     21  O   UNL     1       9.734  23.004   8.267  1.00  0.00    -0.508 OA
ATOM     22  H   UNL     1       9.945  23.940   7.940  1.00  0.00     0.293 HD
ENDBRANCH  18  21
ENDBRANCH  11  13
ENDBRANCH   2  11
TORSDOF 6
ENDMDL
