MODEL 1
REMARK VINA RESULT:    -5.066      0.000      0.000
REMARK INTER + INTRA:          -7.089
REMARK INTER:                  -6.843
REMARK INTRA:                  -0.246
REMARK UNBOUND:                -0.246
REMARK SMILES C=C1C(=O)O[C@@H]2[C@H]3O[C@@]3(C)CCC=C(C)CC[C@@H]12
REMARK SMILES IDX 6 1 18 2 2 3 1 4 3 5 4 6 5 7 17 8 16 9 14 10 15 11 13 12
REMARK SMILES IDX 7 14 9 15 8 16 10 17 11 18 12 19
REMARK H PARENT
REMARK Flexibility Score: 70.00
ROOT
ATOM      1  C   UNL     1      12.452  -5.197 -30.704  1.00  0.00     0.216 C 
ATOM      2  C   UNL     1      11.444  -4.512 -31.692  1.00  0.00     0.070 C 
ATOM      3  C   UNL     1      10.349  -4.022 -30.792  1.00  0.00     0.037 C 
ATOM      4  C   UNL     1       9.292  -3.302 -31.167  1.00  0.00     0.021 C 
ATOM      5  C   UNL     1      10.675  -4.403 -29.443  1.00  0.00     0.334 C 
ATOM      6  O   UNL     1       9.978  -4.161 -28.423  1.00  0.00    -0.247 OA
ATOM      7  O   UNL     1      11.877  -5.072 -29.404  1.00  0.00    -0.455 OA
ENDROOT
BRANCH   2   8
ATOM      8  C   UNL     1      10.897  -5.488 -32.777  1.00  0.00     0.017 C 
BRANCH   8   9
ATOM      9  C   UNL     1      11.735  -5.489 -34.077  1.00  0.00     0.031 C 
BRANCH   9  10
ATOM     10  C   UNL     1      12.330  -6.858 -34.379  1.00  0.00    -0.077 C 
ATOM     11  C   UNL     1      11.425  -7.946 -34.901  1.00  0.00     0.039 C 
ATOM     12  C   UNL     1      13.641  -7.152 -34.211  1.00  0.00    -0.028 CG0
ATOM     13  G   UNL     1      14.682  -6.202 -33.671  1.00  0.00     0.000 G0
ENDBRANCH   9  10
ENDBRANCH   8   9
ENDBRANCH   2   8
BRANCH   1  14
ATOM     14  C   UNL     1      13.820  -4.488 -30.707  1.00  0.00     0.192 C 
ATOM     15  C   UNL     1      14.999  -5.083 -31.411  1.00  0.00     0.096 C 
ATOM     16  O   UNL     1      14.796  -5.249 -30.025  1.00  0.00    -0.362 OA
ATOM     17  C   UNL     1      16.188  -4.163 -31.692  1.00  0.00     0.045 C 
BRANCH  15  18
ATOM     18  C   UNL     1      14.914  -6.419 -32.169  1.00  0.00     0.042 C 
BRANCH  18  19
ATOM     19  C   UNL     1      14.682  -6.194 -33.671  1.00  0.00     0.030 CG0
ATOM     20  G   UNL     1      13.652  -7.152 -34.216  1.00  0.00     0.000 G0
ENDBRANCH  18  19
ENDBRANCH  15  18
ENDBRANCH   1  14
TORSDOF 0
ENDMDL
MODEL 2
REMARK VINA RESULT:    -4.819      2.763      4.700
REMARK INTER + INTRA:          -6.756
REMARK INTER:                  -6.543
REMARK INTRA:                  -0.213
REMARK UNBOUND:                -0.246
REMARK SMILES C=C1C(=O)O[C@@H]2[C@H]3O[C@@]3(C)CCC=C(C)CC[C@@H]12
REMARK SMILES IDX 6 1 18 2 2 3 1 4 3 5 4 6 5 7 17 8 16 9 14 10 15 11 13 12
REMARK SMILES IDX 7 14 9 15 8 16 10 17 11 18 12 19
REMARK H PARENT
REMARK Flexibility Score: 70.00
ROOT
ATOM      1  C   UNL     1      13.182  -5.617 -33.814  1.00  0.00     0.216 C 
ATOM      2  C   UNL     1      12.027  -6.675 -33.719  1.00  0.00     0.070 C 
ATOM      3  C   UNL     1      11.704  -6.972 -35.153  1.00  0.00     0.037 C 
ATOM      4  C   UNL     1      10.828  -7.878 -35.586  1.00  0.00     0.021 C 
ATOM      5  C   UNL     1      12.556  -6.160 -35.981  1.00  0.00     0.334 C 
ATOM      6  O   UNL     1      12.560  -6.145 -37.240  1.00  0.00    -0.247 OA
ATOM      7  O   UNL     1      13.396  -5.392 -35.207  1.00  0.00    -0.455 OA
ENDROOT
BRANCH   2   8
ATOM      8  C   UNL     1      10.778  -6.145 -32.951  1.00  0.00     0.017 C 
BRANCH   8   9
ATOM      9  C   UNL     1      11.035  -5.930 -31.441  1.00  0.00     0.031 C 
BRANCH   9  10
ATOM     10  C   UNL     1      11.088  -4.454 -31.070  1.00  0.00    -0.077 C 
ATOM     11  C   UNL     1       9.853  -3.610 -31.265  1.00  0.00     0.039 C 
ATOM     12  C   UNL     1      12.190  -3.855 -30.560  1.00  0.00    -0.028 CG0
ATOM     13  G   UNL     1      13.517  -4.533 -30.327  1.00  0.00     0.000 G0
ENDBRANCH   9  10
ENDBRANCH   8   9
ENDBRANCH   2   8
BRANCH   1  14
ATOM     14  C   UNL     1      14.489  -6.147 -33.194  1.00  0.00     0.192 C 
ATOM     15  C   UNL     1      15.139  -5.447 -32.043  1.00  0.00     0.096 C 
ATOM     16  O   UNL     1      15.551  -5.233 -33.375  1.00  0.00    -0.362 OA
ATOM     17  C   UNL     1      16.193  -6.223 -31.252  1.00  0.00     0.045 C 
BRANCH  15  18
ATOM     18  C   UNL     1      14.544  -4.175 -31.413  1.00  0.00     0.042 C 
BRANCH  18  19
ATOM     19  C   UNL     1      13.528  -4.521 -30.314  1.00  0.00     0.030 CG0
ATOM     20  G   UNL     1      12.200  -3.851 -30.565  1.00  0.00     0.000 G0
ENDBRANCH  18  19
ENDBRANCH  15  18
ENDBRANCH   1  14
TORSDOF 0
ENDMDL
MODEL 3
REMARK VINA RESULT:    -4.721      2.520      4.783
REMARK INTER + INTRA:          -6.623
REMARK INTER:                  -6.354
REMARK INTRA:                  -0.269
REMARK UNBOUND:                -0.246
REMARK SMILES C=C1C(=O)O[C@@H]2[C@H]3O[C@@]3(C)CCC=C(C)CC[C@@H]12
REMARK SMILES IDX 6 1 18 2 2 3 1 4 3 5 4 6 5 7 17 8 16 9 14 10 15 11 13 12
REMARK SMILES IDX 7 14 9 15 8 16 10 17 11 18 12 19
REMARK H PARENT
REMARK Flexibility Score: 70.00
ROOT
ATOM      1  C   UNL     1      12.027  -6.455 -32.897  1.00  0.00     0.216 C 
ATOM      2  C   UNL     1      12.587  -5.610 -34.095  1.00  0.00     0.070 C 
ATOM      3  C   UNL     1      12.068  -6.328 -35.305  1.00  0.00     0.037 C 
ATOM      4  C   UNL     1      12.220  -5.939 -36.570  1.00  0.00     0.021 C 
ATOM      5  C   UNL     1      11.317  -7.472 -34.857  1.00  0.00     0.334 C 
ATOM      6  O   UNL     1      10.739  -8.307 -35.601  1.00  0.00    -0.247 OA
ATOM      7  O   UNL     1      11.299  -7.534 -33.483  1.00  0.00    -0.455 OA
ENDROOT
BRANCH   2   8
ATOM      8  C   UNL     1      14.144  -5.525 -34.105  1.00  0.00     0.017 C 
BRANCH   8   9
ATOM      9  C   UNL     1      14.708  -4.515 -33.079  1.00  0.00     0.031 C 
BRANCH   9  10
ATOM     10  C   UNL     1      15.499  -5.199 -31.972  1.00  0.00    -0.077 C 
ATOM     11  C   UNL     1      16.795  -5.886 -32.321  1.00  0.00     0.039 C 
ATOM     12  C   UNL     1      15.103  -5.216 -30.677  1.00  0.00    -0.028 CG0
ATOM     13  G   UNL     1      13.826  -4.610 -30.151  1.00  0.00     0.000 G0
ENDBRANCH   9  10
ENDBRANCH   8   9
ENDBRANCH   2   8
BRANCH   1  14
ATOM     14  C   UNL     1      11.065  -5.629 -32.022  1.00  0.00     0.192 C 
ATOM     15  C   UNL     1      11.414  -5.274 -30.611  1.00  0.00     0.096 C 
ATOM     16  O   UNL     1      10.599  -6.383 -30.920  1.00  0.00    -0.362 OA
ATOM     17  C   UNL     1      10.608  -4.158 -29.946  1.00  0.00     0.045 C 
BRANCH  15  18
ATOM     18  C   UNL     1      12.742  -5.702 -29.961  1.00  0.00     0.042 C 
BRANCH  18  19
ATOM     19  C   UNL     1      13.819  -4.618 -30.130  1.00  0.00     0.030 CG0
ATOM     20  G   UNL     1      15.102  -5.201 -30.669  1.00  0.00     0.000 G0
ENDBRANCH  18  19
ENDBRANCH  15  18
ENDBRANCH   1  14
TORSDOF 0
ENDMDL
MODEL 4
REMARK VINA RESULT:    -4.562      1.248      1.392
REMARK INTER + INTRA:          -6.408
REMARK INTER:                  -6.144
REMARK INTRA:                  -0.264
REMARK UNBOUND:                -0.246
REMARK SMILES C=C1C(=O)O[C@@H]2[C@H]3O[C@@]3(C)CCC=C(C)CC[C@@H]12
REMARK SMILES IDX 6 1 18 2 2 3 1 4 3 5 4 6 5 7 17 8 16 9 14 10 15 11 13 12
REMARK SMILES IDX 7 14 9 15 8 16 10 17 11 18 12 19
REMARK H PARENT
REMARK Flexibility Score: 70.00
ROOT
ATOM      1  C   UNL     1      12.819  -6.262 -31.614  1.00  0.00     0.216 C 
ATOM      2  C   UNL     1      11.831  -5.295 -32.356  1.00  0.00     0.070 C 
ATOM      3  C   UNL     1      10.882  -4.866 -31.277  1.00  0.00     0.037 C 
ATOM      4  C   UNL     1       9.899  -3.976 -31.408  1.00  0.00     0.021 C 
ATOM      5  C   UNL     1      11.261  -5.531 -30.058  1.00  0.00     0.334 C 
ATOM      6  O   UNL     1      10.684  -5.411 -28.946  1.00  0.00    -0.247 OA
ATOM      7  O   UNL     1      12.368  -6.324 -30.261  1.00  0.00    -0.455 OA
ENDROOT
BRANCH   2   8
ATOM      8  C   UNL     1      11.082  -5.980 -33.538  1.00  0.00     0.017 C 
BRANCH   8   9
ATOM      9  C   UNL     1      11.932  -6.081 -34.826  1.00  0.00     0.031 C 
BRANCH   9  10
ATOM     10  C   UNL     1      12.233  -7.525 -35.206  1.00  0.00    -0.077 C 
ATOM     11  C   UNL     1      11.102  -8.405 -35.674  1.00  0.00     0.039 C 
ATOM     12  C   UNL     1      13.475  -8.063 -35.154  1.00  0.00    -0.028 CG0
ATOM     13  G   UNL     1      14.714  -7.344 -34.682  1.00  0.00     0.000 G0
ENDBRANCH   9  10
ENDBRANCH   8   9
ENDBRANCH   2   8
BRANCH   1  14
ATOM     14  C   UNL     1      14.261  -5.721 -31.628  1.00  0.00     0.192 C 
ATOM     15  C   UNL     1      15.339  -6.412 -32.401  1.00  0.00     0.096 C 
ATOM     16  O   UNL     1      15.157  -6.630 -31.020  1.00  0.00    -0.362 OA
ATOM     17  C   UNL     1      16.622  -5.626 -32.676  1.00  0.00     0.045 C 
BRANCH  15  18
ATOM     18  C   UNL     1      15.073  -7.685 -33.224  1.00  0.00     0.042 C 
BRANCH  18  19
ATOM     19  C   UNL     1      14.733  -7.343 -34.683  1.00  0.00     0.030 CG0
ATOM     20  G   UNL     1      13.487  -8.062 -35.138  1.00  0.00     0.000 G0
ENDBRANCH  18  19
ENDBRANCH  15  18
ENDBRANCH   1  14
TORSDOF 0
ENDMDL
MODEL 5
REMARK VINA RESULT:    -4.483      1.911      3.749
REMARK INTER + INTRA:          -6.301
REMARK INTER:                  -6.069
REMARK INTRA:                  -0.232
REMARK UNBOUND:                -0.246
REMARK SMILES C=C1C(=O)O[C@@H]2[C@H]3O[C@@]3(C)CCC=C(C)CC[C@@H]12
REMARK SMILES IDX 6 1 18 2 2 3 1 4 3 5 4 6 5 7 17 8 16 9 14 10 15 11 13 12
REMARK SMILES IDX 7 14 9 15 8 16 10 17 11 18 12 19
REMARK H PARENT
REMARK Flexibility Score: 70.00
ROOT
ATOM      1  C   UNL     1      11.793  -4.044 -32.427  1.00  0.00     0.216 C 
ATOM      2  C   UNL     1      11.858  -4.757 -31.031  1.00  0.00     0.070 C 
ATOM      3  C   UNL     1      10.643  -4.243 -30.318  1.00  0.00     0.037 C 
ATOM      4  C   UNL     1      10.224  -4.624 -29.111  1.00  0.00     0.021 C 
ATOM      5  C   UNL     1       9.969  -3.319 -31.192  1.00  0.00     0.334 C 
ATOM      6  O   UNL     1       8.912  -2.691 -30.922  1.00  0.00    -0.247 OA
ATOM      7  O   UNL     1      10.633  -3.214 -32.393  1.00  0.00    -0.455 OA
ENDROOT
BRANCH   2   8
ATOM      8  C   UNL     1      13.163  -4.434 -30.243  1.00  0.00     0.017 C 
BRANCH   8   9
ATOM      9  C   UNL     1      14.112  -5.647 -30.105  1.00  0.00     0.031 C 
BRANCH   9  10
ATOM     10  C   UNL     1      15.487  -5.374 -30.701  1.00  0.00    -0.077 C 
ATOM     11  C   UNL     1      16.533  -4.710 -29.841  1.00  0.00     0.039 C 
ATOM     12  C   UNL     1      15.827  -5.706 -31.968  1.00  0.00    -0.028 CG0
ATOM     13  G   UNL     1      14.904  -6.345 -32.976  1.00  0.00     0.000 G0
ENDBRANCH   9  10
ENDBRANCH   8   9
ENDBRANCH   2   8
BRANCH   1  14
ATOM     14  C   UNL     1      11.638  -5.059 -33.576  1.00  0.00     0.192 C 
ATOM     15  C   UNL     1      12.834  -5.632 -34.269  1.00  0.00     0.096 C 
ATOM     16  O   UNL     1      12.123  -4.534 -34.795  1.00  0.00    -0.362 OA
ATOM     17  C   UNL     1      12.622  -6.889 -35.114  1.00  0.00     0.045 C 
BRANCH  15  18
ATOM     18  C   UNL     1      14.272  -5.250 -33.876  1.00  0.00     0.042 C 
BRANCH  18  19
ATOM     19  C   UNL     1      14.915  -6.335 -32.998  1.00  0.00     0.030 CG0
ATOM     20  G   UNL     1      15.843  -5.730 -31.973  1.00  0.00     0.000 G0
ENDBRANCH  18  19
ENDBRANCH  15  18
ENDBRANCH   1  14
TORSDOF 0
ENDMDL
MODEL 6
REMARK VINA RESULT:    -4.387      1.904      4.584
REMARK INTER + INTRA:          -6.172
REMARK INTER:                  -5.909
REMARK INTRA:                  -0.263
REMARK UNBOUND:                -0.246
REMARK SMILES C=C1C(=O)O[C@@H]2[C@H]3O[C@@]3(C)CCC=C(C)CC[C@@H]12
REMARK SMILES IDX 6 1 18 2 2 3 1 4 3 5 4 6 5 7 17 8 16 9 14 10 15 11 13 12
REMARK SMILES IDX 7 14 9 15 8 16 10 17 11 18 12 19
REMARK H PARENT
REMARK Flexibility Score: 70.00
ROOT
ATOM      1  C   UNL     1      14.134  -5.311 -30.792  1.00  0.00     0.216 C 
ATOM      2  C   UNL     1      14.310  -6.777 -31.325  1.00  0.00     0.070 C 
ATOM      3  C   UNL     1      15.776  -7.041 -31.149  1.00  0.00     0.037 C 
ATOM      4  C   UNL     1      16.398  -8.194 -31.395  1.00  0.00     0.021 C 
ATOM      5  C   UNL     1      16.381  -5.855 -30.603  1.00  0.00     0.334 C 
ATOM      6  O   UNL     1      17.602  -5.714 -30.328  1.00  0.00    -0.247 OA
ATOM      7  O   UNL     1      15.436  -4.875 -30.402  1.00  0.00    -0.455 OA
ENDROOT
BRANCH   2   8
ATOM      8  C   UNL     1      13.874  -6.940 -32.813  1.00  0.00     0.017 C 
BRANCH   8   9
ATOM      9  C   UNL     1      12.340  -6.928 -33.006  1.00  0.00     0.031 C 
BRANCH   9  10
ATOM     10  C   UNL     1      11.860  -5.678 -33.732  1.00  0.00    -0.077 C 
ATOM     11  C   UNL     1      12.284  -5.460 -35.163  1.00  0.00     0.039 C 
ATOM     12  C   UNL     1      11.058  -4.748 -33.161  1.00  0.00    -0.028 CG0
ATOM     13  G   UNL     1      10.564  -4.785 -31.736  1.00  0.00     0.000 G0
ENDBRANCH   9  10
ENDBRANCH   8   9
ENDBRANCH   2   8
BRANCH   1  14
ATOM     14  C   UNL     1      13.209  -5.263 -29.561  1.00  0.00     0.192 C 
ATOM     15  C   UNL     1      11.900  -4.540 -29.605  1.00  0.00     0.096 C 
ATOM     16  O   UNL     1      13.064  -3.942 -29.079  1.00  0.00    -0.362 OA
ATOM     17  C   UNL     1      10.888  -4.851 -28.502  1.00  0.00     0.045 C 
BRANCH  15  18
ATOM     18  C   UNL     1      11.403  -3.817 -30.869  1.00  0.00     0.042 C 
BRANCH  18  19
ATOM     19  C   UNL     1      10.556  -4.751 -31.748  1.00  0.00     0.030 CG0
ATOM     20  G   UNL     1      11.043  -4.750 -33.175  1.00  0.00     0.000 G0
ENDBRANCH  18  19
ENDBRANCH  15  18
ENDBRANCH   1  14
TORSDOF 0
ENDMDL
MODEL 7
REMARK VINA RESULT:    -4.375      2.184      2.932
REMARK INTER + INTRA:          -6.155
REMARK INTER:                  -5.915
REMARK INTRA:                  -0.240
REMARK UNBOUND:                -0.246
REMARK SMILES C=C1C(=O)O[C@@H]2[C@H]3O[C@@]3(C)CCC=C(C)CC[C@@H]12
REMARK SMILES IDX 6 1 18 2 2 3 1 4 3 5 4 6 5 7 17 8 16 9 14 10 15 11 13 12
REMARK SMILES IDX 7 14 9 15 8 16 10 17 11 18 12 19
REMARK H PARENT
REMARK Flexibility Score: 70.00
ROOT
ATOM      1  C   UNL     1      13.939  -5.566 -33.307  1.00  0.00     0.216 C 
ATOM      2  C   UNL     1      12.992  -4.534 -34.015  1.00  0.00     0.070 C 
ATOM      3  C   UNL     1      12.448  -3.720 -32.878  1.00  0.00     0.037 C 
ATOM      4  C   UNL     1      11.648  -2.660 -32.988  1.00  0.00     0.021 C 
ATOM      5  C   UNL     1      12.997  -4.240 -31.654  1.00  0.00     0.334 C 
ATOM      6  O   UNL     1      12.758  -3.802 -30.498  1.00  0.00    -0.247 OA
ATOM      7  O   UNL     1      13.848  -5.291 -31.910  1.00  0.00    -0.455 OA
ENDROOT
BRANCH   2   8
ATOM      8  C   UNL     1      11.850  -5.215 -34.828  1.00  0.00     0.017 C 
BRANCH   8   9
ATOM      9  C   UNL     1      12.352  -5.939 -36.100  1.00  0.00     0.031 C 
BRANCH   9  10
ATOM     10  C   UNL     1      12.263  -7.454 -35.973  1.00  0.00    -0.077 C 
ATOM     11  C   UNL     1      10.906  -8.093 -35.812  1.00  0.00     0.039 C 
ATOM     12  C   UNL     1      13.345  -8.267 -36.007  1.00  0.00    -0.028 CG0
ATOM     13  G   UNL     1      14.775  -7.804 -36.130  1.00  0.00     0.000 G0
ENDBRANCH   9  10
ENDBRANCH   8   9
ENDBRANCH   2   8
BRANCH   1  14
ATOM     14  C   UNL     1      15.405  -5.386 -33.749  1.00  0.00     0.192 C 
ATOM     15  C   UNL     1      16.144  -6.486 -34.442  1.00  0.00     0.096 C 
ATOM     16  O   UNL     1      16.263  -6.268 -33.054  1.00  0.00    -0.362 OA
ATOM     17  C   UNL     1      17.433  -6.115 -35.176  1.00  0.00     0.045 C 
BRANCH  15  18
ATOM     18  C   UNL     1      15.491  -7.844 -34.757  1.00  0.00     0.042 C 
BRANCH  18  19
ATOM     19  C   UNL     1      14.793  -7.822 -36.126  1.00  0.00     0.030 CG0
ATOM     20  G   UNL     1      13.352  -8.252 -36.013  1.00  0.00     0.000 G0
ENDBRANCH  18  19
ENDBRANCH  15  18
ENDBRANCH   1  14
TORSDOF 0
ENDMDL
MODEL 8
REMARK VINA RESULT:    -4.233      2.580      4.283
REMARK INTER + INTRA:          -5.964
REMARK INTER:                  -5.722
REMARK INTRA:                  -0.241
REMARK UNBOUND:                -0.246
REMARK SMILES C=C1C(=O)O[C@@H]2[C@H]3O[C@@]3(C)CCC=C(C)CC[C@@H]12
REMARK SMILES IDX 6 1 18 2 2 3 1 4 3 5 4 6 5 7 17 8 16 9 14 10 15 11 13 12
REMARK SMILES IDX 7 14 9 15 8 16 10 17 11 18 12 19
REMARK H PARENT
REMARK Flexibility Score: 70.00
ROOT
ATOM      1  C   UNL     1      12.697  -5.825 -33.826  1.00  0.00     0.216 C 
ATOM      2  C   UNL     1      12.606  -6.815 -32.612  1.00  0.00     0.070 C 
ATOM      3  C   UNL     1      11.524  -6.225 -31.758  1.00  0.00     0.037 C 
ATOM      4  C   UNL     1      11.031  -6.758 -30.641  1.00  0.00     0.021 C 
ATOM      5  C   UNL     1      11.062  -5.019 -32.392  1.00  0.00     0.334 C 
ATOM      6  O   UNL     1      10.159  -4.258 -31.954  1.00  0.00    -0.247 OA
ATOM      7  O   UNL     1      11.736  -4.800 -33.572  1.00  0.00    -0.455 OA
ENDROOT
BRANCH   2   8
ATOM      8  C   UNL     1      13.947  -6.942 -31.829  1.00  0.00     0.017 C 
BRANCH   8   9
ATOM      9  C   UNL     1      14.996  -7.822 -32.548  1.00  0.00     0.031 C 
BRANCH   9  10
ATOM     10  C   UNL     1      16.204  -7.018 -33.011  1.00  0.00    -0.077 C 
ATOM     11  C   UNL     1      17.111  -6.405 -31.973  1.00  0.00     0.039 C 
ATOM     12  C   UNL     1      16.516  -6.831 -34.315  1.00  0.00    -0.028 CG0
ATOM     13  G   UNL     1      15.710  -7.341 -35.483  1.00  0.00     0.000 G0
ENDBRANCH   9  10
ENDBRANCH   8   9
ENDBRANCH   2   8
BRANCH   1  14
ATOM     14  C   UNL     1      12.336  -6.520 -35.153  1.00  0.00     0.192 C 
ATOM     15  C   UNL     1      13.356  -6.710 -36.230  1.00  0.00     0.096 C 
ATOM     16  O   UNL     1      12.449  -5.631 -36.246  1.00  0.00    -0.362 OA
ATOM     17  C   UNL     1      13.037  -7.722 -37.331  1.00  0.00     0.045 C 
BRANCH  15  18
ATOM     18  C   UNL     1      14.812  -6.235 -36.075  1.00  0.00     0.042 C 
BRANCH  18  19
ATOM     19  C   UNL     1      15.700  -7.343 -35.489  1.00  0.00     0.030 CG0
ATOM     20  G   UNL     1      16.516  -6.833 -34.327  1.00  0.00     0.000 G0
ENDBRANCH  18  19
ENDBRANCH  15  18
ENDBRANCH   1  14
TORSDOF 0
ENDMDL
MODEL 9
REMARK VINA RESULT:    -4.189      2.622      5.156
REMARK INTER + INTRA:          -5.904
REMARK INTER:                  -5.690
REMARK INTRA:                  -0.214
REMARK UNBOUND:                -0.246
REMARK SMILES C=C1C(=O)O[C@@H]2[C@H]3O[C@@]3(C)CCC=C(C)CC[C@@H]12
REMARK SMILES IDX 6 1 18 2 2 3 1 4 3 5 4 6 5 7 17 8 16 9 14 10 15 11 13 12
REMARK SMILES IDX 7 14 9 15 8 16 10 17 11 18 12 19
REMARK H PARENT
REMARK Flexibility Score: 70.00
ROOT
ATOM      1  C   UNL     1      14.117  -6.671 -31.728  1.00  0.00     0.216 C 
ATOM      2  C   UNL     1      14.449  -5.350 -30.949  1.00  0.00     0.070 C 
ATOM      3  C   UNL     1      15.836  -5.589 -30.429  1.00  0.00     0.037 C 
ATOM      4  C   UNL     1      16.582  -4.710 -29.761  1.00  0.00     0.021 C 
ATOM      5  C   UNL     1      16.246  -6.906 -30.837  1.00  0.00     0.334 C 
ATOM      6  O   UNL     1      17.353  -7.445 -30.575  1.00  0.00    -0.247 OA
ATOM      7  O   UNL     1      15.259  -7.515 -31.579  1.00  0.00    -0.455 OA
ENDROOT
BRANCH   2   8
ATOM      8  C   UNL     1      13.447  -5.058 -29.792  1.00  0.00     0.017 C 
BRANCH   8   9
ATOM      9  C   UNL     1      12.558  -3.819 -30.050  1.00  0.00     0.031 C 
BRANCH   9  10
ATOM     10  C   UNL     1      11.074  -4.159 -30.022  1.00  0.00    -0.077 C 
ATOM     11  C   UNL     1      10.347  -4.132 -28.701  1.00  0.00     0.039 C 
ATOM     12  C   UNL     1      10.363  -4.477 -31.129  1.00  0.00    -0.028 CG0
ATOM     13  G   UNL     1      10.929  -4.583 -32.524  1.00  0.00     0.000 G0
ENDBRANCH   9  10
ENDBRANCH   8   9
ENDBRANCH   2   8
BRANCH   1  14
ATOM     14  C   UNL     1      13.895  -6.404 -33.229  1.00  0.00     0.192 C 
ATOM     15  C   UNL     1      12.533  -6.103 -33.768  1.00  0.00     0.096 C 
ATOM     16  O   UNL     1      13.082  -7.401 -33.814  1.00  0.00    -0.362 OA
ATOM     17  C   UNL     1      12.449  -5.485 -35.165  1.00  0.00     0.045 C 
BRANCH  15  18
ATOM     18  C   UNL     1      11.288  -6.038 -32.866  1.00  0.00     0.042 C 
BRANCH  18  19
ATOM     19  C   UNL     1      10.920  -4.584 -32.529  1.00  0.00     0.030 CG0
ATOM     20  G   UNL     1      10.375  -4.468 -31.127  1.00  0.00     0.000 G0
ENDBRANCH  18  19
ENDBRANCH  15  18
ENDBRANCH   1  14
TORSDOF 0
ENDMDL
