MODEL 1
REMARK VINA RESULT:    -4.124      0.000      0.000
REMARK INTER + INTRA:          -4.245
REMARK INTER:                  -4.245
REMARK INTRA:                   0.000
REMARK UNBOUND:                 0.000
REMARK SMILES CC1(C)[C@H]2CC[C@](C)(C2)[C@@H]1O
REMARK SMILES IDX 1 1 2 2 4 3 5 4 6 5 7 6 9 7 10 8 8 9 3 10 11 11
REMARK H PARENT 11 12
REMARK Flexibility Score: inf
ROOT
ATOM      1  C   UNL     1     168.358 164.724 169.481  1.00  0.00     0.014 C 
ATOM      2  C   UNL     1     168.125 166.072 168.750  1.00  0.00    -0.006 C 
ATOM      3  C   UNL     1     167.834 167.199 169.798  1.00  0.00    -0.002 C 
ATOM      4  C   UNL     1     167.884 168.597 169.147  1.00  0.00     0.005 C 
ATOM      5  C   UNL     1     166.653 168.588 168.228  1.00  0.00     0.010 C 
ATOM      6  C   UNL     1     165.992 167.228 168.555  1.00  0.00    -0.006 C 
ATOM      7  C   UNL     1     166.338 167.063 170.019  1.00  0.00     0.013 C 
ATOM      8  C   UNL     1     166.817 166.094 167.886  1.00  0.00     0.126 C 
ATOM      9  C   UNL     1     164.487 167.203 168.260  1.00  0.00     0.014 C 
ATOM     10  C   UNL     1     169.377 166.345 167.880  1.00  0.00     0.014 C 
ENDROOT
BRANCH   8  11
ATOM     11  O   UNL     1     166.134 164.864 167.950  1.00  0.00    -0.392 OA
ATOM     12  H   UNL     1     166.679 164.259 168.518  1.00  0.00     0.211 HD
ENDBRANCH   8  11
TORSDOF 1
ENDMDL
MODEL 2
REMARK VINA RESULT:    -4.120      2.452      4.261
REMARK INTER + INTRA:          -4.240
REMARK INTER:                  -4.240
REMARK INTRA:                   0.000
REMARK UNBOUND:                 0.000
REMARK SMILES CC1(C)[C@H]2CC[C@](C)(C2)[C@@H]1O
REMARK SMILES IDX 1 1 2 2 4 3 5 4 6 5 7 6 9 7 10 8 8 9 3 10 11 11
REMARK H PARENT 11 12
REMARK Flexibility Score: inf
ROOT
ATOM      1  C   UNL     1     166.873 170.626 169.565  1.00  0.00     0.014 C 
ATOM      2  C   UNL     1     167.231 169.300 168.845  1.00  0.00    -0.006 C 
ATOM      3  C   UNL     1     167.492 168.176 169.905  1.00  0.00    -0.002 C 
ATOM      4  C   UNL     1     167.564 166.784 169.241  1.00  0.00     0.005 C 
ATOM      5  C   UNL     1     168.863 166.864 168.424  1.00  0.00     0.010 C 
ATOM      6  C   UNL     1     169.427 168.251 168.814  1.00  0.00    -0.006 C 
ATOM      7  C   UNL     1     168.957 168.382 170.246  1.00  0.00     0.013 C 
ATOM      8  C   UNL     1     168.603 169.351 168.089  1.00  0.00     0.126 C 
ATOM      9  C   UNL     1     170.948 168.353 168.641  1.00  0.00     0.014 C 
ATOM     10  C   UNL     1     166.068 168.976 167.875  1.00  0.00     0.014 C 
ENDROOT
BRANCH   8  11
ATOM     11  O   UNL     1     169.217 170.612 168.217  1.00  0.00    -0.392 OA
ATOM     12  H   UNL     1     169.398 170.942 167.298  1.00  0.00     0.211 HD
ENDBRANCH   8  11
TORSDOF 1
ENDMDL
MODEL 3
REMARK VINA RESULT:    -4.107      1.855      2.917
REMARK INTER + INTRA:          -4.227
REMARK INTER:                  -4.227
REMARK INTRA:                   0.000
REMARK UNBOUND:                 0.000
REMARK SMILES CC1(C)[C@H]2CC[C@](C)(C2)[C@@H]1O
REMARK SMILES IDX 1 1 2 2 4 3 5 4 6 5 7 6 9 7 10 8 8 9 3 10 11 11
REMARK H PARENT 11 12
REMARK Flexibility Score: inf
ROOT
ATOM      1  C   UNL     1     164.854 166.895 169.379  1.00  0.00     0.014 C 
ATOM      2  C   UNL     1     166.236 167.186 168.737  1.00  0.00    -0.006 C 
ATOM      3  C   UNL     1     167.282 167.509 169.857  1.00  0.00    -0.002 C 
ATOM      4  C   UNL     1     168.720 167.518 169.297  1.00  0.00     0.005 C 
ATOM      5  C   UNL     1     168.722 168.756 168.387  1.00  0.00     0.010 C 
ATOM      6  C   UNL     1     167.320 169.362 168.631  1.00  0.00    -0.006 C 
ATOM      7  C   UNL     1     167.076 168.997 170.079  1.00  0.00     0.013 C 
ATOM      8  C   UNL     1     166.263 168.501 167.885  1.00  0.00     0.126 C 
ATOM      9  C   UNL     1     167.257 170.868 168.345  1.00  0.00     0.014 C 
ATOM     10  C   UNL     1     166.612 165.953 167.878  1.00  0.00     0.014 C 
ENDROOT
BRANCH   8  11
ATOM     11  O   UNL     1     165.006 169.137 167.875  1.00  0.00    -0.392 OA
ATOM     12  H   UNL     1     164.850 169.456 166.948  1.00  0.00     0.211 HD
ENDBRANCH   8  11
TORSDOF 1
ENDMDL
MODEL 4
REMARK VINA RESULT:    -4.091      1.811      3.077
REMARK INTER + INTRA:          -4.211
REMARK INTER:                  -4.211
REMARK INTRA:                   0.000
REMARK UNBOUND:                 0.000
REMARK SMILES CC1(C)[C@H]2CC[C@](C)(C2)[C@@H]1O
REMARK SMILES IDX 1 1 2 2 4 3 5 4 6 5 7 6 9 7 10 8 8 9 3 10 11 11
REMARK H PARENT 11 12
REMARK Flexibility Score: inf
ROOT
ATOM      1  C   UNL     1     170.425 168.285 169.422  1.00  0.00     0.014 C 
ATOM      2  C   UNL     1     169.083 167.822 168.799  1.00  0.00    -0.006 C 
ATOM      3  C   UNL     1     168.071 167.453 169.937  1.00  0.00    -0.002 C 
ATOM      4  C   UNL     1     166.644 167.268 169.380  1.00  0.00     0.005 C 
ATOM      5  C   UNL     1     166.771 165.990 168.536  1.00  0.00     0.010 C 
ATOM      6  C   UNL     1     168.226 165.544 168.809  1.00  0.00    -0.006 C 
ATOM      7  C   UNL     1     168.428 166.007 170.235  1.00  0.00     0.013 C 
ATOM      8  C   UNL     1     169.193 166.469 168.017  1.00  0.00     0.126 C 
ATOM      9  C   UNL     1     168.445 164.039 168.601  1.00  0.00     0.014 C 
ATOM     10  C   UNL     1     168.586 168.964 167.878  1.00  0.00     0.014 C 
ENDROOT
BRANCH   8  11
ATOM     11  O   UNL     1     170.508 165.965 168.037  1.00  0.00    -0.392 OA
ATOM     12  H   UNL     1     170.954 166.284 167.210  1.00  0.00     0.211 HD
ENDBRANCH   8  11
TORSDOF 1
ENDMDL
MODEL 5
REMARK VINA RESULT:    -3.923      1.038      3.259
REMARK INTER + INTRA:          -4.038
REMARK INTER:                  -4.038
REMARK INTRA:                   0.000
REMARK UNBOUND:                 0.000
REMARK SMILES CC1(C)[C@H]2CC[C@](C)(C2)[C@@H]1O
REMARK SMILES IDX 1 1 2 2 4 3 5 4 6 5 7 6 9 7 10 8 8 9 3 10 11 11
REMARK H PARENT 11 12
REMARK Flexibility Score: inf
ROOT
ATOM      1  C   UNL     1     166.219 167.701 167.888  1.00  0.00     0.014 C 
ATOM      2  C   UNL     1     166.784 166.985 169.142  1.00  0.00    -0.006 C 
ATOM      3  C   UNL     1     168.336 167.189 169.213  1.00  0.00    -0.002 C 
ATOM      4  C   UNL     1     168.898 166.748 170.581  1.00  0.00     0.005 C 
ATOM      5  C   UNL     1     168.702 165.224 170.555  1.00  0.00     0.010 C 
ATOM      6  C   UNL     1     168.157 164.975 169.129  1.00  0.00    -0.006 C 
ATOM      7  C   UNL     1     168.855 166.060 168.339  1.00  0.00     0.013 C 
ATOM      8  C   UNL     1     166.670 165.423 169.073  1.00  0.00     0.126 C 
ATOM      9  C   UNL     1     168.431 163.554 168.619  1.00  0.00     0.014 C 
ATOM     10  C   UNL     1     166.030 167.549 170.371  1.00  0.00     0.014 C 
ENDROOT
BRANCH   8  11
ATOM     11  O   UNL     1     166.057 165.002 167.876  1.00  0.00    -0.392 OA
ATOM     12  H   UNL     1     165.306 164.404 168.130  1.00  0.00     0.211 HD
ENDBRANCH   8  11
TORSDOF 1
ENDMDL
MODEL 6
REMARK VINA RESULT:    -3.843      2.071      3.717
REMARK INTER + INTRA:          -3.955
REMARK INTER:                  -3.955
REMARK INTRA:                   0.000
REMARK UNBOUND:                 0.000
REMARK SMILES CC1(C)[C@H]2CC[C@](C)(C2)[C@@H]1O
REMARK SMILES IDX 1 1 2 2 4 3 5 4 6 5 7 6 9 7 10 8 8 9 3 10 11 11
REMARK H PARENT 11 12
REMARK Flexibility Score: inf
ROOT
ATOM      1  C   UNL     1     166.916 171.274 168.709  1.00  0.00     0.014 C 
ATOM      2  C   UNL     1     166.965 169.984 169.568  1.00  0.00    -0.006 C 
ATOM      3  C   UNL     1     168.268 169.179 169.240  1.00  0.00    -0.002 C 
ATOM      4  C   UNL     1     168.504 168.050 170.266  1.00  0.00     0.005 C 
ATOM      5  C   UNL     1     167.354 167.075 169.970  1.00  0.00     0.010 C 
ATOM      6  C   UNL     1     166.674 167.715 168.737  1.00  0.00    -0.006 C 
ATOM      7  C   UNL     1     167.850 168.356 168.034  1.00  0.00     0.013 C 
ATOM      8  C   UNL     1     165.848 168.948 169.201  1.00  0.00     0.126 C 
ATOM      9  C   UNL     1     165.907 166.701 167.878  1.00  0.00     0.014 C 
ATOM     10  C   UNL     1     166.863 170.416 171.052  1.00  0.00     0.014 C 
ENDROOT
BRANCH   8  11
ATOM     11  O   UNL     1     165.022 169.424 168.165  1.00  0.00    -0.392 OA
ATOM     12  H   UNL     1     165.604 169.573 167.374  1.00  0.00     0.211 HD
ENDBRANCH   8  11
TORSDOF 1
ENDMDL
MODEL 7
REMARK VINA RESULT:    -3.694      1.738      3.243
REMARK INTER + INTRA:          -3.802
REMARK INTER:                  -3.802
REMARK INTRA:                   0.000
REMARK UNBOUND:                 0.000
REMARK SMILES CC1(C)[C@H]2CC[C@](C)(C2)[C@@H]1O
REMARK SMILES IDX 1 1 2 2 4 3 5 4 6 5 7 6 9 7 10 8 8 9 3 10 11 11
REMARK H PARENT 11 12
REMARK Flexibility Score: inf
ROOT
ATOM      1  C   UNL     1     166.764 165.642 168.432  1.00  0.00     0.014 C 
ATOM      2  C   UNL     1     167.632 166.533 169.358  1.00  0.00    -0.006 C 
ATOM      3  C   UNL     1     167.395 168.043 169.013  1.00  0.00    -0.002 C 
ATOM      4  C   UNL     1     168.007 168.967 170.087  1.00  0.00     0.005 C 
ATOM      5  C   UNL     1     169.517 168.752 169.900  1.00  0.00     0.010 C 
ATOM      6  C   UNL     1     169.580 167.820 168.667  1.00  0.00    -0.006 C 
ATOM      7  C   UNL     1     168.374 168.276 167.875  1.00  0.00     0.013 C 
ATOM      8  C   UNL     1     169.171 166.384 169.101  1.00  0.00     0.126 C 
ATOM      9  C   UNL     1     170.906 167.919 167.903  1.00  0.00     0.014 C 
ATOM     10  C   UNL     1     167.269 166.169 170.818  1.00  0.00     0.014 C 
ENDROOT
BRANCH   8  11
ATOM     11  O   UNL     1     169.438 165.451 168.081  1.00  0.00    -0.392 OA
ATOM     12  H   UNL     1     169.803 165.959 167.310  1.00  0.00     0.211 HD
ENDBRANCH   8  11
TORSDOF 1
ENDMDL
MODEL 8
REMARK VINA RESULT:    -3.691      1.163      1.294
REMARK INTER + INTRA:          -3.799
REMARK INTER:                  -3.799
REMARK INTRA:                   0.000
REMARK UNBOUND:                 0.000
REMARK SMILES CC1(C)[C@H]2CC[C@](C)(C2)[C@@H]1O
REMARK SMILES IDX 1 1 2 2 4 3 5 4 6 5 7 6 9 7 10 8 8 9 3 10 11 11
REMARK H PARENT 11 12
REMARK Flexibility Score: inf
ROOT
ATOM      1  C   UNL     1     168.477 165.427 169.660  1.00  0.00     0.014 C 
ATOM      2  C   UNL     1     168.645 166.683 168.766  1.00  0.00    -0.006 C 
ATOM      3  C   UNL     1     168.720 167.965 169.664  1.00  0.00    -0.002 C 
ATOM      4  C   UNL     1     169.175 169.195 168.850  1.00  0.00     0.005 C 
ATOM      5  C   UNL     1     167.984 169.441 167.911  1.00  0.00     0.010 C 
ATOM      6  C   UNL     1     166.952 168.390 168.386  1.00  0.00    -0.006 C 
ATOM      7  C   UNL     1     167.255 168.309 169.866  1.00  0.00     0.013 C 
ATOM      8  C   UNL     1     167.391 166.988 167.877  1.00  0.00     0.126 C 
ATOM      9  C   UNL     1     165.504 168.779 168.062  1.00  0.00     0.014 C 
ATOM     10  C   UNL     1     169.909 166.463 167.898  1.00  0.00     0.014 C 
ENDROOT
BRANCH   8  11
ATOM     11  O   UNL     1     166.373 166.035 168.074  1.00  0.00    -0.392 OA
ATOM     12  H   UNL     1     166.548 165.602 168.950  1.00  0.00     0.211 HD
ENDBRANCH   8  11
TORSDOF 1
ENDMDL
MODEL 9
REMARK VINA RESULT:    -3.672      1.916      3.648
REMARK INTER + INTRA:          -3.780
REMARK INTER:                  -3.780
REMARK INTRA:                   0.000
REMARK UNBOUND:                 0.000
REMARK SMILES CC1(C)[C@H]2CC[C@](C)(C2)[C@@H]1O
REMARK SMILES IDX 1 1 2 2 4 3 5 4 6 5 7 6 9 7 10 8 8 9 3 10 11 11
REMARK H PARENT 11 12
REMARK Flexibility Score: inf
ROOT
ATOM      1  C   UNL     1     167.068 169.627 169.798  1.00  0.00     0.014 C 
ATOM      2  C   UNL     1     166.895 168.428 168.830  1.00  0.00    -0.006 C 
ATOM      3  C   UNL     1     166.690 167.110 169.651  1.00  0.00    -0.002 C 
ATOM      4  C   UNL     1     166.229 165.950 168.744  1.00  0.00     0.005 C 
ATOM      5  C   UNL     1     167.468 165.683 167.875  1.00  0.00     0.010 C 
ATOM      6  C   UNL     1     168.518 166.649 168.473  1.00  0.00    -0.006 C 
ATOM      7  C   UNL     1     168.117 166.674 169.932  1.00  0.00     0.013 C 
ATOM      8  C   UNL     1     168.190 168.097 168.011  1.00  0.00     0.126 C 
ATOM      9  C   UNL     1     169.963 166.196 168.227  1.00  0.00     0.014 C 
ATOM     10  C   UNL     1     165.709 168.762 167.892  1.00  0.00     0.014 C 
ENDROOT
BRANCH   8  11
ATOM     11  O   UNL     1     169.241 168.980 168.326  1.00  0.00    -0.392 OA
ATOM     12  H   UNL     1     168.839 169.750 168.808  1.00  0.00     0.211 HD
ENDBRANCH   8  11
TORSDOF 1
ENDMDL
