MODEL 1
REMARK VINA RESULT:    -3.436      0.000      0.000
REMARK INTER + INTRA:          -4.173
REMARK INTER:                  -4.138
REMARK INTRA:                  -0.034
REMARK UNBOUND:                -0.034
REMARK SMILES CC[C@H](C)[C@H]([NH3+])C(=O)[O-]
REMARK SMILES IDX 3 1 4 2 5 3 6 4 7 8 8 9 9 10 2 11 1 12
REMARK H PARENT 6 5 6 6 6 7
REMARK Flexibility Score: inf
ROOT
ATOM      1  C   UNL     1       2.028   2.252 -39.858  1.00  0.00     0.050 C 
ATOM      2  C   UNL     1       1.241   2.350 -41.178  1.00  0.00     0.014 C 
ENDROOT
BRANCH   1   3
ATOM      3  C   UNL     1       1.165   1.591 -38.738  1.00  0.00     0.230 C 
BRANCH   3   4
ATOM      4  N   UNL     1       0.675   2.562 -37.746  1.00  0.00    -0.350 N 
ATOM      5  H   UNL     1       0.610   2.118 -36.803  1.00  0.00     0.345 HD
ATOM      6  H   UNL     1      -0.261   2.943 -38.015  1.00  0.00     0.345 HD
ATOM      7  H   UNL     1       1.349   3.358 -37.675  1.00  0.00     0.345 HD
ENDBRANCH   3   4
BRANCH   3   8
ATOM      8  C   UNL     1       1.914   0.463 -38.072  1.00  0.00     0.099 C 
ATOM      9  O   UNL     1       2.648   0.675 -37.069  1.00  0.00    -0.544 OA
ATOM     10  O   UNL     1       1.831  -0.820 -38.596  1.00  0.00    -0.544 OA
ENDBRANCH   3   8
ENDBRANCH   1   3
BRANCH   1  11
ATOM     11  C   UNL     1       2.601   3.632 -39.443  1.00  0.00     0.006 C 
ATOM     12  C   UNL     1       3.853   3.514 -38.573  1.00  0.00     0.004 C 
ENDBRANCH   1  11
TORSDOF 4
ENDMDL
MODEL 2
REMARK VINA RESULT:    -3.359      2.252      3.495
REMARK INTER + INTRA:          -4.081
REMARK INTER:                  -3.992
REMARK INTRA:                  -0.089
REMARK UNBOUND:                -0.034
REMARK SMILES CC[C@H](C)[C@H]([NH3+])C(=O)[O-]
REMARK SMILES IDX 3 1 4 2 5 3 6 4 7 8 8 9 9 10 2 11 1 12
REMARK H PARENT 6 5 6 6 6 7
REMARK Flexibility Score: inf
ROOT
ATOM      1  C   UNL     1       1.161   1.899 -38.145  1.00  0.00     0.050 C 
ATOM      2  C   UNL     1      -0.305   2.315 -37.924  1.00  0.00     0.014 C 
ENDROOT
BRANCH   1   3
ATOM      3  C   UNL     1       1.771   2.630 -39.382  1.00  0.00     0.230 C 
BRANCH   3   4
ATOM      4  N   UNL     1       1.923   1.748 -40.550  1.00  0.00    -0.350 N 
ATOM      5  H   UNL     1       1.709   2.267 -41.430  1.00  0.00     0.345 HD
ATOM      6  H   UNL     1       1.300   0.912 -40.481  1.00  0.00     0.345 HD
ATOM      7  H   UNL     1       2.914   1.419 -40.610  1.00  0.00     0.345 HD
ENDBRANCH   3   4
BRANCH   3   8
ATOM      8  C   UNL     1       3.078   3.296 -39.027  1.00  0.00     0.099 C 
ATOM      9  O   UNL     1       4.176   2.704 -39.206  1.00  0.00    -0.544 OA
ATOM     10  O   UNL     1       3.072   4.561 -38.455  1.00  0.00    -0.544 OA
ENDBRANCH   3   8
ENDBRANCH   1   3
BRANCH   1  11
ATOM     11  C   UNL     1       1.301   0.357 -38.226  1.00  0.00     0.006 C 
ATOM     12  C   UNL     1       2.664  -0.138 -37.740  1.00  0.00     0.004 C 
ENDBRANCH   1  11
TORSDOF 4
ENDMDL
MODEL 3
REMARK VINA RESULT:    -3.272      2.354      3.573
REMARK INTER + INTRA:          -3.976
REMARK INTER:                  -4.099
REMARK INTRA:                   0.123
REMARK UNBOUND:                -0.034
REMARK SMILES CC[C@H](C)[C@H]([NH3+])C(=O)[O-]
REMARK SMILES IDX 3 1 4 2 5 3 6 4 7 8 8 9 9 10 2 11 1 12
REMARK H PARENT 6 5 6 6 6 7
REMARK Flexibility Score: inf
ROOT
ATOM      1  C   UNL     1       1.164   1.457 -38.509  1.00  0.00     0.050 C 
ATOM      2  C   UNL     1       2.265   0.553 -37.923  1.00  0.00     0.014 C 
ENDROOT
BRANCH   1   3
ATOM      3  C   UNL     1       1.720   2.334 -39.674  1.00  0.00     0.230 C 
BRANCH   3   4
ATOM      4  N   UNL     1       1.975   1.561 -40.901  1.00  0.00    -0.350 N 
ATOM      5  H   UNL     1       1.791   0.546 -40.737  1.00  0.00     0.345 HD
ATOM      6  H   UNL     1       2.958   1.685 -41.233  1.00  0.00     0.345 HD
ATOM      7  H   UNL     1       1.326   1.882 -41.656  1.00  0.00     0.345 HD
ENDBRANCH   3   4
BRANCH   3   8
ATOM      8  C   UNL     1       2.951   3.092 -39.242  1.00  0.00     0.099 C 
ATOM      9  O   UNL     1       4.103   2.606 -39.407  1.00  0.00    -0.544 OA
ATOM     10  O   UNL     1       2.815   4.322 -38.614  1.00  0.00    -0.544 OA
ENDBRANCH   3   8
ENDBRANCH   1   3
BRANCH   1  11
ATOM     11  C   UNL     1       0.476   2.294 -37.400  1.00  0.00     0.006 C 
ATOM     12  C   UNL     1      -0.915   2.781 -37.805  1.00  0.00     0.004 C 
ENDBRANCH   1  11
TORSDOF 4
ENDMDL
MODEL 4
REMARK VINA RESULT:    -3.255      0.637      2.035
REMARK INTER + INTRA:          -3.955
REMARK INTER:                  -4.070
REMARK INTRA:                   0.115
REMARK UNBOUND:                -0.034
REMARK SMILES CC[C@H](C)[C@H]([NH3+])C(=O)[O-]
REMARK SMILES IDX 3 1 4 2 5 3 6 4 7 8 8 9 9 10 2 11 1 12
REMARK H PARENT 6 5 6 6 6 7
REMARK Flexibility Score: inf
ROOT
ATOM      1  C   UNL     1       1.897   2.700 -39.534  1.00  0.00     0.050 C 
ATOM      2  C   UNL     1       3.288   3.046 -38.971  1.00  0.00     0.014 C 
ENDROOT
BRANCH   1   3
ATOM      3  C   UNL     1       1.034   1.948 -38.473  1.00  0.00     0.230 C 
BRANCH   3   4
ATOM      4  N   UNL     1       0.492   2.842 -37.438  1.00  0.00    -0.350 N 
ATOM      5  H   UNL     1       0.282   2.306 -36.567  1.00  0.00     0.345 HD
ATOM      6  H   UNL     1      -0.376   3.325 -37.765  1.00  0.00     0.345 HD
ATOM      7  H   UNL     1       1.205   3.569 -37.198  1.00  0.00     0.345 HD
ENDBRANCH   3   4
BRANCH   3   8
ATOM      8  C   UNL     1       1.806   0.806 -37.858  1.00  0.00     0.099 C 
ATOM      9  O   UNL     1       2.411   0.950 -36.762  1.00  0.00    -0.544 OA
ATOM     10  O   UNL     1       1.890  -0.407 -38.528  1.00  0.00    -0.544 OA
ENDBRANCH   3   8
ENDBRANCH   1   3
BRANCH   1  11
ATOM     11  C   UNL     1       2.009   1.931 -40.876  1.00  0.00     0.006 C 
ATOM     12  C   UNL     1       0.879   2.273 -41.848  1.00  0.00     0.004 C 
ENDBRANCH   1  11
TORSDOF 4
ENDMDL
MODEL 5
REMARK VINA RESULT:    -3.239      1.924      2.962
REMARK INTER + INTRA:          -3.936
REMARK INTER:                  -4.134
REMARK INTRA:                   0.198
REMARK UNBOUND:                -0.034
REMARK SMILES CC[C@H](C)[C@H]([NH3+])C(=O)[O-]
REMARK SMILES IDX 3 1 4 2 5 3 6 4 7 8 8 9 9 10 2 11 1 12
REMARK H PARENT 6 5 6 6 6 7
REMARK Flexibility Score: inf
ROOT
ATOM      1  C   UNL     1       1.280   1.380 -39.178  1.00  0.00     0.050 C 
ATOM      2  C   UNL     1       1.661   1.917 -40.570  1.00  0.00     0.014 C 
ENDROOT
BRANCH   1   3
ATOM      3  C   UNL     1       1.595   2.428 -38.066  1.00  0.00     0.230 C 
BRANCH   3   4
ATOM      4  N   UNL     1       0.401   3.161 -37.615  1.00  0.00    -0.350 N 
ATOM      5  H   UNL     1      -0.001   3.721 -38.400  1.00  0.00     0.345 HD
ATOM      6  H   UNL     1       0.622   3.796 -36.814  1.00  0.00     0.345 HD
ATOM      7  H   UNL     1      -0.330   2.479 -37.307  1.00  0.00     0.345 HD
ENDBRANCH   3   4
BRANCH   3   8
ATOM      8  C   UNL     1       2.682   3.378 -38.509  1.00  0.00     0.099 C 
ATOM      9  O   UNL     1       2.447   4.607 -38.661  1.00  0.00    -0.544 OA
ATOM     10  O   UNL     1       3.948   2.886 -38.797  1.00  0.00    -0.544 OA
ENDBRANCH   3   8
ENDBRANCH   1   3
BRANCH   1  11
ATOM     11  C   UNL     1       1.936   0.000 -38.910  1.00  0.00     0.006 C 
ATOM     12  C   UNL     1       2.666  -0.054 -37.568  1.00  0.00     0.004 C 
ENDBRANCH   1  11
TORSDOF 4
ENDMDL
MODEL 6
REMARK VINA RESULT:    -3.215      1.494      1.781
REMARK INTER + INTRA:          -3.907
REMARK INTER:                  -4.090
REMARK INTRA:                   0.182
REMARK UNBOUND:                -0.034
REMARK SMILES CC[C@H](C)[C@H]([NH3+])C(=O)[O-]
REMARK SMILES IDX 3 1 4 2 5 3 6 4 7 8 8 9 9 10 2 11 1 12
REMARK H PARENT 6 5 6 6 6 7
REMARK Flexibility Score: inf
ROOT
ATOM      1  C   UNL     1       1.450   2.893 -38.938  1.00  0.00     0.050 C 
ATOM      2  C   UNL     1       0.375   2.518 -37.901  1.00  0.00     0.014 C 
ENDROOT
BRANCH   1   3
ATOM      3  C   UNL     1       2.140   1.617 -39.516  1.00  0.00     0.230 C 
BRANCH   3   4
ATOM      4  N   UNL     1       1.572   1.196 -40.807  1.00  0.00    -0.350 N 
ATOM      5  H   UNL     1       0.529   1.211 -40.769  1.00  0.00     0.345 HD
ATOM      6  H   UNL     1       1.895   0.237 -41.071  1.00  0.00     0.345 HD
ATOM      7  H   UNL     1       1.871   1.864 -41.554  1.00  0.00     0.345 HD
ENDBRANCH   3   4
BRANCH   3   8
ATOM      8  C   UNL     1       2.116   0.488 -38.515  1.00  0.00     0.099 C 
ATOM      9  O   UNL     1       2.707   0.592 -37.407  1.00  0.00    -0.544 OA
ATOM     10  O   UNL     1       1.473  -0.701 -38.835  1.00  0.00    -0.544 OA
ENDBRANCH   3   8
ENDBRANCH   1   3
BRANCH   1  11
ATOM     11  C   UNL     1       2.462   3.913 -38.354  1.00  0.00     0.006 C 
ATOM     12  C   UNL     1       3.915   3.527 -38.633  1.00  0.00     0.004 C 
ENDBRANCH   1  11
TORSDOF 4
ENDMDL
MODEL 7
REMARK VINA RESULT:    -2.736      2.074      3.197
REMARK INTER + INTRA:          -3.331
REMARK INTER:                  -3.203
REMARK INTRA:                  -0.128
REMARK UNBOUND:                -0.034
REMARK SMILES CC[C@H](C)[C@H]([NH3+])C(=O)[O-]
REMARK SMILES IDX 3 1 4 2 5 3 6 4 7 8 8 9 9 10 2 11 1 12
REMARK H PARENT 6 5 6 6 6 7
REMARK Flexibility Score: inf
ROOT
ATOM      1  C   UNL     1       1.946   1.296 -39.224  1.00  0.00     0.050 C 
ATOM      2  C   UNL     1       1.840  -0.094 -38.570  1.00  0.00     0.014 C 
ENDROOT
BRANCH   1   3
ATOM      3  C   UNL     1       1.962   2.424 -38.145  1.00  0.00     0.230 C 
BRANCH   3   4
ATOM      4  N   UNL     1       0.627   2.987 -37.887  1.00  0.00    -0.350 N 
ATOM      5  H   UNL     1       0.472   3.101 -36.861  1.00  0.00     0.345 HD
ATOM      6  H   UNL     1      -0.126   2.383 -38.286  1.00  0.00     0.345 HD
ATOM      7  H   UNL     1       0.559   3.935 -38.324  1.00  0.00     0.345 HD
ENDBRANCH   3   4
BRANCH   3   8
ATOM      8  C   UNL     1       2.950   3.506 -38.508  1.00  0.00     0.099 C 
ATOM      9  O   UNL     1       2.607   4.719 -38.520  1.00  0.00    -0.544 OA
ATOM     10  O   UNL     1       4.243   3.161 -38.877  1.00  0.00    -0.544 OA
ENDBRANCH   3   8
ENDBRANCH   1   3
BRANCH   1  11
ATOM     11  C   UNL     1       0.840   1.499 -40.292  1.00  0.00     0.006 C 
ATOM     12  C   UNL     1       1.334   2.277 -41.512  1.00  0.00     0.004 C 
ENDBRANCH   1  11
TORSDOF 4
ENDMDL
MODEL 8
REMARK VINA RESULT:    -2.685      1.974      2.074
REMARK INTER + INTRA:          -3.268
REMARK INTER:                  -3.395
REMARK INTRA:                   0.126
REMARK UNBOUND:                -0.034
REMARK SMILES CC[C@H](C)[C@H]([NH3+])C(=O)[O-]
REMARK SMILES IDX 3 1 4 2 5 3 6 4 7 8 8 9 9 10 2 11 1 12
REMARK H PARENT 6 5 6 6 6 7
REMARK Flexibility Score: inf
ROOT
ATOM      1  C   UNL     1       2.474   2.092 -39.674  1.00  0.00     0.050 C 
ATOM      2  C   UNL     1       1.673   1.935 -40.980  1.00  0.00     0.014 C 
ENDROOT
BRANCH   1   3
ATOM      3  C   UNL     1       1.747   1.393 -38.482  1.00  0.00     0.230 C 
BRANCH   3   4
ATOM      4  N   UNL     1       1.419  -0.015 -38.759  1.00  0.00    -0.350 N 
ATOM      5  H   UNL     1       0.461  -0.093 -39.166  1.00  0.00     0.345 HD
ATOM      6  H   UNL     1       1.476  -0.598 -37.893  1.00  0.00     0.345 HD
ATOM      7  H   UNL     1       2.093  -0.398 -39.461  1.00  0.00     0.345 HD
ENDBRANCH   3   4
BRANCH   3   8
ATOM      8  C   UNL     1       0.519   2.167 -38.068  1.00  0.00     0.099 C 
ATOM      9  O   UNL     1       0.427   2.668 -36.915  1.00  0.00    -0.544 OA
ATOM     10  O   UNL     1      -0.545   2.292 -38.951  1.00  0.00    -0.544 OA
ENDBRANCH   3   8
ENDBRANCH   1   3
BRANCH   1  11
ATOM     11  C   UNL     1       2.800   3.581 -39.391  1.00  0.00     0.006 C 
ATOM     12  C   UNL     1       3.866   3.757 -38.309  1.00  0.00     0.004 C 
ENDBRANCH   1  11
TORSDOF 4
ENDMDL
MODEL 9
REMARK VINA RESULT:    -2.624      2.221      3.339
REMARK INTER + INTRA:          -3.195
REMARK INTER:                  -3.328
REMARK INTRA:                   0.133
REMARK UNBOUND:                -0.034
REMARK SMILES CC[C@H](C)[C@H]([NH3+])C(=O)[O-]
REMARK SMILES IDX 3 1 4 2 5 3 6 4 7 8 8 9 9 10 2 11 1 12
REMARK H PARENT 6 5 6 6 6 7
REMARK Flexibility Score: inf
ROOT
ATOM      1  C   UNL     1       1.493   1.979 -37.823  1.00  0.00     0.050 C 
ATOM      2  C   UNL     1       0.104   2.631 -37.688  1.00  0.00     0.014 C 
ENDROOT
BRANCH   1   3
ATOM      3  C   UNL     1       2.317   2.648 -38.968  1.00  0.00     0.230 C 
BRANCH   3   4
ATOM      4  N   UNL     1       2.380   4.113 -38.847  1.00  0.00    -0.350 N 
ATOM      5  H   UNL     1       3.213   4.397 -38.287  1.00  0.00     0.345 HD
ATOM      6  H   UNL     1       1.515   4.497 -38.401  1.00  0.00     0.345 HD
ATOM      7  H   UNL     1       2.479   4.537 -39.798  1.00  0.00     0.345 HD
ENDBRANCH   3   4
BRANCH   3   8
ATOM      8  C   UNL     1       1.795   2.234 -40.323  1.00  0.00     0.099 C 
ATOM      9  O   UNL     1       2.525   1.603 -41.133  1.00  0.00    -0.544 OA
ATOM     10  O   UNL     1       0.508   2.592 -40.702  1.00  0.00    -0.544 OA
ENDBRANCH   3   8
ENDBRANCH   1   3
BRANCH   1  11
ATOM     11  C   UNL     1       1.378   0.441 -37.982  1.00  0.00     0.006 C 
ATOM     12  C   UNL     1       2.731  -0.265 -37.886  1.00  0.00     0.004 C 
ENDBRANCH   1  11
TORSDOF 4
ENDMDL
