MODEL 1
REMARK VINA RESULT:    -6.676      0.000      0.000
REMARK INTER + INTRA:          -8.556
REMARK INTER:                  -7.847
REMARK INTRA:                  -0.709
REMARK UNBOUND:                -0.709
REMARK SMILES C=C(C)[C@@H]1CC[C@]2(CO)CC[C@@]3(C)[C@H](CC[C@@H]4[C@@]5(C)CC[C@@H](O)C(C)(C)[C@H]5CC[C@@]43C)[C@@H]12
REMARK SMILES IDX 4 1 5 2 6 3 7 4 32 5 14 6 15 7 16 8 17 9 18 10 20 11 21 12
REMARK SMILES IDX 22 13 24 14 27 15 28 16 29 17 30 18 12 19 11 20 10 21 13 22
REMARK SMILES IDX 31 23 25 24 26 25 19 26 2 27 3 28 1 29 8 30 9 31 23 33
REMARK H PARENT 9 32 23 34
REMARK Flexibility Score: inf
ROOT
ATOM      1  C   UNL     1      24.885  31.018  30.548  1.00  0.00     0.018 C 
ATOM      2  C   UNL     1      26.092  30.701  29.632  1.00  0.00     0.009 C 
ATOM      3  C   UNL     1      25.564  29.789  28.515  1.00  0.00     0.010 C 
ATOM      4  C   UNL     1      24.264  29.184  29.076  1.00  0.00    -0.003 C 
ATOM      5  C   UNL     1      23.673  30.383  29.820  1.00  0.00     0.008 C 
ATOM      6  C   UNL     1      22.350  30.016  30.598  1.00  0.00    -0.000 C 
ATOM      7  C   UNL     1      21.747  31.279  31.212  1.00  0.00     0.005 C 
ATOM      8  C   UNL     1      20.976  32.058  30.154  1.00  0.00     0.005 C 
ATOM      9  C   UNL     1      19.594  31.414  29.919  1.00  0.00     0.002 C 
ATOM     10  C   UNL     1      18.388  32.103  30.804  1.00  0.00    -0.026 C 
ATOM     11  C   UNL     1      17.614  33.094  29.862  1.00  0.00     0.010 C 
ATOM     12  C   UNL     1      16.467  32.435  29.107  1.00  0.00     0.033 C 
ATOM     13  C   UNL     1      15.367  31.854  30.019  1.00  0.00     0.120 C 
ATOM     14  C   UNL     1      15.830  31.528  31.489  1.00  0.00    -0.006 C 
ATOM     15  C   UNL     1      17.368  31.103  31.540  1.00  0.00     0.003 C 
ATOM     16  C   UNL     1      17.550  29.621  31.194  1.00  0.00     0.005 C 
ATOM     17  C   UNL     1      19.002  29.203  31.047  1.00  0.00     0.008 C 
ATOM     18  C   UNL     1      19.719  29.816  29.807  1.00  0.00    -0.024 C 
ATOM     19  C   UNL     1      21.271  29.226  29.688  1.00  0.00    -0.024 C 
ATOM     20  C   UNL     1      21.784  29.222  28.191  1.00  0.00     0.008 C 
ATOM     21  C   UNL     1      23.254  28.744  27.967  1.00  0.00     0.010 C 
ATOM     22  C   UNL     1      21.266  27.715  30.105  1.00  0.00     0.012 C 
ATOM     23  C   UNL     1      18.915  29.363  28.534  1.00  0.00     0.012 C 
ATOM     24  C   UNL     1      15.565  32.757  32.410  1.00  0.00     0.014 C 
ATOM     25  C   UNL     1      14.914  30.418  32.100  1.00  0.00     0.014 C 
ATOM     26  C   UNL     1      18.951  33.021  31.949  1.00  0.00     0.012 C 
ENDROOT
BRANCH   1  27
ATOM     27  C   UNL     1      24.782  32.523  30.800  1.00  0.00    -0.077 C 
ATOM     28  C   UNL     1      25.080  33.078  32.169  1.00  0.00     0.039 C 
ATOM     29  C   UNL     1      24.485  33.387  29.812  1.00  0.00     0.008 C 
ENDBRANCH   1  27
BRANCH   4  30
ATOM     30  C   UNL     1      24.681  28.003  30.027  1.00  0.00     0.163 C 
BRANCH  30  31
ATOM     31  O   UNL     1      25.038  26.867  29.286  1.00  0.00    -0.396 OA
ATOM     32  H   UNL     1      25.800  27.134  28.709  1.00  0.00     0.210 HD
ENDBRANCH  30  31
ENDBRANCH   4  30
BRANCH  13  33
ATOM     33  O   UNL     1      14.856  30.707  29.380  1.00  0.00    -0.393 OA
ATOM     34  H   UNL     1      14.409  31.002  28.544  1.00  0.00     0.210 HD
ENDBRANCH  13  33
TORSDOF 4
ENDMDL
MODEL 2
REMARK VINA RESULT:    -6.657      1.711      7.332
REMARK INTER + INTRA:          -8.534
REMARK INTER:                  -7.833
REMARK INTRA:                  -0.700
REMARK UNBOUND:                -0.709
REMARK SMILES C=C(C)[C@@H]1CC[C@]2(CO)CC[C@@]3(C)[C@H](CC[C@@H]4[C@@]5(C)CC[C@@H](O)C(C)(C)[C@H]5CC[C@@]43C)[C@@H]12
REMARK SMILES IDX 4 1 5 2 6 3 7 4 32 5 14 6 15 7 16 8 17 9 18 10 20 11 21 12
REMARK SMILES IDX 22 13 24 14 27 15 28 16 29 17 30 18 12 19 11 20 10 21 13 22
REMARK SMILES IDX 31 23 25 24 26 25 19 26 2 27 3 28 1 29 8 30 9 31 23 33
REMARK H PARENT 9 32 23 34
REMARK Flexibility Score: inf
ROOT
ATOM      1  C   UNL     1      16.369  31.419  29.389  1.00  0.00     0.018 C 
ATOM      2  C   UNL     1      14.997  30.872  29.854  1.00  0.00     0.009 C 
ATOM      3  C   UNL     1      15.292  29.645  30.731  1.00  0.00     0.010 C 
ATOM      4  C   UNL     1      16.712  29.203  30.333  1.00  0.00    -0.003 C 
ATOM      5  C   UNL     1      17.405  30.555  30.150  1.00  0.00     0.008 C 
ATOM      6  C   UNL     1      18.888  30.405  29.630  1.00  0.00    -0.000 C 
ATOM      7  C   UNL     1      19.561  31.777  29.591  1.00  0.00     0.005 C 
ATOM      8  C   UNL     1      20.030  32.170  30.985  1.00  0.00     0.005 C 
ATOM      9  C   UNL     1      21.347  31.443  31.330  1.00  0.00     0.002 C 
ATOM     10  C   UNL     1      22.693  32.334  31.005  1.00  0.00    -0.026 C 
ATOM     11  C   UNL     1      23.183  32.964  32.358  1.00  0.00     0.010 C 
ATOM     12  C   UNL     1      24.152  32.071  33.123  1.00  0.00     0.033 C 
ATOM     13  C   UNL     1      25.458  31.765  32.361  1.00  0.00     0.120 C 
ATOM     14  C   UNL     1      25.364  31.920  30.797  1.00  0.00    -0.006 C 
ATOM     15  C   UNL     1      23.899  31.578  30.259  1.00  0.00     0.003 C 
ATOM     16  C   UNL     1      23.708  30.067  30.084  1.00  0.00     0.005 C 
ATOM     17  C   UNL     1      22.281  29.668  29.752  1.00  0.00     0.008 C 
ATOM     18  C   UNL     1      21.270  29.893  30.916  1.00  0.00    -0.024 C 
ATOM     19  C   UNL     1      19.760  29.341  30.482  1.00  0.00    -0.024 C 
ATOM     20  C   UNL     1      18.914  28.893  31.742  1.00  0.00     0.008 C 
ATOM     21  C   UNL     1      17.455  28.414  31.459  1.00  0.00     0.010 C 
ATOM     22  C   UNL     1      19.928  28.032  29.637  1.00  0.00     0.012 C 
ATOM     23  C   UNL     1      21.776  29.047  32.141  1.00  0.00     0.012 C 
ATOM     24  C   UNL     1      25.781  33.364  30.384  1.00  0.00     0.014 C 
ATOM     25  C   UNL     1      26.444  31.024  30.109  1.00  0.00     0.014 C 
ATOM     26  C   UNL     1      22.372  33.575  30.096  1.00  0.00     0.012 C 
ENDROOT
BRANCH   1  27
ATOM     27  C   UNL     1      16.461  32.925  29.639  1.00  0.00    -0.077 C 
ATOM     28  C   UNL     1      16.517  33.451  31.050  1.00  0.00     0.039 C 
ATOM     29  C   UNL     1      16.553  33.806  28.625  1.00  0.00     0.008 C 
ENDBRANCH   1  27
BRANCH   4  30
ATOM     30  C   UNL     1      16.579  28.385  28.997  1.00  0.00     0.163 C 
BRANCH  30  31
ATOM     31  O   UNL     1      15.415  27.602  29.005  1.00  0.00    -0.396 OA
ATOM     32  H   UNL     1      15.529  26.920  28.292  1.00  0.00     0.210 HD
ENDBRANCH  30  31
ENDBRANCH   4  30
BRANCH  13  33
ATOM     33  O   UNL     1      25.857  30.462  32.721  1.00  0.00    -0.393 OA
ATOM     34  H   UNL     1      25.458  30.260  33.607  1.00  0.00     0.210 HD
ENDBRANCH  13  33
TORSDOF 4
ENDMDL
MODEL 3
REMARK VINA RESULT:    -6.448      4.674      7.407
REMARK INTER + INTRA:          -8.288
REMARK INTER:                  -8.141
REMARK INTRA:                  -0.147
REMARK UNBOUND:                -0.709
REMARK SMILES C=C(C)[C@@H]1CC[C@]2(CO)CC[C@@]3(C)[C@H](CC[C@@H]4[C@@]5(C)CC[C@@H](O)C(C)(C)[C@H]5CC[C@@]43C)[C@@H]12
REMARK SMILES IDX 4 1 5 2 6 3 7 4 32 5 14 6 15 7 16 8 17 9 18 10 20 11 21 12
REMARK SMILES IDX 22 13 24 14 27 15 28 16 29 17 30 18 12 19 11 20 10 21 13 22
REMARK SMILES IDX 31 23 25 24 26 25 19 26 2 27 3 28 1 29 8 30 9 31 23 33
REMARK H PARENT 9 32 23 34
REMARK Flexibility Score: inf
ROOT
ATOM      1  C   UNL     1      18.560  23.065  26.821  1.00  0.00     0.018 C 
ATOM      2  C   UNL     1      17.968  22.222  25.666  1.00  0.00     0.009 C 
ATOM      3  C   UNL     1      16.531  22.723  25.453  1.00  0.00     0.010 C 
ATOM      4  C   UNL     1      16.154  23.424  26.771  1.00  0.00    -0.003 C 
ATOM      5  C   UNL     1      17.469  24.123  27.124  1.00  0.00     0.008 C 
ATOM      6  C   UNL     1      17.404  24.858  28.519  1.00  0.00    -0.000 C 
ATOM      7  C   UNL     1      18.698  25.637  28.751  1.00  0.00     0.005 C 
ATOM      8  C   UNL     1      18.660  26.956  27.990  1.00  0.00     0.005 C 
ATOM      9  C   UNL     1      17.806  27.988  28.755  1.00  0.00     0.002 C 
ATOM     10  C   UNL     1      18.689  28.978  29.730  1.00  0.00    -0.026 C 
ATOM     11  C   UNL     1      18.887  30.339  28.971  1.00  0.00     0.010 C 
ATOM     12  C   UNL     1      17.771  31.343  29.230  1.00  0.00     0.033 C 
ATOM     13  C   UNL     1      17.633  31.760  30.709  1.00  0.00     0.120 C 
ATOM     14  C   UNL     1      18.228  30.733  31.745  1.00  0.00    -0.006 C 
ATOM     15  C   UNL     1      18.119  29.231  31.212  1.00  0.00     0.003 C 
ATOM     16  C   UNL     1      16.730  28.643  31.482  1.00  0.00     0.005 C 
ATOM     17  C   UNL     1      16.507  27.286  30.838  1.00  0.00     0.008 C 
ATOM     18  C   UNL     1      16.440  27.324  29.281  1.00  0.00    -0.024 C 
ATOM     19  C   UNL     1      16.104  25.807  28.681  1.00  0.00    -0.024 C 
ATOM     20  C   UNL     1      15.357  25.880  27.287  1.00  0.00     0.008 C 
ATOM     21  C   UNL     1      15.045  24.513  26.600  1.00  0.00     0.010 C 
ATOM     22  C   UNL     1      15.081  25.106  29.638  1.00  0.00     0.012 C 
ATOM     23  C   UNL     1      15.261  28.287  28.891  1.00  0.00     0.012 C 
ATOM     24  C   UNL     1      19.709  31.102  32.061  1.00  0.00     0.014 C 
ATOM     25  C   UNL     1      17.514  30.898  33.125  1.00  0.00     0.014 C 
ATOM     26  C   UNL     1      20.150  28.441  29.946  1.00  0.00     0.012 C 
ENDROOT
BRANCH   1  27
ATOM     27  C   UNL     1      19.927  23.627  26.432  1.00  0.00    -0.077 C 
ATOM     28  C   UNL     1      20.922  23.996  27.502  1.00  0.00     0.039 C 
ATOM     29  C   UNL     1      20.301  23.751  25.145  1.00  0.00     0.008 C 
ENDBRANCH   1  27
BRANCH   4  30
ATOM     30  C   UNL     1      15.754  22.297  27.791  1.00  0.00     0.163 C 
BRANCH  30  31
ATOM     31  O   UNL     1      14.880  21.373  27.198  1.00  0.00    -0.396 OA
ATOM     32  H   UNL     1      15.448  20.726  26.704  1.00  0.00     0.210 HD
ENDBRANCH  30  31
ENDBRANCH   4  30
BRANCH  13  33
ATOM     33  O   UNL     1      16.265  31.993  30.952  1.00  0.00    -0.393 OA
ATOM     34  H   UNL     1      15.883  32.414  30.138  1.00  0.00     0.210 HD
ENDBRANCH  13  33
TORSDOF 4
ENDMDL
MODEL 4
REMARK VINA RESULT:    -6.162      3.231      7.487
REMARK INTER + INTRA:          -7.953
REMARK INTER:                  -7.436
REMARK INTRA:                  -0.517
REMARK UNBOUND:                -0.709
REMARK SMILES C=C(C)[C@@H]1CC[C@]2(CO)CC[C@@]3(C)[C@H](CC[C@@H]4[C@@]5(C)CC[C@@H](O)C(C)(C)[C@H]5CC[C@@]43C)[C@@H]12
REMARK SMILES IDX 4 1 5 2 6 3 7 4 32 5 14 6 15 7 16 8 17 9 18 10 20 11 21 12
REMARK SMILES IDX 22 13 24 14 27 15 28 16 29 17 30 18 12 19 11 20 10 21 13 22
REMARK SMILES IDX 31 23 25 24 26 25 19 26 2 27 3 28 1 29 8 30 9 31 23 33
REMARK H PARENT 9 32 23 34
REMARK Flexibility Score: inf
ROOT
ATOM      1  C   UNL     1      14.631  26.368  30.489  1.00  0.00     0.018 C 
ATOM      2  C   UNL     1      14.262  24.879  30.287  1.00  0.00     0.009 C 
ATOM      3  C   UNL     1      15.422  24.245  29.504  1.00  0.00     0.010 C 
ATOM      4  C   UNL     1      16.141  25.428  28.830  1.00  0.00    -0.003 C 
ATOM      5  C   UNL     1      16.072  26.487  29.933  1.00  0.00     0.008 C 
ATOM      6  C   UNL     1      16.661  27.876  29.471  1.00  0.00    -0.000 C 
ATOM      7  C   UNL     1      16.679  28.846  30.652  1.00  0.00     0.005 C 
ATOM      8  C   UNL     1      17.883  28.567  31.541  1.00  0.00     0.005 C 
ATOM      9  C   UNL     1      19.158  29.173  30.919  1.00  0.00     0.002 C 
ATOM     10  C   UNL     1      19.520  30.673  31.495  1.00  0.00    -0.026 C 
ATOM     11  C   UNL     1      20.643  30.506  32.581  1.00  0.00     0.010 C 
ATOM     12  C   UNL     1      22.052  30.561  32.005  1.00  0.00     0.033 C 
ATOM     13  C   UNL     1      22.397  31.898  31.316  1.00  0.00     0.120 C 
ATOM     14  C   UNL     1      21.153  32.731  30.828  1.00  0.00    -0.006 C 
ATOM     15  C   UNL     1      19.938  31.784  30.410  1.00  0.00     0.003 C 
ATOM     16  C   UNL     1      20.104  31.262  28.978  1.00  0.00     0.005 C 
ATOM     17  C   UNL     1      19.076  30.213  28.589  1.00  0.00     0.008 C 
ATOM     18  C   UNL     1      19.232  28.860  29.345  1.00  0.00    -0.024 C 
ATOM     19  C   UNL     1      18.120  27.754  28.782  1.00  0.00    -0.024 C 
ATOM     20  C   UNL     1      18.634  26.267  28.952  1.00  0.00     0.008 C 
ATOM     21  C   UNL     1      17.645  25.142  28.513  1.00  0.00     0.010 C 
ATOM     22  C   UNL     1      17.967  27.942  27.234  1.00  0.00     0.012 C 
ATOM     23  C   UNL     1      20.674  28.317  29.035  1.00  0.00     0.012 C 
ATOM     24  C   UNL     1      20.718  33.730  31.942  1.00  0.00     0.014 C 
ATOM     25  C   UNL     1      21.572  33.669  29.650  1.00  0.00     0.014 C 
ATOM     26  C   UNL     1      18.316  31.308  32.280  1.00  0.00     0.012 C 
ENDROOT
BRANCH   1  27
ATOM     27  C   UNL     1      14.459  26.771  31.955  1.00  0.00    -0.077 C 
ATOM     28  C   UNL     1      15.008  25.888  33.046  1.00  0.00     0.039 C 
ATOM     29  C   UNL     1      13.876  27.932  32.306  1.00  0.00     0.008 C 
ENDBRANCH   1  27
BRANCH   4  30
ATOM     30  C   UNL     1      15.306  25.804  27.552  1.00  0.00     0.163 C 
BRANCH  30  31
ATOM     31  O   UNL     1      14.797  24.653  26.931  1.00  0.00    -0.396 OA
ATOM     32  H   UNL     1      14.962  23.900  27.556  1.00  0.00     0.210 HD
ENDBRANCH  30  31
ENDBRANCH   4  30
BRANCH  13  33
ATOM     33  O   UNL     1      23.266  31.604  30.246  1.00  0.00    -0.393 OA
ATOM     34  H   UNL     1      22.739  31.660  29.407  1.00  0.00     0.210 HD
ENDBRANCH  13  33
TORSDOF 4
ENDMDL
MODEL 5
REMARK VINA RESULT:    -6.019      2.008      4.036
REMARK INTER + INTRA:          -7.784
REMARK INTER:                  -7.173
REMARK INTRA:                  -0.612
REMARK UNBOUND:                -0.709
REMARK SMILES C=C(C)[C@@H]1CC[C@]2(CO)CC[C@@]3(C)[C@H](CC[C@@H]4[C@@]5(C)CC[C@@H](O)C(C)(C)[C@H]5CC[C@@]43C)[C@@H]12
REMARK SMILES IDX 4 1 5 2 6 3 7 4 32 5 14 6 15 7 16 8 17 9 18 10 20 11 21 12
REMARK SMILES IDX 22 13 24 14 27 15 28 16 29 17 30 18 12 19 11 20 10 21 13 22
REMARK SMILES IDX 31 23 25 24 26 25 19 26 2 27 3 28 1 29 8 30 9 31 23 33
REMARK H PARENT 9 32 23 34
REMARK Flexibility Score: inf
ROOT
ATOM      1  C   UNL     1      23.844  29.412  29.156  1.00  0.00     0.018 C 
ATOM      2  C   UNL     1      25.254  29.257  29.777  1.00  0.00     0.009 C 
ATOM      3  C   UNL     1      25.123  29.649  31.257  1.00  0.00     0.010 C 
ATOM      4  C   UNL     1      23.842  30.498  31.333  1.00  0.00    -0.003 C 
ATOM      5  C   UNL     1      22.928  29.749  30.360  1.00  0.00     0.008 C 
ATOM      6  C   UNL     1      21.542  30.475  30.157  1.00  0.00    -0.000 C 
ATOM      7  C   UNL     1      20.634  29.614  29.279  1.00  0.00     0.005 C 
ATOM      8  C   UNL     1      19.998  28.507  30.109  1.00  0.00     0.005 C 
ATOM      9  C   UNL     1      18.814  29.066  30.926  1.00  0.00     0.002 C 
ATOM     10  C   UNL     1      17.356  28.871  30.186  1.00  0.00    -0.026 C 
ATOM     11  C   UNL     1      16.659  27.620  30.833  1.00  0.00     0.010 C 
ATOM     12  C   UNL     1      15.815  27.964  32.054  1.00  0.00     0.033 C 
ATOM     13  C   UNL     1      14.648  28.928  31.758  1.00  0.00     0.120 C 
ATOM     14  C   UNL     1      14.829  29.811  30.466  1.00  0.00    -0.006 C 
ATOM     15  C   UNL     1      16.367  30.138  30.189  1.00  0.00     0.003 C 
ATOM     16  C   UNL     1      16.844  31.331  31.026  1.00  0.00     0.005 C 
ATOM     17  C   UNL     1      18.340  31.574  30.943  1.00  0.00     0.008 C 
ATOM     18  C   UNL     1      19.203  30.464  31.615  1.00  0.00    -0.024 C 
ATOM     19  C   UNL     1      20.817  30.870  31.549  1.00  0.00    -0.024 C 
ATOM     20  C   UNL     1      21.634  30.225  32.741  1.00  0.00     0.008 C 
ATOM     21  C   UNL     1      23.173  30.490  32.746  1.00  0.00     0.010 C 
ATOM     22  C   UNL     1      20.954  32.416  31.770  1.00  0.00     0.012 C 
ATOM     23  C   UNL     1      18.770  30.389  33.124  1.00  0.00     0.012 C 
ATOM     24  C   UNL     1      14.187  29.091  29.242  1.00  0.00     0.014 C 
ATOM     25  C   UNL     1      13.985  31.120  30.596  1.00  0.00     0.014 C 
ATOM     26  C   UNL     1      17.512  28.484  28.671  1.00  0.00     0.012 C 
ENDROOT
BRANCH   1  27
ATOM     27  C   UNL     1      23.460  28.156  28.373  1.00  0.00    -0.077 C 
ATOM     28  C   UNL     1      23.617  28.126  26.875  1.00  0.00     0.039 C 
ATOM     29  C   UNL     1      23.033  27.039  28.992  1.00  0.00     0.008 C 
ENDBRANCH   1  27
BRANCH   4  30
ATOM     30  C   UNL     1      24.221  31.944  30.844  1.00  0.00     0.163 C 
BRANCH  30  31
ATOM     31  O   UNL     1      24.506  32.781  31.934  1.00  0.00    -0.396 OA
ATOM     32  H   UNL     1      23.856  32.546  32.646  1.00  0.00     0.210 HD
ENDBRANCH  30  31
ENDBRANCH   4  30
BRANCH  13  33
ATOM     33  O   UNL     1      14.468  29.731  32.903  1.00  0.00    -0.393 OA
ATOM     34  H   UNL     1      13.599  30.201  32.807  1.00  0.00     0.210 HD
ENDBRANCH  13  33
TORSDOF 4
ENDMDL
MODEL 6
REMARK VINA RESULT:    -5.660      3.600      6.504
REMARK INTER + INTRA:          -7.362
REMARK INTER:                  -6.693
REMARK INTRA:                  -0.668
REMARK UNBOUND:                -0.709
REMARK SMILES C=C(C)[C@@H]1CC[C@]2(CO)CC[C@@]3(C)[C@H](CC[C@@H]4[C@@]5(C)CC[C@@H](O)C(C)(C)[C@H]5CC[C@@]43C)[C@@H]12
REMARK SMILES IDX 4 1 5 2 6 3 7 4 32 5 14 6 15 7 16 8 17 9 18 10 20 11 21 12
REMARK SMILES IDX 22 13 24 14 27 15 28 16 29 17 30 18 12 19 11 20 10 21 13 22
REMARK SMILES IDX 31 23 25 24 26 25 19 26 2 27 3 28 1 29 8 30 9 31 23 33
REMARK H PARENT 9 32 23 34
REMARK Flexibility Score: inf
ROOT
ATOM      1  C   UNL     1      17.576  24.542  26.758  1.00  0.00     0.018 C 
ATOM      2  C   UNL     1      18.089  23.087  26.639  1.00  0.00     0.009 C 
ATOM      3  C   UNL     1      19.412  23.026  27.418  1.00  0.00     0.010 C 
ATOM      4  C   UNL     1      19.890  24.487  27.505  1.00  0.00    -0.003 C 
ATOM      5  C   UNL     1      18.568  25.221  27.736  1.00  0.00     0.008 C 
ATOM      6  C   UNL     1      18.747  26.789  27.765  1.00  0.00    -0.000 C 
ATOM      7  C   UNL     1      17.418  27.452  28.124  1.00  0.00     0.005 C 
ATOM      8  C   UNL     1      17.193  27.394  29.630  1.00  0.00     0.005 C 
ATOM      9  C   UNL     1      18.023  28.486  30.336  1.00  0.00     0.002 C 
ATOM     10  C   UNL     1      17.180  29.872  30.617  1.00  0.00    -0.026 C 
ATOM     11  C   UNL     1      16.718  29.851  32.118  1.00  0.00     0.010 C 
ATOM     12  C   UNL     1      17.735  30.465  33.071  1.00  0.00     0.033 C 
ATOM     13  C   UNL     1      18.035  31.953  32.796  1.00  0.00     0.120 C 
ATOM     14  C   UNL     1      17.719  32.432  31.329  1.00  0.00    -0.006 C 
ATOM     15  C   UNL     1      17.924  31.254  30.269  1.00  0.00     0.003 C 
ATOM     16  C   UNL     1      19.396  31.115  29.867  1.00  0.00     0.005 C 
ATOM     17  C   UNL     1      19.680  29.898  29.004  1.00  0.00     0.008 C 
ATOM     18  C   UNL     1      19.517  28.539  29.749  1.00  0.00    -0.024 C 
ATOM     19  C   UNL     1      19.938  27.278  28.745  1.00  0.00    -0.024 C 
ATOM     20  C   UNL     1      20.462  26.028  29.562  1.00  0.00     0.008 C 
ATOM     21  C   UNL     1      20.829  24.762  28.724  1.00  0.00     0.010 C 
ATOM     22  C   UNL     1      21.163  27.719  27.873  1.00  0.00     0.012 C 
ATOM     23  C   UNL     1      20.508  28.556  30.969  1.00  0.00     0.012 C 
ATOM     24  C   UNL     1      16.266  32.992  31.259  1.00  0.00     0.014 C 
ATOM     25  C   UNL     1      18.600  33.673  30.974  1.00  0.00     0.014 C 
ATOM     26  C   UNL     1      15.838  29.920  29.800  1.00  0.00     0.012 C 
ENDROOT
BRANCH   1  27
ATOM     27  C   UNL     1      16.110  24.562  27.194  1.00  0.00    -0.077 C 
ATOM     28  C   UNL     1      15.739  24.178  28.603  1.00  0.00     0.039 C 
ATOM     29  C   UNL     1      15.131  24.972  26.366  1.00  0.00     0.008 C 
ENDBRANCH   1  27
BRANCH   4  30
ATOM     30  C   UNL     1      20.562  24.832  26.125  1.00  0.00     0.163 C 
BRANCH  30  31
ATOM     31  O   UNL     1      21.201  23.706  25.585  1.00  0.00    -0.396 OA
ATOM     32  H   UNL     1      20.532  22.973  25.591  1.00  0.00     0.210 HD
ENDBRANCH  30  31
ENDBRANCH   4  30
BRANCH  13  33
ATOM     33  O   UNL     1      19.388  32.175  33.123  1.00  0.00    -0.393 OA
ATOM     34  H   UNL     1      19.898  32.227  32.274  1.00  0.00     0.210 HD
ENDBRANCH  13  33
TORSDOF 4
ENDMDL
MODEL 7
REMARK VINA RESULT:    -4.732      1.990      7.374
REMARK INTER + INTRA:          -6.272
REMARK INTER:                  -5.572
REMARK INTRA:                  -0.699
REMARK UNBOUND:                -0.709
REMARK SMILES C=C(C)[C@@H]1CC[C@]2(CO)CC[C@@]3(C)[C@H](CC[C@@H]4[C@@]5(C)CC[C@@H](O)C(C)(C)[C@H]5CC[C@@]43C)[C@@H]12
REMARK SMILES IDX 4 1 5 2 6 3 7 4 32 5 14 6 15 7 16 8 17 9 18 10 20 11 21 12
REMARK SMILES IDX 22 13 24 14 27 15 28 16 29 17 30 18 12 19 11 20 10 21 13 22
REMARK SMILES IDX 31 23 25 24 26 25 19 26 2 27 3 28 1 29 8 30 9 31 23 33
REMARK H PARENT 9 32 23 34
REMARK Flexibility Score: inf
ROOT
ATOM      1  C   UNL     1      18.021  29.910  29.252  1.00  0.00     0.018 C 
ATOM      2  C   UNL     1      16.890  28.860  29.373  1.00  0.00     0.009 C 
ATOM      3  C   UNL     1      17.577  27.500  29.566  1.00  0.00     0.010 C 
ATOM      4  C   UNL     1      19.008  27.698  29.034  1.00  0.00    -0.003 C 
ATOM      5  C   UNL     1      19.319  29.111  29.531  1.00  0.00     0.008 C 
ATOM      6  C   UNL     1      20.724  29.629  29.032  1.00  0.00    -0.000 C 
ATOM      7  C   UNL     1      21.026  30.987  29.665  1.00  0.00     0.005 C 
ATOM      8  C   UNL     1      21.536  30.801  31.087  1.00  0.00     0.005 C 
ATOM      9  C   UNL     1      23.022  30.387  31.071  1.00  0.00     0.002 C 
ATOM     10  C   UNL     1      24.060  31.655  31.238  1.00  0.00    -0.026 C 
ATOM     11  C   UNL     1      24.526  31.693  32.737  1.00  0.00     0.010 C 
ATOM     12  C   UNL     1      25.766  30.850  33.004  1.00  0.00     0.033 C 
ATOM     13  C   UNL     1      27.014  31.300  32.215  1.00  0.00     0.120 C 
ATOM     14  C   UNL     1      26.708  32.129  30.911  1.00  0.00    -0.006 C 
ATOM     15  C   UNL     1      25.324  31.691  30.246  1.00  0.00     0.003 C 
ATOM     16  C   UNL     1      25.497  30.446  29.369  1.00  0.00     0.005 C 
ATOM     17  C   UNL     1      24.186  29.875  28.858  1.00  0.00     0.008 C 
ATOM     18  C   UNL     1      23.288  29.250  29.968  1.00  0.00    -0.024 C 
ATOM     19  C   UNL     1      21.923  28.574  29.293  1.00  0.00    -0.024 C 
ATOM     20  C   UNL     1      21.363  27.383  30.171  1.00  0.00     0.008 C 
ATOM     21  C   UNL     1      20.047  26.713  29.664  1.00  0.00     0.010 C 
ATOM     22  C   UNL     1      22.316  27.907  27.930  1.00  0.00     0.012 C 
ATOM     23  C   UNL     1      24.122  28.107  30.652  1.00  0.00     0.012 C 
ATOM     24  C   UNL     1      26.704  33.652  31.244  1.00  0.00     0.014 C 
ATOM     25  C   UNL     1      27.893  31.986  29.902  1.00  0.00     0.014 C 
ATOM     26  C   UNL     1      23.339  33.035  31.023  1.00  0.00     0.012 C 
ENDROOT
BRANCH   1  27
ATOM     27  C   UNL     1      17.764  31.089  30.191  1.00  0.00    -0.077 C 
ATOM     28  C   UNL     1      17.398  32.437  29.623  1.00  0.00     0.039 C 
ATOM     29  C   UNL     1      17.797  30.949  31.529  1.00  0.00     0.008 C 
ENDBRANCH   1  27
BRANCH   4  30
ATOM     30  C   UNL     1      18.934  27.590  27.467  1.00  0.00     0.163 C 
BRANCH  30  31
ATOM     31  O   UNL     1      18.151  26.492  27.079  1.00  0.00    -0.396 OA
ATOM     32  H   UNL     1      17.686  26.760  26.244  1.00  0.00     0.210 HD
ENDBRANCH  30  31
ENDBRANCH   4  30
BRANCH  13  33
ATOM     33  O   UNL     1      27.761  30.143  31.919  1.00  0.00    -0.393 OA
ATOM     34  H   UNL     1      28.358  29.964  32.692  1.00  0.00     0.210 HD
ENDBRANCH  13  33
TORSDOF 4
ENDMDL
MODEL 8
REMARK VINA RESULT:    -4.557      2.100      7.903
REMARK INTER + INTRA:          -6.065
REMARK INTER:                  -5.354
REMARK INTRA:                  -0.711
REMARK UNBOUND:                -0.709
REMARK SMILES C=C(C)[C@@H]1CC[C@]2(CO)CC[C@@]3(C)[C@H](CC[C@@H]4[C@@]5(C)CC[C@@H](O)C(C)(C)[C@H]5CC[C@@]43C)[C@@H]12
REMARK SMILES IDX 4 1 5 2 6 3 7 4 32 5 14 6 15 7 16 8 17 9 18 10 20 11 21 12
REMARK SMILES IDX 22 13 24 14 27 15 28 16 29 17 30 18 12 19 11 20 10 21 13 22
REMARK SMILES IDX 31 23 25 24 26 25 19 26 2 27 3 28 1 29 8 30 9 31 23 33
REMARK H PARENT 9 32 23 34
REMARK Flexibility Score: inf
ROOT
ATOM      1  C   UNL     1      17.343  29.692  30.395  1.00  0.00     0.018 C 
ATOM      2  C   UNL     1      15.974  30.133  29.824  1.00  0.00     0.009 C 
ATOM      3  C   UNL     1      16.011  31.667  29.737  1.00  0.00     0.010 C 
ATOM      4  C   UNL     1      17.122  32.093  30.713  1.00  0.00    -0.003 C 
ATOM      5  C   UNL     1      18.167  31.002  30.473  1.00  0.00     0.008 C 
ATOM      6  C   UNL     1      19.408  31.133  31.439  1.00  0.00    -0.000 C 
ATOM      7  C   UNL     1      20.465  30.095  31.064  1.00  0.00     0.005 C 
ATOM      8  C   UNL     1      21.274  30.580  29.868  1.00  0.00     0.005 C 
ATOM      9  C   UNL     1      22.329  31.611  30.319  1.00  0.00     0.002 C 
ATOM     10  C   UNL     1      23.810  30.951  30.609  1.00  0.00    -0.026 C 
ATOM     11  C   UNL     1      24.705  31.222  29.347  1.00  0.00     0.010 C 
ATOM     12  C   UNL     1      25.458  32.545  29.414  1.00  0.00     0.033 C 
ATOM     13  C   UNL     1      26.442  32.648  30.597  1.00  0.00     0.120 C 
ATOM     14  C   UNL     1      26.128  31.688  31.806  1.00  0.00    -0.006 C 
ATOM     15  C   UNL     1      24.560  31.420  31.951  1.00  0.00     0.003 C 
ATOM     16  C   UNL     1      23.870  32.552  32.719  1.00  0.00     0.005 C 
ATOM     17  C   UNL     1      22.355  32.445  32.731  1.00  0.00     0.008 C 
ATOM     18  C   UNL     1      21.690  32.674  31.341  1.00  0.00    -0.024 C 
ATOM     19  C   UNL     1      20.031  32.626  31.480  1.00  0.00    -0.024 C 
ATOM     20  C   UNL     1      19.323  33.497  30.364  1.00  0.00     0.008 C 
ATOM     21  C   UNL     1      17.762  33.476  30.361  1.00  0.00     0.010 C 
ATOM     22  C   UNL     1      19.622  33.310  32.829  1.00  0.00     0.012 C 
ATOM     23  C   UNL     1      22.108  34.110  30.857  1.00  0.00     0.012 C 
ATOM     24  C   UNL     1      26.904  30.347  31.630  1.00  0.00     0.014 C 
ATOM     25  C   UNL     1      26.727  32.279  33.123  1.00  0.00     0.014 C 
ATOM     26  C   UNL     1      23.746  29.384  30.708  1.00  0.00     0.012 C 
ENDROOT
BRANCH   1  27
ATOM     27  C   UNL     1      17.953  28.584  29.536  1.00  0.00    -0.077 C 
ATOM     28  C   UNL     1      18.229  27.230  30.138  1.00  0.00     0.039 C 
ATOM     29  C   UNL     1      18.204  28.762  28.225  1.00  0.00     0.008 C 
ENDBRANCH   1  27
BRANCH   4  30
ATOM     30  C   UNL     1      16.502  32.056  32.158  1.00  0.00     0.163 C 
BRANCH  30  31
ATOM     31  O   UNL     1      15.447  32.974  32.272  1.00  0.00    -0.396 OA
ATOM     32  H   UNL     1      15.640  33.526  33.074  1.00  0.00     0.210 HD
ENDBRANCH  30  31
ENDBRANCH   4  30
BRANCH  13  33
ATOM     33  O   UNL     1      26.461  33.995  31.009  1.00  0.00    -0.393 OA
ATOM     34  H   UNL     1      26.404  34.560  30.194  1.00  0.00     0.210 HD
ENDBRANCH  13  33
TORSDOF 4
ENDMDL
MODEL 9
REMARK VINA RESULT:    -4.505      2.555      7.476
REMARK INTER + INTRA:          -6.005
REMARK INTER:                  -5.792
REMARK INTRA:                  -0.212
REMARK UNBOUND:                -0.709
REMARK SMILES C=C(C)[C@@H]1CC[C@]2(CO)CC[C@@]3(C)[C@H](CC[C@@H]4[C@@]5(C)CC[C@@H](O)C(C)(C)[C@H]5CC[C@@]43C)[C@@H]12
REMARK SMILES IDX 4 1 5 2 6 3 7 4 32 5 14 6 15 7 16 8 17 9 18 10 20 11 21 12
REMARK SMILES IDX 22 13 24 14 27 15 28 16 29 17 30 18 12 19 11 20 10 21 13 22
REMARK SMILES IDX 31 23 25 24 26 25 19 26 2 27 3 28 1 29 8 30 9 31 23 33
REMARK H PARENT 9 32 23 34
REMARK Flexibility Score: inf
ROOT
ATOM      1  C   UNL     1      19.253  25.505  28.453  1.00  0.00     0.018 C 
ATOM      2  C   UNL     1      17.980  25.319  27.593  1.00  0.00     0.009 C 
ATOM      3  C   UNL     1      17.313  26.699  27.497  1.00  0.00     0.010 C 
ATOM      4  C   UNL     1      17.877  27.497  28.687  1.00  0.00    -0.003 C 
ATOM      5  C   UNL     1      19.336  27.034  28.693  1.00  0.00     0.008 C 
ATOM      6  C   UNL     1      20.152  27.631  29.904  1.00  0.00    -0.000 C 
ATOM      7  C   UNL     1      21.622  27.233  29.780  1.00  0.00     0.005 C 
ATOM      8  C   UNL     1      22.329  28.142  28.783  1.00  0.00     0.005 C 
ATOM      9  C   UNL     1      22.666  29.496  29.440  1.00  0.00     0.002 C 
ATOM     10  C   UNL     1      24.193  29.566  30.054  1.00  0.00    -0.026 C 
ATOM     11  C   UNL     1      25.088  30.331  29.013  1.00  0.00     0.010 C 
ATOM     12  C   UNL     1      25.104  31.839  29.226  1.00  0.00     0.033 C 
ATOM     13  C   UNL     1      25.670  32.274  30.594  1.00  0.00     0.120 C 
ATOM     14  C   UNL     1      25.609  31.171  31.717  1.00  0.00    -0.006 C 
ATOM     15  C   UNL     1      24.355  30.201  31.521  1.00  0.00     0.003 C 
ATOM     16  C   UNL     1      23.079  30.815  32.107  1.00  0.00     0.005 C 
ATOM     17  C   UNL     1      21.822  30.025  31.790  1.00  0.00     0.008 C 
ATOM     18  C   UNL     1      21.417  30.049  30.286  1.00  0.00    -0.024 C 
ATOM     19  C   UNL     1      19.983  29.233  30.061  1.00  0.00    -0.024 C 
ATOM     20  C   UNL     1      19.186  29.779  28.808  1.00  0.00     0.008 C 
ATOM     21  C   UNL     1      17.851  29.045  28.465  1.00  0.00     0.010 C 
ATOM     22  C   UNL     1      19.044  29.525  31.281  1.00  0.00     0.012 C 
ATOM     23  C   UNL     1      21.201  31.554  29.887  1.00  0.00     0.012 C 
ATOM     24  C   UNL     1      26.940  30.358  31.730  1.00  0.00     0.014 C 
ATOM     25  C   UNL     1      25.588  31.847  33.125  1.00  0.00     0.014 C 
ATOM     26  C   UNL     1      24.851  28.142  30.155  1.00  0.00     0.012 C 
ENDROOT
BRANCH   1  27
ATOM     27  C   UNL     1      20.467  24.884  27.761  1.00  0.00    -0.077 C 
ATOM     28  C   UNL     1      20.502  24.776  26.258  1.00  0.00     0.039 C 
ATOM     29  C   UNL     1      21.546  24.477  28.455  1.00  0.00     0.008 C 
ENDBRANCH   1  27
BRANCH   4  30
ATOM     30  C   UNL     1      17.075  27.048  29.962  1.00  0.00     0.163 C 
BRANCH  30  31
ATOM     31  O   UNL     1      16.021  27.936  30.228  1.00  0.00    -0.396 OA
ATOM     32  H   UNL     1      16.438  28.787  30.521  1.00  0.00     0.210 HD
ENDBRANCH  30  31
ENDBRANCH   4  30
BRANCH  13  33
ATOM     33  O   UNL     1      24.975  33.436  30.984  1.00  0.00    -0.393 OA
ATOM     34  H   UNL     1      25.637  34.172  31.057  1.00  0.00     0.210 HD
ENDBRANCH  13  33
TORSDOF 4
ENDMDL
