MODEL 1
REMARK VINA RESULT:    -4.535      0.000      0.000
REMARK INTER + INTRA:          -9.737
REMARK INTER:                  -7.716
REMARK INTRA:                  -2.021
REMARK UNBOUND:                -2.021
REMARK SMILES CCCCCCCCCCCCCC(=O)[O-]
REMARK SMILES IDX 8 1 9 2 10 3 11 4 12 5 13 6 14 7 15 8 16 9 7 10 6 11 5 12
REMARK SMILES IDX 4 13 3 14 2 15 1 16
REMARK H PARENT
REMARK Flexibility Score: inf
ROOT
ATOM      1  C   UNL     1      20.227  -0.764  23.285  1.00  0.00     0.000 C 
ENDROOT
BRANCH   1   2
ATOM      2  C   UNL     1      20.982  -2.075  23.562  1.00  0.00     0.000 C 
BRANCH   2   3
ATOM      3  C   UNL     1      20.807  -3.109  22.438  1.00  0.00     0.000 C 
BRANCH   3   4
ATOM      4  C   UNL     1      22.071  -3.199  21.575  1.00  0.00     0.000 C 
BRANCH   4   5
ATOM      5  C   UNL     1      21.746  -2.949  20.095  1.00  0.00     0.006 C 
BRANCH   5   6
ATOM      6  C   UNL     1      21.379  -4.241  19.354  1.00  0.00     0.053 C 
BRANCH   6   7
ATOM      7  C   UNL     1      21.287  -4.028  17.874  1.00  0.00     0.041 C 
ATOM      8  O   UNL     1      20.352  -3.337  17.391  1.00  0.00    -0.550 OA
ATOM      9  O   UNL     1      22.252  -4.564  17.032  1.00  0.00    -0.550 OA
ENDBRANCH   6   7
ENDBRANCH   5   6
ENDBRANCH   4   5
ENDBRANCH   3   4
ENDBRANCH   2   3
ENDBRANCH   1   2
BRANCH   1  10
ATOM     10  C   UNL     1      21.129   0.316  22.664  1.00  0.00     0.000 C 
BRANCH  10  11
ATOM     11  C   UNL     1      20.653   0.750  21.266  1.00  0.00    -0.000 C 
BRANCH  11  12
ATOM     12  C   UNL     1      19.255   0.204  20.923  1.00  0.00    -0.000 C 
BRANCH  12  13
ATOM     13  C   UNL     1      19.236  -0.583  19.602  1.00  0.00    -0.000 C 
BRANCH  13  14
ATOM     14  C   UNL     1      17.988  -1.470  19.459  1.00  0.00    -0.000 C 
BRANCH  14  15
ATOM     15  C   UNL     1      17.759  -2.366  20.686  1.00  0.00    -0.003 C 
ATOM     16  C   UNL     1      17.809  -3.857  20.351  1.00  0.00     0.004 C 
ENDBRANCH  14  15
ENDBRANCH  13  14
ENDBRANCH  12  13
ENDBRANCH  11  12
ENDBRANCH  10  11
ENDBRANCH   1  10
TORSDOF 12
ENDMDL
MODEL 2
REMARK VINA RESULT:    -4.475      1.166      2.018
REMARK INTER + INTRA:          -9.634
REMARK INTER:                  -7.951
REMARK INTRA:                  -1.683
REMARK UNBOUND:                -2.021
REMARK SMILES CCCCCCCCCCCCCC(=O)[O-]
REMARK SMILES IDX 8 1 9 2 10 3 11 4 12 5 13 6 14 7 15 8 16 9 7 10 6 11 5 12
REMARK SMILES IDX 4 13 3 14 2 15 1 16
REMARK H PARENT
REMARK Flexibility Score: inf
ROOT
ATOM      1  C   UNL     1      21.335  -2.094  23.454  1.00  0.00     0.000 C 
ENDROOT
BRANCH   1   2
ATOM      2  C   UNL     1      21.222  -3.269  22.469  1.00  0.00     0.000 C 
BRANCH   2   3
ATOM      3  C   UNL     1      22.235  -3.177  21.316  1.00  0.00     0.000 C 
BRANCH   3   4
ATOM      4  C   UNL     1      21.525  -2.917  19.982  1.00  0.00     0.000 C 
BRANCH   4   5
ATOM      5  C   UNL     1      21.185  -4.236  19.274  1.00  0.00     0.006 C 
BRANCH   5   6
ATOM      6  C   UNL     1      21.050  -4.063  17.755  1.00  0.00     0.053 C 
BRANCH   6   7
ATOM      7  C   UNL     1      21.704  -5.184  17.007  1.00  0.00     0.041 C 
ATOM      8  O   UNL     1      22.881  -5.056  16.577  1.00  0.00    -0.550 OA
ATOM      9  O   UNL     1      21.027  -6.381  16.814  1.00  0.00    -0.550 OA
ENDBRANCH   6   7
ENDBRANCH   5   6
ENDBRANCH   4   5
ENDBRANCH   3   4
ENDBRANCH   2   3
ENDBRANCH   1   2
BRANCH   1  10
ATOM     10  C   UNL     1      20.198  -1.072  23.288  1.00  0.00     0.000 C 
BRANCH  10  11
ATOM     11  C   UNL     1      20.522   0.008  22.240  1.00  0.00    -0.000 C 
BRANCH  11  12
ATOM     12  C   UNL     1      19.444   0.111  21.146  1.00  0.00    -0.000 C 
BRANCH  12  13
ATOM     13  C   UNL     1      18.408  -1.022  21.229  1.00  0.00    -0.000 C 
BRANCH  13  14
ATOM     14  C   UNL     1      18.090  -1.636  19.855  1.00  0.00    -0.000 C 
BRANCH  14  15
ATOM     15  C   UNL     1      18.704  -0.834  18.697  1.00  0.00    -0.003 C 
ATOM     16  C   UNL     1      18.528  -1.519  17.341  1.00  0.00     0.004 C 
ENDBRANCH  14  15
ENDBRANCH  13  14
ENDBRANCH  12  13
ENDBRANCH  11  12
ENDBRANCH  10  11
ENDBRANCH   1  10
TORSDOF 12
ENDMDL
MODEL 3
REMARK VINA RESULT:    -4.459      2.546      3.870
REMARK INTER + INTRA:          -9.608
REMARK INTER:                  -7.926
REMARK INTRA:                  -1.682
REMARK UNBOUND:                -2.021
REMARK SMILES CCCCCCCCCCCCCC(=O)[O-]
REMARK SMILES IDX 8 1 9 2 10 3 11 4 12 5 13 6 14 7 15 8 16 9 7 10 6 11 5 12
REMARK SMILES IDX 4 13 3 14 2 15 1 16
REMARK H PARENT
REMARK Flexibility Score: inf
ROOT
ATOM      1  C   UNL     1      20.604  -3.427  22.808  1.00  0.00     0.000 C 
ENDROOT
BRANCH   1   2
ATOM      2  C   UNL     1      20.118  -3.394  21.350  1.00  0.00     0.000 C 
BRANCH   2   3
ATOM      3  C   UNL     1      18.719  -4.007  21.176  1.00  0.00     0.000 C 
BRANCH   3   4
ATOM      4  C   UNL     1      18.681  -4.954  19.971  1.00  0.00     0.000 C 
BRANCH   4   5
ATOM      5  C   UNL     1      17.594  -4.531  18.972  1.00  0.00     0.006 C 
BRANCH   5   6
ATOM      6  C   UNL     1      16.562  -3.587  19.602  1.00  0.00     0.053 C 
BRANCH   6   7
ATOM      7  C   UNL     1      15.719  -2.912  18.564  1.00  0.00     0.041 C 
ATOM      8  O   UNL     1      15.225  -1.776  18.790  1.00  0.00    -0.550 OA
ATOM      9  O   UNL     1      15.507  -3.523  17.335  1.00  0.00    -0.550 OA
ENDBRANCH   6   7
ENDBRANCH   5   6
ENDBRANCH   4   5
ENDBRANCH   3   4
ENDBRANCH   2   3
ENDBRANCH   1   2
BRANCH   1  10
ATOM     10  C   UNL     1      20.987  -2.033  23.335  1.00  0.00     0.000 C 
BRANCH  10  11
ATOM     11  C   UNL     1      19.933  -0.963  22.995  1.00  0.00    -0.000 C 
BRANCH  11  12
ATOM     12  C   UNL     1      20.552   0.290  22.349  1.00  0.00    -0.000 C 
BRANCH  12  13
ATOM     13  C   UNL     1      20.364   0.322  20.823  1.00  0.00    -0.000 C 
BRANCH  13  14
ATOM     14  C   UNL     1      18.902   0.095  20.402  1.00  0.00    -0.000 C 
BRANCH  14  15
ATOM     15  C   UNL     1      18.783  -0.745  19.121  1.00  0.00    -0.003 C 
ATOM     16  C   UNL     1      20.141  -1.143  18.543  1.00  0.00     0.004 C 
ENDBRANCH  14  15
ENDBRANCH  13  14
ENDBRANCH  12  13
ENDBRANCH  11  12
ENDBRANCH  10  11
ENDBRANCH   1  10
TORSDOF 12
ENDMDL
MODEL 4
REMARK VINA RESULT:    -4.442      1.226      3.733
REMARK INTER + INTRA:          -9.578
REMARK INTER:                  -7.746
REMARK INTRA:                  -1.832
REMARK UNBOUND:                -2.021
REMARK SMILES CCCCCCCCCCCCCC(=O)[O-]
REMARK SMILES IDX 8 1 9 2 10 3 11 4 12 5 13 6 14 7 15 8 16 9 7 10 6 11 5 12
REMARK SMILES IDX 4 13 3 14 2 15 1 16
REMARK H PARENT
REMARK Flexibility Score: inf
ROOT
ATOM      1  C   UNL     1      17.981  -1.048  20.077  1.00  0.00     0.000 C 
ENDROOT
BRANCH   1   2
ATOM      2  C   UNL     1      17.057  -1.908  20.954  1.00  0.00     0.000 C 
BRANCH   2   3
ATOM      3  C   UNL     1      17.006  -3.376  20.500  1.00  0.00     0.000 C 
BRANCH   3   4
ATOM      4  C   UNL     1      18.352  -4.070  20.738  1.00  0.00     0.000 C 
BRANCH   4   5
ATOM      5  C   UNL     1      18.805  -4.836  19.487  1.00  0.00     0.006 C 
BRANCH   5   6
ATOM      6  C   UNL     1      18.182  -4.273  18.203  1.00  0.00     0.053 C 
BRANCH   6   7
ATOM      7  C   UNL     1      19.136  -3.384  17.464  1.00  0.00     0.041 C 
ATOM      8  O   UNL     1      20.373  -3.617  17.498  1.00  0.00    -0.550 OA
ATOM      9  O   UNL     1      18.656  -2.320  16.712  1.00  0.00    -0.550 OA
ENDBRANCH   6   7
ENDBRANCH   5   6
ENDBRANCH   4   5
ENDBRANCH   3   4
ENDBRANCH   2   3
ENDBRANCH   1   2
BRANCH   1  10
ATOM     10  C   UNL     1      19.031  -0.282  20.901  1.00  0.00     0.000 C 
BRANCH  10  11
ATOM     11  C   UNL     1      19.031  -0.691  22.385  1.00  0.00    -0.000 C 
BRANCH  11  12
ATOM     12  C   UNL     1      20.388  -0.437  23.067  1.00  0.00    -0.000 C 
BRANCH  12  13
ATOM     13  C   UNL     1      20.899  -1.665  23.839  1.00  0.00    -0.000 C 
BRANCH  13  14
ATOM     14  C   UNL     1      20.930  -2.937  22.974  1.00  0.00    -0.000 C 
BRANCH  14  15
ATOM     15  C   UNL     1      22.169  -3.002  22.068  1.00  0.00    -0.003 C 
ATOM     16  C   UNL     1      21.831  -2.828  20.587  1.00  0.00     0.004 C 
ENDBRANCH  14  15
ENDBRANCH  13  14
ENDBRANCH  12  13
ENDBRANCH  11  12
ENDBRANCH  10  11
ENDBRANCH   1  10
TORSDOF 12
ENDMDL
MODEL 5
REMARK VINA RESULT:    -4.425      2.518      4.664
REMARK INTER + INTRA:          -9.551
REMARK INTER:                  -7.621
REMARK INTRA:                  -1.930
REMARK UNBOUND:                -2.021
REMARK SMILES CCCCCCCCCCCCCC(=O)[O-]
REMARK SMILES IDX 8 1 9 2 10 3 11 4 12 5 13 6 14 7 15 8 16 9 7 10 6 11 5 12
REMARK SMILES IDX 4 13 3 14 2 15 1 16
REMARK H PARENT
REMARK Flexibility Score: inf
ROOT
ATOM      1  C   UNL     1      21.445  -3.248  21.535  1.00  0.00     0.000 C 
ENDROOT
BRANCH   1   2
ATOM      2  C   UNL     1      20.259  -3.387  20.567  1.00  0.00     0.000 C 
BRANCH   2   3
ATOM      3  C   UNL     1      19.041  -4.066  21.214  1.00  0.00     0.000 C 
BRANCH   3   4
ATOM      4  C   UNL     1      17.738  -3.600  20.553  1.00  0.00     0.000 C 
BRANCH   4   5
ATOM      5  C   UNL     1      17.522  -2.094  20.762  1.00  0.00     0.006 C 
BRANCH   5   6
ATOM      6  C   UNL     1      17.232  -1.360  19.446  1.00  0.00     0.053 C 
BRANCH   6   7
ATOM      7  C   UNL     1      15.790  -1.469  19.054  1.00  0.00     0.041 C 
ATOM      8  O   UNL     1      14.947  -0.652  19.508  1.00  0.00    -0.550 OA
ATOM      9  O   UNL     1      15.384  -2.453  18.162  1.00  0.00    -0.550 OA
ENDBRANCH   6   7
ENDBRANCH   5   6
ENDBRANCH   4   5
ENDBRANCH   3   4
ENDBRANCH   2   3
ENDBRANCH   1   2
BRANCH   1  10
ATOM     10  C   UNL     1      21.002  -3.184  23.007  1.00  0.00     0.000 C 
BRANCH  10  11
ATOM     11  C   UNL     1      21.176  -1.782  23.616  1.00  0.00    -0.000 C 
BRANCH  11  12
ATOM     12  C   UNL     1      19.998  -0.846  23.290  1.00  0.00    -0.000 C 
BRANCH  12  13
ATOM     13  C   UNL     1      20.447   0.440  22.575  1.00  0.00    -0.000 C 
BRANCH  13  14
ATOM     14  C   UNL     1      20.372   0.322  21.043  1.00  0.00    -0.000 C 
BRANCH  14  15
ATOM     15  C   UNL     1      21.758   0.177  20.396  1.00  0.00    -0.003 C 
ATOM     16  C   UNL     1      22.893   0.623  21.318  1.00  0.00     0.004 C 
ENDBRANCH  14  15
ENDBRANCH  13  14
ENDBRANCH  12  13
ENDBRANCH  11  12
ENDBRANCH  10  11
ENDBRANCH   1  10
TORSDOF 12
ENDMDL
MODEL 6
REMARK VINA RESULT:    -4.425      2.029      3.180
REMARK INTER + INTRA:          -9.550
REMARK INTER:                  -7.345
REMARK INTRA:                  -2.204
REMARK UNBOUND:                -2.021
REMARK SMILES CCCCCCCCCCCCCC(=O)[O-]
REMARK SMILES IDX 8 1 9 2 10 3 11 4 12 5 13 6 14 7 15 8 16 9 7 10 6 11 5 12
REMARK SMILES IDX 4 13 3 14 2 15 1 16
REMARK H PARENT
REMARK Flexibility Score: inf
ROOT
ATOM      1  C   UNL     1      19.245  -0.337  20.237  1.00  0.00     0.000 C 
ENDROOT
BRANCH   1   2
ATOM      2  C   UNL     1      18.843  -1.295  21.369  1.00  0.00     0.000 C 
BRANCH   2   3
ATOM      3  C   UNL     1      19.353  -2.727  21.145  1.00  0.00     0.000 C 
BRANCH   3   4
ATOM      4  C   UNL     1      18.191  -3.681  20.839  1.00  0.00     0.000 C 
BRANCH   4   5
ATOM      5  C   UNL     1      18.687  -4.934  20.102  1.00  0.00     0.006 C 
BRANCH   5   6
ATOM      6  C   UNL     1      18.943  -4.668  18.613  1.00  0.00     0.053 C 
BRANCH   6   7
ATOM      7  C   UNL     1      20.339  -5.037  18.214  1.00  0.00     0.041 C 
ATOM      8  O   UNL     1      20.536  -5.955  17.375  1.00  0.00    -0.550 OA
ATOM      9  O   UNL     1      21.420  -4.345  18.744  1.00  0.00    -0.550 OA
ENDBRANCH   6   7
ENDBRANCH   5   6
ENDBRANCH   4   5
ENDBRANCH   3   4
ENDBRANCH   2   3
ENDBRANCH   1   2
BRANCH   1  10
ATOM     10  C   UNL     1      19.955  -1.058  19.077  1.00  0.00     0.000 C 
BRANCH  10  11
ATOM     11  C   UNL     1      19.078  -1.156  17.817  1.00  0.00    -0.000 C 
BRANCH  11  12
ATOM     12  C   UNL     1      17.608  -0.787  18.091  1.00  0.00    -0.000 C 
BRANCH  12  13
ATOM     13  C   UNL     1      16.652  -1.973  17.875  1.00  0.00    -0.000 C 
BRANCH  13  14
ATOM     14  C   UNL     1      15.576  -2.071  18.970  1.00  0.00    -0.000 C 
BRANCH  14  15
ATOM     15  C   UNL     1      15.374  -0.743  19.717  1.00  0.00    -0.003 C 
ATOM     16  C   UNL     1      15.247  -0.925  21.229  1.00  0.00     0.004 C 
ENDBRANCH  14  15
ENDBRANCH  13  14
ENDBRANCH  12  13
ENDBRANCH  11  12
ENDBRANCH  10  11
ENDBRANCH   1  10
TORSDOF 12
ENDMDL
MODEL 7
REMARK VINA RESULT:    -4.425      1.853      2.754
REMARK INTER + INTRA:          -9.549
REMARK INTER:                  -7.612
REMARK INTRA:                  -1.938
REMARK UNBOUND:                -2.021
REMARK SMILES CCCCCCCCCCCCCC(=O)[O-]
REMARK SMILES IDX 8 1 9 2 10 3 11 4 12 5 13 6 14 7 15 8 16 9 7 10 6 11 5 12
REMARK SMILES IDX 4 13 3 14 2 15 1 16
REMARK H PARENT
REMARK Flexibility Score: inf
ROOT
ATOM      1  C   UNL     1      19.497  -1.692  21.496  1.00  0.00     0.000 C 
ENDROOT
BRANCH   1   2
ATOM      2  C   UNL     1      19.436  -3.225  21.404  1.00  0.00     0.000 C 
BRANCH   2   3
ATOM      3  C   UNL     1      18.099  -3.734  20.842  1.00  0.00     0.000 C 
BRANCH   3   4
ATOM      4  C   UNL     1      18.326  -4.855  19.820  1.00  0.00     0.000 C 
BRANCH   4   5
ATOM      5  C   UNL     1      19.012  -4.318  18.556  1.00  0.00     0.006 C 
BRANCH   5   6
ATOM      6  C   UNL     1      20.149  -5.231  18.080  1.00  0.00     0.053 C 
BRANCH   6   7
ATOM      7  C   UNL     1      21.477  -4.539  18.131  1.00  0.00     0.041 C 
ATOM      8  O   UNL     1      21.849  -3.962  19.186  1.00  0.00    -0.550 OA
ATOM      9  O   UNL     1      22.316  -4.560  17.025  1.00  0.00    -0.550 OA
ENDBRANCH   6   7
ENDBRANCH   5   6
ENDBRANCH   4   5
ENDBRANCH   3   4
ENDBRANCH   2   3
ENDBRANCH   1   2
BRANCH   1  10
ATOM     10  C   UNL     1      20.145  -1.051  20.256  1.00  0.00     0.000 C 
BRANCH  10  11
ATOM     11  C   UNL     1      19.117  -0.710  19.163  1.00  0.00    -0.000 C 
BRANCH  11  12
ATOM     12  C   UNL     1      17.950   0.142  19.695  1.00  0.00    -0.000 C 
BRANCH  12  13
ATOM     13  C   UNL     1      16.581  -0.511  19.443  1.00  0.00    -0.000 C 
BRANCH  13  14
ATOM     14  C   UNL     1      16.584  -1.441  18.218  1.00  0.00    -0.000 C 
BRANCH  14  15
ATOM     15  C   UNL     1      15.472  -2.499  18.280  1.00  0.00    -0.003 C 
ATOM     16  C   UNL     1      15.692  -3.650  17.298  1.00  0.00     0.004 C 
ENDBRANCH  14  15
ENDBRANCH  13  14
ENDBRANCH  12  13
ENDBRANCH  11  12
ENDBRANCH  10  11
ENDBRANCH   1  10
TORSDOF 12
ENDMDL
MODEL 8
REMARK VINA RESULT:    -4.422      2.106      2.868
REMARK INTER + INTRA:          -9.544
REMARK INTER:                  -7.817
REMARK INTRA:                  -1.727
REMARK UNBOUND:                -2.021
REMARK SMILES CCCCCCCCCCCCCC(=O)[O-]
REMARK SMILES IDX 8 1 9 2 10 3 11 4 12 5 13 6 14 7 15 8 16 9 7 10 6 11 5 12
REMARK SMILES IDX 4 13 3 14 2 15 1 16
REMARK H PARENT
REMARK Flexibility Score: inf
ROOT
ATOM      1  C   UNL     1      20.380  -1.115  23.635  1.00  0.00     0.000 C 
ENDROOT
BRANCH   1   2
ATOM      2  C   UNL     1      21.277  -2.121  22.895  1.00  0.00     0.000 C 
BRANCH   2   3
ATOM      3  C   UNL     1      20.566  -3.453  22.610  1.00  0.00     0.000 C 
BRANCH   3   4
ATOM      4  C   UNL     1      20.044  -3.498  21.169  1.00  0.00     0.000 C 
BRANCH   4   5
ATOM      5  C   UNL     1      18.672  -4.184  21.101  1.00  0.00     0.006 C 
BRANCH   5   6
ATOM      6  C   UNL     1      18.460  -4.929  19.776  1.00  0.00     0.053 C 
BRANCH   6   7
ATOM      7  C   UNL     1      17.315  -4.360  18.996  1.00  0.00     0.041 C 
ATOM      8  O   UNL     1      16.354  -3.807  19.593  1.00  0.00    -0.550 OA
ATOM      9  O   UNL     1      17.324  -4.412  17.608  1.00  0.00    -0.550 OA
ENDBRANCH   6   7
ENDBRANCH   5   6
ENDBRANCH   4   5
ENDBRANCH   3   4
ENDBRANCH   2   3
ENDBRANCH   1   2
BRANCH   1  10
ATOM     10  C   UNL     1      20.408   0.284  22.995  1.00  0.00     0.000 C 
BRANCH  10  11
ATOM     11  C   UNL     1      19.533   0.373  21.732  1.00  0.00    -0.000 C 
BRANCH  11  12
ATOM     12  C   UNL     1      18.192  -0.367  21.890  1.00  0.00    -0.000 C 
BRANCH  12  13
ATOM     13  C   UNL     1      17.485  -0.601  20.545  1.00  0.00    -0.000 C 
BRANCH  13  14
ATOM     14  C   UNL     1      18.471  -0.701  19.368  1.00  0.00    -0.000 C 
BRANCH  14  15
ATOM     15  C   UNL     1      17.762  -0.696  18.005  1.00  0.00    -0.003 C 
ATOM     16  C   UNL     1      16.448   0.085  18.021  1.00  0.00     0.004 C 
ENDBRANCH  14  15
ENDBRANCH  13  14
ENDBRANCH  12  13
ENDBRANCH  11  12
ENDBRANCH  10  11
ENDBRANCH   1  10
TORSDOF 12
ENDMDL
MODEL 9
REMARK VINA RESULT:    -4.353      1.272      4.227
REMARK INTER + INTRA:          -9.428
REMARK INTER:                  -7.755
REMARK INTRA:                  -1.673
REMARK UNBOUND:                -2.021
REMARK SMILES CCCCCCCCCCCCCC(=O)[O-]
REMARK SMILES IDX 8 1 9 2 10 3 11 4 12 5 13 6 14 7 15 8 16 9 7 10 6 11 5 12
REMARK SMILES IDX 4 13 3 14 2 15 1 16
REMARK H PARENT
REMARK Flexibility Score: inf
ROOT
ATOM      1  C   UNL     1      17.857  -3.404  20.696  1.00  0.00     0.000 C 
ENDROOT
BRANCH   1   2
ATOM      2  C   UNL     1      18.051  -1.880  20.746  1.00  0.00     0.000 C 
BRANCH   2   3
ATOM      3  C   UNL     1      18.321  -1.269  19.361  1.00  0.00     0.000 C 
BRANCH   3   4
ATOM      4  C   UNL     1      17.763  -2.165  18.249  1.00  0.00     0.000 C 
BRANCH   4   5
ATOM      5  C   UNL     1      18.833  -2.454  17.186  1.00  0.00     0.006 C 
BRANCH   5   6
ATOM      6  C   UNL     1      20.229  -2.628  17.799  1.00  0.00     0.053 C 
BRANCH   6   7
ATOM      7  C   UNL     1      20.681  -4.055  17.758  1.00  0.00     0.041 C 
ATOM      8  O   UNL     1      21.874  -4.333  17.464  1.00  0.00    -0.550 OA
ATOM      9  O   UNL     1      19.795  -5.076  18.076  1.00  0.00    -0.550 OA
ENDBRANCH   6   7
ENDBRANCH   5   6
ENDBRANCH   4   5
ENDBRANCH   3   4
ENDBRANCH   2   3
ENDBRANCH   1   2
BRANCH   1  10
ATOM     10  C   UNL     1      18.986  -4.166  21.410  1.00  0.00     0.000 C 
BRANCH  10  11
ATOM     11  C   UNL     1      20.276  -3.335  21.529  1.00  0.00    -0.000 C 
BRANCH  11  12
ATOM     12  C   UNL     1      20.913  -3.433  22.928  1.00  0.00    -0.000 C 
BRANCH  12  13
ATOM     13  C   UNL     1      21.354  -2.063  23.472  1.00  0.00    -0.000 C 
BRANCH  13  14
ATOM     14  C   UNL     1      20.164  -1.138  23.780  1.00  0.00    -0.000 C 
BRANCH  14  15
ATOM     15  C   UNL     1      20.175   0.138  22.923  1.00  0.00    -0.003 C 
ATOM     16  C   UNL     1      21.584   0.678  22.681  1.00  0.00     0.004 C 
ENDBRANCH  14  15
ENDBRANCH  13  14
ENDBRANCH  12  13
ENDBRANCH  11  12
ENDBRANCH  10  11
ENDBRANCH   1  10
TORSDOF 12
ENDMDL
