MODEL 1
REMARK VINA RESULT:    -6.786      0.000      0.000
REMARK INTER + INTRA:          -7.381
REMARK INTER:                  -7.381
REMARK INTRA:                   0.000
REMARK UNBOUND:                 0.000
REMARK SMILES Cc1cc(O)c2c(c1)C(=O)c1cc(O)cc(O)c1C2=O
REMARK SMILES IDX 1 1 2 2 8 3 7 4 6 5 4 6 3 7 19 8 20 9 18 10 11 11 9 12 10 13
REMARK SMILES IDX 12 14 13 15 15 16 16 17 5 18 17 20 14 22
REMARK H PARENT 5 19 17 21 14 23
REMARK Flexibility Score: inf
ROOT
ATOM      1  C   UNL     1       9.725   1.414  -7.114  1.00  0.00     0.044 C 
ATOM      2  C   UNL     1       9.539   2.359  -5.962  1.00  0.00    -0.047 A 
ATOM      3  C   UNL     1       8.994   1.901  -4.758  1.00  0.00     0.016 A 
ATOM      4  C   UNL     1       8.775   2.787  -3.688  1.00  0.00     0.038 A 
ATOM      5  C   UNL     1       9.083   4.158  -3.836  1.00  0.00     0.076 A 
ATOM      6  C   UNL     1       9.678   4.607  -5.044  1.00  0.00     0.127 A 
ATOM      7  C   UNL     1       9.868   3.711  -6.099  1.00  0.00     0.050 A 
ATOM      8  C   UNL     1       8.701   5.085  -2.740  1.00  0.00     0.201 C 
ATOM      9  O   UNL     1       8.411   6.283  -3.003  1.00  0.00    -0.288 OA
ATOM     10  C   UNL     1       8.478   4.555  -1.369  1.00  0.00     0.076 A 
ATOM     11  C   UNL     1       8.171   3.184  -1.226  1.00  0.00     0.041 A 
ATOM     12  C   UNL     1       8.226   2.288  -2.406  1.00  0.00     0.194 C 
ATOM     13  O   UNL     1       7.829   1.093  -2.310  1.00  0.00    -0.289 OA
ATOM     14  C   UNL     1       7.819   2.674   0.036  1.00  0.00     0.059 A 
ATOM     15  C   UNL     1       7.786   3.508   1.153  1.00  0.00     0.120 A 
ATOM     16  C   UNL     1       8.129   4.856   1.024  1.00  0.00     0.093 A 
ATOM     17  C   UNL     1       8.502   5.383  -0.217  1.00  0.00     0.131 A 
ENDROOT
BRANCH   6  18
ATOM     18  O   UNL     1      10.125   5.918  -5.223  1.00  0.00    -0.507 OA
ATOM     19  H   UNL     1       9.734   6.553  -5.906  1.00  0.00     0.293 HD
ENDBRANCH   6  18
BRANCH  17  20
ATOM     20  O   UNL     1       8.919   6.716  -0.251  1.00  0.00    -0.507 OA
ATOM     21  H   UNL     1       8.874   7.294  -1.079  1.00  0.00     0.293 HD
ENDBRANCH  17  20
BRANCH  15  22
ATOM     22  O   UNL     1       7.421   2.983   2.391  1.00  0.00    -0.508 OA
ATOM     23  H   UNL     1       6.458   2.757   2.608  1.00  0.00     0.293 HD
ENDBRANCH  15  22
TORSDOF 3
ENDMDL
MODEL 2
REMARK VINA RESULT:    -6.762      1.265      3.269
REMARK INTER + INTRA:          -7.354
REMARK INTER:                  -7.354
REMARK INTRA:                   0.000
REMARK UNBOUND:                 0.000
REMARK SMILES Cc1cc(O)c2c(c1)C(=O)c1cc(O)cc(O)c1C2=O
REMARK SMILES IDX 1 1 2 2 8 3 7 4 6 5 4 6 3 7 19 8 20 9 18 10 11 11 9 12 10 13
REMARK SMILES IDX 12 14 13 15 15 16 16 17 5 18 17 20 14 22
REMARK H PARENT 5 19 17 21 14 23
REMARK Flexibility Score: inf
ROOT
ATOM      1  C   UNL     1       9.087   3.637  -7.782  1.00  0.00     0.044 C 
ATOM      2  C   UNL     1       8.777   3.492  -6.321  1.00  0.00    -0.047 A 
ATOM      3  C   UNL     1       9.216   4.458  -5.410  1.00  0.00     0.016 A 
ATOM      4  C   UNL     1       8.970   4.310  -4.034  1.00  0.00     0.038 A 
ATOM      5  C   UNL     1       8.295   3.162  -3.560  1.00  0.00     0.076 A 
ATOM      6  C   UNL     1       7.812   2.209  -4.494  1.00  0.00     0.127 A 
ATOM      7  C   UNL     1       8.087   2.369  -5.855  1.00  0.00     0.050 A 
ATOM      8  C   UNL     1       8.184   2.969  -2.091  1.00  0.00     0.201 C 
ATOM      9  O   UNL     1       8.143   1.805  -1.611  1.00  0.00    -0.288 OA
ATOM     10  C   UNL     1       8.314   4.138  -1.182  1.00  0.00     0.076 A 
ATOM     11  C   UNL     1       8.989   5.283  -1.660  1.00  0.00     0.041 A 
ATOM     12  C   UNL     1       9.411   5.353  -3.079  1.00  0.00     0.194 C 
ATOM     13  O   UNL     1      10.125   6.314  -3.479  1.00  0.00    -0.289 OA
ATOM     14  C   UNL     1       9.252   6.354  -0.788  1.00  0.00     0.059 A 
ATOM     15  C   UNL     1       8.839   6.303   0.542  1.00  0.00     0.120 A 
ATOM     16  C   UNL     1       8.135   5.190   1.009  1.00  0.00     0.093 A 
ATOM     17  C   UNL     1       7.843   4.120   0.157  1.00  0.00     0.131 A 
ENDROOT
BRANCH   6  18
ATOM     18  O   UNL     1       7.031   1.113  -4.119  1.00  0.00    -0.507 OA
ATOM     19  H   UNL     1       6.816   0.883  -3.158  1.00  0.00     0.293 HD
ENDBRANCH   6  18
BRANCH  17  20
ATOM     20  O   UNL     1       7.058   3.085   0.669  1.00  0.00    -0.507 OA
ATOM     21  H   UNL     1       6.166   2.815   0.278  1.00  0.00     0.293 HD
ENDBRANCH  17  20
BRANCH  15  22
ATOM     22  O   UNL     1       9.123   7.371   1.392  1.00  0.00    -0.508 OA
ATOM     23  H   UNL     1       8.519   8.182   1.442  1.00  0.00     0.293 HD
ENDBRANCH  15  22
TORSDOF 3
ENDMDL
MODEL 3
REMARK VINA RESULT:    -6.707      1.406      3.622
REMARK INTER + INTRA:          -7.295
REMARK INTER:                  -7.295
REMARK INTRA:                   0.000
REMARK UNBOUND:                 0.000
REMARK SMILES Cc1cc(O)c2c(c1)C(=O)c1cc(O)cc(O)c1C2=O
REMARK SMILES IDX 1 1 2 2 8 3 7 4 6 5 4 6 3 7 19 8 20 9 18 10 11 11 9 12 10 13
REMARK SMILES IDX 12 14 13 15 15 16 16 17 5 18 17 20 14 22
REMARK H PARENT 5 19 17 21 14 23
REMARK Flexibility Score: inf
ROOT
ATOM      1  C   UNL     1       9.165   3.167  -6.289  1.00  0.00     0.044 C 
ATOM      2  C   UNL     1       8.920   3.200  -4.808  1.00  0.00    -0.047 A 
ATOM      3  C   UNL     1       9.308   4.314  -4.056  1.00  0.00     0.016 A 
ATOM      4  C   UNL     1       9.123   4.336  -2.663  1.00  0.00     0.038 A 
ATOM      5  C   UNL     1       8.564   3.215  -2.009  1.00  0.00     0.076 A 
ATOM      6  C   UNL     1       8.130   2.108  -2.784  1.00  0.00     0.127 A 
ATOM      7  C   UNL     1       8.343   2.101  -4.165  1.00  0.00     0.050 A 
ATOM      8  C   UNL     1       8.521   3.218  -0.524  1.00  0.00     0.201 C 
ATOM      9  O   UNL     1       8.594   2.130   0.109  1.00  0.00    -0.288 OA
ATOM     10  C   UNL     1       8.584   4.507   0.213  1.00  0.00     0.076 A 
ATOM     11  C   UNL     1       9.144   5.625  -0.444  1.00  0.00     0.041 A 
ATOM     12  C   UNL     1       9.509   5.532  -1.877  1.00  0.00     0.194 C 
ATOM     13  O   UNL     1      10.125   6.482  -2.434  1.00  0.00    -0.289 OA
ATOM     14  C   UNL     1       9.347   6.822   0.264  1.00  0.00     0.059 A 
ATOM     15  C   UNL     1       8.986   6.922   1.607  1.00  0.00     0.120 A 
ATOM     16  C   UNL     1       8.395   5.832   2.250  1.00  0.00     0.093 A 
ATOM     17  C   UNL     1       8.164   4.636   1.563  1.00  0.00     0.131 A 
ENDROOT
BRANCH   6  18
ATOM     18  O   UNL     1       7.458   1.016  -2.230  1.00  0.00    -0.507 OA
ATOM     19  H   UNL     1       6.915   0.360  -2.773  1.00  0.00     0.293 HD
ENDBRANCH   6  18
BRANCH  17  20
ATOM     20  O   UNL     1       7.487   3.622   2.245  1.00  0.00    -0.507 OA
ATOM     21  H   UNL     1       6.704   3.114   1.856  1.00  0.00     0.293 HD
ENDBRANCH  17  20
BRANCH  15  22
ATOM     22  O   UNL     1       9.209   8.115   2.292  1.00  0.00    -0.508 OA
ATOM     23  H   UNL     1       9.077   9.014   1.845  1.00  0.00     0.293 HD
ENDBRANCH  15  22
TORSDOF 3
ENDMDL
MODEL 4
REMARK VINA RESULT:    -6.560      1.627      5.487
REMARK INTER + INTRA:          -7.136
REMARK INTER:                  -7.136
REMARK INTRA:                   0.000
REMARK UNBOUND:                 0.000
REMARK SMILES Cc1cc(O)c2c(c1)C(=O)c1cc(O)cc(O)c1C2=O
REMARK SMILES IDX 1 1 2 2 8 3 7 4 6 5 4 6 3 7 19 8 20 9 18 10 11 11 9 12 10 13
REMARK SMILES IDX 12 14 13 15 15 16 16 17 5 18 17 20 14 22
REMARK H PARENT 5 19 17 21 14 23
REMARK Flexibility Score: inf
ROOT
ATOM      1  C   UNL     1       8.002   4.989   1.371  1.00  0.00     0.044 C 
ATOM      2  C   UNL     1       8.209   4.810  -0.104  1.00  0.00    -0.047 A 
ATOM      3  C   UNL     1       8.053   3.548  -0.688  1.00  0.00     0.016 A 
ATOM      4  C   UNL     1       8.287   3.360  -2.061  1.00  0.00     0.038 A 
ATOM      5  C   UNL     1       8.709   4.448  -2.858  1.00  0.00     0.076 A 
ATOM      6  C   UNL     1       8.821   5.735  -2.269  1.00  0.00     0.127 A 
ATOM      7  C   UNL     1       8.602   5.892  -0.898  1.00  0.00     0.050 A 
ATOM      8  C   UNL     1       9.088   4.180  -4.270  1.00  0.00     0.201 C 
ATOM      9  O   UNL     1       9.963   4.891  -4.831  1.00  0.00    -0.288 OA
ATOM     10  C   UNL     1       8.577   2.961  -4.951  1.00  0.00     0.076 A 
ATOM     11  C   UNL     1       8.156   1.876  -4.151  1.00  0.00     0.041 A 
ATOM     12  C   UNL     1       8.089   2.028  -2.678  1.00  0.00     0.194 C 
ATOM     13  O   UNL     1       7.837   1.027  -1.951  1.00  0.00    -0.289 OA
ATOM     14  C   UNL     1       7.797   0.659  -4.755  1.00  0.00     0.059 A 
ATOM     15  C   UNL     1       7.839   0.518  -6.142  1.00  0.00     0.120 A 
ATOM     16  C   UNL     1       8.216   1.601  -6.940  1.00  0.00     0.093 A 
ATOM     17  C   UNL     1       8.558   2.828  -6.364  1.00  0.00     0.131 A 
ENDROOT
BRANCH   6  18
ATOM     18  O   UNL     1       9.112   6.882  -3.011  1.00  0.00    -0.507 OA
ATOM     19  H   UNL     1       9.961   7.419  -2.899  1.00  0.00     0.293 HD
ENDBRANCH   6  18
BRANCH  17  20
ATOM     20  O   UNL     1       8.836   3.890  -7.228  1.00  0.00    -0.507 OA
ATOM     21  H   UNL     1       9.187   3.768  -8.168  1.00  0.00     0.293 HD
ENDBRANCH  17  20
BRANCH  15  22
ATOM     22  O   UNL     1       7.491  -0.703  -6.719  1.00  0.00    -0.508 OA
ATOM     23  H   UNL     1       7.494  -0.833  -7.723  1.00  0.00     0.293 HD
ENDBRANCH  15  22
TORSDOF 3
ENDMDL
MODEL 5
REMARK VINA RESULT:    -6.384      1.840      3.993
REMARK INTER + INTRA:          -6.944
REMARK INTER:                  -6.944
REMARK INTRA:                   0.000
REMARK UNBOUND:                 0.000
REMARK SMILES Cc1cc(O)c2c(c1)C(=O)c1cc(O)cc(O)c1C2=O
REMARK SMILES IDX 1 1 2 2 8 3 7 4 6 5 4 6 3 7 19 8 20 9 18 10 11 11 9 12 10 13
REMARK SMILES IDX 12 14 13 15 15 16 16 17 5 18 17 20 14 22
REMARK H PARENT 5 19 17 21 14 23
REMARK Flexibility Score: inf
ROOT
ATOM      1  C   UNL     1       8.035   1.470  -9.108  1.00  0.00     0.044 C 
ATOM      2  C   UNL     1       7.971   1.863  -7.661  1.00  0.00    -0.047 A 
ATOM      3  C   UNL     1       8.674   2.984  -7.205  1.00  0.00     0.016 A 
ATOM      4  C   UNL     1       8.656   3.335  -5.844  1.00  0.00     0.038 A 
ATOM      5  C   UNL     1       7.945   2.537  -4.921  1.00  0.00     0.076 A 
ATOM      6  C   UNL     1       7.197   1.428  -5.397  1.00  0.00     0.127 A 
ATOM      7  C   UNL     1       7.246   1.088  -6.751  1.00  0.00     0.050 A 
ATOM      8  C   UNL     1       8.071   2.854  -3.475  1.00  0.00     0.201 C 
ATOM      9  O   UNL     1       7.978   1.934  -2.619  1.00  0.00    -0.288 OA
ATOM     10  C   UNL     1       8.495   4.215  -3.053  1.00  0.00     0.076 A 
ATOM     11  C   UNL     1       9.206   5.010  -3.979  1.00  0.00     0.041 A 
ATOM     12  C   UNL     1       9.378   4.541  -5.375  1.00  0.00     0.194 C 
ATOM     13  O   UNL     1      10.119   5.184  -6.169  1.00  0.00    -0.289 OA
ATOM     14  C   UNL     1       9.742   6.244  -3.575  1.00  0.00     0.059 A 
ATOM     15  C   UNL     1       9.565   6.700  -2.269  1.00  0.00     0.120 A 
ATOM     16  C   UNL     1       8.828   5.936  -1.360  1.00  0.00     0.093 A 
ATOM     17  C   UNL     1       8.267   4.714  -1.743  1.00  0.00     0.131 A 
ENDROOT
BRANCH   6  18
ATOM     18  O   UNL     1       6.370   0.664  -4.569  1.00  0.00    -0.507 OA
ATOM     19  H   UNL     1       6.713  -0.056  -3.949  1.00  0.00     0.293 HD
ENDBRANCH   6  18
BRANCH  17  20
ATOM     20  O   UNL     1       7.468   4.051  -0.809  1.00  0.00    -0.507 OA
ATOM     21  H   UNL     1       7.831   3.405  -0.122  1.00  0.00     0.293 HD
ENDBRANCH  17  20
BRANCH  15  22
ATOM     22  O   UNL     1      10.117   7.921  -1.886  1.00  0.00    -0.508 OA
ATOM     23  H   UNL     1       9.690   8.494  -1.168  1.00  0.00     0.293 HD
ENDBRANCH  15  22
TORSDOF 3
ENDMDL
MODEL 6
REMARK VINA RESULT:    -6.178      1.656      6.422
REMARK INTER + INTRA:          -6.720
REMARK INTER:                  -6.720
REMARK INTRA:                   0.000
REMARK UNBOUND:                 0.000
REMARK SMILES Cc1cc(O)c2c(c1)C(=O)c1cc(O)cc(O)c1C2=O
REMARK SMILES IDX 1 1 2 2 8 3 7 4 6 5 4 6 3 7 19 8 20 9 18 10 11 11 9 12 10 13
REMARK SMILES IDX 12 14 13 15 15 16 16 17 5 18 17 20 14 22
REMARK H PARENT 5 19 17 21 14 23
REMARK Flexibility Score: inf
ROOT
ATOM      1  C   UNL     1       9.252   5.524   1.017  1.00  0.00     0.044 C 
ATOM      2  C   UNL     1       9.019   4.737  -0.240  1.00  0.00    -0.047 A 
ATOM      3  C   UNL     1       9.293   5.308  -1.488  1.00  0.00     0.016 A 
ATOM      4  C   UNL     1       9.037   4.596  -2.673  1.00  0.00     0.038 A 
ATOM      5  C   UNL     1       8.474   3.302  -2.608  1.00  0.00     0.076 A 
ATOM      6  C   UNL     1       8.242   2.711  -1.339  1.00  0.00     0.127 A 
ATOM      7  C   UNL     1       8.486   3.447  -0.175  1.00  0.00     0.050 A 
ATOM      8  C   UNL     1       8.082   2.643  -3.881  1.00  0.00     0.201 C 
ATOM      9  O   UNL     1       7.117   1.832  -3.897  1.00  0.00    -0.288 OA
ATOM     10  C   UNL     1       8.700   3.082  -5.159  1.00  0.00     0.076 A 
ATOM     11  C   UNL     1       9.262   4.376  -5.220  1.00  0.00     0.041 A 
ATOM     12  C   UNL     1       9.359   5.196  -3.989  1.00  0.00     0.194 C 
ATOM     13  O   UNL     1       9.741   6.397  -4.059  1.00  0.00    -0.289 OA
ATOM     14  C   UNL     1       9.731   4.878  -6.445  1.00  0.00     0.059 A 
ATOM     15  C   UNL     1       9.661   4.103  -7.602  1.00  0.00     0.120 A 
ATOM     16  C   UNL     1       9.143   2.807  -7.540  1.00  0.00     0.093 A 
ATOM     17  C   UNL     1       8.688   2.276  -6.328  1.00  0.00     0.131 A 
ENDROOT
BRANCH   6  18
ATOM     18  O   UNL     1       7.803   1.393  -1.188  1.00  0.00    -0.507 OA
ATOM     19  H   UNL     1       7.649   0.955  -0.291  1.00  0.00     0.293 HD
ENDBRANCH   6  18
BRANCH  17  20
ATOM     20  O   UNL     1       8.269   0.944  -6.326  1.00  0.00    -0.507 OA
ATOM     21  H   UNL     1       7.642   0.554  -7.016  1.00  0.00     0.293 HD
ENDBRANCH  17  20
BRANCH  15  22
ATOM     22  O   UNL     1      10.121   4.627  -8.809  1.00  0.00    -0.508 OA
ATOM     23  H   UNL     1       9.865   4.212  -9.697  1.00  0.00     0.293 HD
ENDBRANCH  15  22
TORSDOF 3
ENDMDL
MODEL 7
REMARK VINA RESULT:    -5.997      3.233      7.695
REMARK INTER + INTRA:          -6.522
REMARK INTER:                  -6.522
REMARK INTRA:                   0.000
REMARK UNBOUND:                 0.000
REMARK SMILES Cc1cc(O)c2c(c1)C(=O)c1cc(O)cc(O)c1C2=O
REMARK SMILES IDX 1 1 2 2 8 3 7 4 6 5 4 6 3 7 19 8 20 9 18 10 11 11 9 12 10 13
REMARK SMILES IDX 12 14 13 15 15 16 16 17 5 18 17 20 14 22
REMARK H PARENT 5 19 17 21 14 23
REMARK Flexibility Score: inf
ROOT
ATOM      1  C   UNL     1       9.900  10.567   4.263  1.00  0.00     0.044 C 
ATOM      2  C   UNL     1       9.379   9.212   3.882  1.00  0.00    -0.047 A 
ATOM      3  C   UNL     1       9.666   8.677   2.621  1.00  0.00     0.016 A 
ATOM      4  C   UNL     1       9.147   7.428   2.238  1.00  0.00     0.038 A 
ATOM      5  C   UNL     1       8.305   6.715   3.122  1.00  0.00     0.076 A 
ATOM      6  C   UNL     1       8.056   7.242   4.416  1.00  0.00     0.127 A 
ATOM      7  C   UNL     1       8.567   8.495   4.766  1.00  0.00     0.050 A 
ATOM      8  C   UNL     1       7.659   5.473   2.626  1.00  0.00     0.201 C 
ATOM      9  O   UNL     1       6.534   5.127   3.077  1.00  0.00    -0.288 OA
ATOM     10  C   UNL     1       8.246   4.747   1.469  1.00  0.00     0.076 A 
ATOM     11  C   UNL     1       9.086   5.464   0.588  1.00  0.00     0.041 A 
ATOM     12  C   UNL     1       9.481   6.855   0.914  1.00  0.00     0.194 C 
ATOM     13  O   UNL     1      10.125   7.541   0.072  1.00  0.00    -0.289 OA
ATOM     14  C   UNL     1       9.549   4.852  -0.589  1.00  0.00     0.059 A 
ATOM     15  C   UNL     1       9.197   3.537  -0.890  1.00  0.00     0.120 A 
ATOM     16  C   UNL     1       8.399   2.810  -0.002  1.00  0.00     0.093 A 
ATOM     17  C   UNL     1       7.943   3.389   1.186  1.00  0.00     0.131 A 
ENDROOT
BRANCH   6  18
ATOM     18  O   UNL     1       7.338   6.544   5.390  1.00  0.00    -0.507 OA
ATOM     19  H   UNL     1       6.330   6.563   5.462  1.00  0.00     0.293 HD
ENDBRANCH   6  18
BRANCH  17  20
ATOM     20  O   UNL     1       7.227   2.574   2.066  1.00  0.00    -0.507 OA
ATOM     21  H   UNL     1       7.456   1.606   2.242  1.00  0.00     0.293 HD
ENDBRANCH  17  20
BRANCH  15  22
ATOM     22  O   UNL     1       9.657   2.955  -2.070  1.00  0.00    -0.508 OA
ATOM     23  H   UNL     1      10.602   2.600  -2.153  1.00  0.00     0.293 HD
ENDBRANCH  15  22
TORSDOF 3
ENDMDL
MODEL 8
REMARK VINA RESULT:    -5.957      2.794      7.140
REMARK INTER + INTRA:          -6.479
REMARK INTER:                  -6.479
REMARK INTRA:                   0.000
REMARK UNBOUND:                 0.000
REMARK SMILES Cc1cc(O)c2c(c1)C(=O)c1cc(O)cc(O)c1C2=O
REMARK SMILES IDX 1 1 2 2 8 3 7 4 6 5 4 6 3 7 19 8 20 9 18 10 11 11 9 12 10 13
REMARK SMILES IDX 12 14 13 15 15 16 16 17 5 18 17 20 14 22
REMARK H PARENT 5 19 17 21 14 23
REMARK Flexibility Score: inf
ROOT
ATOM      1  C   UNL     1       5.660   5.509   5.988  1.00  0.00     0.044 C 
ATOM      2  C   UNL     1       6.441   5.961   4.789  1.00  0.00    -0.047 A 
ATOM      3  C   UNL     1       6.661   5.083   3.722  1.00  0.00     0.016 A 
ATOM      4  C   UNL     1       7.429   5.482   2.614  1.00  0.00     0.038 A 
ATOM      5  C   UNL     1       8.006   6.771   2.585  1.00  0.00     0.076 A 
ATOM      6  C   UNL     1       7.741   7.672   3.649  1.00  0.00     0.127 A 
ATOM      7  C   UNL     1       6.991   7.246   4.749  1.00  0.00     0.050 A 
ATOM      8  C   UNL     1       8.930   7.102   1.469  1.00  0.00     0.201 C 
ATOM      9  O   UNL     1       9.871   7.919   1.654  1.00  0.00    -0.288 OA
ATOM     10  C   UNL     1       8.859   6.331   0.200  1.00  0.00     0.076 A 
ATOM     11  C   UNL     1       8.281   5.043   0.233  1.00  0.00     0.041 A 
ATOM     12  C   UNL     1       7.631   4.557   1.474  1.00  0.00     0.194 C 
ATOM     13  O   UNL     1       7.228   3.363   1.549  1.00  0.00    -0.289 OA
ATOM     14  C   UNL     1       8.319   4.229  -0.912  1.00  0.00     0.059 A 
ATOM     15  C   UNL     1       8.910   4.689  -2.089  1.00  0.00     0.120 A 
ATOM     16  C   UNL     1       9.448   5.978  -2.138  1.00  0.00     0.093 A 
ATOM     17  C   UNL     1       9.404   6.814  -1.019  1.00  0.00     0.131 A 
ENDROOT
BRANCH   6  18
ATOM     18  O   UNL     1       8.171   9.001   3.638  1.00  0.00    -0.507 OA
ATOM     19  H   UNL     1       8.170   9.595   4.455  1.00  0.00     0.293 HD
ENDBRANCH   6  18
BRANCH  17  20
ATOM     20  O   UNL     1       9.878   8.119  -1.171  1.00  0.00    -0.507 OA
ATOM     21  H   UNL     1      10.843   8.383  -1.026  1.00  0.00     0.293 HD
ENDBRANCH  17  20
BRANCH  15  22
ATOM     22  O   UNL     1       8.949   3.860  -3.208  1.00  0.00    -0.508 OA
ATOM     23  H   UNL     1       9.704   3.913  -3.881  1.00  0.00     0.293 HD
ENDBRANCH  15  22
TORSDOF 3
ENDMDL
