MODEL 1
REMARK VINA RESULT:    -7.522      0.000      0.000
REMARK INTER + INTRA:         -13.704
REMARK INTER:                 -11.919
REMARK INTRA:                  -1.785
REMARK UNBOUND:                -1.785
REMARK SMILES C[C@@H]1O[C@H](O[C@@H]2[C@H](Oc3cc(O)c4c(c3)O[C@@H](c3ccc(O)cc3)CC4=O)O[C@@H](CO)[C@H](O)[C@H]2O)[C@@H](O)[C@H](O)[C@@H]1O
REMARK SMILES IDX 6 1 34 2 32 3 29 4 28 5 7 6 5 7 4 8 1 9 2 10 40 11 3 12
REMARK SMILES IDX 38 13 36 14 41 15 39 17 37 19 35 21 8 23 9 24 10 25 15 26
REMARK SMILES IDX 11 27 14 28 13 29 16 30 26 31 17 32 27 33 25 34 12 35 18 37
REMARK SMILES IDX 19 38 24 39 20 40 23 41 21 42 22 43 33 45 30 47 31 48
REMARK H PARENT 41 16 39 18 37 20 35 22 12 36 22 44 33 46 31 49
REMARK Flexibility Score: inf
ROOT
ATOM      1  C   UNL     1     179.347 169.868 171.125  1.00  0.00     0.221 C 
ATOM      2  C   UNL     1     180.778 170.393 170.919  1.00  0.00     0.181 C 
ATOM      3  C   UNL     1     181.666 169.909 172.076  1.00  0.00     0.177 C 
ATOM      4  C   UNL     1     180.992 170.189 173.452  1.00  0.00     0.179 C 
ATOM      5  O   UNL     1     179.787 170.934 173.326  1.00  0.00    -0.332 OA
ATOM      6  C   UNL     1     178.805 170.282 172.529  1.00  0.00     0.339 C 
ENDROOT
BRANCH   1   7
ATOM      7  O   UNL     1     178.520 170.408 170.106  1.00  0.00    -0.337 OA
BRANCH   7   8
ATOM      8  C   UNL     1     178.066 169.416 169.203  1.00  0.00     0.282 C 
ATOM      9  C   UNL     1     177.103 167.008 171.172  1.00  0.00     0.041 C 
ATOM     10  C   UNL     1     177.668 167.081 169.740  1.00  0.00     0.150 C 
ATOM     11  C   UNL     1     176.616 167.010 168.606  1.00  0.00     0.174 C 
ATOM     12  O   UNL     1     178.592 168.149 169.604  1.00  0.00    -0.344 OA
ATOM     13  C   UNL     1     175.947 168.374 168.292  1.00  0.00     0.179 C 
ATOM     14  C   UNL     1     176.528 169.524 169.124  1.00  0.00     0.202 C 
BRANCH  11  15
ATOM     15  O   UNL     1     175.661 166.015 168.893  1.00  0.00    -0.388 OA
ATOM     16  H   UNL     1     174.793 166.478 169.025  1.00  0.00     0.211 HD
ENDBRANCH  11  15
BRANCH  13  17
ATOM     17  O   UNL     1     174.548 168.330 168.418  1.00  0.00    -0.387 OA
ATOM     18  H   UNL     1     174.282 169.041 169.059  1.00  0.00     0.211 HD
ENDBRANCH  13  17
BRANCH  14  19
ATOM     19  O   UNL     1     176.172 170.743 168.517  1.00  0.00    -0.385 OA
ATOM     20  H   UNL     1     176.976 171.064 168.029  1.00  0.00     0.211 HD
ENDBRANCH  14  19
ENDBRANCH   7   8
ENDBRANCH   1   7
BRANCH   2  21
ATOM     21  O   UNL     1     181.303 169.924 169.703  1.00  0.00    -0.387 OA
ATOM     22  H   UNL     1     182.009 169.261 169.926  1.00  0.00     0.211 HD
ENDBRANCH   2  21
BRANCH   6  23
ATOM     23  O   UNL     1     177.679 171.151 172.369  1.00  0.00    -0.462 OA
BRANCH  23  24
ATOM     24  C   UNL     1     176.422 170.979 172.970  1.00  0.00     0.130 A 
ATOM     25  C   UNL     1     175.350 170.590 172.158  1.00  0.00     0.093 A 
ATOM     26  C   UNL     1     176.191 171.230 174.337  1.00  0.00     0.094 A 
ATOM     27  C   UNL     1     174.066 170.412 172.690  1.00  0.00     0.133 A 
ATOM     28  C   UNL     1     174.912 171.073 174.878  1.00  0.00     0.138 A 
ATOM     29  C   UNL     1     173.851 170.616 174.074  1.00  0.00     0.102 A 
ATOM     30  O   UNL     1     174.696 171.408 176.223  1.00  0.00    -0.484 OA
ATOM     31  C   UNL     1     172.557 170.386 174.742  1.00  0.00     0.174 C 
ATOM     32  C   UNL     1     173.484 171.111 176.928  1.00  0.00     0.211 C 
ATOM     33  O   UNL     1     171.760 169.502 174.335  1.00  0.00    -0.294 OA
ATOM     34  C   UNL     1     172.258 171.156 175.994  1.00  0.00     0.131 C 
BRANCH  27  35
ATOM     35  O   UNL     1     173.033 170.088 171.811  1.00  0.00    -0.507 OA
ATOM     36  H   UNL     1     172.329 170.755 171.525  1.00  0.00     0.293 HD
ENDBRANCH  27  35
BRANCH  32  37
ATOM     37  C   UNL     1     173.307 172.081 178.074  1.00  0.00    -0.007 A 
ATOM     38  C   UNL     1     172.055 172.681 178.310  1.00  0.00     0.011 A 
ATOM     39  C   UNL     1     174.366 172.339 178.962  1.00  0.00     0.011 A 
ATOM     40  C   UNL     1     171.870 173.525 179.410  1.00  0.00     0.046 A 
ATOM     41  C   UNL     1     174.182 173.188 180.058  1.00  0.00     0.046 A 
ATOM     42  C   UNL     1     172.930 173.782 180.286  1.00  0.00     0.115 A 
BRANCH  42  43
ATOM     43  O   UNL     1     172.730 174.628 181.376  1.00  0.00    -0.508 OA
ATOM     44  H   UNL     1     171.955 174.492 182.013  1.00  0.00     0.293 HD
ENDBRANCH  42  43
ENDBRANCH  32  37
ENDBRANCH  23  24
ENDBRANCH   6  23
BRANCH   3  45
ATOM     45  O   UNL     1     182.937 170.514 172.005  1.00  0.00    -0.387 OA
ATOM     46  H   UNL     1     183.038 170.898 171.095  1.00  0.00     0.211 HD
ENDBRANCH   3  45
BRANCH   4  47
ATOM     47  C   UNL     1     180.833 168.931 174.341  1.00  0.00     0.191 C 
BRANCH  47  48
ATOM     48  O   UNL     1     181.996 168.146 174.337  1.00  0.00    -0.394 OA
ATOM     49  H   UNL     1     182.297 168.064 175.283  1.00  0.00     0.210 HD
ENDBRANCH  47  48
ENDBRANCH   4  47
TORSDOF 14
ENDMDL
MODEL 2
REMARK VINA RESULT:    -7.478      6.143      9.691
REMARK INTER + INTRA:         -13.635
REMARK INTER:                 -12.225
REMARK INTRA:                  -1.411
REMARK UNBOUND:                -1.785
REMARK SMILES C[C@@H]1O[C@H](O[C@@H]2[C@H](Oc3cc(O)c4c(c3)O[C@@H](c3ccc(O)cc3)CC4=O)O[C@@H](CO)[C@H](O)[C@H]2O)[C@@H](O)[C@H](O)[C@@H]1O
REMARK SMILES IDX 6 1 34 2 32 3 29 4 28 5 7 6 5 7 4 8 1 9 2 10 40 11 3 12
REMARK SMILES IDX 38 13 36 14 41 15 39 17 37 19 35 21 8 23 9 24 10 25 15 26
REMARK SMILES IDX 11 27 14 28 13 29 16 30 26 31 17 32 27 33 25 34 12 35 18 37
REMARK SMILES IDX 19 38 24 39 20 40 23 41 21 42 22 43 33 45 30 47 31 48
REMARK H PARENT 41 16 39 18 37 20 35 22 12 36 22 44 33 46 31 49
REMARK Flexibility Score: inf
ROOT
ATOM      1  C   UNL     1     169.879 176.825 172.452  1.00  0.00     0.221 C 
ATOM      2  C   UNL     1     170.475 177.294 173.790  1.00  0.00     0.181 C 
ATOM      3  C   UNL     1     171.694 178.190 173.515  1.00  0.00     0.177 C 
ATOM      4  C   UNL     1     172.661 177.518 172.496  1.00  0.00     0.179 C 
ATOM      5  O   UNL     1     172.263 176.194 172.159  1.00  0.00    -0.332 OA
ATOM      6  C   UNL     1     170.967 176.128 171.577  1.00  0.00     0.339 C 
ENDROOT
BRANCH   1   7
ATOM      7  O   UNL     1     168.820 175.919 172.725  1.00  0.00    -0.337 OA
BRANCH   7   8
ATOM      8  C   UNL     1     167.576 176.386 172.237  1.00  0.00     0.282 C 
ATOM      9  C   UNL     1     166.083 173.655 171.280  1.00  0.00     0.041 C 
ATOM     10  C   UNL     1     166.036 175.131 170.840  1.00  0.00     0.150 C 
ATOM     11  C   UNL     1     164.858 175.958 171.413  1.00  0.00     0.174 C 
ATOM     12  O   UNL     1     167.302 175.754 170.985  1.00  0.00    -0.344 OA
ATOM     13  C   UNL     1     165.121 176.508 172.840  1.00  0.00     0.179 C 
ATOM     14  C   UNL     1     166.528 176.178 173.352  1.00  0.00     0.202 C 
BRANCH  11  15
ATOM     15  O   UNL     1     163.666 175.209 171.354  1.00  0.00    -0.388 OA
ATOM     16  H   UNL     1     162.928 175.821 171.612  1.00  0.00     0.211 HD
ENDBRANCH  11  15
BRANCH  13  17
ATOM     17  O   UNL     1     164.148 176.092 173.766  1.00  0.00    -0.387 OA
ATOM     18  H   UNL     1     163.570 176.875 173.965  1.00  0.00     0.211 HD
ENDBRANCH  13  17
BRANCH  14  19
ATOM     19  O   UNL     1     166.822 177.025 174.437  1.00  0.00    -0.385 OA
ATOM     20  H   UNL     1     165.969 177.461 174.698  1.00  0.00     0.211 HD
ENDBRANCH  14  19
ENDBRANCH   7   8
ENDBRANCH   1   7
BRANCH   2  21
ATOM     21  O   UNL     1     169.522 178.019 174.526  1.00  0.00    -0.387 OA
ATOM     22  H   UNL     1     170.013 178.729 175.018  1.00  0.00     0.211 HD
ENDBRANCH   2  21
BRANCH   6  23
ATOM     23  O   UNL     1     170.612 174.756 171.378  1.00  0.00    -0.462 OA
BRANCH  23  24
ATOM     24  C   UNL     1     170.987 173.686 172.207  1.00  0.00     0.130 A 
ATOM     25  C   UNL     1     170.707 172.384 171.773  1.00  0.00     0.093 A 
ATOM     26  C   UNL     1     171.581 173.875 173.470  1.00  0.00     0.094 A 
ATOM     27  C   UNL     1     171.042 171.273 172.556  1.00  0.00     0.133 A 
ATOM     28  C   UNL     1     171.906 172.776 174.270  1.00  0.00     0.138 A 
ATOM     29  C   UNL     1     171.686 171.467 173.802  1.00  0.00     0.102 A 
ATOM     30  O   UNL     1     172.422 172.997 175.555  1.00  0.00    -0.484 OA
ATOM     31  C   UNL     1     172.144 170.362 174.665  1.00  0.00     0.174 C 
ATOM     32  C   UNL     1     172.963 171.958 176.381  1.00  0.00     0.211 C 
ATOM     33  O   UNL     1     172.526 169.268 174.178  1.00  0.00    -0.294 OA
ATOM     34  C   UNL     1     172.250 170.612 176.140  1.00  0.00     0.131 C 
BRANCH  27  35
ATOM     35  O   UNL     1     170.675 170.010 172.091  1.00  0.00    -0.507 OA
ATOM     36  H   UNL     1     169.730 169.785 171.810  1.00  0.00     0.293 HD
ENDBRANCH  27  35
BRANCH  32  37
ATOM     37  C   UNL     1     172.859 172.355 177.836  1.00  0.00    -0.007 A 
ATOM     38  C   UNL     1     173.953 172.170 178.703  1.00  0.00     0.011 A 
ATOM     39  C   UNL     1     171.699 172.981 178.325  1.00  0.00     0.011 A 
ATOM     40  C   UNL     1     173.885 172.598 180.033  1.00  0.00     0.046 A 
ATOM     41  C   UNL     1     171.629 173.405 179.656  1.00  0.00     0.046 A 
ATOM     42  C   UNL     1     172.724 173.215 180.514  1.00  0.00     0.115 A 
BRANCH  42  43
ATOM     43  O   UNL     1     172.670 173.635 181.843  1.00  0.00    -0.508 OA
ATOM     44  H   UNL     1     172.462 174.596 182.084  1.00  0.00     0.293 HD
ENDBRANCH  42  43
ENDBRANCH  32  37
ENDBRANCH  23  24
ENDBRANCH   6  23
BRANCH   3  45
ATOM     45  O   UNL     1     172.360 178.493 174.718  1.00  0.00    -0.387 OA
ATOM     46  H   UNL     1     172.918 179.299 174.560  1.00  0.00     0.211 HD
ENDBRANCH   3  45
BRANCH   4  47
ATOM     47  C   UNL     1     172.967 178.389 171.253  1.00  0.00     0.191 C 
BRANCH  47  48
ATOM     48  O   UNL     1     172.118 179.505 171.183  1.00  0.00    -0.394 OA
ATOM     49  H   UNL     1     172.608 180.271 171.591  1.00  0.00     0.210 HD
ENDBRANCH  47  48
ENDBRANCH   4  47
TORSDOF 14
ENDMDL
MODEL 3
REMARK VINA RESULT:    -7.440      7.457     11.258
REMARK INTER + INTRA:         -13.575
REMARK INTER:                 -11.808
REMARK INTRA:                  -1.767
REMARK UNBOUND:                -1.785
REMARK SMILES C[C@@H]1O[C@H](O[C@@H]2[C@H](Oc3cc(O)c4c(c3)O[C@@H](c3ccc(O)cc3)CC4=O)O[C@@H](CO)[C@H](O)[C@H]2O)[C@@H](O)[C@H](O)[C@@H]1O
REMARK SMILES IDX 6 1 34 2 32 3 29 4 28 5 7 6 5 7 4 8 1 9 2 10 40 11 3 12
REMARK SMILES IDX 38 13 36 14 41 15 39 17 37 19 35 21 8 23 9 24 10 25 15 26
REMARK SMILES IDX 11 27 14 28 13 29 16 30 26 31 17 32 27 33 25 34 12 35 18 37
REMARK SMILES IDX 19 38 24 39 20 40 23 41 21 42 22 43 33 45 30 47 31 48
REMARK H PARENT 41 16 39 18 37 20 35 22 12 36 22 44 33 46 31 49
REMARK Flexibility Score: inf
ROOT
ATOM      1  C   UNL     1     167.024 176.473 171.010  1.00  0.00     0.221 C 
ATOM      2  C   UNL     1     165.597 175.913 170.885  1.00  0.00     0.181 C 
ATOM      3  C   UNL     1     164.753 176.410 172.070  1.00  0.00     0.177 C 
ATOM      4  C   UNL     1     165.497 176.182 173.419  1.00  0.00     0.179 C 
ATOM      5  O   UNL     1     166.711 175.459 173.256  1.00  0.00    -0.332 OA
ATOM      6  C   UNL     1     167.640 176.110 172.397  1.00  0.00     0.339 C 
ENDROOT
BRANCH   1   7
ATOM      7  O   UNL     1     167.815 175.923 169.967  1.00  0.00    -0.337 OA
BRANCH   7   8
ATOM      8  C   UNL     1     168.266 176.911 169.058  1.00  0.00     0.282 C 
ATOM      9  C   UNL     1     169.077 179.392 171.004  1.00  0.00     0.041 C 
ATOM     10  C   UNL     1     168.564 179.269 169.556  1.00  0.00     0.150 C 
ATOM     11  C   UNL     1     169.652 179.353 168.457  1.00  0.00     0.174 C 
ATOM     12  O   UNL     1     167.683 178.167 169.413  1.00  0.00    -0.344 OA
ATOM     13  C   UNL     1     170.377 178.006 168.196  1.00  0.00     0.179 C 
ATOM     14  C   UNL     1     169.808 176.855 169.034  1.00  0.00     0.202 C 
BRANCH  11  15
ATOM     15  O   UNL     1     170.562 180.387 168.754  1.00  0.00    -0.388 OA
ATOM     16  H   UNL     1     171.151 180.489 167.961  1.00  0.00     0.211 HD
ENDBRANCH  11  15
BRANCH  13  17
ATOM     17  O   UNL     1     171.770 178.102 168.369  1.00  0.00    -0.387 OA
ATOM     18  H   UNL     1     172.103 177.200 168.618  1.00  0.00     0.211 HD
ENDBRANCH  13  17
BRANCH  14  19
ATOM     19  O   UNL     1     170.226 175.636 168.466  1.00  0.00    -0.385 OA
ATOM     20  H   UNL     1     171.201 175.561 168.637  1.00  0.00     0.211 HD
ENDBRANCH  14  19
ENDBRANCH   7   8
ENDBRANCH   1   7
BRANCH   2  21
ATOM     21  O   UNL     1     165.005 176.337 169.683  1.00  0.00    -0.387 OA
ATOM     22  H   UNL     1     164.394 175.612 169.387  1.00  0.00     0.211 HD
ENDBRANCH   2  21
BRANCH   6  23
ATOM     23  O   UNL     1     168.776 175.260 172.207  1.00  0.00    -0.462 OA
BRANCH  23  24
ATOM     24  C   UNL     1     170.027 175.418 172.826  1.00  0.00     0.130 A 
ATOM     25  C   UNL     1     171.118 175.780 172.026  1.00  0.00     0.093 A 
ATOM     26  C   UNL     1     170.232 175.177 174.198  1.00  0.00     0.094 A 
ATOM     27  C   UNL     1     172.396 175.942 172.576  1.00  0.00     0.133 A 
ATOM     28  C   UNL     1     171.505 175.318 174.758  1.00  0.00     0.138 A 
ATOM     29  C   UNL     1     172.586 175.749 173.966  1.00  0.00     0.102 A 
ATOM     30  O   UNL     1     171.694 174.994 176.109  1.00  0.00    -0.484 OA
ATOM     31  C   UNL     1     173.873 175.965 174.652  1.00  0.00     0.174 C 
ATOM     32  C   UNL     1     172.900 175.279 176.831  1.00  0.00     0.211 C 
ATOM     33  O   UNL     1     174.691 176.830 174.247  1.00  0.00    -0.294 OA
ATOM     34  C   UNL     1     174.140 175.203 175.916  1.00  0.00     0.131 C 
BRANCH  27  35
ATOM     35  O   UNL     1     173.448 176.239 171.710  1.00  0.00    -0.507 OA
ATOM     36  H   UNL     1     173.824 177.172 171.607  1.00  0.00     0.293 HD
ENDBRANCH  27  35
BRANCH  32  37
ATOM     37  C   UNL     1     173.043 174.318 177.989  1.00  0.00    -0.007 A 
ATOM     38  C   UNL     1     174.286 173.719 178.267  1.00  0.00     0.011 A 
ATOM     39  C   UNL     1     171.958 174.069 178.848  1.00  0.00     0.011 A 
ATOM     40  C   UNL     1     174.439 172.884 179.378  1.00  0.00     0.046 A 
ATOM     41  C   UNL     1     172.110 173.230 179.957  1.00  0.00     0.046 A 
ATOM     42  C   UNL     1     173.353 172.635 180.225  1.00  0.00     0.115 A 
BRANCH  42  43
ATOM     43  O   UNL     1     173.520 171.798 181.328  1.00  0.00    -0.508 OA
ATOM     44  H   UNL     1     174.063 172.089 182.132  1.00  0.00     0.293 HD
ENDBRANCH  42  43
ENDBRANCH  32  37
ENDBRANCH  23  24
ENDBRANCH   6  23
BRANCH   3  45
ATOM     45  O   UNL     1     163.495 175.777 172.075  1.00  0.00    -0.387 OA
ATOM     46  H   UNL     1     163.183 175.717 171.133  1.00  0.00     0.211 HD
ENDBRANCH   3  45
BRANCH   4  47
ATOM     47  C   UNL     1     165.670 177.467 174.265  1.00  0.00     0.191 C 
BRANCH  47  48
ATOM     48  O   UNL     1     164.466 178.182 174.369  1.00  0.00    -0.394 OA
ATOM     49  H   UNL     1     164.617 179.072 173.946  1.00  0.00     0.210 HD
ENDBRANCH  47  48
ENDBRANCH   4  47
TORSDOF 14
ENDMDL
MODEL 4
REMARK VINA RESULT:    -7.416      3.048      5.017
REMARK INTER + INTRA:         -13.536
REMARK INTER:                 -11.588
REMARK INTRA:                  -1.949
REMARK UNBOUND:                -1.785
REMARK SMILES C[C@@H]1O[C@H](O[C@@H]2[C@H](Oc3cc(O)c4c(c3)O[C@@H](c3ccc(O)cc3)CC4=O)O[C@@H](CO)[C@H](O)[C@H]2O)[C@@H](O)[C@H](O)[C@@H]1O
REMARK SMILES IDX 6 1 34 2 32 3 29 4 28 5 7 6 5 7 4 8 1 9 2 10 40 11 3 12
REMARK SMILES IDX 38 13 36 14 41 15 39 17 37 19 35 21 8 23 9 24 10 25 15 26
REMARK SMILES IDX 11 27 14 28 13 29 16 30 26 31 17 32 27 33 25 34 12 35 18 37
REMARK SMILES IDX 19 38 24 39 20 40 23 41 21 42 22 43 33 45 30 47 31 48
REMARK H PARENT 41 16 39 18 37 20 35 22 12 36 22 44 33 46 31 49
REMARK Flexibility Score: inf
ROOT
ATOM      1  C   UNL     1     177.606 174.096 171.387  1.00  0.00     0.221 C 
ATOM      2  C   UNL     1     177.958 174.927 170.142  1.00  0.00     0.181 C 
ATOM      3  C   UNL     1     177.399 176.349 170.308  1.00  0.00     0.177 C 
ATOM      4  C   UNL     1     175.905 176.314 170.746  1.00  0.00     0.179 C 
ATOM      5  O   UNL     1     175.375 174.994 170.764  1.00  0.00    -0.332 OA
ATOM      6  C   UNL     1     176.067 174.124 171.651  1.00  0.00     0.339 C 
ENDROOT
BRANCH   1   7
ATOM      7  O   UNL     1     178.039 172.761 171.174  1.00  0.00    -0.337 OA
BRANCH   7   8
ATOM      8  C   UNL     1     178.899 172.306 172.202  1.00  0.00     0.282 C 
ATOM      9  C   UNL     1     178.582 169.068 172.054  1.00  0.00     0.041 C 
ATOM     10  C   UNL     1     178.899 170.079 173.172  1.00  0.00     0.150 C 
ATOM     11  C   UNL     1     180.401 170.240 173.516  1.00  0.00     0.174 C 
ATOM     12  O   UNL     1     178.219 171.307 172.966  1.00  0.00    -0.344 OA
ATOM     13  C   UNL     1     181.153 171.217 172.574  1.00  0.00     0.179 C 
ATOM     14  C   UNL     1     180.228 171.877 171.544  1.00  0.00     0.202 C 
BRANCH  11  15
ATOM     15  O   UNL     1     181.024 168.978 173.565  1.00  0.00    -0.388 OA
ATOM     16  H   UNL     1     180.623 168.488 174.330  1.00  0.00     0.211 HD
ENDBRANCH  11  15
BRANCH  13  17
ATOM     17  O   UNL     1     182.251 170.613 171.936  1.00  0.00    -0.387 OA
ATOM     18  H   UNL     1     182.490 171.175 171.153  1.00  0.00     0.211 HD
ENDBRANCH  13  17
BRANCH  14  19
ATOM     19  O   UNL     1     180.877 173.008 171.014  1.00  0.00    -0.385 OA
ATOM     20  H   UNL     1     180.881 173.696 171.730  1.00  0.00     0.211 HD
ENDBRANCH  14  19
ENDBRANCH   7   8
ENDBRANCH   1   7
BRANCH   2  21
ATOM     21  O   UNL     1     179.352 174.992 169.973  1.00  0.00    -0.387 OA
ATOM     22  H   UNL     1     179.761 174.873 170.871  1.00  0.00     0.211 HD
ENDBRANCH   2  21
BRANCH   6  23
ATOM     23  O   UNL     1     175.537 172.801 171.519  1.00  0.00    -0.462 OA
BRANCH  23  24
ATOM     24  C   UNL     1     175.172 171.957 172.581  1.00  0.00     0.130 A 
ATOM     25  C   UNL     1     174.897 170.615 172.293  1.00  0.00     0.093 A 
ATOM     26  C   UNL     1     175.024 172.419 173.903  1.00  0.00     0.094 A 
ATOM     27  C   UNL     1     174.515 169.722 173.302  1.00  0.00     0.133 A 
ATOM     28  C   UNL     1     174.628 171.543 174.918  1.00  0.00     0.138 A 
ATOM     29  C   UNL     1     174.419 170.180 174.638  1.00  0.00     0.102 A 
ATOM     30  O   UNL     1     174.412 172.049 176.208  1.00  0.00    -0.484 OA
ATOM     31  C   UNL     1     174.096 169.305 175.780  1.00  0.00     0.174 C 
ATOM     32  C   UNL     1     174.191 171.220 177.357  1.00  0.00     0.211 C 
ATOM     33  O   UNL     1     174.435 168.094 175.791  1.00  0.00    -0.294 OA
ATOM     34  C   UNL     1     173.449 169.920 176.985  1.00  0.00     0.131 C 
BRANCH  27  35
ATOM     35  O   UNL     1     174.193 168.416 172.932  1.00  0.00    -0.507 OA
ATOM     36  H   UNL     1     174.339 167.623 173.543  1.00  0.00     0.293 HD
ENDBRANCH  27  35
BRANCH  32  37
ATOM     37  C   UNL     1     173.414 171.989 178.401  1.00  0.00    -0.007 A 
ATOM     38  C   UNL     1     172.201 172.620 178.062  1.00  0.00     0.011 A 
ATOM     39  C   UNL     1     173.850 172.021 179.738  1.00  0.00     0.011 A 
ATOM     40  C   UNL     1     171.445 173.273 179.040  1.00  0.00     0.046 A 
ATOM     41  C   UNL     1     173.096 172.679 180.714  1.00  0.00     0.046 A 
ATOM     42  C   UNL     1     171.888 173.306 180.367  1.00  0.00     0.115 A 
BRANCH  42  43
ATOM     43  O   UNL     1     171.124 173.964 181.330  1.00  0.00    -0.508 OA
ATOM     44  H   UNL     1     170.119 173.848 181.375  1.00  0.00     0.293 HD
ENDBRANCH  42  43
ENDBRANCH  32  37
ENDBRANCH  23  24
ENDBRANCH   6  23
BRANCH   3  45
ATOM     45  O   UNL     1     177.558 177.080 169.114  1.00  0.00    -0.387 OA
ATOM     46  H   UNL     1     177.072 177.940 169.218  1.00  0.00     0.211 HD
ENDBRANCH   3  45
BRANCH   4  47
ATOM     47  C   UNL     1     175.614 177.100 172.048  1.00  0.00     0.191 C 
BRANCH  47  48
ATOM     48  O   UNL     1     175.849 178.474 171.884  1.00  0.00    -0.394 OA
ATOM     49  H   UNL     1     175.027 178.949 172.188  1.00  0.00     0.210 HD
ENDBRANCH  47  48
ENDBRANCH   4  47
TORSDOF 14
ENDMDL
MODEL 5
REMARK VINA RESULT:    -7.404      2.844      4.221
REMARK INTER + INTRA:         -13.517
REMARK INTER:                 -11.533
REMARK INTRA:                  -1.985
REMARK UNBOUND:                -1.785
REMARK SMILES C[C@@H]1O[C@H](O[C@@H]2[C@H](Oc3cc(O)c4c(c3)O[C@@H](c3ccc(O)cc3)CC4=O)O[C@@H](CO)[C@H](O)[C@H]2O)[C@@H](O)[C@H](O)[C@@H]1O
REMARK SMILES IDX 6 1 34 2 32 3 29 4 28 5 7 6 5 7 4 8 1 9 2 10 40 11 3 12
REMARK SMILES IDX 38 13 36 14 41 15 39 17 37 19 35 21 8 23 9 24 10 25 15 26
REMARK SMILES IDX 11 27 14 28 13 29 16 30 26 31 17 32 27 33 25 34 12 35 18 37
REMARK SMILES IDX 19 38 24 39 20 40 23 41 21 42 22 43 33 45 30 47 31 48
REMARK H PARENT 41 16 39 18 37 20 35 22 12 36 22 44 33 46 31 49
REMARK Flexibility Score: inf
ROOT
ATOM      1  C   UNL     1     177.211 170.776 171.433  1.00  0.00     0.221 C 
ATOM      2  C   UNL     1     178.180 170.355 170.316  1.00  0.00     0.181 C 
ATOM      3  C   UNL     1     179.622 170.655 170.758  1.00  0.00     0.177 C 
ATOM      4  C   UNL     1     179.747 172.107 171.306  1.00  0.00     0.179 C 
ATOM      5  O   UNL     1     178.544 172.852 171.152  1.00  0.00    -0.332 OA
ATOM      6  C   UNL     1     177.434 172.270 171.824  1.00  0.00     0.339 C 
ENDROOT
BRANCH   1   7
ATOM      7  O   UNL     1     175.882 170.587 170.968  1.00  0.00    -0.337 OA
BRANCH   7   8
ATOM      8  C   UNL     1     175.192 169.595 171.706  1.00  0.00     0.282 C 
ATOM      9  C   UNL     1     176.325 169.999 174.732  1.00  0.00     0.041 C 
ATOM     10  C   UNL     1     175.786 168.803 173.924  1.00  0.00     0.150 C 
ATOM     11  C   UNL     1     174.302 168.442 174.181  1.00  0.00     0.174 C 
ATOM     12  O   UNL     1     176.123 168.914 172.550  1.00  0.00    -0.344 OA
ATOM     13  C   UNL     1     173.302 169.301 173.363  1.00  0.00     0.179 C 
ATOM     14  C   UNL     1     174.002 170.280 172.412  1.00  0.00     0.202 C 
BRANCH  11  15
ATOM     15  O   UNL     1     174.024 168.490 175.561  1.00  0.00    -0.388 OA
ATOM     16  H   UNL     1     174.435 167.682 175.967  1.00  0.00     0.211 HD
ENDBRANCH  11  15
BRANCH  13  17
ATOM     17  O   UNL     1     172.381 169.980 174.180  1.00  0.00    -0.387 OA
ATOM     18  H   UNL     1     172.708 169.919 175.115  1.00  0.00     0.211 HD
ENDBRANCH  13  17
BRANCH  14  19
ATOM     19  O   UNL     1     173.072 170.716 171.449  1.00  0.00    -0.385 OA
ATOM     20  H   UNL     1     173.586 171.212 170.759  1.00  0.00     0.211 HD
ENDBRANCH  14  19
ENDBRANCH   7   8
ENDBRANCH   1   7
BRANCH   2  21
ATOM     21  O   UNL     1     178.054 168.982 170.045  1.00  0.00    -0.387 OA
ATOM     22  H   UNL     1     177.123 168.723 170.280  1.00  0.00     0.211 HD
ENDBRANCH   2  21
BRANCH   6  23
ATOM     23  O   UNL     1     176.255 173.024 171.521  1.00  0.00    -0.462 OA
BRANCH  23  24
ATOM     24  C   UNL     1     175.562 173.852 172.419  1.00  0.00     0.130 A 
ATOM     25  C   UNL     1     175.436 175.210 172.102  1.00  0.00     0.093 A 
ATOM     26  C   UNL     1     175.039 173.381 173.639  1.00  0.00     0.094 A 
ATOM     27  C   UNL     1     174.769 176.094 172.959  1.00  0.00     0.133 A 
ATOM     28  C   UNL     1     174.385 174.255 174.512  1.00  0.00     0.138 A 
ATOM     29  C   UNL     1     174.200 175.605 174.160  1.00  0.00     0.102 A 
ATOM     30  O   UNL     1     173.945 173.775 175.754  1.00  0.00    -0.484 OA
ATOM     31  C   UNL     1     173.417 176.438 175.091  1.00  0.00     0.174 C 
ATOM     32  C   UNL     1     173.103 174.524 176.640  1.00  0.00     0.211 C 
ATOM     33  O   UNL     1     172.724 177.404 174.678  1.00  0.00    -0.294 OA
ATOM     34  C   UNL     1     173.374 176.038 176.535  1.00  0.00     0.131 C 
BRANCH  27  35
ATOM     35  O   UNL     1     174.739 177.445 172.611  1.00  0.00    -0.507 OA
ATOM     36  H   UNL     1     175.254 178.152 173.119  1.00  0.00     0.293 HD
ENDBRANCH  27  35
BRANCH  32  37
ATOM     37  C   UNL     1     173.306 174.051 178.061  1.00  0.00    -0.007 A 
ATOM     38  C   UNL     1     172.243 174.098 178.985  1.00  0.00     0.011 A 
ATOM     39  C   UNL     1     174.531 173.487 178.459  1.00  0.00     0.011 A 
ATOM     40  C   UNL     1     172.407 173.598 180.280  1.00  0.00     0.046 A 
ATOM     41  C   UNL     1     174.696 172.992 179.757  1.00  0.00     0.046 A 
ATOM     42  C   UNL     1     173.631 173.045 180.671  1.00  0.00     0.115 A 
BRANCH  42  43
ATOM     43  O   UNL     1     173.780 172.553 181.967  1.00  0.00    -0.508 OA
ATOM     44  H   UNL     1     174.609 172.042 182.245  1.00  0.00     0.293 HD
ENDBRANCH  42  43
ENDBRANCH  32  37
ENDBRANCH  23  24
ENDBRANCH   6  23
BRANCH   3  45
ATOM     45  O   UNL     1     180.516 170.440 169.691  1.00  0.00    -0.387 OA
ATOM     46  H   UNL     1     181.234 169.835 170.015  1.00  0.00     0.211 HD
ENDBRANCH   3  45
BRANCH   4  47
ATOM     47  C   UNL     1     180.327 172.190 172.739  1.00  0.00     0.191 C 
BRANCH  47  48
ATOM     48  O   UNL     1     180.084 173.443 173.323  1.00  0.00    -0.394 OA
ATOM     49  H   UNL     1     180.525 173.440 174.216  1.00  0.00     0.210 HD
ENDBRANCH  47  48
ENDBRANCH   4  47
TORSDOF 14
ENDMDL
MODEL 6
REMARK VINA RESULT:    -7.383      5.566      9.871
REMARK INTER + INTRA:         -13.485
REMARK INTER:                 -11.488
REMARK INTRA:                  -1.997
REMARK UNBOUND:                -1.785
REMARK SMILES C[C@@H]1O[C@H](O[C@@H]2[C@H](Oc3cc(O)c4c(c3)O[C@@H](c3ccc(O)cc3)CC4=O)O[C@@H](CO)[C@H](O)[C@H]2O)[C@@H](O)[C@H](O)[C@@H]1O
REMARK SMILES IDX 6 1 34 2 32 3 29 4 28 5 7 6 5 7 4 8 1 9 2 10 40 11 3 12
REMARK SMILES IDX 38 13 36 14 41 15 39 17 37 19 35 21 8 23 9 24 10 25 15 26
REMARK SMILES IDX 11 27 14 28 13 29 16 30 26 31 17 32 27 33 25 34 12 35 18 37
REMARK SMILES IDX 19 38 24 39 20 40 23 41 21 42 22 43 33 45 30 47 31 48
REMARK H PARENT 41 16 39 18 37 20 35 22 12 36 22 44 33 46 31 49
REMARK Flexibility Score: inf
ROOT
ATOM      1  C   UNL     1     168.732 175.970 171.464  1.00  0.00     0.221 C 
ATOM      2  C   UNL     1     167.680 176.326 170.400  1.00  0.00     0.181 C 
ATOM      3  C   UNL     1     166.288 175.912 170.906  1.00  0.00     0.177 C 
ATOM      4  C   UNL     1     166.301 174.449 171.440  1.00  0.00     0.179 C 
ATOM      5  O   UNL     1     167.548 173.800 171.219  1.00  0.00    -0.332 OA
ATOM      6  C   UNL     1     168.642 174.459 171.845  1.00  0.00     0.339 C 
ENDROOT
BRANCH   1   7
ATOM      7  O   UNL     1     170.018 176.264 170.940  1.00  0.00    -0.337 OA
BRANCH   7   8
ATOM      8  C   UNL     1     170.713 177.216 171.726  1.00  0.00     0.282 C 
ATOM      9  C   UNL     1     169.716 176.545 174.752  1.00  0.00     0.041 C 
ATOM     10  C   UNL     1     170.190 177.815 174.020  1.00  0.00     0.150 C 
ATOM     11  C   UNL     1     171.674 178.198 174.247  1.00  0.00     0.174 C 
ATOM     12  O   UNL     1     169.800 177.802 172.657  1.00  0.00    -0.344 OA
ATOM     13  C   UNL     1     172.661 177.433 173.325  1.00  0.00     0.179 C 
ATOM     14  C   UNL     1     171.947 176.512 172.328  1.00  0.00     0.202 C 
BRANCH  11  15
ATOM     15  O   UNL     1     172.010 178.050 175.607  1.00  0.00    -0.388 OA
ATOM     16  H   UNL     1     172.141 177.079 175.768  1.00  0.00     0.211 HD
ENDBRANCH  11  15
BRANCH  13  17
ATOM     17  O   UNL     1     173.632 176.720 174.050  1.00  0.00    -0.387 OA
ATOM     18  H   UNL     1     174.128 176.150 173.405  1.00  0.00     0.211 HD
ENDBRANCH  13  17
BRANCH  14  19
ATOM     19  O   UNL     1     172.848 176.179 171.299  1.00  0.00    -0.385 OA
ATOM     20  H   UNL     1     173.344 177.010 171.073  1.00  0.00     0.211 HD
ENDBRANCH  14  19
ENDBRANCH   7   8
ENDBRANCH   1   7
BRANCH   2  21
ATOM     21  O   UNL     1     167.689 177.708 170.142  1.00  0.00    -0.387 OA
ATOM     22  H   UNL     1     167.015 178.121 170.744  1.00  0.00     0.211 HD
ENDBRANCH   2  21
BRANCH   6  23
ATOM     23  O   UNL     1     169.858 173.801 171.477  1.00  0.00    -0.462 OA
BRANCH  23  24
ATOM     24  C   UNL     1     170.601 172.937 172.298  1.00  0.00     0.130 A 
ATOM     25  C   UNL     1     170.754 171.607 171.888  1.00  0.00     0.093 A 
ATOM     26  C   UNL     1     171.147 173.342 173.531  1.00  0.00     0.094 A 
ATOM     27  C   UNL     1     171.471 170.688 172.665  1.00  0.00     0.133 A 
ATOM     28  C   UNL     1     171.850 172.432 174.325  1.00  0.00     0.138 A 
ATOM     29  C   UNL     1     172.062 171.115 173.879  1.00  0.00     0.102 A 
ATOM     30  O   UNL     1     172.313 172.843 175.584  1.00  0.00    -0.484 OA
ATOM     31  C   UNL     1     172.895 170.245 174.731  1.00  0.00     0.174 C 
ATOM     32  C   UNL     1     173.202 172.063 176.395  1.00  0.00     0.211 C 
ATOM     33  O   UNL     1     173.601 169.330 174.236  1.00  0.00    -0.294 OA
ATOM     34  C   UNL     1     172.970 170.551 176.197  1.00  0.00     0.131 C 
BRANCH  27  35
ATOM     35  O   UNL     1     171.528 169.365 172.228  1.00  0.00    -0.507 OA
ATOM     36  H   UNL     1     171.083 169.052 171.375  1.00  0.00     0.293 HD
ENDBRANCH  27  35
BRANCH  32  37
ATOM     37  C   UNL     1     173.029 172.436 177.849  1.00  0.00    -0.007 A 
ATOM     38  C   UNL     1     174.100 172.294 178.752  1.00  0.00     0.011 A 
ATOM     39  C   UNL     1     171.822 172.998 178.304  1.00  0.00     0.011 A 
ATOM     40  C   UNL     1     173.965 172.702 180.082  1.00  0.00     0.046 A 
ATOM     41  C   UNL     1     171.686 173.401 179.636  1.00  0.00     0.046 A 
ATOM     42  C   UNL     1     172.760 173.255 180.530  1.00  0.00     0.115 A 
BRANCH  42  43
ATOM     43  O   UNL     1     172.640 173.655 181.860  1.00  0.00    -0.508 OA
ATOM     44  H   UNL     1     173.190 174.420 182.232  1.00  0.00     0.293 HD
ENDBRANCH  42  43
ENDBRANCH  32  37
ENDBRANCH  23  24
ENDBRANCH   6  23
BRANCH   3  45
ATOM     45  O   UNL     1     165.330 176.069 169.885  1.00  0.00    -0.387 OA
ATOM     46  H   UNL     1     165.606 176.842 169.327  1.00  0.00     0.211 HD
ENDBRANCH   3  45
BRANCH   4  47
ATOM     47  C   UNL     1     165.798 174.308 172.897  1.00  0.00     0.191 C 
BRANCH  47  48
ATOM     48  O   UNL     1     166.060 173.029 173.412  1.00  0.00    -0.394 OA
ATOM     49  H   UNL     1     166.905 173.092 173.936  1.00  0.00     0.210 HD
ENDBRANCH  47  48
ENDBRANCH   4  47
TORSDOF 14
ENDMDL
MODEL 7
REMARK VINA RESULT:    -7.323      6.219      9.688
REMARK INTER + INTRA:         -13.389
REMARK INTER:                 -11.440
REMARK INTRA:                  -1.949
REMARK UNBOUND:                -1.785
REMARK SMILES C[C@@H]1O[C@H](O[C@@H]2[C@H](Oc3cc(O)c4c(c3)O[C@@H](c3ccc(O)cc3)CC4=O)O[C@@H](CO)[C@H](O)[C@H]2O)[C@@H](O)[C@H](O)[C@@H]1O
REMARK SMILES IDX 6 1 34 2 32 3 29 4 28 5 7 6 5 7 4 8 1 9 2 10 40 11 3 12
REMARK SMILES IDX 38 13 36 14 41 15 39 17 37 19 35 21 8 23 9 24 10 25 15 26
REMARK SMILES IDX 11 27 14 28 13 29 16 30 26 31 17 32 27 33 25 34 12 35 18 37
REMARK SMILES IDX 19 38 24 39 20 40 23 41 21 42 22 43 33 45 30 47 31 48
REMARK H PARENT 41 16 39 18 37 20 35 22 12 36 22 44 33 46 31 49
REMARK Flexibility Score: inf
ROOT
ATOM      1  C   UNL     1     168.758 172.324 171.383  1.00  0.00     0.221 C 
ATOM      2  C   UNL     1     168.436 171.493 170.130  1.00  0.00     0.181 C 
ATOM      3  C   UNL     1     169.023 170.082 170.294  1.00  0.00     0.177 C 
ATOM      4  C   UNL     1     170.511 170.146 170.748  1.00  0.00     0.179 C 
ATOM      5  O   UNL     1     171.014 171.476 170.779  1.00  0.00    -0.332 OA
ATOM      6  C   UNL     1     170.294 172.327 171.663  1.00  0.00     0.339 C 
ENDROOT
BRANCH   1   7
ATOM      7  O   UNL     1     168.299 173.651 171.171  1.00  0.00    -0.337 OA
BRANCH   7   8
ATOM      8  C   UNL     1     167.432 174.089 172.201  1.00  0.00     0.282 C 
ATOM      9  C   UNL     1     167.635 177.333 172.013  1.00  0.00     0.041 C 
ATOM     10  C   UNL     1     167.362 176.325 173.146  1.00  0.00     0.150 C 
ATOM     11  C   UNL     1     165.870 176.117 173.504  1.00  0.00     0.174 C 
ATOM     12  O   UNL     1     168.083 175.119 172.948  1.00  0.00    -0.344 OA
ATOM     13  C   UNL     1     165.145 175.103 172.580  1.00  0.00     0.179 C 
ATOM     14  C   UNL     1     166.084 174.464 171.550  1.00  0.00     0.202 C 
BRANCH  11  15
ATOM     15  O   UNL     1     165.203 177.357 173.543  1.00  0.00    -0.388 OA
ATOM     16  H   UNL     1     165.741 177.955 174.127  1.00  0.00     0.211 HD
ENDBRANCH  11  15
BRANCH  13  17
ATOM     17  O   UNL     1     164.021 175.662 171.944  1.00  0.00    -0.387 OA
ATOM     18  H   UNL     1     163.649 176.355 172.550  1.00  0.00     0.211 HD
ENDBRANCH  13  17
BRANCH  14  19
ATOM     19  O   UNL     1     165.470 173.304 171.039  1.00  0.00    -0.385 OA
ATOM     20  H   UNL     1     164.522 173.540 170.857  1.00  0.00     0.211 HD
ENDBRANCH  14  19
ENDBRANCH   7   8
ENDBRANCH   1   7
BRANCH   2  21
ATOM     21  O   UNL     1     167.046 171.399 169.945  1.00  0.00    -0.387 OA
ATOM     22  H   UNL     1     166.639 171.291 170.846  1.00  0.00     0.211 HD
ENDBRANCH   2  21
BRANCH   6  23
ATOM     23  O   UNL     1     170.798 173.661 171.543  1.00  0.00    -0.462 OA
BRANCH  23  24
ATOM     24  C   UNL     1     171.167 174.495 172.612  1.00  0.00     0.130 A 
ATOM     25  C   UNL     1     171.436 175.841 172.337  1.00  0.00     0.093 A 
ATOM     26  C   UNL     1     171.325 174.018 173.928  1.00  0.00     0.094 A 
ATOM     27  C   UNL     1     171.822 176.724 173.354  1.00  0.00     0.133 A 
ATOM     28  C   UNL     1     171.725 174.884 174.950  1.00  0.00     0.138 A 
ATOM     29  C   UNL     1     171.928 176.251 174.684  1.00  0.00     0.102 A 
ATOM     30  O   UNL     1     171.951 174.364 176.233  1.00  0.00    -0.484 OA
ATOM     31  C   UNL     1     172.256 177.114 175.834  1.00  0.00     0.174 C 
ATOM     32  C   UNL     1     172.176 175.181 177.389  1.00  0.00     0.211 C 
ATOM     33  O   UNL     1     171.913 178.324 175.860  1.00  0.00    -0.294 OA
ATOM     34  C   UNL     1     172.912 176.487 177.027  1.00  0.00     0.131 C 
BRANCH  27  35
ATOM     35  O   UNL     1     172.137 178.035 172.997  1.00  0.00    -0.507 OA
ATOM     36  H   UNL     1     171.434 178.717 172.745  1.00  0.00     0.293 HD
ENDBRANCH  27  35
BRANCH  32  37
ATOM     37  C   UNL     1     172.962 174.403 178.420  1.00  0.00    -0.007 A 
ATOM     38  C   UNL     1     174.194 173.814 178.077  1.00  0.00     0.011 A 
ATOM     39  C   UNL     1     172.513 174.322 179.750  1.00  0.00     0.011 A 
ATOM     40  C   UNL     1     174.958 173.152 179.044  1.00  0.00     0.046 A 
ATOM     41  C   UNL     1     173.275 173.656 180.716  1.00  0.00     0.046 A 
ATOM     42  C   UNL     1     174.502 173.070 180.365  1.00  0.00     0.115 A 
BRANCH  42  43
ATOM     43  O   UNL     1     175.273 172.405 181.317  1.00  0.00    -0.508 OA
ATOM     44  H   UNL     1     175.081 172.497 182.308  1.00  0.00     0.293 HD
ENDBRANCH  42  43
ENDBRANCH  32  37
ENDBRANCH  23  24
ENDBRANCH   6  23
BRANCH   3  45
ATOM     45  O   UNL     1     168.892 169.354 169.095  1.00  0.00    -0.387 OA
ATOM     46  H   UNL     1     169.511 169.755 168.429  1.00  0.00     0.211 HD
ENDBRANCH   3  45
BRANCH   4  47
ATOM     47  C   UNL     1     170.805 169.360 172.049  1.00  0.00     0.191 C 
BRANCH  47  48
ATOM     48  O   UNL     1     172.167 169.410 172.385  1.00  0.00    -0.394 OA
ATOM     49  H   UNL     1     172.622 169.951 171.683  1.00  0.00     0.210 HD
ENDBRANCH  47  48
ENDBRANCH   4  47
TORSDOF 14
ENDMDL
MODEL 8
REMARK VINA RESULT:    -7.162      2.069      4.936
REMARK INTER + INTRA:         -13.135
REMARK INTER:                 -11.335
REMARK INTRA:                  -1.799
REMARK UNBOUND:                -1.785
REMARK SMILES C[C@@H]1O[C@H](O[C@@H]2[C@H](Oc3cc(O)c4c(c3)O[C@@H](c3ccc(O)cc3)CC4=O)O[C@@H](CO)[C@H](O)[C@H]2O)[C@@H](O)[C@H](O)[C@@H]1O
REMARK SMILES IDX 6 1 34 2 32 3 29 4 28 5 7 6 5 7 4 8 1 9 2 10 40 11 3 12
REMARK SMILES IDX 38 13 36 14 41 15 39 17 37 19 35 21 8 23 9 24 10 25 15 26
REMARK SMILES IDX 11 27 14 28 13 29 16 30 26 31 17 32 27 33 25 34 12 35 18 37
REMARK SMILES IDX 19 38 24 39 20 40 23 41 21 42 22 43 33 45 30 47 31 48
REMARK H PARENT 41 16 39 18 37 20 35 22 12 36 22 44 33 46 31 49
REMARK Flexibility Score: inf
ROOT
ATOM      1  C   UNL     1     176.463 168.477 171.206  1.00  0.00     0.221 C 
ATOM      2  C   UNL     1     176.130 167.113 171.833  1.00  0.00     0.181 C 
ATOM      3  C   UNL     1     174.934 166.493 171.091  1.00  0.00     0.177 C 
ATOM      4  C   UNL     1     173.772 167.520 170.951  1.00  0.00     0.179 C 
ATOM      5  O   UNL     1     174.032 168.734 171.646  1.00  0.00    -0.332 OA
ATOM      6  C   UNL     1     175.204 169.400 171.193  1.00  0.00     0.339 C 
ENDROOT
BRANCH   1   7
ATOM      7  O   UNL     1     177.500 169.079 171.966  1.00  0.00    -0.337 OA
BRANCH   7   8
ATOM      8  C   UNL     1     178.622 169.415 171.171  1.00  0.00     0.282 C 
ATOM      9  C   UNL     1     180.053 171.792 172.875  1.00  0.00     0.041 C 
ATOM     10  C   UNL     1     179.959 171.432 171.380  1.00  0.00     0.150 C 
ATOM     11  C   UNL     1     181.178 170.672 170.802  1.00  0.00     0.174 C 
ATOM     12  O   UNL     1     178.708 170.839 171.070  1.00  0.00    -0.344 OA
ATOM     13  C   UNL     1     181.135 169.142 171.058  1.00  0.00     0.179 C 
ATOM     14  C   UNL     1     179.851 168.696 171.767  1.00  0.00     0.202 C 
BRANCH  11  15
ATOM     15  O   UNL     1     182.375 171.246 171.272  1.00  0.00    -0.388 OA
ATOM     16  H   UNL     1     182.209 171.533 172.208  1.00  0.00     0.211 HD
ENDBRANCH  11  15
BRANCH  13  17
ATOM     17  O   UNL     1     182.268 168.679 171.750  1.00  0.00    -0.387 OA
ATOM     18  H   UNL     1     182.258 169.094 172.652  1.00  0.00     0.211 HD
ENDBRANCH  13  17
BRANCH  14  19
ATOM     19  O   UNL     1     179.706 167.305 171.604  1.00  0.00    -0.385 OA
ATOM     20  H   UNL     1     179.549 166.927 172.509  1.00  0.00     0.211 HD
ENDBRANCH  14  19
ENDBRANCH   7   8
ENDBRANCH   1   7
BRANCH   2  21
ATOM     21  O   UNL     1     177.233 166.247 171.741  1.00  0.00    -0.387 OA
ATOM     22  H   UNL     1     177.878 166.662 171.109  1.00  0.00     0.211 HD
ENDBRANCH   2  21
BRANCH   6  23
ATOM     23  O   UNL     1     175.442 170.544 172.020  1.00  0.00    -0.462 OA
BRANCH  23  24
ATOM     24  C   UNL     1     174.456 171.291 172.685  1.00  0.00     0.130 A 
ATOM     25  C   UNL     1     173.715 172.216 171.940  1.00  0.00     0.093 A 
ATOM     26  C   UNL     1     174.224 171.182 174.069  1.00  0.00     0.094 A 
ATOM     27  C   UNL     1     172.725 173.003 172.542  1.00  0.00     0.133 A 
ATOM     28  C   UNL     1     173.251 171.973 174.687  1.00  0.00     0.138 A 
ATOM     29  C   UNL     1     172.460 172.852 173.925  1.00  0.00     0.102 A 
ATOM     30  O   UNL     1     173.098 171.900 176.080  1.00  0.00    -0.484 OA
ATOM     31  C   UNL     1     171.392 173.579 174.635  1.00  0.00     0.174 C 
ATOM     32  C   UNL     1     172.015 172.516 176.790  1.00  0.00     0.211 C 
ATOM     33  O   UNL     1     170.328 173.910 174.053  1.00  0.00    -0.294 OA
ATOM     34  C   UNL     1     171.556 173.820 176.106  1.00  0.00     0.131 C 
BRANCH  27  35
ATOM     35  O   UNL     1     172.072 173.949 171.752  1.00  0.00    -0.507 OA
ATOM     36  H   UNL     1     171.403 173.696 171.037  1.00  0.00     0.293 HD
ENDBRANCH  27  35
BRANCH  32  37
ATOM     37  C   UNL     1     172.431 172.789 178.218  1.00  0.00    -0.007 A 
ATOM     38  C   UNL     1     171.517 173.355 179.128  1.00  0.00     0.011 A 
ATOM     39  C   UNL     1     173.706 172.414 178.676  1.00  0.00     0.011 A 
ATOM     40  C   UNL     1     171.875 173.546 180.466  1.00  0.00     0.046 A 
ATOM     41  C   UNL     1     174.065 172.610 180.013  1.00  0.00     0.046 A 
ATOM     42  C   UNL     1     173.148 173.176 180.913  1.00  0.00     0.115 A 
BRANCH  42  43
ATOM     43  O   UNL     1     173.491 173.375 182.250  1.00  0.00    -0.508 OA
ATOM     44  H   UNL     1     173.549 174.306 182.646  1.00  0.00     0.293 HD
ENDBRANCH  42  43
ENDBRANCH  32  37
ENDBRANCH  23  24
ENDBRANCH   6  23
BRANCH   3  45
ATOM     45  O   UNL     1     174.500 165.327 171.750  1.00  0.00    -0.387 OA
ATOM     46  H   UNL     1     174.007 164.772 171.090  1.00  0.00     0.211 HD
ENDBRANCH   3  45
BRANCH   4  47
ATOM     47  C   UNL     1     173.309 167.749 169.491  1.00  0.00     0.191 C 
BRANCH  47  48
ATOM     48  O   UNL     1     174.198 167.171 168.571  1.00  0.00    -0.394 OA
ATOM     49  H   UNL     1     173.766 167.224 167.675  1.00  0.00     0.210 HD
ENDBRANCH  47  48
ENDBRANCH   4  47
TORSDOF 14
ENDMDL
MODEL 9
REMARK VINA RESULT:    -7.138      3.025      5.869
REMARK INTER + INTRA:         -13.095
REMARK INTER:                 -10.947
REMARK INTRA:                  -2.149
REMARK UNBOUND:                -1.785
REMARK SMILES C[C@@H]1O[C@H](O[C@@H]2[C@H](Oc3cc(O)c4c(c3)O[C@@H](c3ccc(O)cc3)CC4=O)O[C@@H](CO)[C@H](O)[C@H]2O)[C@@H](O)[C@H](O)[C@@H]1O
REMARK SMILES IDX 6 1 34 2 32 3 29 4 28 5 7 6 5 7 4 8 1 9 2 10 40 11 3 12
REMARK SMILES IDX 38 13 36 14 41 15 39 17 37 19 35 21 8 23 9 24 10 25 15 26
REMARK SMILES IDX 11 27 14 28 13 29 16 30 26 31 17 32 27 33 25 34 12 35 18 37
REMARK SMILES IDX 19 38 24 39 20 40 23 41 21 42 22 43 33 45 30 47 31 48
REMARK H PARENT 41 16 39 18 37 20 35 22 12 36 22 44 33 46 31 49
REMARK Flexibility Score: inf
ROOT
ATOM      1  C   UNL     1     174.153 167.870 171.688  1.00  0.00     0.221 C 
ATOM      2  C   UNL     1     174.459 166.427 171.256  1.00  0.00     0.181 C 
ATOM      3  C   UNL     1     174.111 166.259 169.768  1.00  0.00     0.177 C 
ATOM      4  C   UNL     1     172.687 166.812 169.463  1.00  0.00     0.179 C 
ATOM      5  O   UNL     1     171.997 167.219 170.639  1.00  0.00    -0.332 OA
ATOM      6  C   UNL     1     172.673 168.243 171.359  1.00  0.00     0.339 C 
ENDROOT
BRANCH   1   7
ATOM      7  O   UNL     1     174.383 167.979 173.085  1.00  0.00    -0.337 OA
BRANCH   7   8
ATOM      8  C   UNL     1     175.537 168.743 173.381  1.00  0.00     0.282 C 
ATOM      9  C   UNL     1     175.055 171.492 171.703  1.00  0.00     0.041 C 
ATOM     10  C   UNL     1     176.296 170.701 172.159  1.00  0.00     0.150 C 
ATOM     11  C   UNL     1     176.982 171.225 173.445  1.00  0.00     0.174 C 
ATOM     12  O   UNL     1     176.044 169.305 172.167  1.00  0.00    -0.344 OA
ATOM     13  C   UNL     1     176.317 170.720 174.754  1.00  0.00     0.179 C 
ATOM     14  C   UNL     1     175.163 169.744 174.494  1.00  0.00     0.202 C 
BRANCH  11  15
ATOM     15  O   UNL     1     177.066 172.630 173.411  1.00  0.00    -0.388 OA
ATOM     16  H   UNL     1     177.454 172.875 172.530  1.00  0.00     0.211 HD
ENDBRANCH  11  15
BRANCH  13  17
ATOM     17  O   UNL     1     175.897 171.773 175.585  1.00  0.00    -0.387 OA
ATOM     18  H   UNL     1     174.932 171.927 175.409  1.00  0.00     0.211 HD
ENDBRANCH  13  17
BRANCH  14  19
ATOM     19  O   UNL     1     174.889 169.044 175.684  1.00  0.00    -0.385 OA
ATOM     20  H   UNL     1     175.263 169.587 176.427  1.00  0.00     0.211 HD
ENDBRANCH  14  19
ENDBRANCH   7   8
ENDBRANCH   1   7
BRANCH   2  21
ATOM     21  O   UNL     1     175.819 166.132 171.450  1.00  0.00    -0.387 OA
ATOM     22  H   UNL     1     176.043 165.376 170.846  1.00  0.00     0.211 HD
ENDBRANCH   2  21
BRANCH   6  23
ATOM     23  O   UNL     1     171.965 168.505 172.575  1.00  0.00    -0.462 OA
BRANCH  23  24
ATOM     24  C   UNL     1     171.727 169.777 173.123  1.00  0.00     0.130 A 
ATOM     25  C   UNL     1     171.469 170.836 172.245  1.00  0.00     0.093 A 
ATOM     26  C   UNL     1     171.788 170.032 174.507  1.00  0.00     0.094 A 
ATOM     27  C   UNL     1     171.235 172.132 172.724  1.00  0.00     0.133 A 
ATOM     28  C   UNL     1     171.573 171.322 174.998  1.00  0.00     0.138 A 
ATOM     29  C   UNL     1     171.247 172.372 174.119  1.00  0.00     0.102 A 
ATOM     30  O   UNL     1     171.720 171.561 176.372  1.00  0.00    -0.484 OA
ATOM     31  C   UNL     1     170.941 173.681 174.725  1.00  0.00     0.174 C 
ATOM     32  C   UNL     1     171.342 172.790 177.007  1.00  0.00     0.211 C 
ATOM     33  O   UNL     1     170.134 174.479 174.183  1.00  0.00    -0.294 OA
ATOM     34  C   UNL     1     171.533 173.997 176.066  1.00  0.00     0.131 C 
BRANCH  27  35
ATOM     35  O   UNL     1     171.050 173.150 171.789  1.00  0.00    -0.507 OA
ATOM     36  H   UNL     1     171.539 173.176 170.904  1.00  0.00     0.293 HD
ENDBRANCH  27  35
BRANCH  32  37
ATOM     37  C   UNL     1     172.145 172.979 178.274  1.00  0.00    -0.007 A 
ATOM     38  C   UNL     1     171.503 173.341 179.474  1.00  0.00     0.011 A 
ATOM     39  C   UNL     1     173.528 172.724 178.289  1.00  0.00     0.011 A 
ATOM     40  C   UNL     1     172.232 173.450 180.663  1.00  0.00     0.046 A 
ATOM     41  C   UNL     1     174.257 172.839 179.477  1.00  0.00     0.046 A 
ATOM     42  C   UNL     1     173.609 173.201 180.669  1.00  0.00     0.115 A 
BRANCH  42  43
ATOM     43  O   UNL     1     174.323 173.316 181.861  1.00  0.00    -0.508 OA
ATOM     44  H   UNL     1     175.336 173.317 181.871  1.00  0.00     0.293 HD
ENDBRANCH  42  43
ENDBRANCH  32  37
ENDBRANCH  23  24
ENDBRANCH   6  23
BRANCH   3  45
ATOM     45  O   UNL     1     174.218 164.907 169.388  1.00  0.00    -0.387 OA
ATOM     46  H   UNL     1     174.570 164.402 170.168  1.00  0.00     0.211 HD
ENDBRANCH   3  45
BRANCH   4  47
ATOM     47  C   UNL     1     172.656 167.883 168.345  1.00  0.00     0.191 C 
BRANCH  47  48
ATOM     48  O   UNL     1     173.707 167.706 167.431  1.00  0.00    -0.394 OA
ATOM     49  H   UNL     1     174.557 167.832 167.936  1.00  0.00     0.210 HD
ENDBRANCH  47  48
ENDBRANCH   4  47
TORSDOF 14
ENDMDL
