MODEL 1
REMARK VINA RESULT:    -7.624      0.000      0.000
REMARK INTER + INTRA:         -12.048
REMARK INTER:                 -10.744
REMARK INTRA:                  -1.304
REMARK UNBOUND:                -1.304
REMARK SMILES COc1c(O[C@H]2O[C@H](C(=O)[O-])[C@H](O)[C@H](O)[C@H]2O)cc(O)c2c(=O)cc(-c3ccccc3)oc12
REMARK SMILES IDX 5 1 6 2 8 3 12 4 7 5 14 6 16 7 9 8 10 9 11 10 13 11 15 13
REMARK SMILES IDX 17 15 4 17 3 18 18 19 33 20 19 21 21 22 32 23 22 24 25 25
REMARK SMILES IDX 24 26 23 27 2 28 1 29 20 30 26 32 27 33 31 34 28 35 30 36
REMARK SMILES IDX 29 37
REMARK H PARENT 13 12 15 14 17 16 20 31
REMARK Flexibility Score: inf
ROOT
ATOM      1  O   UNL     1     -29.409 -11.214  -4.397  1.00  0.00    -0.458 OA
ENDROOT
BRANCH   1   2
ATOM      2  C   UNL     1     -28.274 -11.659  -5.155  1.00  0.00     0.339 C 
ATOM      3  C   UNL     1     -29.510 -11.674  -7.153  1.00  0.00     0.199 C 
ATOM      4  C   UNL     1     -28.710 -10.508  -7.772  1.00  0.00     0.180 C 
ATOM      5  O   UNL     1     -28.699 -12.435  -6.265  1.00  0.00    -0.328 OA
ATOM      6  C   UNL     1     -28.157  -9.620  -6.640  1.00  0.00     0.181 C 
ATOM      7  C   UNL     1     -27.386 -10.482  -5.619  1.00  0.00     0.214 C 
BRANCH   3   8
ATOM      8  C   UNL     1     -30.032 -12.575  -8.233  1.00  0.00     0.073 C 
ATOM      9  O   UNL     1     -31.238 -12.499  -8.592  1.00  0.00    -0.547 OA
ATOM     10  O   UNL     1     -29.180 -13.461  -8.882  1.00  0.00    -0.547 OA
ENDBRANCH   3   8
BRANCH   4  11
ATOM     11  O   UNL     1     -27.658 -11.019  -8.556  1.00  0.00    -0.387 OA
ATOM     12  H   UNL     1     -26.947 -11.315  -7.931  1.00  0.00     0.211 HD
ENDBRANCH   4  11
BRANCH   6  13
ATOM     13  O   UNL     1     -27.359  -8.581  -7.152  1.00  0.00    -0.387 OA
ATOM     14  H   UNL     1     -27.793  -7.717  -6.923  1.00  0.00     0.211 HD
ENDBRANCH   6  13
BRANCH   7  15
ATOM     15  O   UNL     1     -26.991  -9.709  -4.517  1.00  0.00    -0.384 OA
ATOM     16  H   UNL     1     -27.491 -10.049  -3.730  1.00  0.00     0.211 HD
ENDBRANCH   7  15
ENDBRANCH   1   2
BRANCH   1  17
ATOM     17  C   UNL     1     -30.162 -12.034  -3.550  1.00  0.00     0.172 A 
ATOM     18  C   UNL     1     -29.698 -12.442  -2.285  1.00  0.00     0.205 A 
ATOM     19  C   UNL     1     -31.416 -12.455  -3.991  1.00  0.00     0.097 A 
ATOM     20  C   UNL     1     -30.551 -13.145  -1.426  1.00  0.00     0.188 A 
ATOM     21  C   UNL     1     -32.259 -13.214  -3.173  1.00  0.00     0.134 A 
ATOM     22  C   UNL     1     -31.857 -13.518  -1.843  1.00  0.00     0.111 A 
ATOM     23  O   UNL     1     -30.111 -13.465  -0.212  1.00  0.00    -0.452 OA
ATOM     24  C   UNL     1     -32.679 -14.153  -0.883  1.00  0.00     0.197 A 
ATOM     25  C   UNL     1     -30.843 -14.115   0.688  1.00  0.00     0.138 A 
ATOM     26  C   UNL     1     -32.164 -14.464   0.376  1.00  0.00     0.100 A 
ATOM     27  O   UNL     1     -33.888 -14.418  -1.113  1.00  0.00    -0.289 OA
BRANCH  18  28
ATOM     28  O   UNL     1     -28.393 -12.172  -1.858  1.00  0.00    -0.490 OA
ATOM     29  C   UNL     1     -28.018 -10.914  -1.305  1.00  0.00     0.278 C 
ENDBRANCH  18  28
BRANCH  21  30
ATOM     30  O   UNL     1     -33.458 -13.652  -3.744  1.00  0.00    -0.507 OA
ATOM     31  H   UNL     1     -34.340 -13.693  -3.256  1.00  0.00     0.293 HD
ENDBRANCH  21  30
BRANCH  25  32
ATOM     32  C   UNL     1     -30.240 -14.427   2.007  1.00  0.00     0.017 A 
ATOM     33  C   UNL     1     -30.690 -15.509   2.792  1.00  0.00     0.012 A 
ATOM     34  C   UNL     1     -29.167 -13.648   2.480  1.00  0.00     0.012 A 
ATOM     35  C   UNL     1     -30.091 -15.788   4.023  1.00  0.00     0.001 A 
ATOM     36  C   UNL     1     -28.573 -13.932   3.714  1.00  0.00     0.001 A 
ATOM     37  C   UNL     1     -29.036 -14.998   4.486  1.00  0.00     0.000 A 
ENDBRANCH  25  32
ENDBRANCH   1  17
TORSDOF 9
ENDMDL
MODEL 2
REMARK VINA RESULT:    -7.469      1.862      3.867
REMARK INTER + INTRA:         -11.829
REMARK INTER:                 -10.316
REMARK INTRA:                  -1.513
REMARK UNBOUND:                -1.304
REMARK SMILES COc1c(O[C@H]2O[C@H](C(=O)[O-])[C@H](O)[C@H](O)[C@H]2O)cc(O)c2c(=O)cc(-c3ccccc3)oc12
REMARK SMILES IDX 5 1 6 2 8 3 12 4 7 5 14 6 16 7 9 8 10 9 11 10 13 11 15 13
REMARK SMILES IDX 17 15 4 17 3 18 18 19 33 20 19 21 21 22 32 23 22 24 25 25
REMARK SMILES IDX 24 26 23 27 2 28 1 29 20 30 26 32 27 33 31 34 28 35 30 36
REMARK SMILES IDX 29 37
REMARK H PARENT 13 12 15 14 17 16 20 31
REMARK Flexibility Score: inf
ROOT
ATOM      1  O   UNL     1     -28.478 -10.402  -4.922  1.00  0.00    -0.458 OA
ENDROOT
BRANCH   1   2
ATOM      2  C   UNL     1     -27.615 -11.182  -5.764  1.00  0.00     0.339 C 
ATOM      3  C   UNL     1     -29.424 -12.427  -6.601  1.00  0.00     0.199 C 
ATOM      4  C   UNL     1     -29.294 -11.846  -8.025  1.00  0.00     0.180 C 
ATOM      5  O   UNL     1     -28.159 -12.480  -5.953  1.00  0.00    -0.328 OA
ATOM      6  C   UNL     1     -28.664 -10.441  -7.939  1.00  0.00     0.181 C 
ATOM      7  C   UNL     1     -27.355 -10.497  -7.124  1.00  0.00     0.214 C 
BRANCH   3   8
ATOM      8  C   UNL     1     -30.003 -13.810  -6.657  1.00  0.00     0.073 C 
ATOM      9  O   UNL     1     -29.323 -14.762  -7.126  1.00  0.00    -0.547 OA
ATOM     10  O   UNL     1     -31.269 -14.063  -6.142  1.00  0.00    -0.547 OA
ENDBRANCH   3   8
BRANCH   4  11
ATOM     11  O   UNL     1     -28.494 -12.696  -8.813  1.00  0.00    -0.387 OA
ATOM     12  H   UNL     1     -29.054 -13.478  -9.057  1.00  0.00     0.211 HD
ENDBRANCH   4  11
BRANCH   6  13
ATOM     13  O   UNL     1     -28.458  -9.896  -9.219  1.00  0.00    -0.387 OA
ATOM     14  H   UNL     1     -27.755 -10.431  -9.673  1.00  0.00     0.211 HD
ENDBRANCH   6  13
BRANCH   7  15
ATOM     15  O   UNL     1     -26.841  -9.205  -6.926  1.00  0.00    -0.384 OA
ATOM     16  H   UNL     1     -27.378  -8.787  -6.203  1.00  0.00     0.211 HD
ENDBRANCH   7  15
ENDBRANCH   1   2
BRANCH   1  17
ATOM     17  C   UNL     1     -28.272 -10.201  -3.553  1.00  0.00     0.172 A 
ATOM     18  C   UNL     1     -28.676 -11.138  -2.583  1.00  0.00     0.205 A 
ATOM     19  C   UNL     1     -27.641  -9.024  -3.151  1.00  0.00     0.097 A 
ATOM     20  C   UNL     1     -28.318 -10.948  -1.242  1.00  0.00     0.188 A 
ATOM     21  C   UNL     1     -27.332  -8.784  -1.810  1.00  0.00     0.134 A 
ATOM     22  C   UNL     1     -27.613  -9.783  -0.836  1.00  0.00     0.111 A 
ATOM     23  O   UNL     1     -28.657 -11.877  -0.354  1.00  0.00    -0.452 OA
ATOM     24  C   UNL     1     -27.220  -9.712   0.521  1.00  0.00     0.197 A 
ATOM     25  C   UNL     1     -28.352 -11.806   0.939  1.00  0.00     0.138 A 
ATOM     26  C   UNL     1     -27.605 -10.717   1.408  1.00  0.00     0.100 A 
ATOM     27  O   UNL     1     -26.493  -8.780   0.955  1.00  0.00    -0.289 OA
BRANCH  18  28
ATOM     28  O   UNL     1     -29.442 -12.260  -2.917  1.00  0.00    -0.490 OA
ATOM     29  C   UNL     1     -30.853 -12.193  -3.098  1.00  0.00     0.278 C 
ENDBRANCH  18  28
BRANCH  21  30
ATOM     30  O   UNL     1     -26.774  -7.538  -1.508  1.00  0.00    -0.507 OA
ATOM     31  H   UNL     1     -27.288  -6.669  -1.503  1.00  0.00     0.293 HD
ENDBRANCH  21  30
BRANCH  25  32
ATOM     32  C   UNL     1     -28.796 -12.899   1.838  1.00  0.00     0.017 A 
ATOM     33  C   UNL     1     -29.937 -13.677   1.554  1.00  0.00     0.012 A 
ATOM     34  C   UNL     1     -28.045 -13.196   2.991  1.00  0.00     0.012 A 
ATOM     35  C   UNL     1     -30.321 -14.711   2.413  1.00  0.00     0.001 A 
ATOM     36  C   UNL     1     -28.435 -14.230   3.847  1.00  0.00     0.001 A 
ATOM     37  C   UNL     1     -29.573 -14.985   3.560  1.00  0.00     0.000 A 
ENDBRANCH  25  32
ENDBRANCH   1  17
TORSDOF 9
ENDMDL
MODEL 3
REMARK VINA RESULT:    -7.118      2.182      3.752
REMARK INTER + INTRA:         -11.334
REMARK INTER:                  -9.848
REMARK INTRA:                  -1.486
REMARK UNBOUND:                -1.304
REMARK SMILES COc1c(O[C@H]2O[C@H](C(=O)[O-])[C@H](O)[C@H](O)[C@H]2O)cc(O)c2c(=O)cc(-c3ccccc3)oc12
REMARK SMILES IDX 5 1 6 2 8 3 12 4 7 5 14 6 16 7 9 8 10 9 11 10 13 11 15 13
REMARK SMILES IDX 17 15 4 17 3 18 18 19 33 20 19 21 21 22 32 23 22 24 25 25
REMARK SMILES IDX 24 26 23 27 2 28 1 29 20 30 26 32 27 33 31 34 28 35 30 36
REMARK SMILES IDX 29 37
REMARK H PARENT 13 12 15 14 17 16 20 31
REMARK Flexibility Score: inf
ROOT
ATOM      1  O   UNL     1     -29.840 -12.234  -1.067  1.00  0.00    -0.458 OA
ENDROOT
BRANCH   1   2
ATOM      2  C   UNL     1     -28.652 -12.235  -1.873  1.00  0.00     0.339 C 
ATOM      3  C   UNL     1     -29.678 -10.923  -3.531  1.00  0.00     0.199 C 
ATOM      4  C   UNL     1     -28.773  -9.701  -3.263  1.00  0.00     0.180 C 
ATOM      5  O   UNL     1     -28.993 -12.137  -3.248  1.00  0.00    -0.328 OA
ATOM      6  C   UNL     1     -28.303  -9.735  -1.796  1.00  0.00     0.181 C 
ATOM      7  C   UNL     1     -27.676 -11.106  -1.472  1.00  0.00     0.214 C 
BRANCH   3   8
ATOM      8  C   UNL     1     -30.123 -10.934  -4.964  1.00  0.00     0.073 C 
ATOM      9  O   UNL     1     -30.306  -9.849  -5.577  1.00  0.00    -0.547 OA
ATOM     10  O   UNL     1     -30.283 -12.138  -5.640  1.00  0.00    -0.547 OA
ENDBRANCH   3   8
BRANCH   4  11
ATOM     11  O   UNL     1     -27.667  -9.730  -4.135  1.00  0.00    -0.387 OA
ATOM     12  H   UNL     1     -27.579 -10.663  -4.461  1.00  0.00     0.211 HD
ENDBRANCH   4  11
BRANCH   6  13
ATOM     13  O   UNL     1     -27.416  -8.678  -1.520  1.00  0.00    -0.387 OA
ATOM     14  H   UNL     1     -27.954  -7.867  -1.322  1.00  0.00     0.211 HD
ENDBRANCH   6  13
BRANCH   7  15
ATOM     15  O   UNL     1     -27.364 -11.198  -0.106  1.00  0.00    -0.384 OA
ATOM     16  H   UNL     1     -28.005 -10.614   0.377  1.00  0.00     0.211 HD
ENDBRANCH   7  15
ENDBRANCH   1   2
BRANCH   1  17
ATOM     17  C   UNL     1     -30.391 -13.375  -0.474  1.00  0.00     0.172 A 
ATOM     18  C   UNL     1     -30.057 -13.784   0.831  1.00  0.00     0.205 A 
ATOM     19  C   UNL     1     -31.303 -14.124  -1.217  1.00  0.00     0.097 A 
ATOM     20  C   UNL     1     -30.744 -14.852   1.422  1.00  0.00     0.188 A 
ATOM     21  C   UNL     1     -31.952 -15.234  -0.669  1.00  0.00     0.134 A 
ATOM     22  C   UNL     1     -31.724 -15.577   0.693  1.00  0.00     0.111 A 
ATOM     23  O   UNL     1     -30.454 -15.179   2.678  1.00  0.00    -0.452 OA
ATOM     24  C   UNL     1     -32.427 -16.586   1.394  1.00  0.00     0.197 A 
ATOM     25  C   UNL     1     -31.057 -16.163   3.339  1.00  0.00     0.138 A 
ATOM     26  C   UNL     1     -32.079 -16.886   2.711  1.00  0.00     0.100 A 
ATOM     27  O   UNL     1     -33.393 -17.206   0.876  1.00  0.00    -0.289 OA
BRANCH  18  28
ATOM     28  O   UNL     1     -29.042 -13.156   1.562  1.00  0.00    -0.490 OA
ATOM     29  C   UNL     1     -29.302 -12.076   2.453  1.00  0.00     0.278 C 
ENDBRANCH  18  28
BRANCH  21  30
ATOM     30  O   UNL     1     -32.783 -15.961  -1.526  1.00  0.00    -0.507 OA
ATOM     31  H   UNL     1     -33.253 -16.817  -1.275  1.00  0.00     0.293 HD
ENDBRANCH  21  30
BRANCH  25  32
ATOM     32  C   UNL     1     -30.640 -16.444   4.735  1.00  0.00     0.017 A 
ATOM     33  C   UNL     1     -31.396 -17.281   5.581  1.00  0.00     0.012 A 
ATOM     34  C   UNL     1     -29.441 -15.892   5.225  1.00  0.00     0.012 A 
ATOM     35  C   UNL     1     -30.969 -17.540   6.887  1.00  0.00     0.001 A 
ATOM     36  C   UNL     1     -29.020 -16.153   6.533  1.00  0.00     0.001 A 
ATOM     37  C   UNL     1     -29.784 -16.974   7.363  1.00  0.00     0.000 A 
ENDBRANCH  25  32
ENDBRANCH   1  17
TORSDOF 9
ENDMDL
MODEL 4
REMARK VINA RESULT:    -7.095      1.804      3.454
REMARK INTER + INTRA:         -11.302
REMARK INTER:                  -9.830
REMARK INTRA:                  -1.472
REMARK UNBOUND:                -1.304
REMARK SMILES COc1c(O[C@H]2O[C@H](C(=O)[O-])[C@H](O)[C@H](O)[C@H]2O)cc(O)c2c(=O)cc(-c3ccccc3)oc12
REMARK SMILES IDX 5 1 6 2 8 3 12 4 7 5 14 6 16 7 9 8 10 9 11 10 13 11 15 13
REMARK SMILES IDX 17 15 4 17 3 18 18 19 33 20 19 21 21 22 32 23 22 24 25 25
REMARK SMILES IDX 24 26 23 27 2 28 1 29 20 30 26 32 27 33 31 34 28 35 30 36
REMARK SMILES IDX 29 37
REMARK H PARENT 13 12 15 14 17 16 20 31
REMARK Flexibility Score: inf
ROOT
ATOM      1  O   UNL     1     -28.659 -10.582  -4.874  1.00  0.00    -0.458 OA
ENDROOT
BRANCH   1   2
ATOM      2  C   UNL     1     -27.604 -11.090  -5.705  1.00  0.00     0.339 C 
ATOM      3  C   UNL     1     -29.064 -12.579  -6.787  1.00  0.00     0.199 C 
ATOM      4  C   UNL     1     -28.966 -11.846  -8.143  1.00  0.00     0.180 C 
ATOM      5  O   UNL     1     -27.858 -12.445  -6.045  1.00  0.00    -0.328 OA
ATOM      6  C   UNL     1     -28.643 -10.361  -7.889  1.00  0.00     0.181 C 
ATOM      7  C   UNL     1     -27.404 -10.236  -6.978  1.00  0.00     0.214 C 
BRANCH   3   8
ATOM      8  C   UNL     1     -29.344 -14.037  -7.005  1.00  0.00     0.073 C 
ATOM      9  O   UNL     1     -28.480 -14.772  -7.553  1.00  0.00    -0.547 OA
ATOM     10  O   UNL     1     -30.533 -14.598  -6.555  1.00  0.00    -0.547 OA
ENDBRANCH   3   8
BRANCH   4  11
ATOM     11  O   UNL     1     -27.962 -12.442  -8.931  1.00  0.00    -0.387 OA
ATOM     12  H   UNL     1     -27.965 -13.411  -8.722  1.00  0.00     0.211 HD
ENDBRANCH   4  11
BRANCH   6  13
ATOM     13  O   UNL     1     -28.472  -9.663  -9.099  1.00  0.00    -0.387 OA
ATOM     14  H   UNL     1     -29.342  -9.656  -9.577  1.00  0.00     0.211 HD
ENDBRANCH   6  13
BRANCH   7  15
ATOM     15  O   UNL     1     -27.177  -8.895  -6.632  1.00  0.00    -0.384 OA
ATOM     16  H   UNL     1     -26.324  -8.624  -7.063  1.00  0.00     0.211 HD
ENDBRANCH   7  15
ENDBRANCH   1   2
BRANCH   1  17
ATOM     17  C   UNL     1     -28.760 -10.815  -3.498  1.00  0.00     0.172 A 
ATOM     18  C   UNL     1     -29.508 -11.882  -2.967  1.00  0.00     0.205 A 
ATOM     19  C   UNL     1     -28.087  -9.950  -2.636  1.00  0.00     0.097 A 
ATOM     20  C   UNL     1     -29.458 -12.149  -1.592  1.00  0.00     0.188 A 
ATOM     21  C   UNL     1     -28.078 -10.160  -1.254  1.00  0.00     0.134 A 
ATOM     22  C   UNL     1     -28.718 -11.311  -0.716  1.00  0.00     0.111 A 
ATOM     23  O   UNL     1     -30.124 -13.200  -1.122  1.00  0.00    -0.452 OA
ATOM     24  C   UNL     1     -28.655 -11.701   0.642  1.00  0.00     0.197 A 
ATOM     25  C   UNL     1     -30.130 -13.553   0.159  1.00  0.00     0.138 A 
ATOM     26  C   UNL     1     -29.375 -12.814   1.079  1.00  0.00     0.100 A 
ATOM     27  O   UNL     1     -27.932 -11.095   1.476  1.00  0.00    -0.289 OA
BRANCH  18  28
ATOM     28  O   UNL     1     -30.319 -12.688  -3.775  1.00  0.00    -0.490 OA
ATOM     29  C   UNL     1     -31.654 -12.327  -4.114  1.00  0.00     0.278 C 
ENDBRANCH  18  28
BRANCH  21  30
ATOM     30  O   UNL     1     -27.444  -9.186  -0.477  1.00  0.00    -0.507 OA
ATOM     31  H   UNL     1     -27.279  -8.236  -0.774  1.00  0.00     0.293 HD
ENDBRANCH  21  30
BRANCH  25  32
ATOM     32  C   UNL     1     -30.921 -14.740   0.568  1.00  0.00     0.017 A 
ATOM     33  C   UNL     1     -31.424 -15.659  -0.376  1.00  0.00     0.012 A 
ATOM     34  C   UNL     1     -31.154 -14.980   1.935  1.00  0.00     0.012 A 
ATOM     35  C   UNL     1     -32.152 -16.776   0.041  1.00  0.00     0.001 A 
ATOM     36  C   UNL     1     -31.886 -16.099   2.347  1.00  0.00     0.001 A 
ATOM     37  C   UNL     1     -32.386 -16.994   1.401  1.00  0.00     0.000 A 
ENDBRANCH  25  32
ENDBRANCH   1  17
TORSDOF 9
ENDMDL
MODEL 5
REMARK VINA RESULT:    -7.022      2.343      8.649
REMARK INTER + INTRA:         -11.200
REMARK INTER:                  -9.655
REMARK INTRA:                  -1.545
REMARK UNBOUND:                -1.304
REMARK SMILES COc1c(O[C@H]2O[C@H](C(=O)[O-])[C@H](O)[C@H](O)[C@H]2O)cc(O)c2c(=O)cc(-c3ccccc3)oc12
REMARK SMILES IDX 5 1 6 2 8 3 12 4 7 5 14 6 16 7 9 8 10 9 11 10 13 11 15 13
REMARK SMILES IDX 17 15 4 17 3 18 18 19 33 20 19 21 21 22 32 23 22 24 25 25
REMARK SMILES IDX 24 26 23 27 2 28 1 29 20 30 26 32 27 33 31 34 28 35 30 36
REMARK SMILES IDX 29 37
REMARK H PARENT 13 12 15 14 17 16 20 31
REMARK Flexibility Score: inf
ROOT
ATOM      1  O   UNL     1     -30.505 -13.814   0.264  1.00  0.00    -0.458 OA
ENDROOT
BRANCH   1   2
ATOM      2  C   UNL     1     -30.975 -13.218   1.483  1.00  0.00     0.339 C 
ATOM      3  C   UNL     1     -30.397 -15.124   2.731  1.00  0.00     0.199 C 
ATOM      4  C   UNL     1     -29.280 -14.397   3.510  1.00  0.00     0.180 C 
ATOM      5  O   UNL     1     -31.439 -14.224   2.372  1.00  0.00    -0.328 OA
ATOM      6  C   UNL     1     -28.732 -13.245   2.645  1.00  0.00     0.181 C 
ATOM      7  C   UNL     1     -29.891 -12.349   2.161  1.00  0.00     0.214 C 
BRANCH   3   8
ATOM      8  C   UNL     1     -30.974 -16.231   3.563  1.00  0.00     0.073 C 
ATOM      9  O   UNL     1     -30.607 -17.422   3.371  1.00  0.00    -0.547 OA
ATOM     10  O   UNL     1     -31.871 -15.948   4.585  1.00  0.00    -0.547 OA
ENDBRANCH   3   8
BRANCH   4  11
ATOM     11  O   UNL     1     -29.794 -13.902   4.723  1.00  0.00    -0.387 OA
ATOM     12  H   UNL     1     -29.084 -14.011   5.407  1.00  0.00     0.211 HD
ENDBRANCH   4  11
BRANCH   6  13
ATOM     13  O   UNL     1     -27.758 -12.505   3.341  1.00  0.00    -0.387 OA
ATOM     14  H   UNL     1     -27.186 -12.044   2.673  1.00  0.00     0.211 HD
ENDBRANCH   6  13
BRANCH   7  15
ATOM     15  O   UNL     1     -29.422 -11.374   1.266  1.00  0.00    -0.384 OA
ATOM     16  H   UNL     1     -28.435 -11.338   1.369  1.00  0.00     0.211 HD
ENDBRANCH   7  15
ENDBRANCH   1   2
BRANCH   1  17
ATOM     17  C   UNL     1     -31.124 -13.653  -0.981  1.00  0.00     0.172 A 
ATOM     18  C   UNL     1     -30.616 -12.792  -1.971  1.00  0.00     0.205 A 
ATOM     19  C   UNL     1     -32.287 -14.381  -1.232  1.00  0.00     0.097 A 
ATOM     20  C   UNL     1     -31.198 -12.779  -3.246  1.00  0.00     0.188 A 
ATOM     21  C   UNL     1     -32.922 -14.332  -2.476  1.00  0.00     0.134 A 
ATOM     22  C   UNL     1     -32.343 -13.571  -3.530  1.00  0.00     0.111 A 
ATOM     23  O   UNL     1     -30.662 -12.003  -4.183  1.00  0.00    -0.452 OA
ATOM     24  C   UNL     1     -32.815 -13.560  -4.863  1.00  0.00     0.197 A 
ATOM     25  C   UNL     1     -31.124 -11.928  -5.428  1.00  0.00     0.138 A 
ATOM     26  C   UNL     1     -32.213 -12.726  -5.805  1.00  0.00     0.100 A 
ATOM     27  O   UNL     1     -33.748 -14.314  -5.245  1.00  0.00    -0.289 OA
BRANCH  18  28
ATOM     28  O   UNL     1     -29.542 -11.931  -1.719  1.00  0.00    -0.490 OA
ATOM     29  C   UNL     1     -28.189 -12.321  -1.929  1.00  0.00     0.278 C 
ENDBRANCH  18  28
BRANCH  21  30
ATOM     30  O   UNL     1     -34.125 -15.035  -2.594  1.00  0.00    -0.507 OA
ATOM     31  H   UNL     1     -35.039 -14.624  -2.482  1.00  0.00     0.293 HD
ENDBRANCH  21  30
BRANCH  25  32
ATOM     32  C   UNL     1     -30.450 -11.017  -6.385  1.00  0.00     0.017 A 
ATOM     33  C   UNL     1     -29.999  -9.737  -6.000  1.00  0.00     0.012 A 
ATOM     34  C   UNL     1     -30.222 -11.445  -7.706  1.00  0.00     0.012 A 
ATOM     35  C   UNL     1     -29.353  -8.907  -6.921  1.00  0.00     0.001 A 
ATOM     36  C   UNL     1     -29.577 -10.608  -8.623  1.00  0.00     0.001 A 
ATOM     37  C   UNL     1     -29.146  -9.341  -8.232  1.00  0.00     0.000 A 
ENDBRANCH  25  32
ENDBRANCH   1  17
TORSDOF 9
ENDMDL
MODEL 6
REMARK VINA RESULT:    -6.987      3.795     10.506
REMARK INTER + INTRA:         -11.150
REMARK INTER:                  -9.593
REMARK INTRA:                  -1.557
REMARK UNBOUND:                -1.304
REMARK SMILES COc1c(O[C@H]2O[C@H](C(=O)[O-])[C@H](O)[C@H](O)[C@H]2O)cc(O)c2c(=O)cc(-c3ccccc3)oc12
REMARK SMILES IDX 5 1 6 2 8 3 12 4 7 5 14 6 16 7 9 8 10 9 11 10 13 11 15 13
REMARK SMILES IDX 17 15 4 17 3 18 18 19 33 20 19 21 21 22 32 23 22 24 25 25
REMARK SMILES IDX 24 26 23 27 2 28 1 29 20 30 26 32 27 33 31 34 28 35 30 36
REMARK SMILES IDX 29 37
REMARK H PARENT 13 12 15 14 17 16 20 31
REMARK Flexibility Score: inf
ROOT
ATOM      1  O   UNL     1     -30.575 -14.952   3.846  1.00  0.00    -0.458 OA
ENDROOT
BRANCH   1   2
ATOM      2  C   UNL     1     -30.017 -16.180   4.337  1.00  0.00     0.339 C 
ATOM      3  C   UNL     1     -30.330 -15.524   6.572  1.00  0.00     0.199 C 
ATOM      4  C   UNL     1     -31.402 -16.601   6.842  1.00  0.00     0.180 C 
ATOM      5  O   UNL     1     -29.395 -15.966   5.596  1.00  0.00    -0.328 OA
ATOM      6  C   UNL     1     -32.114 -16.946   5.519  1.00  0.00     0.181 C 
ATOM      7  C   UNL     1     -31.075 -17.302   4.436  1.00  0.00     0.214 C 
BRANCH   3   8
ATOM      8  C   UNL     1     -29.596 -15.193   7.838  1.00  0.00     0.073 C 
ATOM      9  O   UNL     1     -28.654 -15.931   8.234  1.00  0.00    -0.547 OA
ATOM     10  O   UNL     1     -29.912 -14.044   8.553  1.00  0.00    -0.547 OA
ENDBRANCH   3   8
BRANCH   4  11
ATOM     11  O   UNL     1     -30.793 -17.748   7.387  1.00  0.00    -0.387 OA
ATOM     12  H   UNL     1     -31.432 -18.499   7.274  1.00  0.00     0.211 HD
ENDBRANCH   4  11
BRANCH   6  13
ATOM     13  O   UNL     1     -33.053 -17.977   5.700  1.00  0.00    -0.387 OA
ATOM     14  H   UNL     1     -33.446 -17.882   6.607  1.00  0.00     0.211 HD
ENDBRANCH   6  13
BRANCH   7  15
ATOM     15  O   UNL     1     -31.700 -17.489   3.193  1.00  0.00    -0.384 OA
ATOM     16  H   UNL     1     -31.216 -18.223   2.732  1.00  0.00     0.211 HD
ENDBRANCH   7  15
ENDBRANCH   1   2
BRANCH   1  17
ATOM     17  C   UNL     1     -30.088 -14.252   2.737  1.00  0.00     0.172 A 
ATOM     18  C   UNL     1     -30.726 -14.286   1.483  1.00  0.00     0.205 A 
ATOM     19  C   UNL     1     -28.925 -13.500   2.897  1.00  0.00     0.097 A 
ATOM     20  C   UNL     1     -30.272 -13.456   0.450  1.00  0.00     0.188 A 
ATOM     21  C   UNL     1     -28.416 -12.715   1.858  1.00  0.00     0.134 A 
ATOM     22  C   UNL     1     -29.127 -12.634   0.628  1.00  0.00     0.111 A 
ATOM     23  O   UNL     1     -30.930 -13.459  -0.706  1.00  0.00    -0.452 OA
ATOM     24  C   UNL     1     -28.788 -11.767  -0.437  1.00  0.00     0.197 A 
ATOM     25  C   UNL     1     -30.595 -12.699  -1.744  1.00  0.00     0.138 A 
ATOM     26  C   UNL     1     -29.515 -11.814  -1.627  1.00  0.00     0.100 A 
ATOM     27  O   UNL     1     -27.865 -10.917  -0.336  1.00  0.00    -0.289 OA
BRANCH  18  28
ATOM     28  O   UNL     1     -31.807 -15.138   1.229  1.00  0.00    -0.490 OA
ATOM     29  C   UNL     1     -33.152 -14.767   1.514  1.00  0.00     0.278 C 
ENDBRANCH  18  28
BRANCH  21  30
ATOM     30  O   UNL     1     -27.201 -12.067   2.099  1.00  0.00    -0.507 OA
ATOM     31  H   UNL     1     -26.735 -11.463   1.439  1.00  0.00     0.293 HD
ENDBRANCH  21  30
BRANCH  25  32
ATOM     32  C   UNL     1     -31.398 -12.797  -2.988  1.00  0.00     0.017 A 
ATOM     33  C   UNL     1     -32.563 -13.588  -3.059  1.00  0.00     0.012 A 
ATOM     34  C   UNL     1     -31.011 -12.059  -4.122  1.00  0.00     0.012 A 
ATOM     35  C   UNL     1     -33.307 -13.648  -4.241  1.00  0.00     0.001 A 
ATOM     36  C   UNL     1     -31.759 -12.125  -5.302  1.00  0.00     0.001 A 
ATOM     37  C   UNL     1     -32.903 -12.920  -5.362  1.00  0.00     0.000 A 
ENDBRANCH  25  32
ENDBRANCH   1  17
TORSDOF 9
ENDMDL
MODEL 7
REMARK VINA RESULT:    -6.958      1.942      3.832
REMARK INTER + INTRA:         -11.109
REMARK INTER:                  -9.937
REMARK INTRA:                  -1.171
REMARK UNBOUND:                -1.304
REMARK SMILES COc1c(O[C@H]2O[C@H](C(=O)[O-])[C@H](O)[C@H](O)[C@H]2O)cc(O)c2c(=O)cc(-c3ccccc3)oc12
REMARK SMILES IDX 5 1 6 2 8 3 12 4 7 5 14 6 16 7 9 8 10 9 11 10 13 11 15 13
REMARK SMILES IDX 17 15 4 17 3 18 18 19 33 20 19 21 21 22 32 23 22 24 25 25
REMARK SMILES IDX 24 26 23 27 2 28 1 29 20 30 26 32 27 33 31 34 28 35 30 36
REMARK SMILES IDX 29 37
REMARK H PARENT 13 12 15 14 17 16 20 31
REMARK Flexibility Score: inf
ROOT
ATOM      1  O   UNL     1     -31.271 -12.536  -3.904  1.00  0.00    -0.458 OA
ENDROOT
BRANCH   1   2
ATOM      2  C   UNL     1     -31.101 -11.563  -4.946  1.00  0.00     0.339 C 
ATOM      3  C   UNL     1     -29.665 -12.982  -6.149  1.00  0.00     0.199 C 
ATOM      4  C   UNL     1     -30.663 -13.171  -7.311  1.00  0.00     0.180 C 
ATOM      5  O   UNL     1     -29.821 -11.704  -5.544  1.00  0.00    -0.328 OA
ATOM      6  C   UNL     1     -32.098 -12.990  -6.777  1.00  0.00     0.181 C 
ATOM      7  C   UNL     1     -32.214 -11.654  -6.015  1.00  0.00     0.214 C 
BRANCH   3   8
ATOM      8  C   UNL     1     -28.257 -13.119  -6.647  1.00  0.00     0.073 C 
ATOM      9  O   UNL     1     -27.289 -12.841  -5.890  1.00  0.00    -0.547 OA
ATOM     10  O   UNL     1     -28.008 -13.604  -7.926  1.00  0.00    -0.547 OA
ENDBRANCH   3   8
BRANCH   4  11
ATOM     11  O   UNL     1     -30.393 -12.231  -8.325  1.00  0.00    -0.387 OA
ATOM     12  H   UNL     1     -30.171 -11.375  -7.875  1.00  0.00     0.211 HD
ENDBRANCH   4  11
BRANCH   6  13
ATOM     13  O   UNL     1     -33.043 -13.082  -7.814  1.00  0.00    -0.387 OA
ATOM     14  H   UNL     1     -33.523 -12.215  -7.873  1.00  0.00     0.211 HD
ENDBRANCH   6  13
BRANCH   7  15
ATOM     15  O   UNL     1     -33.477 -11.538  -5.411  1.00  0.00    -0.384 OA
ATOM     16  H   UNL     1     -33.845 -12.456  -5.331  1.00  0.00     0.211 HD
ENDBRANCH   7  15
ENDBRANCH   1   2
BRANCH   1  17
ATOM     17  C   UNL     1     -30.782 -12.389  -2.602  1.00  0.00     0.172 A 
ATOM     18  C   UNL     1     -31.073 -13.310  -1.578  1.00  0.00     0.205 A 
ATOM     19  C   UNL     1     -29.978 -11.284  -2.325  1.00  0.00     0.097 A 
ATOM     20  C   UNL     1     -30.442 -13.187  -0.333  1.00  0.00     0.188 A 
ATOM     21  C   UNL     1     -29.392 -11.106  -1.069  1.00  0.00     0.134 A 
ATOM     22  C   UNL     1     -29.567 -12.100  -0.066  1.00  0.00     0.111 A 
ATOM     23  O   UNL     1     -30.685 -14.104   0.598  1.00  0.00    -0.452 OA
ATOM     24  C   UNL     1     -28.910 -12.099   1.187  1.00  0.00     0.197 A 
ATOM     25  C   UNL     1     -30.127 -14.093   1.805  1.00  0.00     0.138 A 
ATOM     26  C   UNL     1     -29.205 -13.088   2.125  1.00  0.00     0.100 A 
ATOM     27  O   UNL     1     -28.029 -11.247   1.475  1.00  0.00    -0.289 OA
BRANCH  18  28
ATOM     28  O   UNL     1     -31.990 -14.351  -1.762  1.00  0.00    -0.490 OA
ATOM     29  C   UNL     1     -33.396 -14.157  -1.643  1.00  0.00     0.278 C 
ENDBRANCH  18  28
BRANCH  21  30
ATOM     30  O   UNL     1     -28.673  -9.923  -0.875  1.00  0.00    -0.507 OA
ATOM     31  H   UNL     1     -29.093  -9.015  -0.741  1.00  0.00     0.293 HD
ENDBRANCH  21  30
BRANCH  25  32
ATOM     32  C   UNL     1     -30.485 -15.165   2.767  1.00  0.00     0.017 A 
ATOM     33  C   UNL     1     -31.679 -15.905   2.643  1.00  0.00     0.012 A 
ATOM     34  C   UNL     1     -29.599 -15.480   3.814  1.00  0.00     0.012 A 
ATOM     35  C   UNL     1     -31.981 -16.920   3.556  1.00  0.00     0.001 A 
ATOM     36  C   UNL     1     -29.908 -16.495   4.725  1.00  0.00     0.001 A 
ATOM     37  C   UNL     1     -31.098 -17.212   4.598  1.00  0.00     0.000 A 
ENDBRANCH  25  32
ENDBRANCH   1  17
TORSDOF 9
ENDMDL
MODEL 8
REMARK VINA RESULT:    -6.900      2.610      8.629
REMARK INTER + INTRA:         -11.028
REMARK INTER:                  -9.599
REMARK INTRA:                  -1.429
REMARK UNBOUND:                -1.304
REMARK SMILES COc1c(O[C@H]2O[C@H](C(=O)[O-])[C@H](O)[C@H](O)[C@H]2O)cc(O)c2c(=O)cc(-c3ccccc3)oc12
REMARK SMILES IDX 5 1 6 2 8 3 12 4 7 5 14 6 16 7 9 8 10 9 11 10 13 11 15 13
REMARK SMILES IDX 17 15 4 17 3 18 18 19 33 20 19 21 21 22 32 23 22 24 25 25
REMARK SMILES IDX 24 26 23 27 2 28 1 29 20 30 26 32 27 33 31 34 28 35 30 36
REMARK SMILES IDX 29 37
REMARK H PARENT 13 12 15 14 17 16 20 31
REMARK Flexibility Score: inf
ROOT
ATOM      1  O   UNL     1     -31.747 -13.480   0.365  1.00  0.00    -0.458 OA
ENDROOT
BRANCH   1   2
ATOM      2  C   UNL     1     -30.931 -14.405   1.100  1.00  0.00     0.339 C 
ATOM      3  C   UNL     1     -29.774 -12.661   2.167  1.00  0.00     0.199 C 
ATOM      4  C   UNL     1     -30.354 -12.994   3.558  1.00  0.00     0.180 C 
ATOM      5  O   UNL     1     -29.660 -13.831   1.367  1.00  0.00    -0.328 OA
ATOM      6  C   UNL     1     -31.727 -13.671   3.382  1.00  0.00     0.181 C 
ATOM      7  C   UNL     1     -31.609 -14.864   2.411  1.00  0.00     0.214 C 
BRANCH   3   8
ATOM      8  C   UNL     1     -28.419 -12.031   2.307  1.00  0.00     0.073 C 
ATOM      9  O   UNL     1     -28.314 -10.782   2.434  1.00  0.00    -0.547 OA
ATOM     10  O   UNL     1     -27.278 -12.822   2.354  1.00  0.00    -0.547 OA
ENDBRANCH   3   8
BRANCH   4  11
ATOM     11  O   UNL     1     -29.470 -13.846   4.248  1.00  0.00    -0.387 OA
ATOM     12  H   UNL     1     -28.655 -13.318   4.450  1.00  0.00     0.211 HD
ENDBRANCH   4  11
BRANCH   6  13
ATOM     13  O   UNL     1     -32.266 -14.060   4.621  1.00  0.00    -0.387 OA
ATOM     14  H   UNL     1     -33.229 -13.815   4.630  1.00  0.00     0.211 HD
ENDBRANCH   6  13
BRANCH   7  15
ATOM     15  O   UNL     1     -32.874 -15.408   2.138  1.00  0.00    -0.384 OA
ATOM     16  H   UNL     1     -32.991 -16.187   2.743  1.00  0.00     0.211 HD
ENDBRANCH   7  15
ENDBRANCH   1   2
BRANCH   1  17
ATOM     17  C   UNL     1     -32.016 -13.583  -1.005  1.00  0.00     0.172 A 
ATOM     18  C   UNL     1     -31.472 -12.692  -1.949  1.00  0.00     0.205 A 
ATOM     19  C   UNL     1     -32.855 -14.610  -1.433  1.00  0.00     0.097 A 
ATOM     20  C   UNL     1     -31.662 -12.927  -3.317  1.00  0.00     0.188 A 
ATOM     21  C   UNL     1     -33.112 -14.824  -2.790  1.00  0.00     0.134 A 
ATOM     22  C   UNL     1     -32.460 -14.015  -3.762  1.00  0.00     0.111 A 
ATOM     23  O   UNL     1     -31.086 -12.108  -4.191  1.00  0.00    -0.452 OA
ATOM     24  C   UNL     1     -32.531 -14.227  -5.159  1.00  0.00     0.197 A 
ATOM     25  C   UNL     1     -31.187 -12.250  -5.509  1.00  0.00     0.138 A 
ATOM     26  C   UNL     1     -31.907 -13.334  -6.030  1.00  0.00     0.100 A 
ATOM     27  O   UNL     1     -33.114 -15.229  -5.651  1.00  0.00    -0.289 OA
BRANCH  18  28
ATOM     28  O   UNL     1     -30.747 -11.559  -1.561  1.00  0.00    -0.490 OA
ATOM     29  C   UNL     1     -29.336 -11.588  -1.369  1.00  0.00     0.278 C 
ENDBRANCH  18  28
BRANCH  21  30
ATOM     30  O   UNL     1     -34.032 -15.829  -3.103  1.00  0.00    -0.507 OA
ATOM     31  H   UNL     1     -34.301 -16.084  -4.042  1.00  0.00     0.293 HD
ENDBRANCH  21  30
BRANCH  25  32
ATOM     32  C   UNL     1     -30.510 -11.264  -6.387  1.00  0.00     0.017 A 
ATOM     33  C   UNL     1     -30.228 -11.545  -7.740  1.00  0.00     0.012 A 
ATOM     34  C   UNL     1     -30.166 -10.000  -5.873  1.00  0.00     0.012 A 
ATOM     35  C   UNL     1     -29.603 -10.590  -8.546  1.00  0.00     0.001 A 
ATOM     36  C   UNL     1     -29.539  -9.049  -6.685  1.00  0.00     0.001 A 
ATOM     37  C   UNL     1     -29.255  -9.344  -8.018  1.00  0.00     0.000 A 
ENDBRANCH  25  32
ENDBRANCH   1  17
TORSDOF 9
ENDMDL
MODEL 9
REMARK VINA RESULT:    -6.758      2.073      4.905
REMARK INTER + INTRA:         -10.827
REMARK INTER:                  -9.576
REMARK INTRA:                  -1.251
REMARK UNBOUND:                -1.304
REMARK SMILES COc1c(O[C@H]2O[C@H](C(=O)[O-])[C@H](O)[C@H](O)[C@H]2O)cc(O)c2c(=O)cc(-c3ccccc3)oc12
REMARK SMILES IDX 5 1 6 2 8 3 12 4 7 5 14 6 16 7 9 8 10 9 11 10 13 11 15 13
REMARK SMILES IDX 17 15 4 17 3 18 18 19 33 20 19 21 21 22 32 23 22 24 25 25
REMARK SMILES IDX 24 26 23 27 2 28 1 29 20 30 26 32 27 33 31 34 28 35 30 36
REMARK SMILES IDX 29 37
REMARK H PARENT 13 12 15 14 17 16 20 31
REMARK Flexibility Score: inf
ROOT
ATOM      1  O   UNL     1     -31.516 -14.072  -2.519  1.00  0.00    -0.458 OA
ENDROOT
BRANCH   1   2
ATOM      2  C   UNL     1     -32.506 -13.287  -3.201  1.00  0.00     0.339 C 
ATOM      3  C   UNL     1     -31.059 -12.886  -5.008  1.00  0.00     0.199 C 
ATOM      4  C   UNL     1     -31.904 -13.718  -5.998  1.00  0.00     0.180 C 
ATOM      5  O   UNL     1     -31.878 -12.299  -4.005  1.00  0.00    -0.328 OA
ATOM      6  C   UNL     1     -32.671 -14.801  -5.216  1.00  0.00     0.181 C 
ATOM      7  C   UNL     1     -33.455 -14.160  -4.052  1.00  0.00     0.214 C 
BRANCH   3   8
ATOM      8  C   UNL     1     -30.326 -11.799  -5.739  1.00  0.00     0.073 C 
ATOM      9  O   UNL     1     -30.892 -10.696  -5.963  1.00  0.00    -0.547 OA
ATOM     10  O   UNL     1     -29.003 -11.980  -6.123  1.00  0.00    -0.547 OA
ENDBRANCH   3   8
BRANCH   4  11
ATOM     11  O   UNL     1     -32.801 -12.873  -6.680  1.00  0.00    -0.387 OA
ATOM     12  H   UNL     1     -32.492 -12.820  -7.621  1.00  0.00     0.211 HD
ENDBRANCH   4  11
BRANCH   6  13
ATOM     13  O   UNL     1     -33.513 -15.542  -6.065  1.00  0.00    -0.387 OA
ATOM     14  H   UNL     1     -33.718 -14.984  -6.860  1.00  0.00     0.211 HD
ENDBRANCH   6  13
BRANCH   7  15
ATOM     15  O   UNL     1     -34.052 -15.148  -3.254  1.00  0.00    -0.384 OA
ATOM     16  H   UNL     1     -34.543 -14.679  -2.530  1.00  0.00     0.211 HD
ENDBRANCH   7  15
ENDBRANCH   1   2
BRANCH   1  17
ATOM     17  C   UNL     1     -30.905 -13.699  -1.317  1.00  0.00     0.172 A 
ATOM     18  C   UNL     1     -31.050 -14.445  -0.132  1.00  0.00     0.205 A 
ATOM     19  C   UNL     1     -30.128 -12.541  -1.309  1.00  0.00     0.097 A 
ATOM     20  C   UNL     1     -30.303 -14.101   1.002  1.00  0.00     0.188 A 
ATOM     21  C   UNL     1     -29.426 -12.142  -0.169  1.00  0.00     0.134 A 
ATOM     22  C   UNL     1     -29.455 -12.961   0.995  1.00  0.00     0.111 A 
ATOM     23  O   UNL     1     -30.410 -14.858   2.089  1.00  0.00    -0.452 OA
ATOM     24  C   UNL     1     -28.676 -12.735   2.154  1.00  0.00     0.197 A 
ATOM     25  C   UNL     1     -29.735 -14.632   3.212  1.00  0.00     0.138 A 
ATOM     26  C   UNL     1     -28.830 -13.563   3.266  1.00  0.00     0.100 A 
ATOM     27  O   UNL     1     -27.810 -11.823   2.205  1.00  0.00    -0.289 OA
BRANCH  18  28
ATOM     28  O   UNL     1     -31.934 -15.527  -0.047  1.00  0.00    -0.490 OA
ATOM     29  C   UNL     1     -33.320 -15.357   0.229  1.00  0.00     0.278 C 
ENDBRANCH  18  28
BRANCH  21  30
ATOM     30  O   UNL     1     -28.745 -10.923  -0.246  1.00  0.00    -0.507 OA
ATOM     31  H   UNL     1     -29.041 -10.139  -0.807  1.00  0.00     0.293 HD
ENDBRANCH  21  30
BRANCH  25  32
ATOM     32  C   UNL     1     -29.945 -15.540   4.367  1.00  0.00     0.017 A 
ATOM     33  C   UNL     1     -29.027 -15.608   5.435  1.00  0.00     0.012 A 
ATOM     34  C   UNL     1     -31.106 -16.333   4.421  1.00  0.00     0.012 A 
ATOM     35  C   UNL     1     -29.261 -16.462   6.517  1.00  0.00     0.001 A 
ATOM     36  C   UNL     1     -31.334 -17.187   5.506  1.00  0.00     0.001 A 
ATOM     37  C   UNL     1     -30.412 -17.253   6.550  1.00  0.00     0.000 A 
ENDBRANCH  25  32
ENDBRANCH   1  17
TORSDOF 9
ENDMDL
