MODEL 1
REMARK VINA RESULT:    -3.945      0.000      0.000
REMARK INTER + INTRA:          -4.649
REMARK INTER:                  -6.020
REMARK INTRA:                   1.371
REMARK UNBOUND:                 1.371
REMARK SMILES CC1=CCC[C@@H](C)C(=O)C[C@H](C(C)C)C(=O)C1
REMARK SMILES IDX 8 1 9 2 6 3 7 4 5 5 4 6 3 7 2 8 1 9 10 11 11 12 15 13 16 14
REMARK SMILES IDX 17 15 12 17 13 18 14 19
REMARK H PARENT
REMARK Flexibility Score: 70.00
ROOT
ATOM      1  C   UNL     1      70.454  60.990  24.790  1.00  0.00     0.136 C 
ATOM      2  O   UNL     1      70.742  59.814  24.606  1.00  0.00    -0.299 OA
ENDROOT
BRANCH   1   3
ATOM      3  C   UNL     1      71.036  62.054  23.880  1.00  0.00     0.053 C 
ATOM      4  C   UNL     1      71.750  61.408  22.684  1.00  0.00     0.016 C 
BRANCH   3   5
ATOM      5  C   UNL     1      71.999  62.967  24.672  1.00  0.00     0.015 C 
BRANCH   5   6
ATOM      6  C   UNL     1      71.659  63.005  26.176  1.00  0.00     0.028 C 
BRANCH   6   7
ATOM      7  C   UNL     1      72.708  62.298  26.995  1.00  0.00    -0.028 C 
ATOM      8  C   UNL     1      72.455  61.468  28.034  1.00  0.00    -0.070 CG0
ATOM      9  C   UNL     1      73.628  60.796  28.703  1.00  0.00     0.039 C 
ATOM     10  G   UNL     1      71.054  61.173  28.547  1.00  0.00     0.000 G0
ENDBRANCH   6   7
ENDBRANCH   5   6
ENDBRANCH   3   5
ENDBRANCH   1   3
BRANCH   1  11
ATOM     11  C   UNL     1      69.522  61.351  25.922  1.00  0.00     0.087 C 
BRANCH  11  12
ATOM     12  C   UNL     1      69.260  60.159  26.879  1.00  0.00     0.066 C 
BRANCH  12  13
ATOM     13  C   UNL     1      70.408  59.992  27.867  1.00  0.00     0.140 C 
ATOM     14  O   UNL     1      70.778  58.862  28.153  1.00  0.00    -0.299 OA
BRANCH  13  15
ATOM     15  C   UNL     1      71.052  61.175  28.556  1.00  0.00     0.106 CG0
ATOM     16  G   UNL     1      72.449  61.459  28.027  1.00  0.00     0.000 G0
ENDBRANCH  13  15
ENDBRANCH  12  13
BRANCH  12  17
ATOM     17  C   UNL     1      67.883  60.254  27.611  1.00  0.00    -0.006 C 
ATOM     18  C   UNL     1      67.798  61.474  28.546  1.00  0.00     0.008 C 
ATOM     19  C   UNL     1      66.723  60.326  26.600  1.00  0.00     0.008 C 
ENDBRANCH  12  17
ENDBRANCH  11  12
ENDBRANCH   1  11
TORSDOF 1
ENDMDL
MODEL 2
REMARK VINA RESULT:    -3.673     11.588     13.312
REMARK INTER + INTRA:          -4.235
REMARK INTER:                  -3.967
REMARK INTRA:                  -0.269
REMARK UNBOUND:                 1.371
REMARK SMILES CC1=CCC[C@@H](C)C(=O)C[C@H](C(C)C)C(=O)C1
REMARK SMILES IDX 8 1 9 2 6 3 7 4 5 5 4 6 3 7 2 8 1 9 10 11 11 12 15 13 16 14
REMARK SMILES IDX 17 15 12 17 13 18 14 19
REMARK H PARENT
REMARK Flexibility Score: 70.00
ROOT
ATOM      1  C   UNL     1      72.951  74.507  22.232  1.00  0.00     0.136 C 
ATOM      2  O   UNL     1      71.873  74.453  21.655  1.00  0.00    -0.299 OA
ENDROOT
BRANCH   1   3
ATOM      3  C   UNL     1      74.183  74.963  21.474  1.00  0.00     0.053 C 
ATOM      4  C   UNL     1      73.949  76.347  20.849  1.00  0.00     0.016 C 
BRANCH   3   5
ATOM      5  C   UNL     1      74.562  73.925  20.394  1.00  0.00     0.015 C 
BRANCH   5   6
ATOM      6  C   UNL     1      75.568  72.881  20.918  1.00  0.00     0.028 C 
BRANCH   6   7
ATOM      7  C   UNL     1      76.494  73.478  21.946  1.00  0.00    -0.028 C 
ATOM      8  C   UNL     1      76.649  73.022  23.211  1.00  0.00    -0.070 CG0
ATOM      9  C   UNL     1      77.668  73.706  24.088  1.00  0.00     0.039 C 
ATOM     10  G   UNL     1      75.860  71.855  23.782  1.00  0.00     0.000 G0
ENDBRANCH   6   7
ENDBRANCH   5   6
ENDBRANCH   3   5
ENDBRANCH   1   3
BRANCH   1  11
ATOM     11  C   UNL     1      73.028  74.118  23.689  1.00  0.00     0.087 C 
BRANCH  11  12
ATOM     12  C   UNL     1      73.279  72.600  23.886  1.00  0.00     0.066 C 
BRANCH  12  13
ATOM     13  C   UNL     1      74.622  72.354  24.562  1.00  0.00     0.140 C 
ATOM     14  O   UNL     1      74.738  72.613  25.752  1.00  0.00    -0.299 OA
BRANCH  13  15
ATOM     15  C   UNL     1      75.830  71.868  23.793  1.00  0.00     0.106 CG0
ATOM     16  G   UNL     1      76.649  73.014  23.223  1.00  0.00     0.000 G0
ENDBRANCH  13  15
ENDBRANCH  12  13
BRANCH  12  17
ATOM     17  C   UNL     1      72.116  71.881  24.643  1.00  0.00    -0.006 C 
ATOM     18  C   UNL     1      71.274  72.856  25.487  1.00  0.00     0.008 C 
ATOM     19  C   UNL     1      71.183  71.151  23.659  1.00  0.00     0.008 C 
ENDBRANCH  12  17
ENDBRANCH  11  12
ENDBRANCH   1  11
TORSDOF 1
ENDMDL
MODEL 3
REMARK VINA RESULT:    -3.523     11.445     13.643
REMARK INTER + INTRA:          -4.006
REMARK INTER:                  -3.740
REMARK INTRA:                  -0.266
REMARK UNBOUND:                 1.371
REMARK SMILES CC1=CCC[C@@H](C)C(=O)C[C@H](C(C)C)C(=O)C1
REMARK SMILES IDX 8 1 9 2 6 3 7 4 5 5 4 6 3 7 2 8 1 9 10 11 11 12 15 13 16 14
REMARK SMILES IDX 17 15 12 17 13 18 14 19
REMARK H PARENT
REMARK Flexibility Score: 70.00
ROOT
ATOM      1  C   UNL     1      75.166  73.520  25.109  1.00  0.00     0.136 C 
ATOM      2  O   UNL     1      76.318  73.126  25.233  1.00  0.00    -0.299 OA
ENDROOT
BRANCH   1   3
ATOM      3  C   UNL     1      74.157  73.243  26.207  1.00  0.00     0.053 C 
ATOM      4  C   UNL     1      74.699  73.712  27.566  1.00  0.00     0.016 C 
BRANCH   3   5
ATOM      5  C   UNL     1      73.804  71.739  26.242  1.00  0.00     0.015 C 
BRANCH   5   6
ATOM      6  C   UNL     1      72.584  71.407  25.358  1.00  0.00     0.028 C 
BRANCH   6   7
ATOM      7  C   UNL     1      71.534  72.484  25.446  1.00  0.00    -0.028 C 
ATOM      8  C   UNL     1      71.016  73.153  24.390  1.00  0.00    -0.070 CG0
ATOM      9  C   UNL     1      69.924  74.159  24.657  1.00  0.00     0.039 C 
ATOM     10  G   UNL     1      71.470  72.932  22.955  1.00  0.00     0.000 G0
ENDBRANCH   6   7
ENDBRANCH   5   6
ENDBRANCH   3   5
ENDBRANCH   1   3
BRANCH   1  11
ATOM     11  C   UNL     1      74.776  74.277  23.861  1.00  0.00     0.087 C 
BRANCH  11  12
ATOM     12  C   UNL     1      74.087  73.371  22.809  1.00  0.00     0.066 C 
BRANCH  12  13
ATOM     13  C   UNL     1      72.647  73.812  22.570  1.00  0.00     0.140 C 
ATOM     14  O   UNL     1      72.442  74.931  22.122  1.00  0.00    -0.299 OA
BRANCH  13  15
ATOM     15  C   UNL     1      71.469  72.937  22.936  1.00  0.00     0.106 CG0
ATOM     16  G   UNL     1      71.027  73.138  24.377  1.00  0.00     0.000 G0
ENDBRANCH  13  15
ENDBRANCH  12  13
BRANCH  12  17
ATOM     17  C   UNL     1      74.885  73.273  21.469  1.00  0.00    -0.006 C 
ATOM     18  C   UNL     1      76.087  74.235  21.431  1.00  0.00     0.008 C 
ATOM     19  C   UNL     1      75.394  71.839  21.232  1.00  0.00     0.008 C 
ENDBRANCH  12  17
ENDBRANCH  11  12
ENDBRANCH   1  11
TORSDOF 1
ENDMDL
MODEL 4
REMARK VINA RESULT:    -3.519     12.131     14.302
REMARK INTER + INTRA:          -3.999
REMARK INTER:                  -4.147
REMARK INTRA:                   0.148
REMARK UNBOUND:                 1.371
REMARK SMILES CC1=CCC[C@@H](C)C(=O)C[C@H](C(C)C)C(=O)C1
REMARK SMILES IDX 8 1 9 2 6 3 7 4 5 5 4 6 3 7 2 8 1 9 10 11 11 12 15 13 16 14
REMARK SMILES IDX 17 15 12 17 13 18 14 19
REMARK H PARENT
REMARK Flexibility Score: 70.00
ROOT
ATOM      1  C   UNL     1      72.141  75.064  23.356  1.00  0.00     0.136 C 
ATOM      2  O   UNL     1      72.277  76.120  23.960  1.00  0.00    -0.299 OA
ENDROOT
BRANCH   1   3
ATOM      3  C   UNL     1      71.629  73.841  24.090  1.00  0.00     0.053 C 
ATOM      4  C   UNL     1      70.242  74.116  24.692  1.00  0.00     0.016 C 
BRANCH   3   5
ATOM      5  C   UNL     1      72.632  73.415  25.186  1.00  0.00     0.015 C 
BRANCH   5   6
ATOM      6  C   UNL     1      73.332  72.084  24.848  1.00  0.00     0.028 C 
BRANCH   6   7
ATOM      7  C   UNL     1      74.755  72.308  24.405  1.00  0.00    -0.028 C 
ATOM      8  C   UNL     1      75.189  72.249  23.125  1.00  0.00    -0.070 CG0
ATOM      9  C   UNL     1      76.641  72.562  22.856  1.00  0.00     0.039 C 
ATOM     10  G   UNL     1      74.289  71.897  21.951  1.00  0.00     0.000 G0
ENDBRANCH   6   7
ENDBRANCH   5   6
ENDBRANCH   3   5
ENDBRANCH   1   3
BRANCH   1  11
ATOM     11  C   UNL     1      72.488  75.007  21.886  1.00  0.00     0.087 C 
BRANCH  11  12
ATOM     12  C   UNL     1      73.927  74.487  21.636  1.00  0.00     0.066 C 
BRANCH  12  13
ATOM     13  C   UNL     1      73.904  73.061  21.098  1.00  0.00     0.140 C 
ATOM     14  O   UNL     1      73.507  72.870  19.957  1.00  0.00    -0.299 OA
BRANCH  13  15
ATOM     15  C   UNL     1      74.289  71.875  21.953  1.00  0.00     0.106 CG0
ATOM     16  G   UNL     1      75.192  72.268  23.111  1.00  0.00     0.000 G0
ENDBRANCH  13  15
ENDBRANCH  12  13
BRANCH  12  17
ATOM     17  C   UNL     1      74.768  75.432  20.719  1.00  0.00    -0.006 C 
ATOM     18  C   UNL     1      74.020  76.733  20.373  1.00  0.00     0.008 C 
ATOM     19  C   UNL     1      76.109  75.798  21.383  1.00  0.00     0.008 C 
ENDBRANCH  12  17
ENDBRANCH  11  12
ENDBRANCH   1  11
TORSDOF 1
ENDMDL
MODEL 5
REMARK VINA RESULT:    -3.490     11.223     12.942
REMARK INTER + INTRA:          -3.955
REMARK INTER:                  -3.811
REMARK INTRA:                  -0.144
REMARK UNBOUND:                 1.371
REMARK SMILES CC1=CCC[C@@H](C)C(=O)C[C@H](C(C)C)C(=O)C1
REMARK SMILES IDX 8 1 9 2 6 3 7 4 5 5 4 6 3 7 2 8 1 9 10 11 11 12 15 13 16 14
REMARK SMILES IDX 17 15 12 17 13 18 14 19
REMARK H PARENT
REMARK Flexibility Score: 70.00
ROOT
ATOM      1  C   UNL     1      72.577  72.633  23.313  1.00  0.00     0.136 C 
ATOM      2  O   UNL     1      71.810  73.096  22.480  1.00  0.00    -0.299 OA
ENDROOT
BRANCH   1   3
ATOM      3  C   UNL     1      72.283  72.821  24.789  1.00  0.00     0.053 C 
ATOM      4  C   UNL     1      70.782  72.650  25.064  1.00  0.00     0.016 C 
BRANCH   3   5
ATOM      5  C   UNL     1      72.778  74.207  25.261  1.00  0.00     0.015 C 
BRANCH   5   6
ATOM      6  C   UNL     1      74.105  74.116  26.040  1.00  0.00     0.028 C 
BRANCH   6   7
ATOM      7  C   UNL     1      74.351  72.718  26.546  1.00  0.00    -0.028 C 
ATOM      8  C   UNL     1      75.411  71.945  26.214  1.00  0.00    -0.070 CG0
ATOM      9  C   UNL     1      75.529  70.590  26.865  1.00  0.00     0.039 C 
ATOM     10  G   UNL     1      76.488  72.380  25.233  1.00  0.00     0.000 G0
ENDBRANCH   6   7
ENDBRANCH   5   6
ENDBRANCH   3   5
ENDBRANCH   1   3
BRANCH   1  11
ATOM     11  C   UNL     1      73.803  71.881  22.849  1.00  0.00     0.087 C 
BRANCH  11  12
ATOM     12  C   UNL     1      75.101  72.719  22.988  1.00  0.00     0.066 C 
BRANCH  12  13
ATOM     13  C   UNL     1      76.144  71.974  23.811  1.00  0.00     0.140 C 
ATOM     14  O   UNL     1      76.683  70.989  23.325  1.00  0.00    -0.299 OA
BRANCH  13  15
ATOM     15  C   UNL     1      76.480  72.372  25.231  1.00  0.00     0.106 CG0
ATOM     16  G   UNL     1      75.402  71.950  26.217  1.00  0.00     0.000 G0
ENDBRANCH  13  15
ENDBRANCH  12  13
BRANCH  12  17
ATOM     17  C   UNL     1      75.680  73.182  21.612  1.00  0.00    -0.006 C 
ATOM     18  C   UNL     1      74.939  72.549  20.420  1.00  0.00     0.008 C 
ATOM     19  C   UNL     1      75.618  74.714  21.473  1.00  0.00     0.008 C 
ENDBRANCH  12  17
ENDBRANCH  11  12
ENDBRANCH   1  11
TORSDOF 1
ENDMDL
MODEL 6
REMARK VINA RESULT:    -3.439     11.448     13.432
REMARK INTER + INTRA:          -3.878
REMARK INTER:                  -3.562
REMARK INTRA:                  -0.315
REMARK UNBOUND:                 1.371
REMARK SMILES CC1=CCC[C@@H](C)C(=O)C[C@H](C(C)C)C(=O)C1
REMARK SMILES IDX 8 1 9 2 6 3 7 4 5 5 4 6 3 7 2 8 1 9 10 11 11 12 15 13 16 14
REMARK SMILES IDX 17 15 12 17 13 18 14 19
REMARK H PARENT
REMARK Flexibility Score: 70.00
ROOT
ATOM      1  C   UNL     1      75.569  73.585  22.409  1.00  0.00     0.136 C 
ATOM      2  O   UNL     1      76.355  74.497  22.195  1.00  0.00    -0.299 OA
ENDROOT
BRANCH   1   3
ATOM      3  C   UNL     1      74.448  73.314  21.424  1.00  0.00     0.053 C 
ATOM      4  C   UNL     1      75.020  72.906  20.058  1.00  0.00     0.016 C 
BRANCH   3   5
ATOM      5  C   UNL     1      73.539  74.557  21.294  1.00  0.00     0.015 C 
BRANCH   5   6
ATOM      6  C   UNL     1      72.451  74.598  22.387  1.00  0.00     0.028 C 
BRANCH   6   7
ATOM      7  C   UNL     1      71.819  73.245  22.584  1.00  0.00    -0.028 C 
ATOM      8  C   UNL     1      71.768  72.574  23.759  1.00  0.00    -0.070 CG0
ATOM      9  C   UNL     1      71.039  71.253  23.787  1.00  0.00     0.039 C 
ATOM     10  G   UNL     1      72.394  73.090  25.045  1.00  0.00     0.000 G0
ENDBRANCH   6   7
ENDBRANCH   5   6
ENDBRANCH   3   5
ENDBRANCH   1   3
BRANCH   1  11
ATOM     11  C   UNL     1      75.736  72.746  23.655  1.00  0.00     0.087 C 
BRANCH  11  12
ATOM     12  C   UNL     1      75.037  73.371  24.889  1.00  0.00     0.066 C 
BRANCH  12  13
ATOM     13  C   UNL     1      73.800  72.570  25.279  1.00  0.00     0.140 C 
ATOM     14  O   UNL     1      73.948  71.443  25.731  1.00  0.00    -0.299 OA
BRANCH  13  15
ATOM     15  C   UNL     1      72.400  73.098  25.059  1.00  0.00     0.106 CG0
ATOM     16  G   UNL     1      71.784  72.575  23.771  1.00  0.00     0.000 G0
ENDBRANCH  13  15
ENDBRANCH  12  13
BRANCH  12  17
ATOM     17  C   UNL     1      76.000  73.565  26.104  1.00  0.00    -0.006 C 
ATOM     18  C   UNL     1      77.324  74.240  25.701  1.00  0.00     0.008 C 
ATOM     19  C   UNL     1      75.335  74.406  27.210  1.00  0.00     0.008 C 
ENDBRANCH  12  17
ENDBRANCH  11  12
ENDBRANCH   1  11
TORSDOF 1
ENDMDL
MODEL 7
REMARK VINA RESULT:    -3.400     12.345     14.266
REMARK INTER + INTRA:          -3.817
REMARK INTER:                  -3.524
REMARK INTRA:                  -0.293
REMARK UNBOUND:                 1.371
REMARK SMILES CC1=CCC[C@@H](C)C(=O)C[C@H](C(C)C)C(=O)C1
REMARK SMILES IDX 8 1 9 2 6 3 7 4 5 5 4 6 3 7 2 8 1 9 10 11 11 12 15 13 16 14
REMARK SMILES IDX 17 15 12 17 13 18 14 19
REMARK H PARENT
REMARK Flexibility Score: 70.00
ROOT
ATOM      1  C   UNL     1      74.044  74.394  25.609  1.00  0.00     0.136 C 
ATOM      2  O   UNL     1      73.636  74.270  26.756  1.00  0.00    -0.299 OA
ENDROOT
BRANCH   1   3
ATOM      3  C   UNL     1      74.278  75.781  25.043  1.00  0.00     0.053 C 
ATOM      4  C   UNL     1      75.141  76.615  26.002  1.00  0.00     0.016 C 
BRANCH   3   5
ATOM      5  C   UNL     1      72.929  76.480  24.763  1.00  0.00     0.015 C 
BRANCH   5   6
ATOM      6  C   UNL     1      72.557  76.447  23.267  1.00  0.00     0.028 C 
BRANCH   6   7
ATOM      7  C   UNL     1      73.782  76.324  22.399  1.00  0.00    -0.028 C 
ATOM      8  C   UNL     1      74.050  75.285  21.574  1.00  0.00    -0.070 CG0
ATOM      9  C   UNL     1      75.297  75.358  20.729  1.00  0.00     0.039 C 
ATOM     10  G   UNL     1      73.154  74.063  21.449  1.00  0.00     0.000 G0
ENDBRANCH   6   7
ENDBRANCH   5   6
ENDBRANCH   3   5
ENDBRANCH   1   3
BRANCH   1  11
ATOM     11  C   UNL     1      74.306  73.156  24.783  1.00  0.00     0.087 C 
BRANCH  11  12
ATOM     12  C   UNL     1      73.139  72.832  23.815  1.00  0.00     0.066 C 
BRANCH  12  13
ATOM     13  C   UNL     1      73.597  72.916  22.363  1.00  0.00     0.140 C 
ATOM     14  O   UNL     1      74.388  72.081  21.947  1.00  0.00    -0.299 OA
BRANCH  13  15
ATOM     15  C   UNL     1      73.159  74.037  21.448  1.00  0.00     0.106 CG0
ATOM     16  G   UNL     1      74.047  75.265  21.576  1.00  0.00     0.000 G0
ENDBRANCH  13  15
ENDBRANCH  12  13
BRANCH  12  17
ATOM     17  C   UNL     1      72.454  71.461  24.120  1.00  0.00    -0.006 C 
ATOM     18  C   UNL     1      72.452  71.129  25.624  1.00  0.00     0.008 C 
ATOM     19  C   UNL     1      71.001  71.443  23.610  1.00  0.00     0.008 C 
ENDBRANCH  12  17
ENDBRANCH  11  12
ENDBRANCH   1  11
TORSDOF 1
ENDMDL
MODEL 8
REMARK VINA RESULT:    -3.356     11.001     13.168
REMARK INTER + INTRA:          -3.751
REMARK INTER:                  -3.511
REMARK INTRA:                  -0.240
REMARK UNBOUND:                 1.371
REMARK SMILES CC1=CCC[C@@H](C)C(=O)C[C@H](C(C)C)C(=O)C1
REMARK SMILES IDX 8 1 9 2 6 3 7 4 5 5 4 6 3 7 2 8 1 9 10 11 11 12 15 13 16 14
REMARK SMILES IDX 17 15 12 17 13 18 14 19
REMARK H PARENT
REMARK Flexibility Score: 70.00
ROOT
ATOM      1  C   UNL     1      73.296  72.646  23.978  1.00  0.00     0.136 C 
ATOM      2  O   UNL     1      72.468  73.532  24.141  1.00  0.00    -0.299 OA
ENDROOT
BRANCH   1   3
ATOM      3  C   UNL     1      73.787  71.850  25.172  1.00  0.00     0.053 C 
ATOM      4  C   UNL     1      72.619  71.116  25.847  1.00  0.00     0.016 C 
BRANCH   3   5
ATOM      5  C   UNL     1      74.509  72.779  26.174  1.00  0.00     0.015 C 
BRANCH   5   6
ATOM      6  C   UNL     1      76.042  72.718  26.023  1.00  0.00     0.028 C 
BRANCH   6   7
ATOM      7  C   UNL     1      76.500  71.339  25.623  1.00  0.00    -0.028 C 
ATOM      8  C   UNL     1      77.109  71.031  24.455  1.00  0.00    -0.070 CG0
ATOM      9  C   UNL     1      77.557  69.605  24.246  1.00  0.00     0.039 C 
ATOM     10  G   UNL     1      77.374  72.047  23.355  1.00  0.00     0.000 G0
ENDBRANCH   6   7
ENDBRANCH   5   6
ENDBRANCH   3   5
ENDBRANCH   1   3
BRANCH   1  11
ATOM     11  C   UNL     1      73.809  72.365  22.585  1.00  0.00     0.087 C 
BRANCH  11  12
ATOM     12  C   UNL     1      75.159  73.072  22.296  1.00  0.00     0.066 C 
BRANCH  12  13
ATOM     13  C   UNL     1      76.306  72.068  22.278  1.00  0.00     0.140 C 
ATOM     14  O   UNL     1      76.320  71.208  21.408  1.00  0.00    -0.299 OA
BRANCH  13  15
ATOM     15  C   UNL     1      77.382  72.061  23.340  1.00  0.00     0.106 CG0
ATOM     16  G   UNL     1      77.112  71.034  24.427  1.00  0.00     0.000 G0
ENDBRANCH  13  15
ENDBRANCH  12  13
BRANCH  12  17
ATOM     17  C   UNL     1      75.131  73.934  20.993  1.00  0.00    -0.006 C 
ATOM     18  C   UNL     1      73.697  74.256  20.534  1.00  0.00     0.008 C 
ATOM     19  C   UNL     1      75.895  75.257  21.188  1.00  0.00     0.008 C 
ENDBRANCH  12  17
ENDBRANCH  11  12
ENDBRANCH   1  11
TORSDOF 1
ENDMDL
MODEL 9
REMARK VINA RESULT:    -3.308     12.202     14.043
REMARK INTER + INTRA:          -3.678
REMARK INTER:                  -3.480
REMARK INTRA:                  -0.198
REMARK UNBOUND:                 1.371
REMARK SMILES CC1=CCC[C@@H](C)C(=O)C[C@H](C(C)C)C(=O)C1
REMARK SMILES IDX 8 1 9 2 6 3 7 4 5 5 4 6 3 7 2 8 1 9 10 11 11 12 15 13 16 14
REMARK SMILES IDX 17 15 12 17 13 18 14 19
REMARK H PARENT
REMARK Flexibility Score: 70.00
ROOT
ATOM      1  C   UNL     1      74.079  73.413  25.303  1.00  0.00     0.136 C 
ATOM      2  O   UNL     1      73.665  74.028  26.277  1.00  0.00    -0.299 OA
ENDROOT
BRANCH   1   3
ATOM      3  C   UNL     1      75.570  73.349  25.036  1.00  0.00     0.053 C 
ATOM      4  C   UNL     1      76.356  73.399  26.355  1.00  0.00     0.016 C 
BRANCH   3   5
ATOM      5  C   UNL     1      75.995  74.500  24.096  1.00  0.00     0.015 C 
BRANCH   5   6
ATOM      6  C   UNL     1      76.348  73.996  22.682  1.00  0.00     0.028 C 
BRANCH   6   7
ATOM      7  C   UNL     1      75.641  74.799  21.621  1.00  0.00    -0.028 C 
ATOM      8  C   UNL     1      74.421  74.511  21.110  1.00  0.00    -0.070 CG0
ATOM      9  C   UNL     1      73.838  75.462  20.095  1.00  0.00     0.039 C 
ATOM     10  G   UNL     1      73.610  73.292  21.519  1.00  0.00     0.000 G0
ENDBRANCH   6   7
ENDBRANCH   5   6
ENDBRANCH   3   5
ENDBRANCH   1   3
BRANCH   1  11
ATOM     11  C   UNL     1      73.090  72.729  24.389  1.00  0.00     0.087 C 
BRANCH  11  12
ATOM     12  C   UNL     1      72.141  73.733  23.684  1.00  0.00     0.066 C 
BRANCH  12  13
ATOM     13  C   UNL     1      72.295  73.656  22.170  1.00  0.00     0.140 C 
ATOM     14  O   UNL     1      71.311  73.848  21.469  1.00  0.00    -0.299 OA
BRANCH  13  15
ATOM     15  C   UNL     1      73.605  73.280  21.514  1.00  0.00     0.106 CG0
ATOM     16  G   UNL     1      74.426  74.499  21.126  1.00  0.00     0.000 G0
ENDBRANCH  13  15
ENDBRANCH  12  13
BRANCH  12  17
ATOM     17  C   UNL     1      70.649  73.571  24.118  1.00  0.00    -0.006 C 
ATOM     18  C   UNL     1      70.450  72.415  25.116  1.00  0.00     0.008 C 
ATOM     19  C   UNL     1      70.113  74.868  24.752  1.00  0.00     0.008 C 
ENDBRANCH  12  17
ENDBRANCH  11  12
ENDBRANCH   1  11
TORSDOF 1
ENDMDL
