MODEL 1
REMARK VINA RESULT:    -3.792      0.000      0.000
REMARK INTER + INTRA:          -9.661
REMARK INTER:                  -6.896
REMARK INTRA:                  -2.765
REMARK UNBOUND:                -2.765
REMARK SMILES CCCCCC=CCC=CCCCCCCCC(=O)[O-]
REMARK SMILES IDX 11 1 12 2 13 3 14 4 15 5 16 6 17 7 18 8 19 9 20 10 10 11
REMARK SMILES IDX 9 12 8 13 7 14 6 15 5 16 4 17 3 18 2 19 1 20
REMARK H PARENT
REMARK Flexibility Score: inf
ROOT
ATOM      1  C   UNL     1       3.489 -15.978  14.751  1.00  0.00     0.027 C 
ENDROOT
BRANCH   1   2
ATOM      2  C   UNL     1       2.138 -15.305  15.035  1.00  0.00     0.004 C 
BRANCH   2   3
ATOM      3  C   UNL     1       2.259 -13.782  15.194  1.00  0.00     0.000 C 
BRANCH   3   4
ATOM      4  C   UNL     1       3.065 -13.379  16.438  1.00  0.00     0.000 C 
BRANCH   4   5
ATOM      5  C   UNL     1       4.383 -12.700  16.039  1.00  0.00     0.000 C 
BRANCH   5   6
ATOM      6  C   UNL     1       4.432 -12.329  14.549  1.00  0.00     0.006 C 
BRANCH   6   7
ATOM      7  C   UNL     1       5.865 -12.207  14.017  1.00  0.00     0.053 C 
BRANCH   7   8
ATOM      8  C   UNL     1       6.002 -10.993  13.155  1.00  0.00     0.041 C 
ATOM      9  O   UNL     1       5.095 -10.120  13.141  1.00  0.00    -0.550 OA
ATOM     10  O   UNL     1       7.109 -10.848  12.328  1.00  0.00    -0.550 OA
ENDBRANCH   7   8
ENDBRANCH   6   7
ENDBRANCH   5   6
ENDBRANCH   4   5
ENDBRANCH   3   4
ENDBRANCH   2   3
ENDBRANCH   1   2
BRANCH   1  11
ATOM     11  C   UNL     1       3.716 -17.135  15.690  1.00  0.00    -0.031 C 
ATOM     12  C   UNL     1       4.644 -17.157  16.667  1.00  0.00    -0.027 C 
BRANCH  12  13
ATOM     13  C   UNL     1       5.628 -16.049  16.940  1.00  0.00     0.054 C 
BRANCH  13  14
ATOM     14  C   UNL     1       7.044 -16.535  16.752  1.00  0.00    -0.027 C 
ATOM     15  C   UNL     1       7.706 -16.552  15.580  1.00  0.00    -0.031 C 
BRANCH  15  16
ATOM     16  C   UNL     1       7.153 -16.058  14.267  1.00  0.00     0.027 C 
BRANCH  16  17
ATOM     17  C   UNL     1       7.279 -17.126  13.170  1.00  0.00     0.004 C 
BRANCH  17  18
ATOM     18  C   UNL     1       6.151 -18.168  13.233  1.00  0.00     0.000 C 
BRANCH  18  19
ATOM     19  C   UNL     1       6.667 -19.579  13.551  1.00  0.00    -0.003 C 
ATOM     20  C   UNL     1       6.228 -20.023  14.944  1.00  0.00     0.004 C 
ENDBRANCH  18  19
ENDBRANCH  17  18
ENDBRANCH  16  17
ENDBRANCH  15  16
ENDBRANCH  13  14
ENDBRANCH  12  13
ENDBRANCH   1  11
TORSDOF 14
ENDMDL
MODEL 2
REMARK VINA RESULT:    -3.764      1.237      3.167
REMARK INTER + INTRA:          -9.609
REMARK INTER:                  -6.466
REMARK INTRA:                  -3.143
REMARK UNBOUND:                -2.765
REMARK SMILES CCCCCC=CCC=CCCCCCCCC(=O)[O-]
REMARK SMILES IDX 11 1 12 2 13 3 14 4 15 5 16 6 17 7 18 8 19 9 20 10 10 11
REMARK SMILES IDX 9 12 8 13 7 14 6 15 5 16 4 17 3 18 2 19 1 20
REMARK H PARENT
REMARK Flexibility Score: inf
ROOT
ATOM      1  C   UNL     1       3.985 -15.145  18.131  1.00  0.00     0.027 C 
ENDROOT
BRANCH   1   2
ATOM      2  C   UNL     1       5.511 -15.314  18.088  1.00  0.00     0.004 C 
BRANCH   2   3
ATOM      3  C   UNL     1       6.214 -14.152  17.370  1.00  0.00     0.000 C 
BRANCH   3   4
ATOM      4  C   UNL     1       7.035 -14.616  16.158  1.00  0.00     0.000 C 
BRANCH   4   5
ATOM      5  C   UNL     1       6.526 -13.957  14.868  1.00  0.00     0.000 C 
BRANCH   5   6
ATOM      6  C   UNL     1       6.042 -12.515  15.090  1.00  0.00     0.006 C 
BRANCH   6   7
ATOM      7  C   UNL     1       5.077 -12.041  13.996  1.00  0.00     0.053 C 
BRANCH   7   8
ATOM      8  C   UNL     1       5.702 -10.951  13.184  1.00  0.00     0.041 C 
ATOM      9  O   UNL     1       6.692 -11.199  12.446  1.00  0.00    -0.550 OA
ATOM     10  O   UNL     1       5.222  -9.651  13.278  1.00  0.00    -0.550 OA
ENDBRANCH   7   8
ENDBRANCH   6   7
ENDBRANCH   5   6
ENDBRANCH   4   5
ENDBRANCH   3   4
ENDBRANCH   2   3
ENDBRANCH   1   2
BRANCH   1  11
ATOM     11  C   UNL     1       3.574 -13.843  17.490  1.00  0.00    -0.031 C 
ATOM     12  C   UNL     1       2.780 -13.740  16.406  1.00  0.00    -0.027 C 
BRANCH  12  13
ATOM     13  C   UNL     1       2.219 -14.912  15.641  1.00  0.00     0.054 C 
BRANCH  13  14
ATOM     14  C   UNL     1       3.124 -15.279  14.490  1.00  0.00    -0.027 C 
ATOM     15  C   UNL     1       3.907 -16.372  14.442  1.00  0.00    -0.031 C 
BRANCH  15  16
ATOM     16  C   UNL     1       3.987 -17.428  15.516  1.00  0.00     0.027 C 
BRANCH  16  17
ATOM     17  C   UNL     1       5.403 -18.015  15.620  1.00  0.00     0.004 C 
BRANCH  17  18
ATOM     18  C   UNL     1       6.244 -17.744  14.362  1.00  0.00     0.000 C 
BRANCH  18  19
ATOM     19  C   UNL     1       6.275 -18.942  13.403  1.00  0.00    -0.003 C 
ATOM     20  C   UNL     1       6.538 -20.243  14.156  1.00  0.00     0.004 C 
ENDBRANCH  18  19
ENDBRANCH  17  18
ENDBRANCH  16  17
ENDBRANCH  15  16
ENDBRANCH  13  14
ENDBRANCH  12  13
ENDBRANCH   1  11
TORSDOF 14
ENDMDL
MODEL 3
REMARK VINA RESULT:    -3.626      1.190      4.176
REMARK INTER + INTRA:          -9.358
REMARK INTER:                  -6.896
REMARK INTRA:                  -2.462
REMARK UNBOUND:                -2.765
REMARK SMILES CCCCCC=CCC=CCCCCCCCC(=O)[O-]
REMARK SMILES IDX 11 1 12 2 13 3 14 4 15 5 16 6 17 7 18 8 19 9 20 10 10 11
REMARK SMILES IDX 9 12 8 13 7 14 6 15 5 16 4 17 3 18 2 19 1 20
REMARK H PARENT
REMARK Flexibility Score: inf
ROOT
ATOM      1  C   UNL     1       6.045 -17.713  13.592  1.00  0.00     0.027 C 
ENDROOT
BRANCH   1   2
ATOM      2  C   UNL     1       7.476 -17.242  13.293  1.00  0.00     0.004 C 
BRANCH   2   3
ATOM      3  C   UNL     1       7.978 -16.197  14.302  1.00  0.00     0.000 C 
BRANCH   3   4
ATOM      4  C   UNL     1       6.851 -15.299  14.832  1.00  0.00     0.000 C 
BRANCH   4   5
ATOM      5  C   UNL     1       7.421 -14.014  15.451  1.00  0.00     0.000 C 
BRANCH   5   6
ATOM      6  C   UNL     1       6.410 -12.856  15.452  1.00  0.00     0.006 C 
BRANCH   6   7
ATOM      7  C   UNL     1       5.578 -12.797  14.165  1.00  0.00     0.053 C 
BRANCH   7   8
ATOM      8  C   UNL     1       5.738 -11.467  13.500  1.00  0.00     0.041 C 
ATOM      9  O   UNL     1       6.763 -11.221  12.813  1.00  0.00    -0.550 OA
ATOM     10  O   UNL     1       4.777 -10.480  13.679  1.00  0.00    -0.550 OA
ENDBRANCH   7   8
ENDBRANCH   6   7
ENDBRANCH   5   6
ENDBRANCH   4   5
ENDBRANCH   3   4
ENDBRANCH   2   3
ENDBRANCH   1   2
BRANCH   1  11
ATOM     11  C   UNL     1       6.017 -19.196  13.860  1.00  0.00    -0.031 C 
ATOM     12  C   UNL     1       6.025 -19.754  15.087  1.00  0.00    -0.027 C 
BRANCH  12  13
ATOM     13  C   UNL     1       6.112 -18.981  16.378  1.00  0.00     0.054 C 
BRANCH  13  14
ATOM     14  C   UNL     1       4.786 -19.002  17.100  1.00  0.00    -0.027 C 
ATOM     15  C   UNL     1       4.132 -17.913  17.545  1.00  0.00    -0.031 C 
BRANCH  15  16
ATOM     16  C   UNL     1       4.599 -16.490  17.367  1.00  0.00     0.027 C 
BRANCH  16  17
ATOM     17  C   UNL     1       3.552 -15.646  16.625  1.00  0.00     0.004 C 
BRANCH  17  18
ATOM     18  C   UNL     1       3.273 -16.170  15.208  1.00  0.00     0.000 C 
BRANCH  18  19
ATOM     19  C   UNL     1       2.699 -15.089  14.280  1.00  0.00    -0.003 C 
ATOM     20  C   UNL     1       1.527 -14.365  14.938  1.00  0.00     0.004 C 
ENDBRANCH  18  19
ENDBRANCH  17  18
ENDBRANCH  16  17
ENDBRANCH  15  16
ENDBRANCH  13  14
ENDBRANCH  12  13
ENDBRANCH   1  11
TORSDOF 14
ENDMDL
MODEL 4
REMARK VINA RESULT:    -3.535      1.043      2.398
REMARK INTER + INTRA:          -9.193
REMARK INTER:                  -6.751
REMARK INTRA:                  -2.442
REMARK UNBOUND:                -2.765
REMARK SMILES CCCCCC=CCC=CCCCCCCCC(=O)[O-]
REMARK SMILES IDX 11 1 12 2 13 3 14 4 15 5 16 6 17 7 18 8 19 9 20 10 10 11
REMARK SMILES IDX 9 12 8 13 7 14 6 15 5 16 4 17 3 18 2 19 1 20
REMARK H PARENT
REMARK Flexibility Score: inf
ROOT
ATOM      1  C   UNL     1       4.051 -16.761  16.849  1.00  0.00     0.027 C 
ENDROOT
BRANCH   1   2
ATOM      2  C   UNL     1       3.634 -16.658  15.375  1.00  0.00     0.004 C 
BRANCH   2   3
ATOM      3  C   UNL     1       2.708 -15.463  15.104  1.00  0.00     0.000 C 
BRANCH   3   4
ATOM      4  C   UNL     1       3.438 -14.288  14.435  1.00  0.00     0.000 C 
BRANCH   4   5
ATOM      5  C   UNL     1       3.992 -13.318  15.489  1.00  0.00     0.000 C 
BRANCH   5   6
ATOM      6  C   UNL     1       4.533 -12.018  14.871  1.00  0.00     0.006 C 
BRANCH   6   7
ATOM      7  C   UNL     1       5.609 -12.273  13.808  1.00  0.00     0.053 C 
BRANCH   7   8
ATOM      8  C   UNL     1       6.148 -10.978  13.289  1.00  0.00     0.041 C 
ATOM      9  O   UNL     1       5.362 -10.052  12.959  1.00  0.00    -0.550 OA
ATOM     10  O   UNL     1       7.517 -10.811  13.123  1.00  0.00    -0.550 OA
ENDBRANCH   7   8
ENDBRANCH   6   7
ENDBRANCH   5   6
ENDBRANCH   4   5
ENDBRANCH   3   4
ENDBRANCH   2   3
ENDBRANCH   1   2
BRANCH   1  11
ATOM     11  C   UNL     1       3.925 -18.181  17.340  1.00  0.00    -0.031 C 
ATOM     12  C   UNL     1       4.925 -19.084  17.336  1.00  0.00    -0.027 C 
BRANCH  12  13
ATOM     13  C   UNL     1       6.309 -18.828  16.796  1.00  0.00     0.054 C 
BRANCH  13  14
ATOM     14  C   UNL     1       6.727 -19.934  15.858  1.00  0.00    -0.027 C 
ATOM     15  C   UNL     1       6.510 -19.945  14.530  1.00  0.00    -0.031 C 
BRANCH  15  16
ATOM     16  C   UNL     1       5.841 -18.838  13.754  1.00  0.00     0.027 C 
BRANCH  16  17
ATOM     17  C   UNL     1       6.861 -18.031  12.937  1.00  0.00     0.004 C 
BRANCH  17  18
ATOM     18  C   UNL     1       7.700 -17.087  13.812  1.00  0.00     0.000 C 
BRANCH  18  19
ATOM     19  C   UNL     1       6.950 -15.797  14.177  1.00  0.00    -0.003 C 
ATOM     20  C   UNL     1       7.250 -15.374  15.612  1.00  0.00     0.004 C 
ENDBRANCH  18  19
ENDBRANCH  17  18
ENDBRANCH  16  17
ENDBRANCH  15  16
ENDBRANCH  13  14
ENDBRANCH  12  13
ENDBRANCH   1  11
TORSDOF 14
ENDMDL
MODEL 5
REMARK VINA RESULT:    -3.534      3.371      5.655
REMARK INTER + INTRA:          -9.191
REMARK INTER:                  -6.932
REMARK INTRA:                  -2.259
REMARK UNBOUND:                -2.765
REMARK SMILES CCCCCC=CCC=CCCCCCCCC(=O)[O-]
REMARK SMILES IDX 11 1 12 2 13 3 14 4 15 5 16 6 17 7 18 8 19 9 20 10 10 11
REMARK SMILES IDX 9 12 8 13 7 14 6 15 5 16 4 17 3 18 2 19 1 20
REMARK H PARENT
REMARK Flexibility Score: inf
ROOT
ATOM      1  C   UNL     1       5.471 -19.027  14.195  1.00  0.00     0.027 C 
ENDROOT
BRANCH   1   2
ATOM      2  C   UNL     1       6.352 -18.190  13.256  1.00  0.00     0.004 C 
BRANCH   2   3
ATOM      3  C   UNL     1       7.473 -17.449  14.000  1.00  0.00     0.000 C 
BRANCH   3   4
ATOM      4  C   UNL     1       7.199 -15.944  14.135  1.00  0.00     0.000 C 
BRANCH   4   5
ATOM      5  C   UNL     1       6.251 -15.663  15.310  1.00  0.00     0.000 C 
BRANCH   5   6
ATOM      6  C   UNL     1       5.004 -14.868  14.889  1.00  0.00     0.006 C 
BRANCH   6   7
ATOM      7  C   UNL     1       3.796 -15.769  14.607  1.00  0.00     0.053 C 
BRANCH   7   8
ATOM      8  C   UNL     1       2.521 -15.026  14.850  1.00  0.00     0.041 C 
ATOM      9  O   UNL     1       2.215 -14.657  16.014  1.00  0.00    -0.550 OA
ATOM     10  O   UNL     1       1.647 -14.782  13.798  1.00  0.00    -0.550 OA
ENDBRANCH   7   8
ENDBRANCH   6   7
ENDBRANCH   5   6
ENDBRANCH   4   5
ENDBRANCH   3   4
ENDBRANCH   2   3
ENDBRANCH   1   2
BRANCH   1  11
ATOM     11  C   UNL     1       6.191 -19.311  15.488  1.00  0.00    -0.031 C 
ATOM     12  C   UNL     1       5.654 -19.157  16.714  1.00  0.00    -0.027 C 
BRANCH  12  13
ATOM     13  C   UNL     1       4.266 -18.631  16.982  1.00  0.00     0.054 C 
BRANCH  13  14
ATOM     14  C   UNL     1       4.315 -17.456  17.927  1.00  0.00    -0.027 C 
ATOM     15  C   UNL     1       4.066 -17.517  19.249  1.00  0.00    -0.031 C 
BRANCH  15  16
ATOM     16  C   UNL     1       3.727 -18.775  20.009  1.00  0.00     0.027 C 
BRANCH  16  17
ATOM     17  C   UNL     1       2.343 -18.674  20.668  1.00  0.00     0.004 C 
BRANCH  17  18
ATOM     18  C   UNL     1       1.461 -19.896  20.372  1.00  0.00     0.000 C 
BRANCH  18  19
ATOM     19  C   UNL     1       1.858 -20.611  19.072  1.00  0.00    -0.003 C 
ATOM     20  C   UNL     1       0.701 -21.443  18.527  1.00  0.00     0.004 C 
ENDBRANCH  18  19
ENDBRANCH  17  18
ENDBRANCH  16  17
ENDBRANCH  15  16
ENDBRANCH  13  14
ENDBRANCH  12  13
ENDBRANCH   1  11
TORSDOF 14
ENDMDL
MODEL 6
REMARK VINA RESULT:    -3.487      5.056      7.415
REMARK INTER + INTRA:          -9.106
REMARK INTER:                  -7.050
REMARK INTRA:                  -2.056
REMARK UNBOUND:                -2.765
REMARK SMILES CCCCCC=CCC=CCCCCCCCC(=O)[O-]
REMARK SMILES IDX 11 1 12 2 13 3 14 4 15 5 16 6 17 7 18 8 19 9 20 10 10 11
REMARK SMILES IDX 9 12 8 13 7 14 6 15 5 16 4 17 3 18 2 19 1 20
REMARK H PARENT
REMARK Flexibility Score: inf
ROOT
ATOM      1  C   UNL     1       4.626 -17.982  14.478  1.00  0.00     0.027 C 
ENDROOT
BRANCH   1   2
ATOM      2  C   UNL     1       4.150 -18.149  15.928  1.00  0.00     0.004 C 
BRANCH   2   3
ATOM      3  C   UNL     1       5.314 -18.282  16.922  1.00  0.00     0.000 C 
BRANCH   3   4
ATOM      4  C   UNL     1       4.906 -18.996  18.219  1.00  0.00     0.000 C 
BRANCH   4   5
ATOM      5  C   UNL     1       3.385 -19.198  18.276  1.00  0.00     0.000 C 
BRANCH   5   6
ATOM      6  C   UNL     1       2.974 -20.355  19.202  1.00  0.00     0.006 C 
BRANCH   6   7
ATOM      7  C   UNL     1       1.617 -20.118  19.877  1.00  0.00     0.053 C 
BRANCH   7   8
ATOM      8  C   UNL     1       0.636 -21.166  19.459  1.00  0.00     0.041 C 
ATOM      9  O   UNL     1       0.168 -21.970  20.307  1.00  0.00    -0.550 OA
ATOM     10  O   UNL     1       0.274 -21.287  18.124  1.00  0.00    -0.550 OA
ENDBRANCH   7   8
ENDBRANCH   6   7
ENDBRANCH   5   6
ENDBRANCH   4   5
ENDBRANCH   3   4
ENDBRANCH   2   3
ENDBRANCH   1   2
BRANCH   1  11
ATOM     11  C   UNL     1       5.666 -19.018  14.135  1.00  0.00    -0.031 C 
ATOM     12  C   UNL     1       6.872 -18.746  13.599  1.00  0.00    -0.027 C 
BRANCH  12  13
ATOM     13  C   UNL     1       7.347 -17.367  13.216  1.00  0.00     0.054 C 
BRANCH  13  14
ATOM     14  C   UNL     1       8.001 -16.684  14.392  1.00  0.00    -0.027 C 
ATOM     15  C   UNL     1       7.553 -15.559  14.980  1.00  0.00    -0.031 C 
BRANCH  15  16
ATOM     16  C   UNL     1       6.304 -14.813  14.580  1.00  0.00     0.027 C 
BRANCH  16  17
ATOM     17  C   UNL     1       5.386 -14.571  15.788  1.00  0.00     0.004 C 
BRANCH  17  18
ATOM     18  C   UNL     1       4.062 -13.899  15.394  1.00  0.00     0.000 C 
BRANCH  18  19
ATOM     19  C   UNL     1       3.272 -14.711  14.357  1.00  0.00    -0.003 C 
ATOM     20  C   UNL     1       1.809 -14.851  14.768  1.00  0.00     0.004 C 
ENDBRANCH  18  19
ENDBRANCH  17  18
ENDBRANCH  16  17
ENDBRANCH  15  16
ENDBRANCH  13  14
ENDBRANCH  12  13
ENDBRANCH   1  11
TORSDOF 14
ENDMDL
MODEL 7
REMARK VINA RESULT:    -3.443      3.365      5.642
REMARK INTER + INTRA:          -9.025
REMARK INTER:                  -6.386
REMARK INTRA:                  -2.639
REMARK UNBOUND:                -2.765
REMARK SMILES CCCCCC=CCC=CCCCCCCCC(=O)[O-]
REMARK SMILES IDX 11 1 12 2 13 3 14 4 15 5 16 6 17 7 18 8 19 9 20 10 10 11
REMARK SMILES IDX 9 12 8 13 7 14 6 15 5 16 4 17 3 18 2 19 1 20
REMARK H PARENT
REMARK Flexibility Score: inf
ROOT
ATOM      1  C   UNL     1       4.621 -13.001  15.667  1.00  0.00     0.027 C 
ENDROOT
BRANCH   1   2
ATOM      2  C   UNL     1       6.133 -13.245  15.560  1.00  0.00     0.004 C 
BRANCH   2   3
ATOM      3  C   UNL     1       6.636 -14.296  16.562  1.00  0.00     0.000 C 
BRANCH   3   4
ATOM      4  C   UNL     1       7.343 -15.475  15.878  1.00  0.00     0.000 C 
BRANCH   4   5
ATOM      5  C   UNL     1       6.987 -15.535  14.385  1.00  0.00     0.000 C 
BRANCH   5   6
ATOM      6  C   UNL     1       7.489 -16.820  13.707  1.00  0.00     0.006 C 
BRANCH   6   7
ATOM      7  C   UNL     1       7.201 -18.077  14.536  1.00  0.00     0.053 C 
BRANCH   7   8
ATOM      8  C   UNL     1       6.561 -19.129  13.687  1.00  0.00     0.041 C 
ATOM      9  O   UNL     1       5.534 -19.733  14.093  1.00  0.00    -0.550 OA
ATOM     10  O   UNL     1       7.126 -19.475  12.466  1.00  0.00    -0.550 OA
ENDBRANCH   7   8
ENDBRANCH   6   7
ENDBRANCH   5   6
ENDBRANCH   4   5
ENDBRANCH   3   4
ENDBRANCH   2   3
ENDBRANCH   1   2
BRANCH   1  11
ATOM     11  C   UNL     1       3.921 -13.431  14.403  1.00  0.00    -0.031 C 
ATOM     12  C   UNL     1       3.092 -14.489  14.308  1.00  0.00    -0.027 C 
BRANCH  12  13
ATOM     13  C   UNL     1       2.776 -15.434  15.440  1.00  0.00     0.054 C 
BRANCH  13  14
ATOM     14  C   UNL     1       3.584 -16.703  15.316  1.00  0.00    -0.027 C 
ATOM     15  C   UNL     1       4.207 -17.324  16.334  1.00  0.00    -0.031 C 
BRANCH  15  16
ATOM     16  C   UNL     1       4.174 -16.874  17.773  1.00  0.00     0.027 C 
BRANCH  16  17
ATOM     17  C   UNL     1       4.730 -17.956  18.711  1.00  0.00     0.004 C 
BRANCH  17  18
ATOM     18  C   UNL     1       4.309 -19.373  18.288  1.00  0.00     0.000 C 
BRANCH  18  19
ATOM     19  C   UNL     1       2.937 -19.774  18.849  1.00  0.00    -0.003 C 
ATOM     20  C   UNL     1       2.753 -19.257  20.273  1.00  0.00     0.004 C 
ENDBRANCH  18  19
ENDBRANCH  17  18
ENDBRANCH  16  17
ENDBRANCH  15  16
ENDBRANCH  13  14
ENDBRANCH  12  13
ENDBRANCH   1  11
TORSDOF 14
ENDMDL
MODEL 8
REMARK VINA RESULT:    -3.436      1.669      2.817
REMARK INTER + INTRA:          -9.012
REMARK INTER:                  -6.033
REMARK INTRA:                  -2.979
REMARK UNBOUND:                -2.765
REMARK SMILES CCCCCC=CCC=CCCCCCCCC(=O)[O-]
REMARK SMILES IDX 11 1 12 2 13 3 14 4 15 5 16 6 17 7 18 8 19 9 20 10 10 11
REMARK SMILES IDX 9 12 8 13 7 14 6 15 5 16 4 17 3 18 2 19 1 20
REMARK H PARENT
REMARK Flexibility Score: inf
ROOT
ATOM      1  C   UNL     1       3.132 -15.002  14.822  1.00  0.00     0.027 C 
ENDROOT
BRANCH   1   2
ATOM      2  C   UNL     1       2.221 -14.459  15.934  1.00  0.00     0.004 C 
BRANCH   2   3
ATOM      3  C   UNL     1       2.951 -14.315  17.278  1.00  0.00     0.000 C 
BRANCH   3   4
ATOM      4  C   UNL     1       2.971 -12.866  17.787  1.00  0.00     0.000 C 
BRANCH   4   5
ATOM      5  C   UNL     1       4.395 -12.292  17.747  1.00  0.00     0.000 C 
BRANCH   5   6
ATOM      6  C   UNL     1       4.535 -11.123  16.758  1.00  0.00     0.006 C 
BRANCH   6   7
ATOM      7  C   UNL     1       3.191 -10.692  16.159  1.00  0.00     0.053 C 
BRANCH   7   8
ATOM      8  C   UNL     1       3.398 -10.029  14.834  1.00  0.00     0.041 C 
ATOM      9  O   UNL     1       2.583  -9.162  14.425  1.00  0.00    -0.550 OA
ATOM     10  O   UNL     1       4.466 -10.405  14.028  1.00  0.00    -0.550 OA
ENDBRANCH   7   8
ENDBRANCH   6   7
ENDBRANCH   5   6
ENDBRANCH   4   5
ENDBRANCH   3   4
ENDBRANCH   2   3
ENDBRANCH   1   2
BRANCH   1  11
ATOM     11  C   UNL     1       4.111 -13.948  14.373  1.00  0.00    -0.031 C 
ATOM     12  C   UNL     1       5.442 -14.002  14.576  1.00  0.00    -0.027 C 
BRANCH  12  13
ATOM     13  C   UNL     1       6.150 -15.102  15.327  1.00  0.00     0.054 C 
BRANCH  13  14
ATOM     14  C   UNL     1       7.105 -15.837  14.418  1.00  0.00    -0.027 C 
ATOM     15  C   UNL     1       6.816 -16.968  13.747  1.00  0.00    -0.031 C 
BRANCH  15  16
ATOM     16  C   UNL     1       5.481 -17.670  13.768  1.00  0.00     0.027 C 
BRANCH  16  17
ATOM     17  C   UNL     1       5.592 -19.063  14.407  1.00  0.00     0.004 C 
BRANCH  17  18
ATOM     18  C   UNL     1       5.504 -19.014  15.940  1.00  0.00     0.000 C 
BRANCH  18  19
ATOM     19  C   UNL     1       4.306 -18.193  16.438  1.00  0.00    -0.003 C 
ATOM     20  C   UNL     1       4.630 -17.491  17.755  1.00  0.00     0.004 C 
ENDBRANCH  18  19
ENDBRANCH  17  18
ENDBRANCH  16  17
ENDBRANCH  15  16
ENDBRANCH  13  14
ENDBRANCH  12  13
ENDBRANCH   1  11
TORSDOF 14
ENDMDL
MODEL 9
REMARK VINA RESULT:    -3.374      1.743      2.848
REMARK INTER + INTRA:          -8.899
REMARK INTER:                  -6.303
REMARK INTRA:                  -2.596
REMARK UNBOUND:                -2.765
REMARK SMILES CCCCCC=CCC=CCCCCCCCC(=O)[O-]
REMARK SMILES IDX 11 1 12 2 13 3 14 4 15 5 16 6 17 7 18 8 19 9 20 10 10 11
REMARK SMILES IDX 9 12 8 13 7 14 6 15 5 16 4 17 3 18 2 19 1 20
REMARK H PARENT
REMARK Flexibility Score: inf
ROOT
ATOM      1  C   UNL     1       3.202 -16.154  15.383  1.00  0.00     0.027 C 
ENDROOT
BRANCH   1   2
ATOM      2  C   UNL     1       2.201 -15.029  15.080  1.00  0.00     0.004 C 
BRANCH   2   3
ATOM      3  C   UNL     1       2.814 -13.631  15.253  1.00  0.00     0.000 C 
BRANCH   3   4
ATOM      4  C   UNL     1       3.956 -13.359  14.263  1.00  0.00     0.000 C 
BRANCH   4   5
ATOM      5  C   UNL     1       5.019 -12.446  14.892  1.00  0.00     0.000 C 
BRANCH   5   6
ATOM      6  C   UNL     1       4.997 -11.022  14.313  1.00  0.00     0.006 C 
BRANCH   6   7
ATOM      7  C   UNL     1       4.621  -9.965  15.359  1.00  0.00     0.053 C 
BRANCH   7   8
ATOM      8  C   UNL     1       3.142  -9.746  15.373  1.00  0.00     0.041 C 
ATOM      9  O   UNL     1       2.441 -10.210  16.311  1.00  0.00    -0.550 OA
ATOM     10  O   UNL     1       2.529  -9.071  14.325  1.00  0.00    -0.550 OA
ENDBRANCH   7   8
ENDBRANCH   6   7
ENDBRANCH   5   6
ENDBRANCH   4   5
ENDBRANCH   3   4
ENDBRANCH   2   3
ENDBRANCH   1   2
BRANCH   1  11
ATOM     11  C   UNL     1       3.760 -16.010  16.776  1.00  0.00    -0.031 C 
ATOM     12  C   UNL     1       4.274 -17.021  17.504  1.00  0.00    -0.027 C 
BRANCH  12  13
ATOM     13  C   UNL     1       4.326 -18.459  17.056  1.00  0.00     0.054 C 
BRANCH  13  14
ATOM     14  C   UNL     1       5.754 -18.899  16.842  1.00  0.00    -0.027 C 
ATOM     15  C   UNL     1       6.282 -19.259  15.657  1.00  0.00    -0.031 C 
BRANCH  15  16
ATOM     16  C   UNL     1       5.543 -19.254  14.343  1.00  0.00     0.027 C 
BRANCH  16  17
ATOM     17  C   UNL     1       5.824 -17.969  13.548  1.00  0.00     0.004 C 
BRANCH  17  18
ATOM     18  C   UNL     1       7.097 -17.252  14.023  1.00  0.00     0.000 C 
BRANCH  18  19
ATOM     19  C   UNL     1       6.858 -15.767  14.336  1.00  0.00    -0.003 C 
ATOM     20  C   UNL     1       7.281 -15.432  15.764  1.00  0.00     0.004 C 
ENDBRANCH  18  19
ENDBRANCH  17  18
ENDBRANCH  16  17
ENDBRANCH  15  16
ENDBRANCH  13  14
ENDBRANCH  12  13
ENDBRANCH   1  11
TORSDOF 14
ENDMDL
