MODEL 1
REMARK VINA RESULT:    -4.105      0.000      0.000
REMARK INTER + INTRA:          -6.501
REMARK INTER:                  -5.545
REMARK INTRA:                  -0.956
REMARK UNBOUND:                -0.956
REMARK SMILES O=C[C@H](O)[C@@H](O)[C@H](O)CO
REMARK SMILES IDX 7 1 9 2 10 3 5 5 3 6 2 7 1 8 4 9 6 11 8 13
REMARK H PARENT 10 4 4 10 6 12 8 14
REMARK Flexibility Score: inf
ROOT
ATOM      1  C   UNL     1     -19.293  23.169  10.878  1.00  0.00     0.171 C 
ENDROOT
BRANCH   1   2
ATOM      2  C   UNL     1     -20.266  22.425   9.953  1.00  0.00     0.190 C 
BRANCH   2   3
ATOM      3  O   UNL     1     -21.527  23.040   9.954  1.00  0.00    -0.394 OA
ATOM      4  H   UNL     1     -21.442  23.875  10.483  1.00  0.00     0.210 HD
ENDBRANCH   2   3
ENDBRANCH   1   2
BRANCH   1   5
ATOM      5  C   UNL     1     -19.827  23.249  12.335  1.00  0.00     0.181 C 
BRANCH   5   6
ATOM      6  C   UNL     1     -20.190  24.696  12.763  1.00  0.00     0.209 C 
BRANCH   6   7
ATOM      7  C   UNL     1     -20.531  24.769  14.230  1.00  0.00     0.258 C 
ATOM      8  O   UNL     1     -20.208  23.864  14.985  1.00  0.00    -0.300 OA
ENDBRANCH   6   7
BRANCH   6   9
ATOM      9  O   UNL     1     -21.236  25.226  11.984  1.00  0.00    -0.383 OA
ATOM     10  H   UNL     1     -20.933  26.093  11.608  1.00  0.00     0.211 HD
ENDBRANCH   6   9
ENDBRANCH   5   6
BRANCH   5  11
ATOM     11  O   UNL     1     -20.902  22.365  12.554  1.00  0.00    -0.387 OA
ATOM     12  H   UNL     1     -20.672  21.491  12.145  1.00  0.00     0.211 HD
ENDBRANCH   5  11
ENDBRANCH   1   5
BRANCH   1  13
ATOM     13  O   UNL     1     -19.079  24.458  10.357  1.00  0.00    -0.388 OA
ATOM     14  H   UNL     1     -19.248  24.416   9.381  1.00  0.00     0.211 HD
ENDBRANCH   1  13
TORSDOF 8
ENDMDL
MODEL 2
REMARK VINA RESULT:    -3.866     17.694     18.648
REMARK INTER + INTRA:          -6.178
REMARK INTER:                  -5.874
REMARK INTRA:                  -0.304
REMARK UNBOUND:                -0.956
REMARK SMILES O=C[C@H](O)[C@@H](O)[C@H](O)CO
REMARK SMILES IDX 7 1 9 2 10 3 5 5 3 6 2 7 1 8 4 9 6 11 8 13
REMARK H PARENT 10 4 4 10 6 12 8 14
REMARK Flexibility Score: inf
ROOT
ATOM      1  C   UNL     1     -31.310  38.234  16.634  1.00  0.00     0.171 C 
ENDROOT
BRANCH   1   2
ATOM      2  C   UNL     1     -31.755  37.773  15.238  1.00  0.00     0.190 C 
BRANCH   2   3
ATOM      3  O   UNL     1     -30.694  37.167  14.550  1.00  0.00    -0.394 OA
ATOM      4  H   UNL     1     -30.002  36.939  15.224  1.00  0.00     0.210 HD
ENDBRANCH   2   3
ENDBRANCH   1   2
BRANCH   1   5
ATOM      5  C   UNL     1     -29.784  38.522  16.688  1.00  0.00     0.181 C 
BRANCH   5   6
ATOM      6  C   UNL     1     -29.432  39.719  17.612  1.00  0.00     0.209 C 
BRANCH   6   7
ATOM      7  C   UNL     1     -29.224  40.985  16.818  1.00  0.00     0.258 C 
ATOM      8  O   UNL     1     -28.493  40.987  15.839  1.00  0.00    -0.300 OA
ENDBRANCH   6   7
BRANCH   6   9
ATOM      9  O   UNL     1     -28.311  39.448  18.417  1.00  0.00    -0.383 OA
ATOM     10  H   UNL     1     -28.495  38.624  18.938  1.00  0.00     0.211 HD
ENDBRANCH   6   9
ENDBRANCH   5   6
BRANCH   5  11
ATOM     11  O   UNL     1     -29.040  37.375  17.030  1.00  0.00    -0.387 OA
ATOM     12  H   UNL     1     -28.166  37.422  16.564  1.00  0.00     0.211 HD
ENDBRANCH   5  11
ENDBRANCH   1   5
BRANCH   1  13
ATOM     13  O   UNL     1     -31.660  37.240  17.565  1.00  0.00    -0.388 OA
ATOM     14  H   UNL     1     -31.748  36.385  17.069  1.00  0.00     0.211 HD
ENDBRANCH   1  13
TORSDOF 8
ENDMDL
MODEL 3
REMARK VINA RESULT:    -3.849      1.256      3.757
REMARK INTER + INTRA:          -6.155
REMARK INTER:                  -5.242
REMARK INTRA:                  -0.913
REMARK UNBOUND:                -0.956
REMARK SMILES O=C[C@H](O)[C@@H](O)[C@H](O)CO
REMARK SMILES IDX 7 1 9 2 10 3 5 5 3 6 2 7 1 8 4 9 6 11 8 13
REMARK H PARENT 10 4 4 10 6 12 8 14
REMARK Flexibility Score: inf
ROOT
ATOM      1  C   UNL     1     -20.458  23.821  12.711  1.00  0.00     0.171 C 
ENDROOT
BRANCH   1   2
ATOM      2  C   UNL     1     -20.139  23.901  14.211  1.00  0.00     0.190 C 
BRANCH   2   3
ATOM      3  O   UNL     1     -18.815  24.314  14.419  1.00  0.00    -0.394 OA
ATOM      4  H   UNL     1     -18.331  23.546  14.822  1.00  0.00     0.210 HD
ENDBRANCH   2   3
ENDBRANCH   1   2
BRANCH   1   5
ATOM      5  C   UNL     1     -19.697  22.657  12.019  1.00  0.00     0.181 C 
BRANCH   5   6
ATOM      6  C   UNL     1     -20.095  22.482  10.529  1.00  0.00     0.209 C 
BRANCH   6   7
ATOM      7  C   UNL     1     -18.998  22.955   9.607  1.00  0.00     0.258 C 
ATOM      8  O   UNL     1     -18.495  24.057   9.759  1.00  0.00    -0.300 OA
ENDBRANCH   6   7
BRANCH   6   9
ATOM      9  O   UNL     1     -21.307  23.130  10.230  1.00  0.00    -0.383 OA
ATOM     10  H   UNL     1     -21.810  23.254  11.077  1.00  0.00     0.211 HD
ENDBRANCH   6   9
ENDBRANCH   5   6
BRANCH   5  11
ATOM     11  O   UNL     1     -18.301  22.775  12.168  1.00  0.00    -0.387 OA
ATOM     12  H   UNL     1     -17.871  22.062  11.629  1.00  0.00     0.211 HD
ENDBRANCH   5  11
ENDBRANCH   1   5
BRANCH   1  13
ATOM     13  O   UNL     1     -20.126  25.052  12.118  1.00  0.00    -0.388 OA
ATOM     14  H   UNL     1     -19.789  24.862  11.205  1.00  0.00     0.211 HD
ENDBRANCH   1  13
TORSDOF 8
ENDMDL
MODEL 4
REMARK VINA RESULT:    -3.782      1.361      1.901
REMARK INTER + INTRA:          -6.064
REMARK INTER:                  -5.372
REMARK INTRA:                  -0.692
REMARK UNBOUND:                -0.956
REMARK SMILES O=C[C@H](O)[C@@H](O)[C@H](O)CO
REMARK SMILES IDX 7 1 9 2 10 3 5 5 3 6 2 7 1 8 4 9 6 11 8 13
REMARK H PARENT 10 4 4 10 6 12 8 14
REMARK Flexibility Score: inf
ROOT
ATOM      1  C   UNL     1     -19.281  22.434  11.128  1.00  0.00     0.171 C 
ENDROOT
BRANCH   1   2
ATOM      2  C   UNL     1     -20.163  22.446   9.870  1.00  0.00     0.190 C 
BRANCH   2   3
ATOM      3  O   UNL     1     -21.411  23.026  10.141  1.00  0.00    -0.394 OA
ATOM      4  H   UNL     1     -22.066  22.608   9.523  1.00  0.00     0.210 HD
ENDBRANCH   2   3
ENDBRANCH   1   2
BRANCH   1   5
ATOM      5  C   UNL     1     -20.051  22.942  12.378  1.00  0.00     0.181 C 
BRANCH   5   6
ATOM      6  C   UNL     1     -19.369  22.531  13.711  1.00  0.00     0.209 C 
BRANCH   6   7
ATOM      7  C   UNL     1     -20.247  22.840  14.898  1.00  0.00     0.258 C 
ATOM      8  O   UNL     1     -20.452  23.997  15.230  1.00  0.00    -0.300 OA
ENDBRANCH   6   7
BRANCH   6   9
ATOM      9  O   UNL     1     -18.105  23.130  13.860  1.00  0.00    -0.383 OA
ATOM     10  H   UNL     1     -18.238  24.101  14.013  1.00  0.00     0.211 HD
ENDBRANCH   6   9
ENDBRANCH   5   6
BRANCH   5  11
ATOM     11  O   UNL     1     -20.283  24.331  12.328  1.00  0.00    -0.387 OA
ATOM     12  H   UNL     1     -21.081  24.532  12.883  1.00  0.00     0.211 HD
ENDBRANCH   5  11
ENDBRANCH   1   5
BRANCH   1  13
ATOM     13  O   UNL     1     -18.147  23.229  10.886  1.00  0.00    -0.388 OA
ATOM     14  H   UNL     1     -18.224  24.039  11.454  1.00  0.00     0.211 HD
ENDBRANCH   1  13
TORSDOF 8
ENDMDL
MODEL 5
REMARK VINA RESULT:    -3.739      2.449      3.939
REMARK INTER + INTRA:          -6.007
REMARK INTER:                  -5.088
REMARK INTRA:                  -0.919
REMARK UNBOUND:                -0.956
REMARK SMILES O=C[C@H](O)[C@@H](O)[C@H](O)CO
REMARK SMILES IDX 7 1 9 2 10 3 5 5 3 6 2 7 1 8 4 9 6 11 8 13
REMARK H PARENT 10 4 4 10 6 12 8 14
REMARK Flexibility Score: inf
ROOT
ATOM      1  C   UNL     1     -20.288  23.216  14.289  1.00  0.00     0.171 C 
ENDROOT
BRANCH   1   2
ATOM      2  C   UNL     1     -20.552  24.703  14.009  1.00  0.00     0.190 C 
BRANCH   2   3
ATOM      3  O   UNL     1     -20.270  25.017  12.671  1.00  0.00    -0.394 OA
ATOM      4  H   UNL     1     -19.440  25.560  12.669  1.00  0.00     0.210 HD
ENDBRANCH   2   3
ENDBRANCH   1   2
BRANCH   1   5
ATOM      5  C   UNL     1     -18.770  22.914  14.421  1.00  0.00     0.181 C 
BRANCH   5   6
ATOM      6  C   UNL     1     -18.200  22.158  13.191  1.00  0.00     0.209 C 
BRANCH   6   7
ATOM      7  C   UNL     1     -16.746  21.806  13.385  1.00  0.00     0.258 C 
ATOM      8  O   UNL     1     -15.885  22.669  13.310  1.00  0.00    -0.300 OA
ENDBRANCH   6   7
BRANCH   6   9
ATOM      9  O   UNL     1     -18.379  22.885  11.999  1.00  0.00    -0.383 OA
ATOM     10  H   UNL     1     -18.674  22.254  11.293  1.00  0.00     0.211 HD
ENDBRANCH   6   9
ENDBRANCH   5   6
BRANCH   5  11
ATOM     11  O   UNL     1     -18.021  24.074  14.702  1.00  0.00    -0.387 OA
ATOM     12  H   UNL     1     -18.593  24.864  14.519  1.00  0.00     0.211 HD
ENDBRANCH   5  11
ENDBRANCH   1   5
BRANCH   1  13
ATOM     13  O   UNL     1     -20.857  22.458  13.251  1.00  0.00    -0.388 OA
ATOM     14  H   UNL     1     -21.579  23.004  12.845  1.00  0.00     0.211 HD
ENDBRANCH   1  13
TORSDOF 8
ENDMDL
MODEL 6
REMARK VINA RESULT:    -3.625      2.236      3.818
REMARK INTER + INTRA:          -5.852
REMARK INTER:                  -5.107
REMARK INTRA:                  -0.744
REMARK UNBOUND:                -0.956
REMARK SMILES O=C[C@H](O)[C@@H](O)[C@H](O)CO
REMARK SMILES IDX 7 1 9 2 10 3 5 5 3 6 2 7 1 8 4 9 6 11 8 13
REMARK H PARENT 10 4 4 10 6 12 8 14
REMARK Flexibility Score: inf
ROOT
ATOM      1  C   UNL     1     -18.265  22.280  13.295  1.00  0.00     0.171 C 
ENDROOT
BRANCH   1   2
ATOM      2  C   UNL     1     -16.771  22.013  13.529  1.00  0.00     0.190 C 
BRANCH   2   3
ATOM      3  O   UNL     1     -16.014  23.172  13.302  1.00  0.00    -0.394 OA
ATOM      4  H   UNL     1     -16.578  23.944  13.569  1.00  0.00     0.210 HD
ENDBRANCH   2   3
ENDBRANCH   1   2
BRANCH   1   5
ATOM      5  C   UNL     1     -18.617  22.310  11.781  1.00  0.00     0.181 C 
BRANCH   5   6
ATOM      6  C   UNL     1     -20.131  22.526  11.521  1.00  0.00     0.209 C 
BRANCH   6   7
ATOM      7  C   UNL     1     -20.378  23.770  10.704  1.00  0.00     0.258 C 
ATOM      8  O   UNL     1     -20.412  24.866  11.241  1.00  0.00    -0.300 OA
ENDBRANCH   6   7
BRANCH   6   9
ATOM      9  O   UNL     1     -20.869  22.565  12.719  1.00  0.00    -0.383 OA
ATOM     10  H   UNL     1     -21.794  22.264  12.524  1.00  0.00     0.211 HD
ENDBRANCH   6   9
ENDBRANCH   5   6
BRANCH   5  11
ATOM     11  O   UNL     1     -17.836  23.246  11.075  1.00  0.00    -0.387 OA
ATOM     12  H   UNL     1     -18.287  23.437  10.212  1.00  0.00     0.211 HD
ENDBRANCH   5  11
ENDBRANCH   1   5
BRANCH   1  13
ATOM     13  O   UNL     1     -18.602  23.500  13.906  1.00  0.00    -0.388 OA
ATOM     14  H   UNL     1     -19.515  23.403  14.282  1.00  0.00     0.211 HD
ENDBRANCH   1  13
TORSDOF 8
ENDMDL
MODEL 7
REMARK VINA RESULT:    -3.624      1.999      2.836
REMARK INTER + INTRA:          -5.851
REMARK INTER:                  -5.275
REMARK INTRA:                  -0.576
REMARK UNBOUND:                -0.956
REMARK SMILES O=C[C@H](O)[C@@H](O)[C@H](O)CO
REMARK SMILES IDX 7 1 9 2 10 3 5 5 3 6 2 7 1 8 4 9 6 11 8 13
REMARK H PARENT 10 4 4 10 6 12 8 14
REMARK Flexibility Score: inf
ROOT
ATOM      1  C   UNL     1     -19.744  22.940  12.492  1.00  0.00     0.171 C 
ENDROOT
BRANCH   1   2
ATOM      2  C   UNL     1     -20.137  23.806  11.286  1.00  0.00     0.190 C 
BRANCH   2   3
ATOM      3  O   UNL     1     -20.513  25.094  11.696  1.00  0.00    -0.394 OA
ATOM      4  H   UNL     1     -21.300  25.354  11.151  1.00  0.00     0.210 HD
ENDBRANCH   2   3
ENDBRANCH   1   2
BRANCH   1   5
ATOM      5  C   UNL     1     -20.143  23.607  13.837  1.00  0.00     0.181 C 
BRANCH   5   6
ATOM      6  C   UNL     1     -20.740  22.598  14.854  1.00  0.00     0.209 C 
BRANCH   6   7
ATOM      7  C   UNL     1     -19.716  21.575  15.281  1.00  0.00     0.258 C 
ATOM      8  O   UNL     1     -18.553  21.901  15.456  1.00  0.00    -0.300 OA
ENDBRANCH   6   7
BRANCH   6   9
ATOM      9  O   UNL     1     -21.892  21.966  14.351  1.00  0.00    -0.383 OA
ATOM     10  H   UNL     1     -22.536  21.857  15.097  1.00  0.00     0.211 HD
ENDBRANCH   6   9
ENDBRANCH   5   6
BRANCH   5  11
ATOM     11  O   UNL     1     -19.078  24.336  14.403  1.00  0.00    -0.387 OA
ATOM     12  H   UNL     1     -18.976  24.052  15.348  1.00  0.00     0.211 HD
ENDBRANCH   5  11
ENDBRANCH   1   5
BRANCH   1  13
ATOM     13  O   UNL     1     -18.357  22.711  12.444  1.00  0.00    -0.388 OA
ATOM     14  H   UNL     1     -17.907  23.592  12.513  1.00  0.00     0.211 HD
ENDBRANCH   1  13
TORSDOF 8
ENDMDL
MODEL 8
REMARK VINA RESULT:    -3.557      1.245      3.931
REMARK INTER + INTRA:          -5.761
REMARK INTER:                  -5.236
REMARK INTRA:                  -0.525
REMARK UNBOUND:                -0.956
REMARK SMILES O=C[C@H](O)[C@@H](O)[C@H](O)CO
REMARK SMILES IDX 7 1 9 2 10 3 5 5 3 6 2 7 1 8 4 9 6 11 8 13
REMARK H PARENT 10 4 4 10 6 12 8 14
REMARK Flexibility Score: inf
ROOT
ATOM      1  C   UNL     1     -20.087  23.470  12.288  1.00  0.00     0.171 C 
ENDROOT
BRANCH   1   2
ATOM      2  C   UNL     1     -20.457  24.747  13.056  1.00  0.00     0.190 C 
BRANCH   2   3
ATOM      3  O   UNL     1     -21.453  25.467  12.379  1.00  0.00    -0.394 OA
ATOM      4  H   UNL     1     -22.252  25.481  12.967  1.00  0.00     0.210 HD
ENDBRANCH   2   3
ENDBRANCH   1   2
BRANCH   1   5
ATOM      5  C   UNL     1     -20.198  23.667  10.751  1.00  0.00     0.181 C 
BRANCH   5   6
ATOM      6  C   UNL     1     -18.972  23.104   9.984  1.00  0.00     0.209 C 
BRANCH   6   7
ATOM      7  C   UNL     1     -19.025  21.600   9.887  1.00  0.00     0.258 C 
ATOM      8  O   UNL     1     -19.771  21.058   9.087  1.00  0.00    -0.300 OA
ENDBRANCH   6   7
BRANCH   6   9
ATOM      9  O   UNL     1     -17.757  23.522  10.558  1.00  0.00    -0.383 OA
ATOM     10  H   UNL     1     -17.939  24.315  11.126  1.00  0.00     0.211 HD
ENDBRANCH   6   9
ENDBRANCH   5   6
BRANCH   5  11
ATOM     11  O   UNL     1     -21.405  23.152  10.237  1.00  0.00    -0.387 OA
ATOM     12  H   UNL     1     -21.298  22.174  10.117  1.00  0.00     0.211 HD
ENDBRANCH   5  11
ENDBRANCH   1   5
BRANCH   1  13
ATOM     13  O   UNL     1     -20.931  22.431  12.717  1.00  0.00    -0.388 OA
ATOM     14  H   UNL     1     -20.553  21.580  12.376  1.00  0.00     0.211 HD
ENDBRANCH   1  13
TORSDOF 8
ENDMDL
MODEL 9
REMARK VINA RESULT:    -3.466      2.600      5.008
REMARK INTER + INTRA:          -5.638
REMARK INTER:                  -4.893
REMARK INTRA:                  -0.744
REMARK UNBOUND:                -0.956
REMARK SMILES O=C[C@H](O)[C@@H](O)[C@H](O)CO
REMARK SMILES IDX 7 1 9 2 10 3 5 5 3 6 2 7 1 8 4 9 6 11 8 13
REMARK H PARENT 10 4 4 10 6 12 8 14
REMARK Flexibility Score: inf
ROOT
ATOM      1  C   UNL     1     -19.562  22.441  16.184  1.00  0.00     0.171 C 
ENDROOT
BRANCH   1   2
ATOM      2  C   UNL     1     -18.481  22.282  17.263  1.00  0.00     0.190 C 
BRANCH   2   3
ATOM      3  O   UNL     1     -18.974  22.652  18.522  1.00  0.00    -0.394 OA
ATOM      4  H   UNL     1     -18.284  22.400  19.190  1.00  0.00     0.210 HD
ENDBRANCH   2   3
ENDBRANCH   1   2
BRANCH   1   5
ATOM      5  C   UNL     1     -18.946  22.718  14.784  1.00  0.00     0.181 C 
BRANCH   5   6
ATOM      6  C   UNL     1     -20.013  22.777  13.660  1.00  0.00     0.209 C 
BRANCH   6   7
ATOM      7  C   UNL     1     -20.247  24.193  13.195  1.00  0.00     0.258 C 
ATOM      8  O   UNL     1     -20.606  25.052  13.986  1.00  0.00    -0.300 OA
ENDBRANCH   6   7
BRANCH   6   9
ATOM      9  O   UNL     1     -21.224  22.179  14.054  1.00  0.00    -0.383 OA
ATOM     10  H   UNL     1     -21.413  22.449  14.989  1.00  0.00     0.211 HD
ENDBRANCH   6   9
ENDBRANCH   5   6
BRANCH   5  11
ATOM     11  O   UNL     1     -18.133  23.869  14.782  1.00  0.00    -0.387 OA
ATOM     12  H   UNL     1     -18.580  24.564  15.331  1.00  0.00     0.211 HD
ENDBRANCH   5  11
ENDBRANCH   1   5
BRANCH   1  13
ATOM     13  O   UNL     1     -20.421  23.487  16.563  1.00  0.00    -0.388 OA
ATOM     14  H   UNL     1     -21.352  23.166  16.444  1.00  0.00     0.211 HD
ENDBRANCH   1  13
TORSDOF 8
ENDMDL
