MODEL 1
REMARK VINA RESULT:    -4.784      0.000      0.000
REMARK INTER + INTRA:          -5.254
REMARK INTER:                  -5.203
REMARK INTRA:                  -0.050
REMARK UNBOUND:                -0.050
REMARK SMILES CCc1cccc(O)c1
REMARK SMILES IDX 3 1 9 2 7 3 6 4 5 5 4 6 2 7 1 8 8 9
REMARK H PARENT 8 10
REMARK Flexibility Score: inf
ROOT
ATOM      1  C   UNL     1     113.325   9.452 -24.729  1.00  0.00    -0.045 A 
ATOM      2  C   UNL     1     112.468   8.873 -23.778  1.00  0.00     0.049 A 
ATOM      3  C   UNL     1     111.448   7.999 -24.183  1.00  0.00     0.115 A 
ATOM      4  C   UNL     1     111.293   7.695 -25.540  1.00  0.00     0.046 A 
ATOM      5  C   UNL     1     112.151   8.258 -26.489  1.00  0.00     0.004 A 
ATOM      6  C   UNL     1     113.167   9.128 -26.086  1.00  0.00     0.004 A 
ENDROOT
BRANCH   1   7
ATOM      7  C   UNL     1     114.440  10.364 -24.291  1.00  0.00     0.032 C 
ATOM      8  C   UNL     1     114.195  10.875 -22.875  1.00  0.00     0.009 C 
ENDBRANCH   1   7
BRANCH   3   9
ATOM      9  O   UNL     1     110.591   7.427 -23.248  1.00  0.00    -0.508 OA
ATOM     10  H   UNL     1     110.709   6.470 -22.936  1.00  0.00     0.293 HD
ENDBRANCH   3   9
TORSDOF 2
ENDMDL
MODEL 2
REMARK VINA RESULT:    -4.465     16.076     17.546
REMARK INTER + INTRA:          -4.906
REMARK INTER:                  -4.833
REMARK INTRA:                  -0.073
REMARK UNBOUND:                -0.050
REMARK SMILES CCc1cccc(O)c1
REMARK SMILES IDX 3 1 9 2 7 3 6 4 5 5 4 6 2 7 1 8 8 9
REMARK H PARENT 8 10
REMARK Flexibility Score: inf
ROOT
ATOM      1  C   UNL     1     110.071   6.649 -41.655  1.00  0.00    -0.045 A 
ATOM      2  C   UNL     1     111.023   7.259 -42.489  1.00  0.00     0.049 A 
ATOM      3  C   UNL     1     111.686   8.423 -42.073  1.00  0.00     0.115 A 
ATOM      4  C   UNL     1     111.404   8.972 -40.818  1.00  0.00     0.046 A 
ATOM      5  C   UNL     1     110.468   8.362 -39.979  1.00  0.00     0.004 A 
ATOM      6  C   UNL     1     109.807   7.202 -40.392  1.00  0.00     0.004 A 
ENDROOT
BRANCH   1   7
ATOM      7  C   UNL     1     109.383   5.382 -42.088  1.00  0.00     0.032 C 
ATOM      8  C   UNL     1     109.019   4.525 -40.880  1.00  0.00     0.009 C 
ENDBRANCH   1   7
BRANCH   3   9
ATOM      9  O   UNL     1     112.626   9.038 -42.897  1.00  0.00    -0.508 OA
ATOM     10  H   UNL     1     113.147   9.851 -42.591  1.00  0.00     0.293 HD
ENDBRANCH   3   9
TORSDOF 2
ENDMDL
MODEL 3
REMARK VINA RESULT:    -4.148      1.610      2.281
REMARK INTER + INTRA:          -4.562
REMARK INTER:                  -4.487
REMARK INTRA:                  -0.075
REMARK UNBOUND:                -0.050
REMARK SMILES CCc1cccc(O)c1
REMARK SMILES IDX 3 1 9 2 7 3 6 4 5 5 4 6 2 7 1 8 8 9
REMARK H PARENT 8 10
REMARK Flexibility Score: inf
ROOT
ATOM      1  C   UNL     1     112.983   9.012 -24.636  1.00  0.00    -0.045 A 
ATOM      2  C   UNL     1     112.799   8.675 -25.988  1.00  0.00     0.049 A 
ATOM      3  C   UNL     1     111.758   7.814 -26.367  1.00  0.00     0.115 A 
ATOM      4  C   UNL     1     110.894   7.299 -25.395  1.00  0.00     0.046 A 
ATOM      5  C   UNL     1     111.064   7.642 -24.051  1.00  0.00     0.004 A 
ATOM      6  C   UNL     1     112.100   8.499 -23.672  1.00  0.00     0.004 A 
ENDROOT
BRANCH   1   7
ATOM      7  C   UNL     1     114.080   9.961 -24.233  1.00  0.00     0.032 C 
ATOM      8  C   UNL     1     113.781  10.587 -22.875  1.00  0.00     0.009 C 
ENDBRANCH   1   7
BRANCH   3   9
ATOM      9  O   UNL     1     111.573   7.470 -27.703  1.00  0.00    -0.508 OA
ATOM     10  H   UNL     1     111.022   8.047 -28.328  1.00  0.00     0.293 HD
ENDBRANCH   3   9
TORSDOF 2
ENDMDL
MODEL 4
REMARK VINA RESULT:    -4.144      1.005      3.092
REMARK INTER + INTRA:          -4.558
REMARK INTER:                  -4.487
REMARK INTRA:                  -0.071
REMARK UNBOUND:                -0.050
REMARK SMILES CCc1cccc(O)c1
REMARK SMILES IDX 3 1 9 2 7 3 6 4 5 5 4 6 2 7 1 8 8 9
REMARK H PARENT 8 10
REMARK Flexibility Score: inf
ROOT
ATOM      1  C   UNL     1     112.494   8.289 -26.335  1.00  0.00    -0.045 A 
ATOM      2  C   UNL     1     111.550   7.751 -25.445  1.00  0.00     0.049 A 
ATOM      3  C   UNL     1     111.634   8.025 -24.072  1.00  0.00     0.115 A 
ATOM      4  C   UNL     1     112.658   8.847 -23.589  1.00  0.00     0.046 A 
ATOM      5  C   UNL     1     113.592   9.397 -24.472  1.00  0.00     0.004 A 
ATOM      6  C   UNL     1     113.509   9.125 -25.840  1.00  0.00     0.004 A 
ENDROOT
BRANCH   1   7
ATOM      7  C   UNL     1     112.384   8.021 -27.812  1.00  0.00     0.032 C 
ATOM      8  C   UNL     1     113.764   7.981 -28.458  1.00  0.00     0.009 C 
ENDBRANCH   1   7
BRANCH   3   9
ATOM      9  O   UNL     1     110.706   7.489 -23.182  1.00  0.00    -0.508 OA
ATOM     10  H   UNL     1     109.785   7.199 -23.489  1.00  0.00     0.293 HD
ENDBRANCH   3   9
TORSDOF 2
ENDMDL
MODEL 5
REMARK VINA RESULT:    -4.101      2.440      4.219
REMARK INTER + INTRA:          -4.511
REMARK INTER:                  -4.436
REMARK INTRA:                  -0.075
REMARK UNBOUND:                -0.050
REMARK SMILES CCc1cccc(O)c1
REMARK SMILES IDX 3 1 9 2 7 3 6 4 5 5 4 6 2 7 1 8 8 9
REMARK H PARENT 8 10
REMARK Flexibility Score: inf
ROOT
ATOM      1  C   UNL     1     112.968   8.962 -24.615  1.00  0.00    -0.045 A 
ATOM      2  C   UNL     1     113.982   9.445 -25.459  1.00  0.00     0.049 A 
ATOM      3  C   UNL     1     114.851  10.454 -25.016  1.00  0.00     0.115 A 
ATOM      4  C   UNL     1     114.713  10.971 -23.724  1.00  0.00     0.046 A 
ATOM      5  C   UNL     1     113.714  10.485 -22.875  1.00  0.00     0.004 A 
ATOM      6  C   UNL     1     112.848   9.481 -23.315  1.00  0.00     0.004 A 
ENDROOT
BRANCH   1   7
ATOM      7  C   UNL     1     112.056   7.858 -25.079  1.00  0.00     0.032 C 
ATOM      8  C   UNL     1     110.972   7.582 -24.043  1.00  0.00     0.009 C 
ENDBRANCH   1   7
BRANCH   3   9
ATOM      9  O   UNL     1     115.855  10.942 -25.848  1.00  0.00    -0.508 OA
ATOM     10  H   UNL     1     115.931  10.647 -26.815  1.00  0.00     0.293 HD
ENDBRANCH   3   9
TORSDOF 2
ENDMDL
MODEL 6
REMARK VINA RESULT:    -4.059     15.196     16.801
REMARK INTER + INTRA:          -4.465
REMARK INTER:                  -4.396
REMARK INTRA:                  -0.069
REMARK UNBOUND:                -0.050
REMARK SMILES CCc1cccc(O)c1
REMARK SMILES IDX 3 1 9 2 7 3 6 4 5 5 4 6 2 7 1 8 8 9
REMARK H PARENT 8 10
REMARK Flexibility Score: inf
ROOT
ATOM      1  C   UNL     1     110.178   8.273 -40.109  1.00  0.00    -0.045 A 
ATOM      2  C   UNL     1     111.198   8.880 -40.860  1.00  0.00     0.049 A 
ATOM      3  C   UNL     1     111.604   8.324 -42.083  1.00  0.00     0.115 A 
ATOM      4  C   UNL     1     110.980   7.167 -42.560  1.00  0.00     0.046 A 
ATOM      5  C   UNL     1     109.955   6.567 -41.824  1.00  0.00     0.004 A 
ATOM      6  C   UNL     1     109.550   7.119 -40.606  1.00  0.00     0.004 A 
ENDROOT
BRANCH   1   7
ATOM      7  C   UNL     1     109.721   8.887 -38.813  1.00  0.00     0.032 C 
ATOM      8  C   UNL     1     108.205   9.050 -38.797  1.00  0.00     0.009 C 
ENDBRANCH   1   7
BRANCH   3   9
ATOM      9  O   UNL     1     112.619   8.916 -42.829  1.00  0.00    -0.508 OA
ATOM     10  H   UNL     1     113.412   9.364 -42.384  1.00  0.00     0.293 HD
ENDBRANCH   3   9
TORSDOF 2
ENDMDL
MODEL 7
REMARK VINA RESULT:    -4.036      1.640      2.546
REMARK INTER + INTRA:          -4.440
REMARK INTER:                  -4.380
REMARK INTRA:                  -0.061
REMARK UNBOUND:                -0.050
REMARK SMILES CCc1cccc(O)c1
REMARK SMILES IDX 3 1 9 2 7 3 6 4 5 5 4 6 2 7 1 8 8 9
REMARK H PARENT 8 10
REMARK Flexibility Score: inf
ROOT
ATOM      1  C   UNL     1     111.701   9.567 -25.979  1.00  0.00    -0.045 A 
ATOM      2  C   UNL     1     110.881   8.892 -25.060  1.00  0.00     0.049 A 
ATOM      3  C   UNL     1     111.443   8.014 -24.121  1.00  0.00     0.115 A 
ATOM      4  C   UNL     1     112.827   7.820 -24.094  1.00  0.00     0.046 A 
ATOM      5  C   UNL     1     113.650   8.499 -24.997  1.00  0.00     0.004 A 
ATOM      6  C   UNL     1     113.092   9.374 -25.932  1.00  0.00     0.004 A 
ENDROOT
BRANCH   1   7
ATOM      7  C   UNL     1     111.102  10.534 -26.965  1.00  0.00     0.032 C 
ATOM      8  C   UNL     1     111.489  11.968 -26.620  1.00  0.00     0.009 C 
ENDBRANCH   1   7
BRANCH   3   9
ATOM      9  O   UNL     1     110.635   7.337 -23.211  1.00  0.00    -0.508 OA
ATOM     10  H   UNL     1     110.835   7.344 -22.217  1.00  0.00     0.293 HD
ENDBRANCH   3   9
TORSDOF 2
ENDMDL
MODEL 8
REMARK VINA RESULT:    -4.000      1.926      3.578
REMARK INTER + INTRA:          -4.401
REMARK INTER:                  -4.325
REMARK INTRA:                  -0.076
REMARK UNBOUND:                -0.050
REMARK SMILES CCc1cccc(O)c1
REMARK SMILES IDX 3 1 9 2 7 3 6 4 5 5 4 6 2 7 1 8 8 9
REMARK H PARENT 8 10
REMARK Flexibility Score: inf
ROOT
ATOM      1  C   UNL     1     111.990   8.290 -24.413  1.00  0.00    -0.045 A 
ATOM      2  C   UNL     1     112.685   9.160 -23.556  1.00  0.00     0.049 A 
ATOM      3  C   UNL     1     113.823   9.843 -24.010  1.00  0.00     0.115 A 
ATOM      4  C   UNL     1     114.260   9.665 -25.327  1.00  0.00     0.046 A 
ATOM      5  C   UNL     1     113.565   8.811 -26.188  1.00  0.00     0.004 A 
ATOM      6  C   UNL     1     112.432   8.130 -25.737  1.00  0.00     0.004 A 
ENDROOT
BRANCH   1   7
ATOM      7  C   UNL     1     110.751   7.582 -23.935  1.00  0.00     0.032 C 
ATOM      8  C   UNL     1     110.237   6.617 -24.997  1.00  0.00     0.009 C 
ENDBRANCH   1   7
BRANCH   3   9
ATOM      9  O   UNL     1     114.520  10.702 -23.165  1.00  0.00    -0.508 OA
ATOM     10  H   UNL     1     115.444  11.045 -23.403  1.00  0.00     0.293 HD
ENDBRANCH   3   9
TORSDOF 2
ENDMDL
MODEL 9
REMARK VINA RESULT:    -3.958      1.478      1.959
REMARK INTER + INTRA:          -4.355
REMARK INTER:                  -4.281
REMARK INTRA:                  -0.074
REMARK UNBOUND:                -0.050
REMARK SMILES CCc1cccc(O)c1
REMARK SMILES IDX 3 1 9 2 7 3 6 4 5 5 4 6 2 7 1 8 8 9
REMARK H PARENT 8 10
REMARK Flexibility Score: inf
ROOT
ATOM      1  C   UNL     1     113.053   8.591 -25.730  1.00  0.00    -0.045 A 
ATOM      2  C   UNL     1     112.524   8.284 -24.465  1.00  0.00     0.049 A 
ATOM      3  C   UNL     1     111.258   7.690 -24.353  1.00  0.00     0.115 A 
ATOM      4  C   UNL     1     110.524   7.394 -25.506  1.00  0.00     0.046 A 
ATOM      5  C   UNL     1     111.051   7.685 -26.768  1.00  0.00     0.004 A 
ATOM      6  C   UNL     1     112.312   8.276 -26.881  1.00  0.00     0.004 A 
ENDROOT
BRANCH   1   7
ATOM      7  C   UNL     1     114.425   9.198 -25.852  1.00  0.00     0.032 C 
ATOM      8  C   UNL     1     115.044   8.864 -27.205  1.00  0.00     0.009 C 
ENDBRANCH   1   7
BRANCH   3   9
ATOM      9  O   UNL     1     110.724   7.389 -23.102  1.00  0.00    -0.508 OA
ATOM     10  H   UNL     1     109.725   7.419 -22.931  1.00  0.00     0.293 HD
ENDBRANCH   3   9
TORSDOF 2
ENDMDL
