MODEL 1
REMARK VINA RESULT:    -7.880      0.000      0.000
REMARK INTER + INTRA:          -9.818
REMARK INTER:                  -9.492
REMARK INTRA:                  -0.326
REMARK UNBOUND:                -0.326
REMARK SMILES O=c1c(O)c(-c2ccc(O)c(O)c2)oc2cc(O)cc(O)c12
REMARK SMILES IDX 5 1 3 2 2 3 1 4 22 5 20 6 19 7 17 8 16 9 15 10 14 11 6 12
REMARK SMILES IDX 7 13 8 14 9 15 13 16 11 17 10 18 12 20 4 22 21 24 18 26
REMARK H PARENT 10 19 12 21 4 23 21 25 18 27
REMARK Flexibility Score: inf
ROOT
ATOM      1  C   UNL     1       1.357 -46.862 -37.996  1.00  0.00     0.180 A 
ATOM      2  C   UNL     1       0.909 -45.767 -37.232  1.00  0.00     0.208 A 
ATOM      3  C   UNL     1       0.348 -46.006 -35.968  1.00  0.00     0.238 A 
ATOM      4  O   UNL     1      -0.066 -45.035 -35.279  1.00  0.00    -0.285 OA
ATOM      5  C   UNL     1       0.263 -47.328 -35.482  1.00  0.00     0.111 A 
ATOM      6  C   UNL     1      -0.284 -47.653 -34.217  1.00  0.00     0.134 A 
ATOM      7  C   UNL     1      -0.325 -48.992 -33.801  1.00  0.00     0.093 A 
ATOM      8  C   UNL     1       0.171 -50.009 -34.621  1.00  0.00     0.123 A 
ATOM      9  C   UNL     1       0.712 -49.692 -35.872  1.00  0.00     0.094 A 
ATOM     10  C   UNL     1       0.760 -48.365 -36.305  1.00  0.00     0.146 A 
ATOM     11  O   UNL     1       1.275 -48.092 -37.499  1.00  0.00    -0.452 OA
ENDROOT
BRANCH   1  12
ATOM     12  C   UNL     1       1.943 -46.693 -39.345  1.00  0.00     0.025 A 
ATOM     13  C   UNL     1       3.321 -46.482 -39.524  1.00  0.00     0.016 A 
ATOM     14  C   UNL     1       3.848 -46.301 -40.806  1.00  0.00     0.051 A 
ATOM     15  C   UNL     1       3.009 -46.314 -41.924  1.00  0.00     0.157 A 
ATOM     16  C   UNL     1       1.100 -46.685 -40.469  1.00  0.00     0.062 A 
ATOM     17  C   UNL     1       1.627 -46.504 -41.755  1.00  0.00     0.158 A 
BRANCH  15  18
ATOM     18  O   UNL     1       3.564 -46.132 -43.190  1.00  0.00    -0.504 OA
ATOM     19  H   UNL     1       3.771 -46.911 -43.803  1.00  0.00     0.293 HD
ENDBRANCH  15  18
BRANCH  17  20
ATOM     20  O   UNL     1       0.783 -46.510 -42.865  1.00  0.00    -0.504 OA
ATOM     21  H   UNL     1       0.724 -47.312 -43.482  1.00  0.00     0.293 HD
ENDBRANCH  17  20
ENDBRANCH   1  12
BRANCH   2  22
ATOM     22  O   UNL     1       1.050 -44.463 -37.716  1.00  0.00    -0.502 OA
ATOM     23  H   UNL     1       1.558 -44.251 -38.566  1.00  0.00     0.293 HD
ENDBRANCH   2  22
BRANCH   6  24
ATOM     24  O   UNL     1      -0.787 -46.661 -33.374  1.00  0.00    -0.507 OA
ATOM     25  H   UNL     1      -0.515 -46.601 -32.400  1.00  0.00     0.293 HD
ENDBRANCH   6  24
BRANCH   8  26
ATOM     26  O   UNL     1       0.120 -51.330 -34.184  1.00  0.00    -0.508 OA
ATOM     27  H   UNL     1      -0.086 -52.091 -34.821  1.00  0.00     0.293 HD
ENDBRANCH   8  26
TORSDOF 6
ENDMDL
MODEL 2
REMARK VINA RESULT:    -7.796      1.459      1.471
REMARK INTER + INTRA:          -9.717
REMARK INTER:                  -9.755
REMARK INTRA:                   0.038
REMARK UNBOUND:                -0.326
REMARK SMILES O=c1c(O)c(-c2ccc(O)c(O)c2)oc2cc(O)cc(O)c12
REMARK SMILES IDX 5 1 3 2 2 3 1 4 22 5 20 6 19 7 17 8 16 9 15 10 14 11 6 12
REMARK SMILES IDX 7 13 8 14 9 15 13 16 11 17 10 18 12 20 4 22 21 24 18 26
REMARK H PARENT 10 19 12 21 4 23 21 25 18 27
REMARK Flexibility Score: inf
ROOT
ATOM      1  C   UNL     1       1.354 -46.600 -37.583  1.00  0.00     0.180 A 
ATOM      2  C   UNL     1       0.169 -45.936 -37.211  1.00  0.00     0.208 A 
ATOM      3  C   UNL     1      -0.294 -46.065 -35.892  1.00  0.00     0.238 A 
ATOM      4  O   UNL     1      -1.359 -45.483 -35.549  1.00  0.00    -0.285 OA
ATOM      5  C   UNL     1       0.441 -46.836 -34.968  1.00  0.00     0.111 A 
ATOM      6  C   UNL     1       0.045 -47.012 -33.619  1.00  0.00     0.134 A 
ATOM      7  C   UNL     1       0.836 -47.787 -32.758  1.00  0.00     0.093 A 
ATOM      8  C   UNL     1       2.012 -48.386 -33.216  1.00  0.00     0.123 A 
ATOM      9  C   UNL     1       2.408 -48.215 -34.547  1.00  0.00     0.094 A 
ATOM     10  C   UNL     1       1.632 -47.448 -35.421  1.00  0.00     0.146 A 
ATOM     11  O   UNL     1       2.028 -47.306 -36.681  1.00  0.00    -0.452 OA
ENDROOT
BRANCH   1  12
ATOM     12  C   UNL     1       1.896 -46.528 -38.959  1.00  0.00     0.025 A 
ATOM     13  C   UNL     1       3.236 -46.178 -39.200  1.00  0.00     0.016 A 
ATOM     14  C   UNL     1       3.720 -46.093 -40.509  1.00  0.00     0.051 A 
ATOM     15  C   UNL     1       2.873 -46.342 -41.593  1.00  0.00     0.157 A 
ATOM     16  C   UNL     1       1.044 -46.757 -40.052  1.00  0.00     0.062 A 
ATOM     17  C   UNL     1       1.527 -46.672 -41.365  1.00  0.00     0.158 A 
BRANCH  15  18
ATOM     18  O   UNL     1       3.385 -46.251 -42.888  1.00  0.00    -0.504 OA
ATOM     19  H   UNL     1       2.804 -46.386 -43.706  1.00  0.00     0.293 HD
ENDBRANCH  15  18
BRANCH  17  20
ATOM     20  O   UNL     1       0.675 -46.915 -42.442  1.00  0.00    -0.504 OA
ATOM     21  H   UNL     1       0.105 -46.179 -42.843  1.00  0.00     0.293 HD
ENDBRANCH  17  20
ENDBRANCH   1  12
BRANCH   2  22
ATOM     22  O   UNL     1      -0.514 -45.138 -38.133  1.00  0.00    -0.502 OA
ATOM     23  H   UNL     1      -0.033 -44.538 -38.792  1.00  0.00     0.293 HD
ENDBRANCH   2  22
BRANCH   6  24
ATOM     24  O   UNL     1      -1.124 -46.427 -33.131  1.00  0.00    -0.507 OA
ATOM     25  H   UNL     1      -1.358 -46.446 -32.145  1.00  0.00     0.293 HD
ENDBRANCH   6  24
BRANCH   8  26
ATOM     26  O   UNL     1       2.780 -49.149 -32.340  1.00  0.00    -0.508 OA
ATOM     27  H   UNL     1       3.780 -49.014 -32.256  1.00  0.00     0.293 HD
ENDBRANCH   8  26
TORSDOF 6
ENDMDL
MODEL 3
REMARK VINA RESULT:    -7.736      1.375      2.869
REMARK INTER + INTRA:          -9.645
REMARK INTER:                  -9.452
REMARK INTRA:                  -0.193
REMARK UNBOUND:                -0.326
REMARK SMILES O=c1c(O)c(-c2ccc(O)c(O)c2)oc2cc(O)cc(O)c12
REMARK SMILES IDX 5 1 3 2 2 3 1 4 22 5 20 6 19 7 17 8 16 9 15 10 14 11 6 12
REMARK SMILES IDX 7 13 8 14 9 15 13 16 11 17 10 18 12 20 4 22 21 24 18 26
REMARK H PARENT 10 19 12 21 4 23 21 25 18 27
REMARK Flexibility Score: inf
ROOT
ATOM      1  C   UNL     1       1.575 -46.894 -38.040  1.00  0.00     0.180 A 
ATOM      2  C   UNL     1       1.985 -47.983 -37.247  1.00  0.00     0.208 A 
ATOM      3  C   UNL     1       1.468 -48.108 -35.948  1.00  0.00     0.238 A 
ATOM      4  O   UNL     1       1.836 -49.073 -35.224  1.00  0.00    -0.285 OA
ATOM      5  C   UNL     1       0.540 -47.159 -35.473  1.00  0.00     0.111 A 
ATOM      6  C   UNL     1      -0.031 -47.216 -34.178  1.00  0.00     0.134 A 
ATOM      7  C   UNL     1      -0.955 -46.238 -33.782  1.00  0.00     0.093 A 
ATOM      8  C   UNL     1      -1.320 -45.208 -34.652  1.00  0.00     0.123 A 
ATOM      9  C   UNL     1      -0.759 -45.147 -35.932  1.00  0.00     0.094 A 
ATOM     10  C   UNL     1       0.165 -46.111 -36.345  1.00  0.00     0.146 A 
ATOM     11  O   UNL     1       0.687 -46.027 -37.564  1.00  0.00    -0.452 OA
ENDROOT
BRANCH   1  12
ATOM     12  C   UNL     1       2.089 -46.683 -39.413  1.00  0.00     0.025 A 
ATOM     13  C   UNL     1       3.446 -46.407 -39.651  1.00  0.00     0.016 A 
ATOM     14  C   UNL     1       3.904 -46.188 -40.954  1.00  0.00     0.051 A 
ATOM     15  C   UNL     1       3.015 -46.227 -42.032  1.00  0.00     0.157 A 
ATOM     16  C   UNL     1       1.195 -46.701 -40.496  1.00  0.00     0.062 A 
ATOM     17  C   UNL     1       1.653 -46.481 -41.803  1.00  0.00     0.158 A 
BRANCH  15  18
ATOM     18  O   UNL     1       3.502 -46.005 -43.320  1.00  0.00    -0.504 OA
ATOM     19  H   UNL     1       4.486 -45.851 -43.504  1.00  0.00     0.293 HD
ENDBRANCH  15  18
BRANCH  17  20
ATOM     20  O   UNL     1       0.759 -46.514 -42.873  1.00  0.00    -0.504 OA
ATOM     21  H   UNL     1       0.792 -47.250 -43.569  1.00  0.00     0.293 HD
ENDBRANCH  17  20
ENDBRANCH   1  12
BRANCH   2  22
ATOM     22  O   UNL     1       2.868 -48.938 -37.760  1.00  0.00    -0.502 OA
ATOM     23  H   UNL     1       3.504 -49.460 -37.170  1.00  0.00     0.293 HD
ENDBRANCH   2  22
BRANCH   6  24
ATOM     24  O   UNL     1       0.312 -48.232 -33.285  1.00  0.00    -0.507 OA
ATOM     25  H   UNL     1      -0.389 -48.819 -32.849  1.00  0.00     0.293 HD
ENDBRANCH   6  24
BRANCH   8  26
ATOM     26  O   UNL     1      -2.241 -44.250 -34.235  1.00  0.00    -0.508 OA
ATOM     27  H   UNL     1      -3.239 -44.422 -34.275  1.00  0.00     0.293 HD
ENDBRANCH   8  26
TORSDOF 6
ENDMDL
MODEL 4
REMARK VINA RESULT:    -7.728      2.053      7.354
REMARK INTER + INTRA:          -9.635
REMARK INTER:                  -9.474
REMARK INTRA:                  -0.160
REMARK UNBOUND:                -0.326
REMARK SMILES O=c1c(O)c(-c2ccc(O)c(O)c2)oc2cc(O)cc(O)c12
REMARK SMILES IDX 5 1 3 2 2 3 1 4 22 5 20 6 19 7 17 8 16 9 15 10 14 11 6 12
REMARK SMILES IDX 7 13 8 14 9 15 13 16 11 17 10 18 12 20 4 22 21 24 18 26
REMARK H PARENT 10 19 12 21 4 23 21 25 18 27
REMARK Flexibility Score: inf
ROOT
ATOM      1  C   UNL     1       1.269 -46.529 -37.779  1.00  0.00     0.180 A 
ATOM      2  C   UNL     1       1.336 -47.516 -38.781  1.00  0.00     0.208 A 
ATOM      3  C   UNL     1       1.661 -47.130 -40.092  1.00  0.00     0.238 A 
ATOM      4  O   UNL     1       1.714 -48.003 -41.000  1.00  0.00    -0.285 OA
ATOM      5  C   UNL     1       1.931 -45.775 -40.372  1.00  0.00     0.111 A 
ATOM      6  C   UNL     1       2.270 -45.305 -41.664  1.00  0.00     0.134 A 
ATOM      7  C   UNL     1       2.534 -43.941 -41.862  1.00  0.00     0.093 A 
ATOM      8  C   UNL     1       2.467 -43.041 -40.795  1.00  0.00     0.123 A 
ATOM      9  C   UNL     1       2.133 -43.500 -39.517  1.00  0.00     0.094 A 
ATOM     10  C   UNL     1       1.865 -44.855 -39.301  1.00  0.00     0.146 A 
ATOM     11  O   UNL     1       1.544 -45.263 -38.078  1.00  0.00    -0.452 OA
ENDROOT
BRANCH   1  12
ATOM     12  C   UNL     1       0.915 -46.853 -36.378  1.00  0.00     0.025 A 
ATOM     13  C   UNL     1      -0.249 -46.340 -35.780  1.00  0.00     0.016 A 
ATOM     14  C   UNL     1      -0.550 -46.641 -34.448  1.00  0.00     0.051 A 
ATOM     15  C   UNL     1       0.309 -47.445 -33.693  1.00  0.00     0.157 A 
ATOM     16  C   UNL     1       1.786 -47.644 -35.610  1.00  0.00     0.062 A 
ATOM     17  C   UNL     1       1.485 -47.946 -34.275  1.00  0.00     0.158 A 
BRANCH  15  18
ATOM     18  O   UNL     1      -0.019 -47.729 -32.368  1.00  0.00    -0.504 OA
ATOM     19  H   UNL     1      -0.095 -47.004 -31.665  1.00  0.00     0.293 HD
ENDBRANCH  15  18
BRANCH  17  20
ATOM     20  O   UNL     1       2.350 -48.743 -33.525  1.00  0.00    -0.504 OA
ATOM     21  H   UNL     1       3.084 -49.287 -33.963  1.00  0.00     0.293 HD
ENDBRANCH  17  20
ENDBRANCH   1  12
BRANCH   2  22
ATOM     22  O   UNL     1       1.113 -48.859 -38.467  1.00  0.00    -0.502 OA
ATOM     23  H   UNL     1       0.251 -49.336 -38.703  1.00  0.00     0.293 HD
ENDBRANCH   2  22
BRANCH   6  24
ATOM     24  O   UNL     1       2.345 -46.178 -42.750  1.00  0.00    -0.507 OA
ATOM     25  H   UNL     1       1.758 -47.001 -42.815  1.00  0.00     0.293 HD
ENDBRANCH   6  24
BRANCH   8  26
ATOM     26  O   UNL     1       2.735 -41.693 -41.018  1.00  0.00    -0.508 OA
ATOM     27  H   UNL     1       2.020 -41.060 -41.358  1.00  0.00     0.293 HD
ENDBRANCH   8  26
TORSDOF 6
ENDMDL
MODEL 5
REMARK VINA RESULT:    -7.427      1.600      3.280
REMARK INTER + INTRA:          -9.273
REMARK INTER:                  -8.988
REMARK INTRA:                  -0.284
REMARK UNBOUND:                -0.326
REMARK SMILES O=c1c(O)c(-c2ccc(O)c(O)c2)oc2cc(O)cc(O)c12
REMARK SMILES IDX 5 1 3 2 2 3 1 4 22 5 20 6 19 7 17 8 16 9 15 10 14 11 6 12
REMARK SMILES IDX 7 13 8 14 9 15 13 16 11 17 10 18 12 20 4 22 21 24 18 26
REMARK H PARENT 10 19 12 21 4 23 21 25 18 27
REMARK Flexibility Score: inf
ROOT
ATOM      1  C   UNL     1       1.038 -46.439 -37.509  1.00  0.00     0.180 A 
ATOM      2  C   UNL     1       1.137 -47.530 -36.623  1.00  0.00     0.208 A 
ATOM      3  C   UNL     1       0.494 -47.451 -35.377  1.00  0.00     0.238 A 
ATOM      4  O   UNL     1       0.584 -48.417 -34.571  1.00  0.00    -0.285 OA
ATOM      5  C   UNL     1      -0.248 -46.298 -35.047  1.00  0.00     0.111 A 
ATOM      6  C   UNL     1      -0.928 -46.143 -33.815  1.00  0.00     0.134 A 
ATOM      7  C   UNL     1      -1.654 -44.969 -33.565  1.00  0.00     0.093 A 
ATOM      8  C   UNL     1      -1.715 -43.951 -34.520  1.00  0.00     0.123 A 
ATOM      9  C   UNL     1      -1.045 -44.100 -35.739  1.00  0.00     0.094 A 
ATOM     10  C   UNL     1      -0.315 -45.262 -36.006  1.00  0.00     0.146 A 
ATOM     11  O   UNL     1       0.317 -45.376 -37.170  1.00  0.00    -0.452 OA
ENDROOT
BRANCH   1  12
ATOM     12  C   UNL     1       1.702 -46.439 -38.832  1.00  0.00     0.025 A 
ATOM     13  C   UNL     1       3.086 -46.226 -38.957  1.00  0.00     0.016 A 
ATOM     14  C   UNL     1       3.687 -46.207 -40.218  1.00  0.00     0.051 A 
ATOM     15  C   UNL     1       2.917 -46.384 -41.372  1.00  0.00     0.157 A 
ATOM     16  C   UNL     1       0.928 -46.596 -39.994  1.00  0.00     0.062 A 
ATOM     17  C   UNL     1       1.530 -46.577 -41.260  1.00  0.00     0.158 A 
BRANCH  15  18
ATOM     18  O   UNL     1       3.545 -46.361 -42.616  1.00  0.00    -0.504 OA
ATOM     19  H   UNL     1       3.148 -45.874 -43.411  1.00  0.00     0.293 HD
ENDBRANCH  15  18
BRANCH  17  20
ATOM     20  O   UNL     1       0.755 -46.747 -42.407  1.00  0.00    -0.504 OA
ATOM     21  H   UNL     1       0.278 -47.620 -42.600  1.00  0.00     0.293 HD
ENDBRANCH  17  20
ENDBRANCH   1  12
BRANCH   2  22
ATOM     22  O   UNL     1       1.837 -48.681 -36.994  1.00  0.00    -0.502 OA
ATOM     23  H   UNL     1       2.085 -48.879 -37.956  1.00  0.00     0.293 HD
ENDBRANCH   2  22
BRANCH   6  24
ATOM     24  O   UNL     1      -0.888 -47.140 -32.840  1.00  0.00    -0.507 OA
ATOM     25  H   UNL     1      -0.841 -46.919 -31.852  1.00  0.00     0.293 HD
ENDBRANCH   6  24
BRANCH   8  26
ATOM     26  O   UNL     1      -2.443 -42.796 -34.248  1.00  0.00    -0.508 OA
ATOM     27  H   UNL     1      -3.420 -42.712 -34.506  1.00  0.00     0.293 HD
ENDBRANCH   8  26
TORSDOF 6
ENDMDL
MODEL 6
REMARK VINA RESULT:    -6.795      3.248      6.592
REMARK INTER + INTRA:          -8.511
REMARK INTER:                  -8.335
REMARK INTRA:                  -0.176
REMARK UNBOUND:                -0.326
REMARK SMILES O=c1c(O)c(-c2ccc(O)c(O)c2)oc2cc(O)cc(O)c12
REMARK SMILES IDX 5 1 3 2 2 3 1 4 22 5 20 6 19 7 17 8 16 9 15 10 14 11 6 12
REMARK SMILES IDX 7 13 8 14 9 15 13 16 11 17 10 18 12 20 4 22 21 24 18 26
REMARK H PARENT 10 19 12 21 4 23 21 25 18 27
REMARK Flexibility Score: inf
ROOT
ATOM      1  C   UNL     1      -0.965 -45.149 -35.473  1.00  0.00     0.180 A 
ATOM      2  C   UNL     1      -0.391 -45.921 -34.444  1.00  0.00     0.208 A 
ATOM      3  C   UNL     1       0.467 -46.978 -34.789  1.00  0.00     0.238 A 
ATOM      4  O   UNL     1       0.980 -47.683 -33.877  1.00  0.00    -0.285 OA
ATOM      5  C   UNL     1       0.750 -47.231 -36.147  1.00  0.00     0.111 A 
ATOM      6  C   UNL     1       1.608 -48.273 -36.577  1.00  0.00     0.134 A 
ATOM      7  C   UNL     1       1.847 -48.455 -37.947  1.00  0.00     0.093 A 
ATOM      8  C   UNL     1       1.250 -47.618 -38.893  1.00  0.00     0.123 A 
ATOM      9  C   UNL     1       0.402 -46.587 -38.473  1.00  0.00     0.094 A 
ATOM     10  C   UNL     1       0.150 -46.390 -37.112  1.00  0.00     0.146 A 
ATOM     11  O   UNL     1      -0.663 -45.408 -36.741  1.00  0.00    -0.452 OA
ENDROOT
BRANCH   1  12
ATOM     12  C   UNL     1      -1.894 -44.030 -35.191  1.00  0.00     0.025 A 
ATOM     13  C   UNL     1      -3.133 -44.249 -34.565  1.00  0.00     0.016 A 
ATOM     14  C   UNL     1      -4.004 -43.180 -34.330  1.00  0.00     0.051 A 
ATOM     15  C   UNL     1      -3.658 -41.886 -34.728  1.00  0.00     0.157 A 
ATOM     16  C   UNL     1      -1.558 -42.732 -35.608  1.00  0.00     0.062 A 
ATOM     17  C   UNL     1      -2.431 -41.659 -35.373  1.00  0.00     0.158 A 
BRANCH  15  18
ATOM     18  O   UNL     1      -4.546 -40.840 -34.479  1.00  0.00    -0.504 OA
ATOM     19  H   UNL     1      -5.456 -40.789 -34.923  1.00  0.00     0.293 HD
ENDBRANCH  15  18
BRANCH  17  20
ATOM     20  O   UNL     1      -2.082 -40.372 -35.779  1.00  0.00    -0.504 OA
ATOM     21  H   UNL     1      -2.622 -39.870 -36.475  1.00  0.00     0.293 HD
ENDBRANCH  17  20
ENDBRANCH   1  12
BRANCH   2  22
ATOM     22  O   UNL     1      -0.649 -45.618 -33.105  1.00  0.00    -0.502 OA
ATOM     23  H   UNL     1      -0.630 -44.670 -32.749  1.00  0.00     0.293 HD
ENDBRANCH   2  22
BRANCH   6  24
ATOM     24  O   UNL     1       2.220 -49.126 -35.658  1.00  0.00    -0.507 OA
ATOM     25  H   UNL     1       3.084 -49.610 -35.872  1.00  0.00     0.293 HD
ENDBRANCH   6  24
BRANCH   8  26
ATOM     26  O   UNL     1       1.505 -47.819 -40.247  1.00  0.00    -0.508 OA
ATOM     27  H   UNL     1       2.363 -47.495 -40.678  1.00  0.00     0.293 HD
ENDBRANCH   8  26
TORSDOF 6
ENDMDL
MODEL 7
REMARK VINA RESULT:    -6.794      3.326      6.753
REMARK INTER + INTRA:          -8.510
REMARK INTER:                  -8.311
REMARK INTRA:                  -0.199
REMARK UNBOUND:                -0.326
REMARK SMILES O=c1c(O)c(-c2ccc(O)c(O)c2)oc2cc(O)cc(O)c12
REMARK SMILES IDX 5 1 3 2 2 3 1 4 22 5 20 6 19 7 17 8 16 9 15 10 14 11 6 12
REMARK SMILES IDX 7 13 8 14 9 15 13 16 11 17 10 18 12 20 4 22 21 24 18 26
REMARK H PARENT 10 19 12 21 4 23 21 25 18 27
REMARK Flexibility Score: inf
ROOT
ATOM      1  C   UNL     1      -1.037 -45.089 -35.465  1.00  0.00     0.180 A 
ATOM      2  C   UNL     1      -0.464 -45.879 -34.450  1.00  0.00     0.208 A 
ATOM      3  C   UNL     1       0.400 -46.925 -34.811  1.00  0.00     0.238 A 
ATOM      4  O   UNL     1       0.911 -47.646 -33.911  1.00  0.00    -0.285 OA
ATOM      5  C   UNL     1       0.692 -47.149 -36.172  1.00  0.00     0.111 A 
ATOM      6  C   UNL     1       1.556 -48.177 -36.619  1.00  0.00     0.134 A 
ATOM      7  C   UNL     1       1.804 -48.331 -37.991  1.00  0.00     0.093 A 
ATOM      8  C   UNL     1       1.208 -47.477 -38.923  1.00  0.00     0.123 A 
ATOM      9  C   UNL     1       0.353 -46.459 -38.486  1.00  0.00     0.094 A 
ATOM     10  C   UNL     1       0.092 -46.291 -37.124  1.00  0.00     0.146 A 
ATOM     11  O   UNL     1      -0.727 -45.320 -36.737  1.00  0.00    -0.452 OA
ENDROOT
BRANCH   1  12
ATOM     12  C   UNL     1      -1.972 -43.980 -35.166  1.00  0.00     0.025 A 
ATOM     13  C   UNL     1      -1.600 -42.638 -35.355  1.00  0.00     0.016 A 
ATOM     14  C   UNL     1      -2.492 -41.607 -35.043  1.00  0.00     0.051 A 
ATOM     15  C   UNL     1      -3.758 -41.899 -34.526  1.00  0.00     0.157 A 
ATOM     16  C   UNL     1      -3.237 -44.269 -34.628  1.00  0.00     0.062 A 
ATOM     17  C   UNL     1      -4.132 -43.237 -34.314  1.00  0.00     0.158 A 
BRANCH  15  18
ATOM     18  O   UNL     1      -4.626 -40.850 -34.226  1.00  0.00    -0.504 OA
ATOM     19  H   UNL     1      -4.439 -39.898 -34.515  1.00  0.00     0.293 HD
ENDBRANCH  15  18
BRANCH  17  20
ATOM     20  O   UNL     1      -5.390 -43.535 -33.793  1.00  0.00    -0.504 OA
ATOM     21  H   UNL     1      -5.732 -44.488 -33.743  1.00  0.00     0.293 HD
ENDBRANCH  17  20
ENDBRANCH   1  12
BRANCH   2  22
ATOM     22  O   UNL     1      -0.731 -45.605 -33.106  1.00  0.00    -0.502 OA
ATOM     23  H   UNL     1      -0.421 -44.753 -32.654  1.00  0.00     0.293 HD
ENDBRANCH   2  22
BRANCH   6  24
ATOM     24  O   UNL     1       2.167 -49.047 -35.715  1.00  0.00    -0.507 OA
ATOM     25  H   UNL     1       2.714 -48.706 -34.932  1.00  0.00     0.293 HD
ENDBRANCH   6  24
BRANCH   8  26
ATOM     26  O   UNL     1       1.471 -47.650 -40.279  1.00  0.00    -0.508 OA
ATOM     27  H   UNL     1       0.845 -47.290 -40.990  1.00  0.00     0.293 HD
ENDBRANCH   8  26
TORSDOF 6
ENDMDL
MODEL 8
REMARK VINA RESULT:    -6.792      2.621      4.545
REMARK INTER + INTRA:          -8.508
REMARK INTER:                  -8.284
REMARK INTRA:                  -0.224
REMARK UNBOUND:                -0.326
REMARK SMILES O=c1c(O)c(-c2ccc(O)c(O)c2)oc2cc(O)cc(O)c12
REMARK SMILES IDX 5 1 3 2 2 3 1 4 22 5 20 6 19 7 17 8 16 9 15 10 14 11 6 12
REMARK SMILES IDX 7 13 8 14 9 15 13 16 11 17 10 18 12 20 4 22 21 24 18 26
REMARK H PARENT 10 19 12 21 4 23 21 25 18 27
REMARK Flexibility Score: inf
ROOT
ATOM      1  C   UNL     1       0.454 -46.562 -36.124  1.00  0.00     0.180 A 
ATOM      2  C   UNL     1      -0.039 -47.191 -34.965  1.00  0.00     0.208 A 
ATOM      3  C   UNL     1      -0.929 -46.487 -34.138  1.00  0.00     0.238 A 
ATOM      4  O   UNL     1      -1.370 -47.036 -33.091  1.00  0.00    -0.285 OA
ATOM      5  C   UNL     1      -1.324 -45.180 -34.492  1.00  0.00     0.111 A 
ATOM      6  C   UNL     1      -2.220 -44.406 -33.716  1.00  0.00     0.134 A 
ATOM      7  C   UNL     1      -2.572 -43.116 -34.140  1.00  0.00     0.093 A 
ATOM      8  C   UNL     1      -2.049 -42.587 -35.323  1.00  0.00     0.123 A 
ATOM      9  C   UNL     1      -1.163 -43.349 -36.093  1.00  0.00     0.094 A 
ATOM     10  C   UNL     1      -0.799 -44.635 -35.686  1.00  0.00     0.146 A 
ATOM     11  O   UNL     1       0.048 -45.335 -36.434  1.00  0.00    -0.452 OA
ENDROOT
BRANCH   1  12
ATOM     12  C   UNL     1       1.409 -47.231 -37.036  1.00  0.00     0.025 A 
ATOM     13  C   UNL     1       2.729 -47.509 -36.638  1.00  0.00     0.016 A 
ATOM     14  C   UNL     1       3.620 -48.120 -37.524  1.00  0.00     0.051 A 
ATOM     15  C   UNL     1       3.214 -48.450 -38.821  1.00  0.00     0.157 A 
ATOM     16  C   UNL     1       1.011 -47.545 -38.346  1.00  0.00     0.062 A 
ATOM     17  C   UNL     1       1.904 -48.158 -39.236  1.00  0.00     0.158 A 
BRANCH  15  18
ATOM     18  O   UNL     1       4.125 -49.060 -39.682  1.00  0.00    -0.504 OA
ATOM     19  H   UNL     1       3.895 -49.275 -40.645  1.00  0.00     0.293 HD
ENDBRANCH  15  18
BRANCH  17  20
ATOM     20  O   UNL     1       1.494 -48.477 -40.530  1.00  0.00    -0.504 OA
ATOM     21  H   UNL     1       0.513 -48.548 -40.774  1.00  0.00     0.293 HD
ENDBRANCH  17  20
ENDBRANCH   1  12
BRANCH   2  22
ATOM     22  O   UNL     1       0.329 -48.505 -34.662  1.00  0.00    -0.502 OA
ATOM     23  H   UNL     1       1.282 -48.835 -34.749  1.00  0.00     0.293 HD
ENDBRANCH   2  22
BRANCH   6  24
ATOM     24  O   UNL     1      -2.760 -44.905 -32.530  1.00  0.00    -0.507 OA
ATOM     25  H   UNL     1      -2.973 -45.888 -32.412  1.00  0.00     0.293 HD
ENDBRANCH   6  24
BRANCH   8  26
ATOM     26  O   UNL     1      -2.415 -41.305 -35.723  1.00  0.00    -0.508 OA
ATOM     27  H   UNL     1      -3.306 -41.123 -36.170  1.00  0.00     0.293 HD
ENDBRANCH   8  26
TORSDOF 6
ENDMDL
MODEL 9
REMARK VINA RESULT:    -6.606      3.664      7.054
REMARK INTER + INTRA:          -8.284
REMARK INTER:                  -7.958
REMARK INTRA:                  -0.325
REMARK UNBOUND:                -0.326
REMARK SMILES O=c1c(O)c(-c2ccc(O)c(O)c2)oc2cc(O)cc(O)c12
REMARK SMILES IDX 5 1 3 2 2 3 1 4 22 5 20 6 19 7 17 8 16 9 15 10 14 11 6 12
REMARK SMILES IDX 7 13 8 14 9 15 13 16 11 17 10 18 12 20 4 22 21 24 18 26
REMARK H PARENT 10 19 12 21 4 23 21 25 18 27
REMARK Flexibility Score: inf
ROOT
ATOM      1  C   UNL     1      -1.426 -44.814 -34.786  1.00  0.00     0.180 A 
ATOM      2  C   UNL     1      -0.727 -44.287 -35.889  1.00  0.00     0.208 A 
ATOM      3  C   UNL     1       0.211 -45.098 -36.547  1.00  0.00     0.238 A 
ATOM      4  O   UNL     1       0.851 -44.634 -37.530  1.00  0.00    -0.285 OA
ATOM      5  C   UNL     1       0.418 -46.421 -36.106  1.00  0.00     0.111 A 
ATOM      6  C   UNL     1       1.341 -47.305 -36.717  1.00  0.00     0.134 A 
ATOM      7  C   UNL     1       1.484 -48.611 -36.226  1.00  0.00     0.093 A 
ATOM      8  C   UNL     1       0.723 -49.051 -35.140  1.00  0.00     0.123 A 
ATOM      9  C   UNL     1      -0.190 -48.182 -34.533  1.00  0.00     0.094 A 
ATOM     10  C   UNL     1      -0.345 -46.876 -35.007  1.00  0.00     0.146 A 
ATOM     11  O   UNL     1      -1.216 -46.070 -34.409  1.00  0.00    -0.452 OA
ENDROOT
BRANCH   1  12
ATOM     12  C   UNL     1      -2.417 -44.015 -34.029  1.00  0.00     0.025 A 
ATOM     13  C   UNL     1      -2.054 -43.306 -32.871  1.00  0.00     0.016 A 
ATOM     14  C   UNL     1      -3.012 -42.578 -32.159  1.00  0.00     0.051 A 
ATOM     15  C   UNL     1      -4.344 -42.558 -32.583  1.00  0.00     0.157 A 
ATOM     16  C   UNL     1      -3.760 -44.009 -34.441  1.00  0.00     0.062 A 
ATOM     17  C   UNL     1      -4.722 -43.279 -33.728  1.00  0.00     0.158 A 
BRANCH  15  18
ATOM     18  O   UNL     1      -5.276 -41.821 -31.853  1.00  0.00    -0.504 OA
ATOM     19  H   UNL     1      -5.295 -41.829 -30.841  1.00  0.00     0.293 HD
ENDBRANCH  15  18
BRANCH  17  20
ATOM     20  O   UNL     1      -6.050 -43.269 -34.153  1.00  0.00    -0.504 OA
ATOM     21  H   UNL     1      -6.407 -42.541 -34.761  1.00  0.00     0.293 HD
ENDBRANCH  17  20
ENDBRANCH   1  12
BRANCH   2  22
ATOM     22  O   UNL     1      -0.987 -42.988 -36.337  1.00  0.00    -0.502 OA
ATOM     23  H   UNL     1      -1.808 -42.470 -36.051  1.00  0.00     0.293 HD
ENDBRANCH   2  22
BRANCH   6  24
ATOM     24  O   UNL     1       2.116 -46.897 -37.804  1.00  0.00    -0.507 OA
ATOM     25  H   UNL     1       2.937 -47.413 -38.098  1.00  0.00     0.293 HD
ENDBRANCH   6  24
BRANCH   8  26
ATOM     26  O   UNL     1       0.883 -50.352 -34.672  1.00  0.00    -0.508 OA
ATOM     27  H   UNL     1       0.188 -50.791 -34.078  1.00  0.00     0.293 HD
ENDBRANCH   8  26
TORSDOF 6
ENDMDL
