MODEL 1
REMARK VINA RESULT:    -3.846      0.000      0.000
REMARK INTER + INTRA:          -4.535
REMARK INTER:                  -4.521
REMARK INTRA:                  -0.014
REMARK UNBOUND:                -0.014
REMARK SMILES [NH3+][C@H](CO)C(=O)[O-]
REMARK SMILES IDX 3 1 2 2 1 3 5 7 6 8 7 9 4 10
REMARK H PARENT 1 4 1 5 1 6 4 11
REMARK Flexibility Score: inf
ROOT
ATOM      1  C   UNL     1      13.874  36.076  11.767  1.00  0.00     0.227 C 
ENDROOT
BRANCH   1   2
ATOM      2  C   UNL     1      13.784  35.674  13.248  1.00  0.00     0.253 C 
BRANCH   2   3
ATOM      3  N   UNL     1      12.535  36.154  13.853  1.00  0.00    -0.348 N 
ATOM      4  H   UNL     1      12.684  37.075  14.328  1.00  0.00     0.345 HD
ATOM      5  H   UNL     1      12.188  35.460  14.554  1.00  0.00     0.345 HD
ATOM      6  H   UNL     1      11.803  36.263  13.114  1.00  0.00     0.345 HD
ENDBRANCH   2   3
BRANCH   2   7
ATOM      7  C   UNL     1      13.896  34.179  13.387  1.00  0.00     0.102 C 
ATOM      8  O   UNL     1      13.411  33.418  12.507  1.00  0.00    -0.544 OA
ATOM      9  O   UNL     1      14.550  33.631  14.481  1.00  0.00    -0.544 OA
ENDBRANCH   2   7
ENDBRANCH   1   2
BRANCH   1  10
ATOM     10  O   UNL     1      13.135  37.246  11.543  1.00  0.00    -0.390 OA
ATOM     11  H   UNL     1      13.747  37.873  11.077  1.00  0.00     0.210 HD
ENDBRANCH   1  10
TORSDOF 4
ENDMDL
MODEL 2
REMARK VINA RESULT:    -3.681      2.403      3.569
REMARK INTER + INTRA:          -4.341
REMARK INTER:                  -3.962
REMARK INTRA:                  -0.379
REMARK UNBOUND:                -0.014
REMARK SMILES [NH3+][C@H](CO)C(=O)[O-]
REMARK SMILES IDX 3 1 2 2 1 3 5 7 6 8 7 9 4 10
REMARK H PARENT 1 4 1 5 1 6 4 11
REMARK Flexibility Score: inf
ROOT
ATOM      1  C   UNL     1      14.575  31.897  12.741  1.00  0.00     0.227 C 
ENDROOT
BRANCH   1   2
ATOM      2  C   UNL     1      13.248  32.653  12.913  1.00  0.00     0.253 C 
BRANCH   2   3
ATOM      3  N   UNL     1      12.338  31.929  13.810  1.00  0.00    -0.348 N 
ATOM      4  H   UNL     1      12.868  31.253  14.409  1.00  0.00     0.345 HD
ATOM      5  H   UNL     1      11.628  31.404  13.250  1.00  0.00     0.345 HD
ATOM      6  H   UNL     1      11.831  32.607  14.423  1.00  0.00     0.345 HD
ENDBRANCH   2   3
BRANCH   2   7
ATOM      7  C   UNL     1      13.506  34.041  13.435  1.00  0.00     0.102 C 
ATOM      8  O   UNL     1      13.195  34.347  14.617  1.00  0.00    -0.544 OA
ATOM      9  O   UNL     1      14.105  34.989  12.617  1.00  0.00    -0.544 OA
ENDBRANCH   2   7
ENDBRANCH   1   2
BRANCH   1  10
ATOM     10  O   UNL     1      15.593  32.547  13.452  1.00  0.00    -0.390 OA
ATOM     11  H   UNL     1      16.406  32.488  12.886  1.00  0.00     0.210 HD
ENDBRANCH   1  10
TORSDOF 4
ENDMDL
MODEL 3
REMARK VINA RESULT:    -3.632      2.750      3.756
REMARK INTER + INTRA:          -4.283
REMARK INTER:                  -4.058
REMARK INTRA:                  -0.225
REMARK UNBOUND:                -0.014
REMARK SMILES [NH3+][C@H](CO)C(=O)[O-]
REMARK SMILES IDX 3 1 2 2 1 3 5 7 6 8 7 9 4 10
REMARK H PARENT 1 4 1 5 1 6 4 11
REMARK Flexibility Score: inf
ROOT
ATOM      1  C   UNL     1      13.219  31.891  13.332  1.00  0.00     0.227 C 
ENDROOT
BRANCH   1   2
ATOM      2  C   UNL     1      14.351  32.747  13.922  1.00  0.00     0.253 C 
BRANCH   2   3
ATOM      3  N   UNL     1      15.641  32.423  13.299  1.00  0.00    -0.348 N 
ATOM      4  H   UNL     1      16.023  31.527  13.683  1.00  0.00     0.345 HD
ATOM      5  H   UNL     1      16.327  33.191  13.477  1.00  0.00     0.345 HD
ATOM      6  H   UNL     1      15.520  32.329  12.264  1.00  0.00     0.345 HD
ENDBRANCH   2   3
BRANCH   2   7
ATOM      7  C   UNL     1      14.037  34.209  13.753  1.00  0.00     0.102 C 
ATOM      8  O   UNL     1      12.958  34.687  14.195  1.00  0.00    -0.544 OA
ATOM      9  O   UNL     1      14.946  35.045  13.118  1.00  0.00    -0.544 OA
ENDBRANCH   2   7
ENDBRANCH   1   2
BRANCH   1  10
ATOM     10  O   UNL     1      12.100  31.928  14.177  1.00  0.00    -0.390 OA
ATOM     11  H   UNL     1      11.386  32.392  13.667  1.00  0.00     0.210 HD
ENDBRANCH   1  10
TORSDOF 4
ENDMDL
MODEL 4
REMARK VINA RESULT:    -3.574     11.115     12.177
REMARK INTER + INTRA:          -4.216
REMARK INTER:                  -4.209
REMARK INTRA:                  -0.007
REMARK UNBOUND:                -0.014
REMARK SMILES [NH3+][C@H](CO)C(=O)[O-]
REMARK SMILES IDX 3 1 2 2 1 3 5 7 6 8 7 9 4 10
REMARK H PARENT 1 4 1 5 1 6 4 11
REMARK Flexibility Score: inf
ROOT
ATOM      1  C   UNL     1       4.501  39.971  12.931  1.00  0.00     0.227 C 
ENDROOT
BRANCH   1   2
ATOM      2  C   UNL     1       3.079  40.136  12.371  1.00  0.00     0.253 C 
BRANCH   2   3
ATOM      3  N   UNL     1       2.076  39.610  13.306  1.00  0.00    -0.348 N 
ATOM      4  H   UNL     1       1.351  40.335  13.517  1.00  0.00     0.345 HD
ATOM      5  H   UNL     1       2.538  39.318  14.197  1.00  0.00     0.345 HD
ATOM      6  H   UNL     1       1.611  38.770  12.890  1.00  0.00     0.345 HD
ENDBRANCH   2   3
BRANCH   2   7
ATOM      7  C   UNL     1       2.808  41.585  12.068  1.00  0.00     0.102 C 
ATOM      8  O   UNL     1       1.668  42.079  12.278  1.00  0.00    -0.544 OA
ATOM      9  O   UNL     1       3.821  42.391  11.566  1.00  0.00    -0.544 OA
ENDBRANCH   2   7
ENDBRANCH   1   2
BRANCH   1  10
ATOM     10  O   UNL     1       4.496  39.045  13.985  1.00  0.00    -0.390 OA
ATOM     11  H   UNL     1       4.055  38.229  13.631  1.00  0.00     0.210 HD
ENDBRANCH   1  10
TORSDOF 4
ENDMDL
MODEL 5
REMARK VINA RESULT:    -3.528      2.604      3.021
REMARK INTER + INTRA:          -4.161
REMARK INTER:                  -3.914
REMARK INTRA:                  -0.247
REMARK UNBOUND:                -0.014
REMARK SMILES [NH3+][C@H](CO)C(=O)[O-]
REMARK SMILES IDX 3 1 2 2 1 3 5 7 6 8 7 9 4 10
REMARK H PARENT 1 4 1 5 1 6 4 11
REMARK Flexibility Score: inf
ROOT
ATOM      1  C   UNL     1      15.016  33.828  13.885  1.00  0.00     0.227 C 
ENDROOT
BRANCH   1   2
ATOM      2  C   UNL     1      13.534  33.657  14.255  1.00  0.00     0.253 C 
BRANCH   2   3
ATOM      3  N   UNL     1      12.767  34.870  13.944  1.00  0.00    -0.348 N 
ATOM      4  H   UNL     1      12.465  34.870  12.941  1.00  0.00     0.345 HD
ATOM      5  H   UNL     1      13.350  35.719  14.125  1.00  0.00     0.345 HD
ATOM      6  H   UNL     1      11.920  34.921  14.556  1.00  0.00     0.345 HD
ENDBRANCH   2   3
BRANCH   2   7
ATOM      7  C   UNL     1      12.954  32.469  13.537  1.00  0.00     0.102 C 
ATOM      8  O   UNL     1      13.039  32.376  12.283  1.00  0.00    -0.544 OA
ATOM      9  O   UNL     1      12.334  31.457  14.257  1.00  0.00    -0.544 OA
ENDBRANCH   2   7
ENDBRANCH   1   2
BRANCH   1  10
ATOM     10  O   UNL     1      15.562  32.593  13.509  1.00  0.00    -0.390 OA
ATOM     11  H   UNL     1      16.315  32.424  14.133  1.00  0.00     0.210 HD
ENDBRANCH   1  10
TORSDOF 4
ENDMDL
MODEL 6
REMARK VINA RESULT:    -3.492      1.707      2.075
REMARK INTER + INTRA:          -4.119
REMARK INTER:                  -4.113
REMARK INTRA:                  -0.006
REMARK UNBOUND:                -0.014
REMARK SMILES [NH3+][C@H](CO)C(=O)[O-]
REMARK SMILES IDX 3 1 2 2 1 3 5 7 6 8 7 9 4 10
REMARK H PARENT 1 4 1 5 1 6 4 11
REMARK Flexibility Score: inf
ROOT
ATOM      1  C   UNL     1      13.078  35.647  13.492  1.00  0.00     0.227 C 
ENDROOT
BRANCH   1   2
ATOM      2  C   UNL     1      14.073  34.580  13.007  1.00  0.00     0.253 C 
BRANCH   2   3
ATOM      3  N   UNL     1      15.354  34.689  13.717  1.00  0.00    -0.348 N 
ATOM      4  H   UNL     1      16.154  34.485  13.072  1.00  0.00     0.345 HD
ATOM      5  H   UNL     1      15.379  34.014  14.515  1.00  0.00     0.345 HD
ATOM      6  H   UNL     1      15.463  35.654  14.104  1.00  0.00     0.345 HD
ENDBRANCH   2   3
BRANCH   2   7
ATOM      7  C   UNL     1      13.487  33.205  13.186  1.00  0.00     0.102 C 
ATOM      8  O   UNL     1      13.058  32.835  14.312  1.00  0.00    -0.544 OA
ATOM      9  O   UNL     1      13.402  32.341  12.104  1.00  0.00    -0.544 OA
ENDBRANCH   2   7
ENDBRANCH   1   2
BRANCH   1  10
ATOM     10  O   UNL     1      13.051  36.721  12.591  1.00  0.00    -0.390 OA
ATOM     11  H   UNL     1      12.134  36.741  12.214  1.00  0.00     0.210 HD
ENDBRANCH   1  10
TORSDOF 4
ENDMDL
MODEL 7
REMARK VINA RESULT:    -3.478      2.596      3.031
REMARK INTER + INTRA:          -4.102
REMARK INTER:                  -3.882
REMARK INTRA:                  -0.220
REMARK UNBOUND:                -0.014
REMARK SMILES [NH3+][C@H](CO)C(=O)[O-]
REMARK SMILES IDX 3 1 2 2 1 3 5 7 6 8 7 9 4 10
REMARK H PARENT 1 4 1 5 1 6 4 11
REMARK Flexibility Score: inf
ROOT
ATOM      1  C   UNL     1      13.738  34.168  13.529  1.00  0.00     0.227 C 
ENDROOT
BRANCH   1   2
ATOM      2  C   UNL     1      13.726  32.705  14.002  1.00  0.00     0.253 C 
BRANCH   2   3
ATOM      3  N   UNL     1      12.390  32.113  13.859  1.00  0.00    -0.348 N 
ATOM      4  H   UNL     1      12.307  31.598  12.951  1.00  0.00     0.345 HD
ATOM      5  H   UNL     1      11.661  32.862  13.895  1.00  0.00     0.345 HD
ATOM      6  H   UNL     1      12.211  31.449  14.647  1.00  0.00     0.345 HD
ENDBRANCH   2   3
BRANCH   2   7
ATOM      7  C   UNL     1      14.741  31.904  13.232  1.00  0.00     0.102 C 
ATOM      8  O   UNL     1      14.466  31.453  12.088  1.00  0.00    -0.544 OA
ATOM      9  O   UNL     1      15.997  31.670  13.775  1.00  0.00    -0.544 OA
ENDBRANCH   2   7
ENDBRANCH   1   2
BRANCH   1  10
ATOM     10  O   UNL     1      15.050  34.660  13.527  1.00  0.00    -0.390 OA
ATOM     11  H   UNL     1      15.635  33.884  13.329  1.00  0.00     0.210 HD
ENDBRANCH   1  10
TORSDOF 4
ENDMDL
MODEL 8
REMARK VINA RESULT:    -3.368     15.196     16.087
REMARK INTER + INTRA:          -3.973
REMARK INTER:                  -3.572
REMARK INTRA:                  -0.402
REMARK UNBOUND:                -0.014
REMARK SMILES [NH3+][C@H](CO)C(=O)[O-]
REMARK SMILES IDX 3 1 2 2 1 3 5 7 6 8 7 9 4 10
REMARK H PARENT 1 4 1 5 1 6 4 11
REMARK Flexibility Score: inf
ROOT
ATOM      1  C   UNL     1       5.197  49.476  10.318  1.00  0.00     0.227 C 
ENDROOT
BRANCH   1   2
ATOM      2  C   UNL     1       5.287  48.708   8.989  1.00  0.00     0.253 C 
BRANCH   2   3
ATOM      3  N   UNL     1       6.683  48.558   8.558  1.00  0.00    -0.348 N 
ATOM      4  H   UNL     1       6.734  48.359   7.531  1.00  0.00     0.345 HD
ATOM      5  H   UNL     1       7.136  47.775   9.081  1.00  0.00     0.345 HD
ATOM      6  H   UNL     1       7.213  49.436   8.764  1.00  0.00     0.345 HD
ENDBRANCH   2   3
BRANCH   2   7
ATOM      7  C   UNL     1       4.630  47.361   9.123  1.00  0.00     0.102 C 
ATOM      8  O   UNL     1       5.256  46.392   9.630  1.00  0.00    -0.544 OA
ATOM      9  O   UNL     1       3.320  47.183   8.701  1.00  0.00    -0.544 OA
ENDBRANCH   2   7
ENDBRANCH   1   2
BRANCH   1  10
ATOM     10  O   UNL     1       4.256  48.866  11.160  1.00  0.00    -0.390 OA
ATOM     11  H   UNL     1       3.382  49.283  10.945  1.00  0.00     0.210 HD
ENDBRANCH   1  10
TORSDOF 4
ENDMDL
MODEL 9
REMARK VINA RESULT:    -3.367     14.635     15.494
REMARK INTER + INTRA:          -3.972
REMARK INTER:                  -3.728
REMARK INTRA:                  -0.244
REMARK UNBOUND:                -0.014
REMARK SMILES [NH3+][C@H](CO)C(=O)[O-]
REMARK SMILES IDX 3 1 2 2 1 3 5 7 6 8 7 9 4 10
REMARK H PARENT 1 4 1 5 1 6 4 11
REMARK Flexibility Score: inf
ROOT
ATOM      1  C   UNL     1       3.638  47.459  10.505  1.00  0.00     0.227 C 
ENDROOT
BRANCH   1   2
ATOM      2  C   UNL     1       4.817  46.660   9.926  1.00  0.00     0.253 C 
BRANCH   2   3
ATOM      3  N   UNL     1       4.347  45.612   9.010  1.00  0.00    -0.348 N 
ATOM      4  H   UNL     1       4.849  45.670   8.092  1.00  0.00     0.345 HD
ATOM      5  H   UNL     1       3.320  45.716   8.845  1.00  0.00     0.345 HD
ATOM      6  H   UNL     1       4.514  44.671   9.433  1.00  0.00     0.345 HD
ENDBRANCH   2   3
BRANCH   2   7
ATOM      7  C   UNL     1       5.774  47.584   9.223  1.00  0.00     0.102 C 
ATOM      8  O   UNL     1       5.342  48.528   8.508  1.00  0.00    -0.544 OA
ATOM      9  O   UNL     1       7.143  47.409   9.371  1.00  0.00    -0.544 OA
ENDBRANCH   2   7
ENDBRANCH   1   2
BRANCH   1  10
ATOM     10  O   UNL     1       4.117  48.553  11.240  1.00  0.00    -0.390 OA
ATOM     11  H   UNL     1       4.561  49.151  10.585  1.00  0.00     0.210 HD
ENDBRANCH   1  10
TORSDOF 4
ENDMDL
