MODEL 1
REMARK VINA RESULT:    -6.002      0.000      0.000
REMARK INTER + INTRA:          -6.618
REMARK INTER:                  -6.353
REMARK INTRA:                  -0.265
REMARK UNBOUND:                -0.265
REMARK SMILES CC1=C[C@@H]2C(=C(C)CC[C@H]2C(C)C)CC1
REMARK SMILES IDX 1 1 2 2 3 3 4 4 10 5 9 6 8 7 6 8 5 9 14 10 15 11 7 12 11 13
REMARK SMILES IDX 12 14 13 15
REMARK H PARENT
REMARK Flexibility Score: inf
ROOT
ATOM      1  C   UNL     1     113.252 108.984 112.744  1.00  0.00     0.039 C 
ATOM      2  C   UNL     1     112.947 110.183 111.891  1.00  0.00    -0.076 C 
ATOM      3  C   UNL     1     112.470 110.021 110.642  1.00  0.00    -0.020 C 
ATOM      4  C   UNL     1     112.129 111.242 109.808  1.00  0.00     0.041 C 
ATOM      5  C   UNL     1     111.484 110.866 108.431  1.00  0.00     0.003 C 
ATOM      6  C   UNL     1     110.599 112.032 107.939  1.00  0.00     0.009 C 
ATOM      7  C   UNL     1     109.539 112.386 108.971  1.00  0.00     0.031 C 
ATOM      8  C   UNL     1     110.151 112.752 110.297  1.00  0.00    -0.073 C 
ATOM      9  C   UNL     1     111.311 112.177 110.709  1.00  0.00    -0.064 C 
ATOM     10  C   UNL     1     111.848 112.426 112.119  1.00  0.00     0.036 C 
ATOM     11  C   UNL     1     113.104 111.589 112.430  1.00  0.00     0.035 C 
ATOM     12  C   UNL     1     109.374 113.689 111.196  1.00  0.00     0.039 C 
ENDROOT
BRANCH   5  13
ATOM     13  C   UNL     1     112.562 110.515 107.339  1.00  0.00    -0.013 C 
ATOM     14  C   UNL     1     113.117 111.774 106.646  1.00  0.00     0.007 C 
ATOM     15  C   UNL     1     112.036 109.557 106.254  1.00  0.00     0.007 C 
ENDBRANCH   5  13
TORSDOF 1
ENDMDL
MODEL 2
REMARK VINA RESULT:    -5.967      3.355      4.898
REMARK INTER + INTRA:          -6.581
REMARK INTER:                  -6.319
REMARK INTRA:                  -0.262
REMARK UNBOUND:                -0.265
REMARK SMILES CC1=C[C@@H]2C(=C(C)CC[C@H]2C(C)C)CC1
REMARK SMILES IDX 1 1 2 2 3 3 4 4 10 5 9 6 8 7 6 8 5 9 14 10 15 11 7 12 11 13
REMARK SMILES IDX 12 14 13 15
REMARK H PARENT
REMARK Flexibility Score: inf
ROOT
ATOM      1  C   UNL     1     113.231 108.943 117.625  1.00  0.00     0.039 C 
ATOM      2  C   UNL     1     112.953 110.159 116.786  1.00  0.00    -0.076 C 
ATOM      3  C   UNL     1     112.485 110.021 115.530  1.00  0.00    -0.020 C 
ATOM      4  C   UNL     1     112.171 111.259 114.710  1.00  0.00     0.041 C 
ATOM      5  C   UNL     1     111.533 110.911 113.322  1.00  0.00     0.003 C 
ATOM      6  C   UNL     1     110.672 112.097 112.837  1.00  0.00     0.009 C 
ATOM      7  C   UNL     1     109.608 112.454 113.864  1.00  0.00     0.031 C 
ATOM      8  C   UNL     1     110.212 112.793 115.201  1.00  0.00    -0.073 C 
ATOM      9  C   UNL     1     111.360 112.194 115.616  1.00  0.00    -0.064 C 
ATOM     10  C   UNL     1     111.887 112.415 117.034  1.00  0.00     0.036 C 
ATOM     11  C   UNL     1     113.127 111.555 117.345  1.00  0.00     0.035 C 
ATOM     12  C   UNL     1     109.442 113.730 116.104  1.00  0.00     0.039 C 
ENDROOT
BRANCH   5  13
ATOM     13  C   UNL     1     112.616 110.557 112.236  1.00  0.00    -0.013 C 
ATOM     14  C   UNL     1     113.071 111.799 111.444  1.00  0.00     0.007 C 
ATOM     15  C   UNL     1     112.141 109.491 111.231  1.00  0.00     0.007 C 
ENDBRANCH   5  13
TORSDOF 1
ENDMDL
MODEL 3
REMARK VINA RESULT:    -5.967      1.728      3.754
REMARK INTER + INTRA:          -6.580
REMARK INTER:                  -6.307
REMARK INTRA:                  -0.273
REMARK UNBOUND:                -0.265
REMARK SMILES CC1=C[C@@H]2C(=C(C)CC[C@H]2C(C)C)CC1
REMARK SMILES IDX 1 1 2 2 3 3 4 4 10 5 9 6 8 7 6 8 5 9 14 10 15 11 7 12 11 13
REMARK SMILES IDX 12 14 13 15
REMARK H PARENT
REMARK Flexibility Score: inf
ROOT
ATOM      1  C   UNL     1     109.024 113.241 112.751  1.00  0.00     0.039 C 
ATOM      2  C   UNL     1     109.344 112.062 111.876  1.00  0.00    -0.076 C 
ATOM      3  C   UNL     1     109.871 112.250 110.651  1.00  0.00    -0.020 C 
ATOM      4  C   UNL     1     110.226 111.048 109.797  1.00  0.00     0.041 C 
ATOM      5  C   UNL     1     110.930 111.452 108.457  1.00  0.00     0.003 C 
ATOM      6  C   UNL     1     111.815 110.286 107.965  1.00  0.00     0.009 C 
ATOM      7  C   UNL     1     112.828 109.886 109.027  1.00  0.00     0.031 C 
ATOM      8  C   UNL     1     112.160 109.493 110.317  1.00  0.00    -0.073 C 
ATOM      9  C   UNL     1     110.994 110.075 110.701  1.00  0.00    -0.064 C 
ATOM     10  C   UNL     1     110.399 109.796 112.082  1.00  0.00     0.036 C 
ATOM     11  C   UNL     1     109.144 110.644 112.367  1.00  0.00     0.035 C 
ATOM     12  C   UNL     1     112.887 108.519 111.218  1.00  0.00     0.039 C 
ENDROOT
BRANCH   5  13
ATOM     13  C   UNL     1     109.900 111.851 107.335  1.00  0.00    -0.013 C 
ATOM     14  C   UNL     1     109.146 110.628 106.777  1.00  0.00     0.007 C 
ATOM     15  C   UNL     1     110.548 112.598 106.155  1.00  0.00     0.007 C 
ENDBRANCH   5  13
TORSDOF 1
ENDMDL
MODEL 4
REMARK VINA RESULT:    -5.904      3.738      6.156
REMARK INTER + INTRA:          -6.514
REMARK INTER:                  -6.235
REMARK INTRA:                  -0.278
REMARK UNBOUND:                -0.265
REMARK SMILES CC1=C[C@@H]2C(=C(C)CC[C@H]2C(C)C)CC1
REMARK SMILES IDX 1 1 2 2 3 3 4 4 10 5 9 6 8 7 6 8 5 9 14 10 15 11 7 12 11 13
REMARK SMILES IDX 12 14 13 15
REMARK H PARENT
REMARK Flexibility Score: inf
ROOT
ATOM      1  C   UNL     1     109.072 113.253 117.625  1.00  0.00     0.039 C 
ATOM      2  C   UNL     1     109.367 112.068 116.748  1.00  0.00    -0.076 C 
ATOM      3  C   UNL     1     109.900 112.248 115.525  1.00  0.00    -0.020 C 
ATOM      4  C   UNL     1     110.229 111.039 114.668  1.00  0.00     0.041 C 
ATOM      5  C   UNL     1     110.943 111.430 113.330  1.00  0.00     0.003 C 
ATOM      6  C   UNL     1     111.802 110.246 112.837  1.00  0.00     0.009 C 
ATOM      7  C   UNL     1     112.805 109.822 113.899  1.00  0.00     0.031 C 
ATOM      8  C   UNL     1     112.128 109.441 115.188  1.00  0.00    -0.073 C 
ATOM      9  C   UNL     1     110.974 110.048 115.572  1.00  0.00    -0.064 C 
ATOM     10  C   UNL     1     110.371 109.779 116.951  1.00  0.00     0.036 C 
ATOM     11  C   UNL     1     109.135 110.654 117.237  1.00  0.00     0.035 C 
ATOM     12  C   UNL     1     112.832 108.450 116.087  1.00  0.00     0.039 C 
ENDROOT
BRANCH   5  13
ATOM     13  C   UNL     1     109.923 111.855 112.208  1.00  0.00    -0.013 C 
ATOM     14  C   UNL     1     109.076 110.665 111.714  1.00  0.00     0.007 C 
ATOM     15  C   UNL     1     110.601 112.505 110.987  1.00  0.00     0.007 C 
ENDBRANCH   5  13
TORSDOF 1
ENDMDL
MODEL 5
REMARK VINA RESULT:    -5.413      2.019      3.577
REMARK INTER + INTRA:          -5.994
REMARK INTER:                  -5.942
REMARK INTRA:                  -0.051
REMARK UNBOUND:                -0.265
REMARK SMILES CC1=C[C@@H]2C(=C(C)CC[C@H]2C(C)C)CC1
REMARK SMILES IDX 1 1 2 2 3 3 4 4 10 5 9 6 8 7 6 8 5 9 14 10 15 11 7 12 11 13
REMARK SMILES IDX 12 14 13 15
REMARK H PARENT
REMARK Flexibility Score: inf
ROOT
ATOM      1  C   UNL     1     113.243 108.350 112.036  1.00  0.00     0.039 C 
ATOM      2  C   UNL     1     112.813 109.756 112.347  1.00  0.00    -0.076 C 
ATOM      3  C   UNL     1     111.682 110.252 111.812  1.00  0.00    -0.020 C 
ATOM      4  C   UNL     1     111.241 111.660 112.168  1.00  0.00     0.041 C 
ATOM      5  C   UNL     1     109.851 112.027 111.546  1.00  0.00     0.003 C 
ATOM      6  C   UNL     1     109.171 113.115 112.407  1.00  0.00     0.009 C 
ATOM      7  C   UNL     1     109.031 112.658 113.851  1.00  0.00     0.031 C 
ATOM      8  C   UNL     1     110.363 112.305 114.458  1.00  0.00    -0.073 C 
ATOM      9  C   UNL     1     111.359 111.787 113.692  1.00  0.00    -0.064 C 
ATOM     10  C   UNL     1     112.652 111.280 114.332  1.00  0.00     0.036 C 
ATOM     11  C   UNL     1     113.599 110.621 113.310  1.00  0.00     0.035 C 
ATOM     12  C   UNL     1     110.512 112.441 115.957  1.00  0.00     0.039 C 
ENDROOT
BRANCH   5  13
ATOM     13  C   UNL     1     109.971 112.523 110.057  1.00  0.00    -0.013 C 
ATOM     14  C   UNL     1     109.082 111.705 109.100  1.00  0.00     0.007 C 
ATOM     15  C   UNL     1     111.415 112.491 109.522  1.00  0.00     0.007 C 
ENDBRANCH   5  13
TORSDOF 1
ENDMDL
MODEL 6
REMARK VINA RESULT:    -5.403      2.019      4.501
REMARK INTER + INTRA:          -5.983
REMARK INTER:                  -5.947
REMARK INTRA:                  -0.036
REMARK UNBOUND:                -0.265
REMARK SMILES CC1=C[C@@H]2C(=C(C)CC[C@H]2C(C)C)CC1
REMARK SMILES IDX 1 1 2 2 3 3 4 4 10 5 9 6 8 7 6 8 5 9 14 10 15 11 7 12 11 13
REMARK SMILES IDX 12 14 13 15
REMARK H PARENT
REMARK Flexibility Score: inf
ROOT
ATOM      1  C   UNL     1     109.092 113.949 111.980  1.00  0.00     0.039 C 
ATOM      2  C   UNL     1     109.501 112.536 112.288  1.00  0.00    -0.076 C 
ATOM      3  C   UNL     1     110.616 112.018 111.738  1.00  0.00    -0.020 C 
ATOM      4  C   UNL     1     111.037 110.604 112.091  1.00  0.00     0.041 C 
ATOM      5  C   UNL     1     112.411 110.210 111.450  1.00  0.00     0.003 C 
ATOM      6  C   UNL     1     113.084 109.113 112.303  1.00  0.00     0.009 C 
ATOM      7  C   UNL     1     113.253 109.571 113.744  1.00  0.00     0.031 C 
ATOM      8  C   UNL     1     111.937 109.948 114.369  1.00  0.00    -0.073 C 
ATOM      9  C   UNL     1     110.939 110.483 113.617  1.00  0.00    -0.064 C 
ATOM     10  C   UNL     1     109.664 111.014 114.275  1.00  0.00     0.036 C 
ATOM     11  C   UNL     1     108.715 111.687 113.265  1.00  0.00     0.035 C 
ATOM     12  C   UNL     1     111.808 109.818 115.871  1.00  0.00     0.039 C 
ENDROOT
BRANCH   5  13
ATOM     13  C   UNL     1     112.260 109.714 109.964  1.00  0.00    -0.013 C 
ATOM     14  C   UNL     1     113.173 110.494 108.996  1.00  0.00     0.007 C 
ATOM     15  C   UNL     1     110.815 109.799 109.440  1.00  0.00     0.007 C 
ENDBRANCH   5  13
TORSDOF 1
ENDMDL
MODEL 7
REMARK VINA RESULT:    -5.384      2.739      5.764
REMARK INTER + INTRA:          -5.963
REMARK INTER:                  -5.636
REMARK INTRA:                  -0.327
REMARK UNBOUND:                -0.265
REMARK SMILES CC1=C[C@@H]2C(=C(C)CC[C@H]2C(C)C)CC1
REMARK SMILES IDX 1 1 2 2 3 3 4 4 10 5 9 6 8 7 6 8 5 9 14 10 15 11 7 12 11 13
REMARK SMILES IDX 12 14 13 15
REMARK H PARENT
REMARK Flexibility Score: inf
ROOT
ATOM      1  C   UNL     1     112.867 109.790 110.099  1.00  0.00     0.039 C 
ATOM      2  C   UNL     1     111.917 109.896 111.260  1.00  0.00    -0.076 C 
ATOM      3  C   UNL     1     112.346 110.368 112.445  1.00  0.00    -0.020 C 
ATOM      4  C   UNL     1     111.365 110.506 113.594  1.00  0.00     0.041 C 
ATOM      5  C   UNL     1     112.011 111.175 114.855  1.00  0.00     0.003 C 
ATOM      6  C   UNL     1     110.912 111.865 115.694  1.00  0.00     0.009 C 
ATOM      7  C   UNL     1     110.145 112.879 114.858  1.00  0.00     0.031 C 
ATOM      8  C   UNL     1     109.519 112.244 113.646  1.00  0.00    -0.073 C 
ATOM      9  C   UNL     1     110.115 111.191 113.027  1.00  0.00    -0.064 C 
ATOM     10  C   UNL     1     109.567 110.649 111.706  1.00  0.00     0.036 C 
ATOM     11  C   UNL     1     110.453 109.539 111.109  1.00  0.00     0.035 C 
ATOM     12  C   UNL     1     108.273 112.888 113.078  1.00  0.00     0.039 C 
ENDROOT
BRANCH   5  13
ATOM     13  C   UNL     1     112.795 110.142 115.748  1.00  0.00    -0.013 C 
ATOM     14  C   UNL     1     112.094 108.770 115.798  1.00  0.00     0.007 C 
ATOM     15  C   UNL     1     113.010 110.629 117.192  1.00  0.00     0.007 C 
ENDBRANCH   5  13
TORSDOF 1
ENDMDL
MODEL 8
REMARK VINA RESULT:    -5.361      2.743      6.411
REMARK INTER + INTRA:          -5.939
REMARK INTER:                  -5.612
REMARK INTRA:                  -0.327
REMARK UNBOUND:                -0.265
REMARK SMILES CC1=C[C@@H]2C(=C(C)CC[C@H]2C(C)C)CC1
REMARK SMILES IDX 1 1 2 2 3 3 4 4 10 5 9 6 8 7 6 8 5 9 14 10 15 11 7 12 11 13
REMARK SMILES IDX 12 14 13 15
REMARK H PARENT
REMARK Flexibility Score: inf
ROOT
ATOM      1  C   UNL     1     109.506 112.552 110.014  1.00  0.00     0.039 C 
ATOM      2  C   UNL     1     110.439 112.430 111.187  1.00  0.00    -0.076 C 
ATOM      3  C   UNL     1     109.984 111.968 112.367  1.00  0.00    -0.020 C 
ATOM      4  C   UNL     1     110.947 111.813 113.530  1.00  0.00     0.041 C 
ATOM      5  C   UNL     1     110.272 111.159 114.783  1.00  0.00     0.003 C 
ATOM      6  C   UNL     1     111.345 110.449 115.638  1.00  0.00     0.009 C 
ATOM      7  C   UNL     1     112.102 109.419 114.814  1.00  0.00     0.031 C 
ATOM      8  C   UNL     1     112.758 110.039 113.609  1.00  0.00    -0.073 C 
ATOM      9  C   UNL     1     112.191 111.102 112.980  1.00  0.00    -0.064 C 
ATOM     10  C   UNL     1     112.767 111.631 111.666  1.00  0.00     0.036 C 
ATOM     11  C   UNL     1     111.911 112.757 111.056  1.00  0.00     0.035 C 
ATOM     12  C   UNL     1     113.998 109.370 113.060  1.00  0.00     0.039 C 
ENDROOT
BRANCH   5  13
ATOM     13  C   UNL     1     109.496 112.209 115.663  1.00  0.00    -0.013 C 
ATOM     14  C   UNL     1     110.251 113.550 115.767  1.00  0.00     0.007 C 
ATOM     15  C   UNL     1     109.204 111.708 117.089  1.00  0.00     0.007 C 
ENDBRANCH   5  13
TORSDOF 1
ENDMDL
MODEL 9
REMARK VINA RESULT:    -5.356      1.026      4.491
REMARK INTER + INTRA:          -5.933
REMARK INTER:                  -5.606
REMARK INTRA:                  -0.327
REMARK UNBOUND:                -0.265
REMARK SMILES CC1=C[C@@H]2C(=C(C)CC[C@H]2C(C)C)CC1
REMARK SMILES IDX 1 1 2 2 3 3 4 4 10 5 9 6 8 7 6 8 5 9 14 10 15 11 7 12 11 13
REMARK SMILES IDX 12 14 13 15
REMARK H PARENT
REMARK Flexibility Score: inf
ROOT
ATOM      1  C   UNL     1     112.843 109.796 105.217  1.00  0.00     0.039 C 
ATOM      2  C   UNL     1     111.904 109.877 106.388  1.00  0.00    -0.076 C 
ATOM      3  C   UNL     1     112.333 110.363 107.568  1.00  0.00    -0.020 C 
ATOM      4  C   UNL     1     111.362 110.477 108.728  1.00  0.00     0.041 C 
ATOM      5  C   UNL     1     112.003 111.164 109.981  1.00  0.00     0.003 C 
ATOM      6  C   UNL     1     110.896 111.825 110.831  1.00  0.00     0.009 C 
ATOM      7  C   UNL     1     110.092 112.817 110.003  1.00  0.00     0.031 C 
ATOM      8  C   UNL     1     109.469 112.163 108.798  1.00  0.00    -0.073 C 
ATOM      9  C   UNL     1     110.087 111.126 108.174  1.00  0.00    -0.064 C 
ATOM     10  C   UNL     1     109.539 110.567 106.860  1.00  0.00     0.036 C 
ATOM     11  C   UNL     1     110.449 109.481 106.254  1.00  0.00     0.035 C 
ATOM     12  C   UNL     1     108.201 112.772 108.244  1.00  0.00     0.039 C 
ENDROOT
BRANCH   5  13
ATOM     13  C   UNL     1     112.824 110.154 110.866  1.00  0.00    -0.013 C 
ATOM     14  C   UNL     1     112.162 108.763 110.925  1.00  0.00     0.007 C 
ATOM     15  C   UNL     1     113.041 110.648 112.307  1.00  0.00     0.007 C 
ENDBRANCH   5  13
TORSDOF 1
ENDMDL
