MODEL 1
REMARK VINA RESULT:    -2.507      0.000      0.000
REMARK INTER + INTRA:          -2.507
REMARK INTER:                  -2.507
REMARK INTRA:                   0.000
REMARK UNBOUND:                 0.000
REMARK SMILES CC(=O)[O-]
REMARK SMILES IDX 1 1 2 2 3 3 4 4
REMARK H PARENT
REMARK Flexibility Score: inf
ROOT
ATOM      1  C   UNL     1      -2.022  35.958  16.042  1.00  0.00     0.063 C 
ATOM      2  C   UNL     1      -3.072  36.968  16.360  1.00  0.00     0.038 C 
ATOM      3  O   UNL     1      -3.384  37.198  17.557  1.00  0.00    -0.550 OA
ATOM      4  O   UNL     1      -3.670  37.694  15.339  1.00  0.00    -0.550 OA
ENDROOT
TORSDOF 0
ENDMDL
MODEL 2
REMARK VINA RESULT:    -2.457      1.390      2.027
REMARK INTER + INTRA:          -2.457
REMARK INTER:                  -2.457
REMARK INTRA:                   0.000
REMARK UNBOUND:                 0.000
REMARK SMILES CC(=O)[O-]
REMARK SMILES IDX 1 1 2 2 3 3 4 4
REMARK H PARENT
REMARK Flexibility Score: inf
ROOT
ATOM      1  C   UNL     1      -3.566  37.215  15.156  1.00  0.00     0.063 C 
ATOM      2  C   UNL     1      -2.848  36.684  16.350  1.00  0.00     0.038 C 
ATOM      3  O   UNL     1      -1.899  35.871  16.206  1.00  0.00    -0.550 OA
ATOM      4  O   UNL     1      -3.191  37.126  17.621  1.00  0.00    -0.550 OA
ENDROOT
TORSDOF 0
ENDMDL
MODEL 3
REMARK VINA RESULT:    -2.434      1.386      1.682
REMARK INTER + INTRA:          -2.434
REMARK INTER:                  -2.434
REMARK INTRA:                   0.000
REMARK UNBOUND:                 0.000
REMARK SMILES CC(=O)[O-]
REMARK SMILES IDX 1 1 2 2 3 3 4 4
REMARK H PARENT
REMARK Flexibility Score: inf
ROOT
ATOM      1  C   UNL     1      -3.170  36.931  17.739  1.00  0.00     0.063 C 
ATOM      2  C   UNL     1      -2.843  36.902  16.284  1.00  0.00     0.038 C 
ATOM      3  O   UNL     1      -1.867  36.224  15.870  1.00  0.00    -0.550 OA
ATOM      4  O   UNL     1      -3.646  37.580  15.377  1.00  0.00    -0.550 OA
ENDROOT
TORSDOF 0
ENDMDL
MODEL 4
REMARK VINA RESULT:    -2.378     16.879     17.360
REMARK INTER + INTRA:          -2.378
REMARK INTER:                  -2.378
REMARK INTRA:                   0.000
REMARK UNBOUND:                 0.000
REMARK SMILES CC(=O)[O-]
REMARK SMILES IDX 1 1 2 2 3 3 4 4
REMARK H PARENT
REMARK Flexibility Score: inf
ROOT
ATOM      1  C   UNL     1      -4.961  25.167  29.558  1.00  0.00     0.063 C 
ATOM      2  C   UNL     1      -5.041  26.600  29.964  1.00  0.00     0.038 C 
ATOM      3  O   UNL     1      -5.868  27.368  29.409  1.00  0.00    -0.550 OA
ATOM      4  O   UNL     1      -4.238  27.077  30.991  1.00  0.00    -0.550 OA
ENDROOT
TORSDOF 0
ENDMDL
MODEL 5
REMARK VINA RESULT:    -2.360     17.332     17.738
REMARK INTER + INTRA:          -2.360
REMARK INTER:                  -2.360
REMARK INTRA:                   0.000
REMARK UNBOUND:                 0.000
REMARK SMILES CC(=O)[O-]
REMARK SMILES IDX 1 1 2 2 3 3 4 4
REMARK H PARENT
REMARK Flexibility Score: inf
ROOT
ATOM      1  C   UNL     1      -5.386  27.059  29.715  1.00  0.00     0.063 C 
ATOM      2  C   UNL     1      -4.854  25.666  29.725  1.00  0.00     0.038 C 
ATOM      3  O   UNL     1      -5.344  24.797  28.958  1.00  0.00    -0.550 OA
ATOM      4  O   UNL     1      -3.782  25.336  30.544  1.00  0.00    -0.550 OA
ENDROOT
TORSDOF 0
ENDMDL
MODEL 6
REMARK VINA RESULT:    -2.316      2.164      2.447
REMARK INTER + INTRA:          -2.316
REMARK INTER:                  -2.316
REMARK INTRA:                   0.000
REMARK UNBOUND:                 0.000
REMARK SMILES CC(=O)[O-]
REMARK SMILES IDX 1 1 2 2 3 3 4 4
REMARK H PARENT
REMARK Flexibility Score: inf
ROOT
ATOM      1  C   UNL     1      -3.055  36.654  16.875  1.00  0.00     0.063 C 
ATOM      2  C   UNL     1      -3.045  37.170  18.274  1.00  0.00     0.038 C 
ATOM      3  O   UNL     1      -4.097  37.144  18.964  1.00  0.00    -0.550 OA
ATOM      4  O   UNL     1      -1.863  37.631  18.837  1.00  0.00    -0.550 OA
ENDROOT
TORSDOF 0
ENDMDL
MODEL 7
REMARK VINA RESULT:    -2.249      2.107      2.578
REMARK INTER + INTRA:          -2.249
REMARK INTER:                  -2.249
REMARK INTRA:                   0.000
REMARK UNBOUND:                 0.000
REMARK SMILES CC(=O)[O-]
REMARK SMILES IDX 1 1 2 2 3 3 4 4
REMARK H PARENT
REMARK Flexibility Score: inf
ROOT
ATOM      1  C   UNL     1      -4.119  36.817  19.298  1.00  0.00     0.063 C 
ATOM      2  C   UNL     1      -3.050  37.199  18.332  1.00  0.00     0.038 C 
ATOM      3  O   UNL     1      -1.933  37.601  18.751  1.00  0.00    -0.550 OA
ATOM      4  O   UNL     1      -3.265  37.063  16.967  1.00  0.00    -0.550 OA
ENDROOT
TORSDOF 0
ENDMDL
MODEL 8
REMARK VINA RESULT:    -2.210      3.623      3.908
REMARK INTER + INTRA:          -2.210
REMARK INTER:                  -2.210
REMARK INTRA:                   0.000
REMARK UNBOUND:                 0.000
REMARK SMILES CC(=O)[O-]
REMARK SMILES IDX 1 1 2 2 3 3 4 4
REMARK H PARENT
REMARK Flexibility Score: inf
ROOT
ATOM      1  C   UNL     1      -3.578  36.998  18.575  1.00  0.00     0.063 C 
ATOM      2  C   UNL     1      -4.435  36.685  19.754  1.00  0.00     0.038 C 
ATOM      3  O   UNL     1      -4.257  35.620  20.400  1.00  0.00    -0.550 OA
ATOM      4  O   UNL     1      -5.398  37.593  20.174  1.00  0.00    -0.550 OA
ENDROOT
TORSDOF 0
ENDMDL
MODEL 9
REMARK VINA RESULT:    -2.209      4.662      5.116
REMARK INTER + INTRA:          -2.209
REMARK INTER:                  -2.209
REMARK INTRA:                   0.000
REMARK UNBOUND:                 0.000
REMARK SMILES CC(=O)[O-]
REMARK SMILES IDX 1 1 2 2 3 3 4 4
REMARK H PARENT
REMARK Flexibility Score: inf
ROOT
ATOM      1  C   UNL     1      -5.981  35.487  21.614  1.00  0.00     0.063 C 
ATOM      2  C   UNL     1      -5.312  36.033  20.398  1.00  0.00     0.038 C 
ATOM      3  O   UNL     1      -4.716  35.261  19.604  1.00  0.00    -0.550 OA
ATOM      4  O   UNL     1      -5.391  37.390  20.111  1.00  0.00    -0.550 OA
ENDROOT
TORSDOF 0
ENDMDL
