MODEL 1
REMARK VINA RESULT:    -1.347      0.000      0.000
REMARK INTER + INTRA:          -2.280
REMARK INTER:                  -2.450
REMARK INTRA:                   0.170
REMARK UNBOUND:                 0.170
REMARK SMILES CCCCCC=CCC=CCCCCCCCC(=O)[O-]
REMARK SMILES IDX 11 1 12 2 13 3 14 4 15 5 16 6 17 7 18 8 19 9 20 10 10 11
REMARK SMILES IDX 9 12 8 13 7 14 6 15 5 16 4 17 3 18 2 19 1 20
REMARK H PARENT
REMARK Flexibility Score: inf
ROOT
ATOM      1  C   UNL     1       7.050  -7.602 -13.211  1.00  0.00     0.027 C 
ENDROOT
BRANCH   1   2
ATOM      2  C   UNL     1       6.005  -7.082 -14.214  1.00  0.00     0.004 C 
BRANCH   2   3
ATOM      3  C   UNL     1       6.590  -6.291 -15.403  1.00  0.00     0.000 C 
BRANCH   3   4
ATOM      4  C   UNL     1       5.999  -4.885 -15.604  1.00  0.00     0.000 C 
BRANCH   4   5
ATOM      5  C   UNL     1       4.461  -4.880 -15.610  1.00  0.00     0.000 C 
BRANCH   5   6
ATOM      6  C   UNL     1       3.870  -5.877 -16.619  1.00  0.00     0.006 C 
BRANCH   6   7
ATOM      7  C   UNL     1       4.899  -6.352 -17.656  1.00  0.00     0.053 C 
BRANCH   7   8
ATOM      8  C   UNL     1       4.235  -6.622 -18.969  1.00  0.00     0.041 C 
ATOM      9  O   UNL     1       4.828  -7.299 -19.850  1.00  0.00    -0.550 OA
ATOM     10  O   UNL     1       2.949  -6.156 -19.209  1.00  0.00    -0.550 OA
ENDBRANCH   7   8
ENDBRANCH   6   7
ENDBRANCH   5   6
ENDBRANCH   4   5
ENDBRANCH   3   4
ENDBRANCH   2   3
ENDBRANCH   1   2
BRANCH   1  11
ATOM     11  C   UNL     1       6.766  -7.167 -11.799  1.00  0.00    -0.031 C 
ATOM     12  C   UNL     1       6.966  -5.902 -11.398  1.00  0.00    -0.027 C 
BRANCH  12  13
ATOM     13  C   UNL     1       6.751  -5.483  -9.970  1.00  0.00     0.054 C 
BRANCH  13  14
ATOM     14  C   UNL     1       5.304  -5.620  -9.565  1.00  0.00    -0.027 C 
ATOM     15  C   UNL     1       4.252  -5.325 -10.354  1.00  0.00    -0.031 C 
BRANCH  15  16
ATOM     16  C   UNL     1       4.351  -4.875 -11.791  1.00  0.00     0.027 C 
BRANCH  16  17
ATOM     17  C   UNL     1       3.145  -5.330 -12.631  1.00  0.00     0.004 C 
BRANCH  17  18
ATOM     18  C   UNL     1       2.216  -6.337 -11.925  1.00  0.00     0.000 C 
BRANCH  18  19
ATOM     19  C   UNL     1       0.902  -5.742 -11.388  1.00  0.00    -0.003 C 
ATOM     20  C   UNL     1       0.176  -4.878 -12.418  1.00  0.00     0.004 C 
ENDBRANCH  18  19
ENDBRANCH  17  18
ENDBRANCH  16  17
ENDBRANCH  15  16
ENDBRANCH  13  14
ENDBRANCH  12  13
ENDBRANCH   1  11
TORSDOF 14
ENDMDL
MODEL 2
REMARK VINA RESULT:    -1.148      2.886      6.115
REMARK INTER + INTRA:          -1.917
REMARK INTER:                  -1.630
REMARK INTRA:                  -0.287
REMARK UNBOUND:                 0.170
REMARK SMILES CCCCCC=CCC=CCCCCCCCC(=O)[O-]
REMARK SMILES IDX 11 1 12 2 13 3 14 4 15 5 16 6 17 7 18 8 19 9 20 10 10 11
REMARK SMILES IDX 9 12 8 13 7 14 6 15 5 16 4 17 3 18 2 19 1 20
REMARK H PARENT
REMARK Flexibility Score: inf
ROOT
ATOM      1  C   UNL     1       8.113  -5.535 -11.428  1.00  0.00     0.027 C 
ENDROOT
BRANCH   1   2
ATOM      2  C   UNL     1       7.035  -5.012 -10.462  1.00  0.00     0.004 C 
BRANCH   2   3
ATOM      3  C   UNL     1       6.018  -6.073  -9.995  1.00  0.00     0.000 C 
BRANCH   3   4
ATOM      4  C   UNL     1       4.692  -5.512  -9.452  1.00  0.00     0.000 C 
BRANCH   4   5
ATOM      5  C   UNL     1       3.822  -4.876 -10.549  1.00  0.00     0.000 C 
BRANCH   5   6
ATOM      6  C   UNL     1       3.984  -5.571 -11.910  1.00  0.00     0.006 C 
BRANCH   6   7
ATOM      7  C   UNL     1       2.739  -5.432 -12.799  1.00  0.00     0.053 C 
BRANCH   7   8
ATOM      8  C   UNL     1       1.513  -5.862 -12.056  1.00  0.00     0.041 C 
ATOM      9  O   UNL     1       0.452  -5.190 -12.146  1.00  0.00    -0.550 OA
ATOM     10  O   UNL     1       1.532  -7.020 -11.290  1.00  0.00    -0.550 OA
ENDBRANCH   7   8
ENDBRANCH   6   7
ENDBRANCH   5   6
ENDBRANCH   4   5
ENDBRANCH   3   4
ENDBRANCH   2   3
ENDBRANCH   1   2
BRANCH   1  11
ATOM     11  C   UNL     1       7.764  -5.294 -12.872  1.00  0.00    -0.031 C 
ATOM     12  C   UNL     1       6.490  -5.262 -13.292  1.00  0.00    -0.027 C 
BRANCH  12  13
ATOM     13  C   UNL     1       6.143  -5.093 -14.745  1.00  0.00     0.054 C 
BRANCH  13  14
ATOM     14  C   UNL     1       5.581  -6.365 -15.332  1.00  0.00    -0.027 C 
ATOM     15  C   UNL     1       4.473  -6.437 -16.095  1.00  0.00    -0.031 C 
BRANCH  15  16
ATOM     16  C   UNL     1       3.654  -5.250 -16.542  1.00  0.00     0.027 C 
BRANCH  16  17
ATOM     17  C   UNL     1       2.961  -5.494 -17.893  1.00  0.00     0.004 C 
BRANCH  17  18
ATOM     18  C   UNL     1       3.599  -6.605 -18.750  1.00  0.00     0.000 C 
BRANCH  18  19
ATOM     19  C   UNL     1       5.124  -6.495 -18.925  1.00  0.00    -0.003 C 
ATOM     20  C   UNL     1       5.701  -7.588 -19.823  1.00  0.00     0.004 C 
ENDBRANCH  18  19
ENDBRANCH  17  18
ENDBRANCH  16  17
ENDBRANCH  15  16
ENDBRANCH  13  14
ENDBRANCH  12  13
ENDBRANCH   1  11
TORSDOF 14
ENDMDL
MODEL 3
REMARK VINA RESULT:    -0.842      1.468      2.360
REMARK INTER + INTRA:          -1.361
REMARK INTER:                  -0.273
REMARK INTRA:                  -1.088
REMARK UNBOUND:                 0.170
REMARK SMILES CCCCCC=CCC=CCCCCCCCC(=O)[O-]
REMARK SMILES IDX 11 1 12 2 13 3 14 4 15 5 16 6 17 7 18 8 19 9 20 10 10 11
REMARK SMILES IDX 9 12 8 13 7 14 6 15 5 16 4 17 3 18 2 19 1 20
REMARK H PARENT
REMARK Flexibility Score: inf
ROOT
ATOM      1  C   UNL     1       5.640  -6.409 -14.590  1.00  0.00     0.027 C 
ENDROOT
BRANCH   1   2
ATOM      2  C   UNL     1       4.279  -5.899 -14.083  1.00  0.00     0.004 C 
BRANCH   2   3
ATOM      3  C   UNL     1       3.556  -4.929 -15.041  1.00  0.00     0.000 C 
BRANCH   3   4
ATOM      4  C   UNL     1       4.035  -4.978 -16.502  1.00  0.00     0.000 C 
BRANCH   4   5
ATOM      5  C   UNL     1       2.888  -5.227 -17.496  1.00  0.00     0.000 C 
BRANCH   5   6
ATOM      6  C   UNL     1       3.316  -6.101 -18.686  1.00  0.00     0.006 C 
BRANCH   6   7
ATOM      7  C   UNL     1       4.591  -6.908 -18.400  1.00  0.00     0.053 C 
BRANCH   7   8
ATOM      8  C   UNL     1       5.274  -7.281 -19.678  1.00  0.00     0.041 C 
ATOM      9  O   UNL     1       6.437  -6.862 -19.919  1.00  0.00    -0.550 OA
ATOM     10  O   UNL     1       4.642  -8.119 -20.588  1.00  0.00    -0.550 OA
ENDBRANCH   7   8
ENDBRANCH   6   7
ENDBRANCH   5   6
ENDBRANCH   4   5
ENDBRANCH   3   4
ENDBRANCH   2   3
ENDBRANCH   1   2
BRANCH   1  11
ATOM     11  C   UNL     1       6.741  -6.220 -13.583  1.00  0.00    -0.031 C 
ATOM     12  C   UNL     1       6.809  -5.125 -12.811  1.00  0.00    -0.027 C 
BRANCH  12  13
ATOM     13  C   UNL     1       7.949  -4.902 -11.855  1.00  0.00     0.054 C 
BRANCH  13  14
ATOM     14  C   UNL     1       7.775  -5.703 -10.589  1.00  0.00    -0.027 C 
ATOM     15  C   UNL     1       6.683  -5.669  -9.800  1.00  0.00    -0.031 C 
BRANCH  15  16
ATOM     16  C   UNL     1       5.432  -4.877 -10.092  1.00  0.00     0.027 C 
BRANCH  16  17
ATOM     17  C   UNL     1       4.380  -5.012  -8.978  1.00  0.00     0.004 C 
BRANCH  17  18
ATOM     18  C   UNL     1       3.026  -5.587  -9.440  1.00  0.00     0.000 C 
BRANCH  18  19
ATOM     19  C   UNL     1       2.618  -5.211 -10.875  1.00  0.00    -0.003 C 
ATOM     20  C   UNL     1       1.762  -6.282 -11.551  1.00  0.00     0.004 C 
ENDBRANCH  18  19
ENDBRANCH  17  18
ENDBRANCH  16  17
ENDBRANCH  15  16
ENDBRANCH  13  14
ENDBRANCH  12  13
ENDBRANCH   1  11
TORSDOF 14
ENDMDL
MODEL 4
REMARK VINA RESULT:     0.123      3.435      6.713
REMARK INTER + INTRA:           0.394
REMARK INTER:                   1.099
REMARK INTRA:                  -0.706
REMARK UNBOUND:                 0.170
REMARK SMILES CCCCCC=CCC=CCCCCCCCC(=O)[O-]
REMARK SMILES IDX 11 1 12 2 13 3 14 4 15 5 16 6 17 7 18 8 19 9 20 10 10 11
REMARK SMILES IDX 9 12 8 13 7 14 6 15 5 16 4 17 3 18 2 19 1 20
REMARK H PARENT
REMARK Flexibility Score: inf
ROOT
ATOM      1  C   UNL     1       1.934  -6.830 -12.905  1.00  0.00     0.027 C 
ENDROOT
BRANCH   1   2
ATOM      2  C   UNL     1       1.410  -6.991 -11.467  1.00  0.00     0.004 C 
BRANCH   2   3
ATOM      3  C   UNL     1       1.085  -5.665 -10.748  1.00  0.00     0.000 C 
BRANCH   3   4
ATOM      4  C   UNL     1       2.309  -4.875 -10.252  1.00  0.00     0.000 C 
BRANCH   4   5
ATOM      5  C   UNL     1       3.068  -5.598  -9.127  1.00  0.00     0.000 C 
BRANCH   5   6
ATOM      6  C   UNL     1       4.464  -5.004  -8.879  1.00  0.00     0.006 C 
BRANCH   6   7
ATOM      7  C   UNL     1       5.294  -4.883 -10.165  1.00  0.00     0.053 C 
BRANCH   7   8
ATOM      8  C   UNL     1       6.589  -5.620 -10.026  1.00  0.00     0.041 C 
ATOM      9  O   UNL     1       7.489  -5.177  -9.264  1.00  0.00    -0.550 OA
ATOM     10  O   UNL     1       6.791  -6.811 -10.710  1.00  0.00    -0.550 OA
ENDBRANCH   7   8
ENDBRANCH   6   7
ENDBRANCH   5   6
ENDBRANCH   4   5
ENDBRANCH   3   4
ENDBRANCH   2   3
ENDBRANCH   1   2
BRANCH   1  11
ATOM     11  C   UNL     1       2.948  -5.726 -13.033  1.00  0.00    -0.031 C 
ATOM     12  C   UNL     1       4.204  -5.967 -13.436  1.00  0.00    -0.027 C 
BRANCH  12  13
ATOM     13  C   UNL     1       5.238  -4.875 -13.495  1.00  0.00     0.054 C 
BRANCH  13  14
ATOM     14  C   UNL     1       6.634  -5.439 -13.591  1.00  0.00    -0.027 C 
ATOM     15  C   UNL     1       7.257  -5.760 -14.741  1.00  0.00    -0.031 C 
BRANCH  15  16
ATOM     16  C   UNL     1       6.686  -5.543 -16.121  1.00  0.00     0.027 C 
BRANCH  16  17
ATOM     17  C   UNL     1       5.548  -6.527 -16.444  1.00  0.00     0.004 C 
BRANCH  17  18
ATOM     18  C   UNL     1       4.261  -5.865 -16.976  1.00  0.00     0.000 C 
BRANCH  18  19
ATOM     19  C   UNL     1       3.536  -6.652 -18.082  1.00  0.00    -0.003 C 
ATOM     20  C   UNL     1       4.339  -6.733 -19.379  1.00  0.00     0.004 C 
ENDBRANCH  18  19
ENDBRANCH  17  18
ENDBRANCH  16  17
ENDBRANCH  15  16
ENDBRANCH  13  14
ENDBRANCH  12  13
ENDBRANCH   1  11
TORSDOF 14
ENDMDL
MODEL 5
REMARK VINA RESULT:     1.315      2.942      7.350
REMARK INTER + INTRA:           2.561
REMARK INTER:                   3.163
REMARK INTRA:                  -0.602
REMARK UNBOUND:                 0.170
REMARK SMILES CCCCCC=CCC=CCCCCCCCC(=O)[O-]
REMARK SMILES IDX 11 1 12 2 13 3 14 4 15 5 16 6 17 7 18 8 19 9 20 10 10 11
REMARK SMILES IDX 9 12 8 13 7 14 6 15 5 16 4 17 3 18 2 19 1 20
REMARK H PARENT
REMARK Flexibility Score: inf
ROOT
ATOM      1  C   UNL     1       6.248  -4.882 -12.924  1.00  0.00     0.027 C 
ENDROOT
BRANCH   1   2
ATOM      2  C   UNL     1       6.688  -6.074 -12.055  1.00  0.00     0.004 C 
BRANCH   2   3
ATOM      3  C   UNL     1       7.124  -5.700 -10.623  1.00  0.00     0.000 C 
BRANCH   3   4
ATOM      4  C   UNL     1       5.979  -5.304  -9.675  1.00  0.00     0.000 C 
BRANCH   4   5
ATOM      5  C   UNL     1       4.660  -6.026 -10.000  1.00  0.00     0.000 C 
BRANCH   5   6
ATOM      6  C   UNL     1       3.463  -5.066 -10.077  1.00  0.00     0.006 C 
BRANCH   6   7
ATOM      7  C   UNL     1       2.172  -5.762 -10.532  1.00  0.00     0.053 C 
BRANCH   7   8
ATOM      8  C   UNL     1       1.846  -5.392 -11.945  1.00  0.00     0.041 C 
ATOM      9  O   UNL     1       2.744  -5.418 -12.829  1.00  0.00    -0.550 OA
ATOM     10  O   UNL     1       0.546  -5.051 -12.295  1.00  0.00    -0.550 OA
ENDBRANCH   7   8
ENDBRANCH   6   7
ENDBRANCH   5   6
ENDBRANCH   4   5
ENDBRANCH   3   4
ENDBRANCH   2   3
ENDBRANCH   1   2
BRANCH   1  11
ATOM     11  C   UNL     1       6.141  -5.237 -14.383  1.00  0.00    -0.031 C 
ATOM     12  C   UNL     1       5.007  -5.726 -14.907  1.00  0.00    -0.027 C 
BRANCH  12  13
ATOM     13  C   UNL     1       4.921  -6.148 -16.348  1.00  0.00     0.054 C 
BRANCH  13  14
ATOM     14  C   UNL     1       3.639  -5.677 -16.988  1.00  0.00    -0.027 C 
ATOM     15  C   UNL     1       3.271  -5.937 -18.257  1.00  0.00    -0.031 C 
BRANCH  15  16
ATOM     16  C   UNL     1       4.049  -6.799 -19.222  1.00  0.00     0.027 C 
BRANCH  16  17
ATOM     17  C   UNL     1       3.217  -7.197 -20.453  1.00  0.00     0.004 C 
BRANCH  17  18
ATOM     18  C   UNL     1       3.915  -8.192 -21.403  1.00  0.00     0.000 C 
BRANCH  18  19
ATOM     19  C   UNL     1       3.237  -8.364 -22.773  1.00  0.00    -0.003 C 
ATOM     20  C   UNL     1       3.086  -9.828 -23.183  1.00  0.00     0.004 C 
ENDBRANCH  18  19
ENDBRANCH  17  18
ENDBRANCH  16  17
ENDBRANCH  15  16
ENDBRANCH  13  14
ENDBRANCH  12  13
ENDBRANCH   1  11
TORSDOF 14
ENDMDL
