MODEL 1
REMARK VINA RESULT:    -3.106      0.000      0.000
REMARK INTER + INTRA:          -4.151
REMARK INTER:                  -4.740
REMARK INTRA:                   0.589
REMARK UNBOUND:                 0.589
REMARK SMILES CC1=CCC[C@H](C)C(=O)C[C@@H](C(C)C)C(=O)C1
REMARK SMILES IDX 8 1 9 2 6 3 7 4 5 5 4 6 3 7 2 8 1 9 10 11 11 12 15 13 16 14
REMARK SMILES IDX 17 15 12 17 13 18 14 19
REMARK H PARENT
REMARK Flexibility Score: 70.00
ROOT
ATOM      1  C   UNL     1       8.944 -32.938  13.606  1.00  0.00     0.136 C 
ATOM      2  O   UNL     1       8.104 -32.429  12.877  1.00  0.00    -0.299 OA
ENDROOT
BRANCH   1   3
ATOM      3  C   UNL     1      10.051 -33.796  13.016  1.00  0.00     0.053 C 
ATOM      4  C   UNL     1      11.446 -33.186  13.222  1.00  0.00     0.016 C 
BRANCH   3   5
ATOM      5  C   UNL     1       9.983 -35.268  13.495  1.00  0.00     0.015 C 
BRANCH   5   6
ATOM      6  C   UNL     1       8.784 -36.111  13.010  1.00  0.00     0.028 C 
BRANCH   6   7
ATOM      7  C   UNL     1       8.044 -36.880  14.080  1.00  0.00    -0.028 C 
ATOM      8  C   UNL     1       6.909 -36.489  14.704  1.00  0.00    -0.070 CG0
ATOM      9  C   UNL     1       6.274 -37.449  15.681  1.00  0.00     0.039 C 
ATOM     10  G   UNL     1       6.241 -35.148  14.463  1.00  0.00     0.000 G0
ENDBRANCH   6   7
ENDBRANCH   5   6
ENDBRANCH   3   5
ENDBRANCH   1   3
BRANCH   1  11
ATOM     11  C   UNL     1       8.841 -32.719  15.099  1.00  0.00     0.087 C 
BRANCH  11  12
ATOM     12  C   UNL     1       8.170 -33.916  15.817  1.00  0.00     0.066 C 
BRANCH  12  13
ATOM     13  C   UNL     1       6.716 -34.056  15.383  1.00  0.00     0.140 C 
ATOM     14  O   UNL     1       5.881 -33.278  15.819  1.00  0.00    -0.299 OA
BRANCH  13  15
ATOM     15  C   UNL     1       6.249 -35.150  14.451  1.00  0.00     0.106 CG0
ATOM     16  G   UNL     1       6.906 -36.491  14.719  1.00  0.00     0.000 G0
ENDBRANCH  13  15
ENDBRANCH  12  13
BRANCH  12  17
ATOM     17  C   UNL     1       8.343 -33.852  17.366  1.00  0.00    -0.006 C 
ATOM     18  C   UNL     1       7.279 -34.696  18.084  1.00  0.00     0.008 C 
ATOM     19  C   UNL     1       8.372 -32.428  17.948  1.00  0.00     0.008 C 
ENDBRANCH  12  17
ENDBRANCH  11  12
ENDBRANCH   1  11
TORSDOF 1
ENDMDL
MODEL 2
REMARK VINA RESULT:    -2.942      1.963      4.413
REMARK INTER + INTRA:          -3.901
REMARK INTER:                  -4.213
REMARK INTRA:                   0.312
REMARK UNBOUND:                 0.589
REMARK SMILES CC1=CCC[C@H](C)C(=O)C[C@@H](C(C)C)C(=O)C1
REMARK SMILES IDX 8 1 9 2 6 3 7 4 5 5 4 6 3 7 2 8 1 9 10 11 11 12 15 13 16 14
REMARK SMILES IDX 17 15 12 17 13 18 14 19
REMARK H PARENT
REMARK Flexibility Score: 70.00
ROOT
ATOM      1  C   UNL     1       7.836 -36.406  13.504  1.00  0.00     0.136 C 
ATOM      2  O   UNL     1       8.725 -37.243  13.555  1.00  0.00    -0.299 OA
ENDROOT
BRANCH   1   3
ATOM      3  C   UNL     1       6.423 -36.763  13.935  1.00  0.00     0.053 C 
ATOM      4  C   UNL     1       5.932 -38.083  13.320  1.00  0.00     0.016 C 
BRANCH   3   5
ATOM      5  C   UNL     1       6.245 -36.738  15.474  1.00  0.00     0.015 C 
BRANCH   5   6
ATOM      6  C   UNL     1       7.297 -35.957  16.291  1.00  0.00     0.028 C 
BRANCH   6   7
ATOM      7  C   UNL     1       6.803 -34.701  16.970  1.00  0.00    -0.028 C 
ATOM      8  C   UNL     1       7.390 -33.482  16.921  1.00  0.00    -0.070 CG0
ATOM      9  C   UNL     1       6.684 -32.331  17.595  1.00  0.00     0.039 C 
ATOM     10  G   UNL     1       8.708 -33.216  16.217  1.00  0.00     0.000 G0
ENDBRANCH   6   7
ENDBRANCH   5   6
ENDBRANCH   3   5
ENDBRANCH   1   3
BRANCH   1  11
ATOM     11  C   UNL     1       8.164 -35.025  12.980  1.00  0.00     0.087 C 
BRANCH  11  12
ATOM     12  C   UNL     1       9.231 -34.313  13.848  1.00  0.00     0.066 C 
BRANCH  12  13
ATOM     13  C   UNL     1       8.589 -33.224  14.701  1.00  0.00     0.140 C 
ATOM     14  O   UNL     1       7.979 -32.316  14.155  1.00  0.00    -0.299 OA
BRANCH  13  15
ATOM     15  C   UNL     1       8.705 -33.198  16.207  1.00  0.00     0.106 CG0
ATOM     16  G   UNL     1       7.396 -33.489  16.917  1.00  0.00     0.000 G0
ENDBRANCH  13  15
ENDBRANCH  12  13
BRANCH  12  17
ATOM     17  C   UNL     1      10.437 -33.798  13.003  1.00  0.00    -0.006 C 
ATOM     18  C   UNL     1      11.541 -34.860  12.899  1.00  0.00     0.008 C 
ATOM     19  C   UNL     1      11.029 -32.461  13.482  1.00  0.00     0.008 C 
ENDBRANCH  12  17
ENDBRANCH  11  12
ENDBRANCH   1  11
TORSDOF 1
ENDMDL
MODEL 3
REMARK VINA RESULT:    -2.658      1.690      3.764
REMARK INTER + INTRA:          -3.468
REMARK INTER:                  -3.776
REMARK INTRA:                   0.308
REMARK UNBOUND:                 0.589
REMARK SMILES CC1=CCC[C@H](C)C(=O)C[C@@H](C(C)C)C(=O)C1
REMARK SMILES IDX 8 1 9 2 6 3 7 4 5 5 4 6 3 7 2 8 1 9 10 11 11 12 15 13 16 14
REMARK SMILES IDX 17 15 12 17 13 18 14 19
REMARK H PARENT
REMARK Flexibility Score: 70.00
ROOT
ATOM      1  C   UNL     1       8.903 -32.944  16.274  1.00  0.00     0.136 C 
ATOM      2  O   UNL     1       9.459 -31.857  16.338  1.00  0.00    -0.299 OA
ENDROOT
BRANCH   1   3
ATOM      3  C   UNL     1       7.662 -33.220  17.106  1.00  0.00     0.053 C 
ATOM      4  C   UNL     1       6.417 -32.494  16.571  1.00  0.00     0.016 C 
BRANCH   3   5
ATOM      5  C   UNL     1       7.407 -34.734  17.313  1.00  0.00     0.015 C 
BRANCH   5   6
ATOM      6  C   UNL     1       6.060 -35.296  16.809  1.00  0.00     0.028 C 
BRANCH   6   7
ATOM      7  C   UNL     1       6.135 -36.592  16.037  1.00  0.00    -0.028 C 
ATOM      8  C   UNL     1       6.457 -36.726  14.729  1.00  0.00    -0.070 CG0
ATOM      9  C   UNL     1       6.567 -38.123  14.168  1.00  0.00     0.039 C 
ATOM     10  G   UNL     1       6.722 -35.549  13.808  1.00  0.00     0.000 G0
ENDBRANCH   6   7
ENDBRANCH   5   6
ENDBRANCH   3   5
ENDBRANCH   1   3
BRANCH   1  11
ATOM     11  C   UNL     1       9.491 -34.010  15.375  1.00  0.00     0.087 C 
BRANCH  11  12
ATOM     12  C   UNL     1       8.883 -33.968  13.951  1.00  0.00     0.066 C 
BRANCH  12  13
ATOM     13  C   UNL     1       8.222 -35.299  13.610  1.00  0.00     0.140 C 
ATOM     14  O   UNL     1       8.896 -36.199  13.131  1.00  0.00    -0.299 OA
BRANCH  13  15
ATOM     15  C   UNL     1       6.745 -35.546  13.809  1.00  0.00     0.106 CG0
ATOM     16  G   UNL     1       6.448 -36.713  14.731  1.00  0.00     0.000 G0
ENDBRANCH  13  15
ENDBRANCH  12  13
BRANCH  12  17
ATOM     17  C   UNL     1       9.917 -33.505  12.878  1.00  0.00    -0.006 C 
ATOM     18  C   UNL     1      11.205 -34.340  12.945  1.00  0.00     0.008 C 
ATOM     19  C   UNL     1      10.254 -32.004  12.921  1.00  0.00     0.008 C 
ENDBRANCH  12  17
ENDBRANCH  11  12
ENDBRANCH   1  11
TORSDOF 1
ENDMDL
MODEL 4
REMARK VINA RESULT:    -1.914      2.230      3.880
REMARK INTER + INTRA:          -2.332
REMARK INTER:                  -3.082
REMARK INTRA:                   0.749
REMARK UNBOUND:                 0.589
REMARK SMILES CC1=CCC[C@H](C)C(=O)C[C@@H](C(C)C)C(=O)C1
REMARK SMILES IDX 8 1 9 2 6 3 7 4 5 5 4 6 3 7 2 8 1 9 10 11 11 12 15 13 16 14
REMARK SMILES IDX 17 15 12 17 13 18 14 19
REMARK H PARENT
REMARK Flexibility Score: 70.00
ROOT
ATOM      1  C   UNL     1       6.238 -36.415  15.394  1.00  0.00     0.136 C 
ATOM      2  O   UNL     1       5.951 -37.414  16.037  1.00  0.00    -0.299 OA
ENDROOT
BRANCH   1   3
ATOM      3  C   UNL     1       6.971 -36.542  14.068  1.00  0.00     0.053 C 
ATOM      4  C   UNL     1       7.169 -38.005  13.640  1.00  0.00     0.016 C 
BRANCH   3   5
ATOM      5  C   UNL     1       6.326 -35.691  12.946  1.00  0.00     0.015 C 
BRANCH   5   6
ATOM      6  C   UNL     1       6.455 -34.157  13.066  1.00  0.00     0.028 C 
BRANCH   6   7
ATOM      7  C   UNL     1       7.837 -33.635  13.381  1.00  0.00    -0.028 C 
ATOM      8  C   UNL     1       8.195 -32.937  14.485  1.00  0.00    -0.070 CG0
ATOM      9  C   UNL     1       9.653 -32.586  14.655  1.00  0.00     0.039 C 
ATOM     10  G   UNL     1       7.212 -32.503  15.556  1.00  0.00     0.000 G0
ENDBRANCH   6   7
ENDBRANCH   5   6
ENDBRANCH   3   5
ENDBRANCH   1   3
BRANCH   1  11
ATOM     11  C   UNL     1       5.875 -35.058  15.955  1.00  0.00     0.087 C 
BRANCH  11  12
ATOM     12  C   UNL     1       6.817 -34.637  17.111  1.00  0.00     0.066 C 
BRANCH  12  13
ATOM     13  C   UNL     1       7.370 -33.237  16.870  1.00  0.00     0.140 C 
ATOM     14  O   UNL     1       7.947 -32.655  17.776  1.00  0.00    -0.299 OA
BRANCH  13  15
ATOM     15  C   UNL     1       7.204 -32.514  15.553  1.00  0.00     0.106 CG0
ATOM     16  G   UNL     1       8.197 -32.955  14.494  1.00  0.00     0.000 G0
ENDBRANCH  13  15
ENDBRANCH  12  13
BRANCH  12  17
ATOM     17  C   UNL     1       7.928 -35.695  17.387  1.00  0.00    -0.006 C 
ATOM     18  C   UNL     1       7.835 -36.245  18.818  1.00  0.00     0.008 C 
ATOM     19  C   UNL     1       9.359 -35.210  17.096  1.00  0.00     0.008 C 
ENDBRANCH  12  17
ENDBRANCH  11  12
ENDBRANCH   1  11
TORSDOF 1
ENDMDL
MODEL 5
REMARK VINA RESULT:    -1.839      1.685      3.741
REMARK INTER + INTRA:          -2.218
REMARK INTER:                  -4.385
REMARK INTRA:                   2.167
REMARK UNBOUND:                 0.589
REMARK SMILES CC1=CCC[C@H](C)C(=O)C[C@@H](C(C)C)C(=O)C1
REMARK SMILES IDX 8 1 9 2 6 3 7 4 5 5 4 6 3 7 2 8 1 9 10 11 11 12 15 13 16 14
REMARK SMILES IDX 17 15 12 17 13 18 14 19
REMARK H PARENT
REMARK Flexibility Score: 70.00
ROOT
ATOM      1  C   UNL     1       6.617 -35.406  16.711  1.00  0.00     0.136 C 
ATOM      2  O   UNL     1       7.061 -35.406  17.850  1.00  0.00    -0.299 OA
ENDROOT
BRANCH   1   3
ATOM      3  C   UNL     1       6.671 -36.671  15.869  1.00  0.00     0.053 C 
ATOM      4  C   UNL     1       6.197 -37.915  16.638  1.00  0.00     0.016 C 
BRANCH   3   5
ATOM      5  C   UNL     1       5.943 -36.515  14.511  1.00  0.00     0.015 C 
BRANCH   5   6
ATOM      6  C   UNL     1       6.490 -35.448  13.539  1.00  0.00     0.028 C 
BRANCH   6   7
ATOM      7  C   UNL     1       7.912 -35.649  13.071  1.00  0.00    -0.028 C 
ATOM      8  C   UNL     1       9.031 -35.253  13.722  1.00  0.00    -0.070 CG0
ATOM      9  C   UNL     1      10.365 -35.635  13.128  1.00  0.00     0.039 C 
ATOM     10  G   UNL     1       9.010 -34.459  15.014  1.00  0.00     0.000 G0
ENDBRANCH   6   7
ENDBRANCH   5   6
ENDBRANCH   3   5
ENDBRANCH   1   3
BRANCH   1  11
ATOM     11  C   UNL     1       6.042 -34.124  16.152  1.00  0.00     0.087 C 
BRANCH  11  12
ATOM     12  C   UNL     1       7.093 -32.987  16.107  1.00  0.00     0.066 C 
BRANCH  12  13
ATOM     13  C   UNL     1       8.117 -33.246  15.008  1.00  0.00     0.140 C 
ATOM     14  O   UNL     1       8.185 -32.479  14.058  1.00  0.00    -0.299 OA
BRANCH  13  15
ATOM     15  C   UNL     1       9.039 -34.442  15.022  1.00  0.00     0.106 CG0
ATOM     16  G   UNL     1       9.019 -35.235  13.729  1.00  0.00     0.000 G0
ENDBRANCH  13  15
ENDBRANCH  12  13
BRANCH  12  17
ATOM     17  C   UNL     1       7.744 -32.725  17.501  1.00  0.00    -0.006 C 
ATOM     18  C   UNL     1       6.819 -31.895  18.403  1.00  0.00     0.008 C 
ATOM     19  C   UNL     1       9.143 -32.087  17.443  1.00  0.00     0.008 C 
ENDBRANCH  12  17
ENDBRANCH  11  12
ENDBRANCH   1  11
TORSDOF 1
ENDMDL
MODEL 6
REMARK VINA RESULT:    -1.476      1.797      3.902
REMARK INTER + INTRA:          -1.665
REMARK INTER:                  -3.906
REMARK INTRA:                   2.242
REMARK UNBOUND:                 0.589
REMARK SMILES CC1=CCC[C@H](C)C(=O)C[C@@H](C(C)C)C(=O)C1
REMARK SMILES IDX 8 1 9 2 6 3 7 4 5 5 4 6 3 7 2 8 1 9 10 11 11 12 15 13 16 14
REMARK SMILES IDX 17 15 12 17 13 18 14 19
REMARK H PARENT
REMARK Flexibility Score: 70.00
ROOT
ATOM      1  C   UNL     1       8.554 -35.006  13.455  1.00  0.00     0.136 C 
ATOM      2  O   UNL     1       9.228 -35.935  13.875  1.00  0.00    -0.299 OA
ENDROOT
BRANCH   1   3
ATOM      3  C   UNL     1       9.122 -33.596  13.432  1.00  0.00     0.053 C 
ATOM      4  C   UNL     1       8.099 -32.553  12.955  1.00  0.00     0.016 C 
BRANCH   3   5
ATOM      5  C   UNL     1       9.776 -33.195  14.778  1.00  0.00     0.015 C 
BRANCH   5   6
ATOM      6  C   UNL     1       9.038 -32.141  15.631  1.00  0.00     0.028 C 
BRANCH   6   7
ATOM      7  C   UNL     1       8.519 -32.620  16.967  1.00  0.00    -0.028 C 
ATOM      8  C   UNL     1       7.424 -33.390  17.169  1.00  0.00    -0.070 CG0
ATOM      9  C   UNL     1       7.128 -33.838  18.579  1.00  0.00     0.039 C 
ATOM     10  G   UNL     1       6.493 -33.829  16.054  1.00  0.00     0.000 G0
ENDBRANCH   6   7
ENDBRANCH   5   6
ENDBRANCH   3   5
ENDBRANCH   1   3
BRANCH   1  11
ATOM     11  C   UNL     1       7.142 -35.283  12.989  1.00  0.00     0.087 C 
BRANCH  11  12
ATOM     12  C   UNL     1       6.212 -35.687  14.160  1.00  0.00     0.066 C 
BRANCH  12  13
ATOM     13  C   UNL     1       6.784 -35.205  15.489  1.00  0.00     0.140 C 
ATOM     14  O   UNL     1       7.506 -35.949  16.136  1.00  0.00    -0.299 OA
BRANCH  13  15
ATOM     15  C   UNL     1       6.465 -33.845  16.065  1.00  0.00     0.106 CG0
ATOM     16  G   UNL     1       7.438 -33.404  17.142  1.00  0.00     0.000 G0
ENDBRANCH  13  15
ENDBRANCH  12  13
BRANCH  12  17
ATOM     17  C   UNL     1       5.875 -37.210  14.154  1.00  0.00    -0.006 C 
ATOM     18  C   UNL     1       6.252 -37.872  15.488  1.00  0.00     0.008 C 
ATOM     19  C   UNL     1       6.487 -37.994  12.980  1.00  0.00     0.008 C 
ENDBRANCH  12  17
ENDBRANCH  11  12
ENDBRANCH   1  11
TORSDOF 1
ENDMDL
MODEL 7
REMARK VINA RESULT:    -1.002      1.933      4.966
REMARK INTER + INTRA:          -0.941
REMARK INTER:                  -2.925
REMARK INTRA:                   1.985
REMARK UNBOUND:                 0.589
REMARK SMILES CC1=CCC[C@H](C)C(=O)C[C@@H](C(C)C)C(=O)C1
REMARK SMILES IDX 8 1 9 2 6 3 7 4 5 5 4 6 3 7 2 8 1 9 10 11 11 12 15 13 16 14
REMARK SMILES IDX 17 15 12 17 13 18 14 19
REMARK H PARENT
REMARK Flexibility Score: 70.00
ROOT
ATOM      1  C   UNL     1       6.178 -36.688  15.016  1.00  0.00     0.136 C 
ATOM      2  O   UNL     1       5.875 -37.704  14.407  1.00  0.00    -0.299 OA
ENDROOT
BRANCH   1   3
ATOM      3  C   UNL     1       5.999 -36.619  16.524  1.00  0.00     0.053 C 
ATOM      4  C   UNL     1       6.507 -37.881  17.240  1.00  0.00     0.016 C 
BRANCH   3   5
ATOM      5  C   UNL     1       6.592 -35.326  17.136  1.00  0.00     0.015 C 
BRANCH   5   6
ATOM      6  C   UNL     1       8.081 -35.360  17.543  1.00  0.00     0.028 C 
BRANCH   6   7
ATOM      7  C   UNL     1       8.746 -34.015  17.726  1.00  0.00    -0.028 C 
ATOM      8  C   UNL     1       8.696 -32.976  16.860  1.00  0.00    -0.070 CG0
ATOM      9  C   UNL     1       9.353 -31.681  17.273  1.00  0.00     0.039 C 
ATOM     10  G   UNL     1       8.009 -33.044  15.509  1.00  0.00     0.000 G0
ENDBRANCH   6   7
ENDBRANCH   5   6
ENDBRANCH   3   5
ENDBRANCH   1   3
BRANCH   1  11
ATOM     11  C   UNL     1       6.704 -35.502  14.240  1.00  0.00     0.087 C 
BRANCH  11  12
ATOM     12  C   UNL     1       8.249 -35.403  14.306  1.00  0.00     0.066 C 
BRANCH  12  13
ATOM     13  C   UNL     1       8.686 -33.954  14.490  1.00  0.00     0.140 C 
ATOM     14  O   UNL     1       9.627 -33.524  13.838  1.00  0.00    -0.299 OA
BRANCH  13  15
ATOM     15  C   UNL     1       8.023 -33.025  15.479  1.00  0.00     0.106 CG0
ATOM     16  G   UNL     1       8.700 -33.007  16.837  1.00  0.00     0.000 G0
ENDBRANCH  13  15
ENDBRANCH  12  13
BRANCH  12  17
ATOM     17  C   UNL     1       8.941 -36.103  13.097  1.00  0.00    -0.006 C 
ATOM     18  C   UNL     1       8.775 -37.629  13.163  1.00  0.00     0.008 C 
ATOM     19  C   UNL     1      10.424 -35.738  12.910  1.00  0.00     0.008 C 
ENDBRANCH  12  17
ENDBRANCH  11  12
ENDBRANCH   1  11
TORSDOF 1
ENDMDL
MODEL 8
REMARK VINA RESULT:    -0.891      1.794      3.808
REMARK INTER + INTRA:          -0.771
REMARK INTER:                  -2.863
REMARK INTRA:                   2.092
REMARK UNBOUND:                 0.589
REMARK SMILES CC1=CCC[C@H](C)C(=O)C[C@@H](C(C)C)C(=O)C1
REMARK SMILES IDX 8 1 9 2 6 3 7 4 5 5 4 6 3 7 2 8 1 9 10 11 11 12 15 13 16 14
REMARK SMILES IDX 17 15 12 17 13 18 14 19
REMARK H PARENT
REMARK Flexibility Score: 70.00
ROOT
ATOM      1  C   UNL     1       8.179 -34.949  13.624  1.00  0.00     0.136 C 
ATOM      2  O   UNL     1       8.767 -36.016  13.521  1.00  0.00    -0.299 OA
ENDROOT
BRANCH   1   3
ATOM      3  C   UNL     1       8.960 -33.644  13.652  1.00  0.00     0.053 C 
ATOM      4  C   UNL     1       8.073 -32.418  13.385  1.00  0.00     0.016 C 
BRANCH   3   5
ATOM      5  C   UNL     1       9.803 -33.482  14.941  1.00  0.00     0.015 C 
BRANCH   5   6
ATOM      6  C   UNL     1       9.866 -32.072  15.567  1.00  0.00     0.028 C 
BRANCH   6   7
ATOM      7  C   UNL     1       9.203 -31.920  16.916  1.00  0.00    -0.028 C 
ATOM      8  C   UNL     1       8.399 -32.827  17.518  1.00  0.00    -0.070 CG0
ATOM      9  C   UNL     1       7.911 -32.522  18.913  1.00  0.00     0.039 C 
ATOM     10  G   UNL     1       7.975 -34.131  16.868  1.00  0.00     0.000 G0
ENDBRANCH   6   7
ENDBRANCH   5   6
ENDBRANCH   3   5
ENDBRANCH   1   3
BRANCH   1  11
ATOM     11  C   UNL     1       6.672 -34.956  13.750  1.00  0.00     0.087 C 
BRANCH  11  12
ATOM     12  C   UNL     1       6.213 -35.217  15.207  1.00  0.00     0.066 C 
BRANCH  12  13
ATOM     13  C   UNL     1       6.677 -34.091  16.125  1.00  0.00     0.140 C 
ATOM     14  O   UNL     1       6.004 -33.075  16.216  1.00  0.00    -0.299 OA
BRANCH  13  15
ATOM     15  C   UNL     1       7.965 -34.163  16.910  1.00  0.00     0.106 CG0
ATOM     16  G   UNL     1       8.385 -32.832  17.504  1.00  0.00     0.000 G0
ENDBRANCH  13  15
ENDBRANCH  12  13
BRANCH  12  17
ATOM     17  C   UNL     1       6.625 -36.632  15.716  1.00  0.00    -0.006 C 
ATOM     18  C   UNL     1       5.879 -37.739  14.957  1.00  0.00     0.008 C 
ATOM     19  C   UNL     1       6.476 -36.834  17.234  1.00  0.00     0.008 C 
ENDBRANCH  12  17
ENDBRANCH  11  12
ENDBRANCH   1  11
TORSDOF 1
ENDMDL
MODEL 9
REMARK VINA RESULT:    -0.722      1.712      4.375
REMARK INTER + INTRA:          -0.513
REMARK INTER:                  -2.342
REMARK INTRA:                   1.829
REMARK UNBOUND:                 0.589
REMARK SMILES CC1=CCC[C@H](C)C(=O)C[C@@H](C(C)C)C(=O)C1
REMARK SMILES IDX 8 1 9 2 6 3 7 4 5 5 4 6 3 7 2 8 1 9 10 11 11 12 15 13 16 14
REMARK SMILES IDX 17 15 12 17 13 18 14 19
REMARK H PARENT
REMARK Flexibility Score: 70.00
ROOT
ATOM      1  C   UNL     1       7.237 -33.764  16.951  1.00  0.00     0.136 C 
ATOM      2  O   UNL     1       6.034 -33.932  16.822  1.00  0.00    -0.299 OA
ENDROOT
BRANCH   1   3
ATOM      3  C   UNL     1       7.774 -32.434  17.456  1.00  0.00     0.053 C 
ATOM      4  C   UNL     1       7.339 -32.129  18.898  1.00  0.00     0.016 C 
BRANCH   3   5
ATOM      5  C   UNL     1       9.306 -32.300  17.270  1.00  0.00     0.015 C 
BRANCH   5   6
ATOM      6  C   UNL     1       9.800 -31.601  15.986  1.00  0.00     0.028 C 
BRANCH   6   7
ATOM      7  C   UNL     1      10.268 -32.515  14.876  1.00  0.00    -0.028 C 
ATOM      8  C   UNL     1       9.476 -33.218  14.033  1.00  0.00    -0.070 CG0
ATOM      9  C   UNL     1      10.141 -34.002  12.930  1.00  0.00     0.039 C 
ATOM     10  G   UNL     1       7.962 -33.246  14.136  1.00  0.00     0.000 G0
ENDBRANCH   6   7
ENDBRANCH   5   6
ENDBRANCH   3   5
ENDBRANCH   1   3
BRANCH   1  11
ATOM     11  C   UNL     1       8.175 -34.889  16.576  1.00  0.00     0.087 C 
BRANCH  11  12
ATOM     12  C   UNL     1       7.699 -35.644  15.309  1.00  0.00     0.066 C 
BRANCH  12  13
ATOM     13  C   UNL     1       7.387 -34.662  14.185  1.00  0.00     0.140 C 
ATOM     14  O   UNL     1       6.664 -35.013  13.265  1.00  0.00    -0.299 OA
BRANCH  13  15
ATOM     15  C   UNL     1       7.968 -33.268  14.141  1.00  0.00     0.106 CG0
ATOM     16  G   UNL     1       9.479 -33.248  14.009  1.00  0.00     0.000 G0
ENDBRANCH  13  15
ENDBRANCH  12  13
BRANCH  12  17
ATOM     17  C   UNL     1       6.525 -36.625  15.609  1.00  0.00    -0.006 C 
ATOM     18  C   UNL     1       6.545 -37.091  17.073  1.00  0.00     0.008 C 
ATOM     19  C   UNL     1       6.448 -37.838  14.666  1.00  0.00     0.008 C 
ENDBRANCH  12  17
ENDBRANCH  11  12
ENDBRANCH   1  11
TORSDOF 1
ENDMDL
