MODEL 1
REMARK VINA RESULT:    -4.233      0.000      0.000
REMARK INTER + INTRA:          -7.293
REMARK INTER:                  -6.707
REMARK INTRA:                  -0.586
REMARK UNBOUND:                -0.586
REMARK SMILES CCCCCCCCCCCC(=O)[O-]
REMARK SMILES IDX 7 1 8 2 9 3 10 4 11 5 12 6 13 7 14 8 6 9 5 10 4 11 3 12 2 13
REMARK SMILES IDX 1 14
REMARK H PARENT
REMARK Flexibility Score: inf
ROOT
ATOM      1  C   UNL     1       1.187   1.099   8.687  1.00  0.00     0.000 C 
ENDROOT
BRANCH   1   2
ATOM      2  C   UNL     1       1.689   2.391   8.020  1.00  0.00     0.000 C 
BRANCH   2   3
ATOM      3  C   UNL     1       0.639   3.511   7.895  1.00  0.00     0.000 C 
BRANCH   3   4
ATOM      4  C   UNL     1       0.713   4.253   6.552  1.00  0.00     0.006 C 
BRANCH   4   5
ATOM      5  C   UNL     1      -0.166   5.508   6.572  1.00  0.00     0.053 C 
BRANCH   5   6
ATOM      6  C   UNL     1      -0.604   5.862   5.185  1.00  0.00     0.041 C 
ATOM      7  O   UNL     1      -1.555   6.668   5.008  1.00  0.00    -0.550 OA
ATOM      8  O   UNL     1       0.006   5.264   4.089  1.00  0.00    -0.550 OA
ENDBRANCH   5   6
ENDBRANCH   4   5
ENDBRANCH   3   4
ENDBRANCH   2   3
ENDBRANCH   1   2
BRANCH   1   9
ATOM      9  C   UNL     1       1.473  -0.157   7.850  1.00  0.00     0.000 C 
BRANCH   9  10
ATOM     10  C   UNL     1       1.498   0.174   6.352  1.00  0.00    -0.000 C 
BRANCH  10  11
ATOM     11  C   UNL     1       1.278  -1.089   5.506  1.00  0.00    -0.000 C 
BRANCH  11  12
ATOM     12  C   UNL     1       1.618  -2.385   6.264  1.00  0.00    -0.000 C 
BRANCH  12  13
ATOM     13  C   UNL     1       2.997  -2.983   5.936  1.00  0.00    -0.003 C 
ATOM     14  C   UNL     1       3.624  -2.387   4.676  1.00  0.00     0.004 C 
ENDBRANCH  12  13
ENDBRANCH  11  12
ENDBRANCH  10  11
ENDBRANCH   9  10
ENDBRANCH   1   9
TORSDOF 10
ENDMDL
MODEL 2
REMARK VINA RESULT:    -4.205      5.479      7.666
REMARK INTER + INTRA:          -7.249
REMARK INTER:                  -6.600
REMARK INTRA:                  -0.649
REMARK UNBOUND:                -0.586
REMARK SMILES CCCCCCCCCCCC(=O)[O-]
REMARK SMILES IDX 7 1 8 2 9 3 10 4 11 5 12 6 13 7 14 8 6 9 5 10 4 11 3 12 2 13
REMARK SMILES IDX 1 14
REMARK H PARENT
REMARK Flexibility Score: inf
ROOT
ATOM      1  C   UNL     1      -1.916  -3.012   4.331  1.00  0.00     0.000 C 
ENDROOT
BRANCH   1   2
ATOM      2  C   UNL     1      -1.729  -2.569   5.793  1.00  0.00     0.000 C 
BRANCH   2   3
ATOM      3  C   UNL     1      -0.266  -2.399   6.241  1.00  0.00     0.000 C 
BRANCH   3   4
ATOM      4  C   UNL     1       0.594  -1.659   5.205  1.00  0.00     0.006 C 
BRANCH   4   5
ATOM      5  C   UNL     1       1.790  -0.974   5.876  1.00  0.00     0.053 C 
BRANCH   5   6
ATOM      6  C   UNL     1       3.065  -1.660   5.500  1.00  0.00     0.041 C 
ATOM      7  O   UNL     1       3.124  -2.356   4.452  1.00  0.00    -0.550 OA
ATOM      8  O   UNL     1       4.174  -1.571   6.332  1.00  0.00    -0.550 OA
ENDBRANCH   5   6
ENDBRANCH   4   5
ENDBRANCH   3   4
ENDBRANCH   2   3
ENDBRANCH   1   2
BRANCH   1   9
ATOM      9  C   UNL     1      -2.776  -2.036   3.514  1.00  0.00     0.000 C 
BRANCH   9  10
ATOM     10  C   UNL     1      -3.704  -1.225   4.427  1.00  0.00    -0.000 C 
BRANCH  10  11
ATOM     11  C   UNL     1      -5.132  -1.791   4.402  1.00  0.00    -0.000 C 
BRANCH  11  12
ATOM     12  C   UNL     1      -5.933  -1.454   5.674  1.00  0.00    -0.000 C 
BRANCH  12  13
ATOM     13  C   UNL     1      -5.442  -0.212   6.436  1.00  0.00    -0.003 C 
ATOM     14  C   UNL     1      -6.554   0.493   7.212  1.00  0.00     0.004 C 
ENDBRANCH  12  13
ENDBRANCH  11  12
ENDBRANCH  10  11
ENDBRANCH   9  10
ENDBRANCH   1   9
TORSDOF 10
ENDMDL
MODEL 3
REMARK VINA RESULT:    -4.176      0.809      1.339
REMARK INTER + INTRA:          -7.203
REMARK INTER:                  -6.724
REMARK INTRA:                  -0.480
REMARK UNBOUND:                -0.586
REMARK SMILES CCCCCCCCCCCC(=O)[O-]
REMARK SMILES IDX 7 1 8 2 9 3 10 4 11 5 12 6 13 7 14 8 6 9 5 10 4 11 3 12 2 13
REMARK SMILES IDX 1 14
REMARK H PARENT
REMARK Flexibility Score: inf
ROOT
ATOM      1  C   UNL     1       1.740   1.558   7.514  1.00  0.00     0.000 C 
ENDROOT
BRANCH   1   2
ATOM      2  C   UNL     1       1.518   2.896   6.788  1.00  0.00     0.000 C 
BRANCH   2   3
ATOM      3  C   UNL     1       0.597   3.890   7.520  1.00  0.00     0.000 C 
BRANCH   3   4
ATOM      4  C   UNL     1       0.700   5.319   6.968  1.00  0.00     0.006 C 
BRANCH   4   5
ATOM      5  C   UNL     1      -0.670   5.828   6.507  1.00  0.00     0.053 C 
BRANCH   5   6
ATOM      6  C   UNL     1      -0.668   6.072   5.031  1.00  0.00     0.041 C 
ATOM      7  O   UNL     1      -0.077   5.273   4.257  1.00  0.00    -0.550 OA
ATOM      8  O   UNL     1      -1.278   7.209   4.513  1.00  0.00    -0.550 OA
ENDBRANCH   5   6
ENDBRANCH   4   5
ENDBRANCH   3   4
ENDBRANCH   2   3
ENDBRANCH   1   2
BRANCH   1   9
ATOM      9  C   UNL     1       1.519   0.340   6.604  1.00  0.00     0.000 C 
BRANCH   9  10
ATOM     10  C   UNL     1       1.131  -0.896   7.425  1.00  0.00    -0.000 C 
BRANCH  10  11
ATOM     11  C   UNL     1       1.063  -2.148   6.537  1.00  0.00    -0.000 C 
BRANCH  11  12
ATOM     12  C   UNL     1       1.858  -1.997   5.227  1.00  0.00    -0.000 C 
BRANCH  12  13
ATOM     13  C   UNL     1       3.175  -2.788   5.175  1.00  0.00    -0.003 C 
ATOM     14  C   UNL     1       4.341  -1.975   4.615  1.00  0.00     0.004 C 
ENDBRANCH  12  13
ENDBRANCH  11  12
ENDBRANCH  10  11
ENDBRANCH   9  10
ENDBRANCH   1   9
TORSDOF 10
ENDMDL
MODEL 4
REMARK VINA RESULT:    -4.114      1.169      1.999
REMARK INTER + INTRA:          -7.105
REMARK INTER:                  -6.639
REMARK INTRA:                  -0.466
REMARK UNBOUND:                -0.586
REMARK SMILES CCCCCCCCCCCC(=O)[O-]
REMARK SMILES IDX 7 1 8 2 9 3 10 4 11 5 12 6 13 7 14 8 6 9 5 10 4 11 3 12 2 13
REMARK SMILES IDX 1 14
REMARK H PARENT
REMARK Flexibility Score: inf
ROOT
ATOM      1  C   UNL     1       1.881   2.458   7.548  1.00  0.00     0.000 C 
ENDROOT
BRANCH   1   2
ATOM      2  C   UNL     1       1.005   3.037   8.673  1.00  0.00     0.000 C 
BRANCH   2   3
ATOM      3  C   UNL     1       0.080   4.192   8.250  1.00  0.00     0.000 C 
BRANCH   3   4
ATOM      4  C   UNL     1       0.398   4.730   6.847  1.00  0.00     0.006 C 
BRANCH   4   5
ATOM      5  C   UNL     1      -0.542   5.882   6.477  1.00  0.00     0.053 C 
BRANCH   5   6
ATOM      6  C   UNL     1      -0.554   6.093   4.996  1.00  0.00     0.041 C 
ATOM      7  O   UNL     1      -0.038   5.236   4.231  1.00  0.00    -0.550 OA
ATOM      8  O   UNL     1      -1.092   7.258   4.463  1.00  0.00    -0.550 OA
ENDBRANCH   5   6
ENDBRANCH   4   5
ENDBRANCH   3   4
ENDBRANCH   2   3
ENDBRANCH   1   2
BRANCH   1   9
ATOM      9  C   UNL     1       1.949   0.923   7.571  1.00  0.00     0.000 C 
BRANCH   9  10
ATOM     10  C   UNL     1       1.447   0.332   6.248  1.00  0.00    -0.000 C 
BRANCH  10  11
ATOM     11  C   UNL     1       2.095  -1.034   5.975  1.00  0.00    -0.000 C 
BRANCH  11  12
ATOM     12  C   UNL     1       1.190  -1.975   5.158  1.00  0.00    -0.000 C 
BRANCH  12  13
ATOM     13  C   UNL     1      -0.145  -2.333   5.833  1.00  0.00    -0.003 C 
ATOM     14  C   UNL     1      -1.343  -2.211   4.892  1.00  0.00     0.004 C 
ENDBRANCH  12  13
ENDBRANCH  11  12
ENDBRANCH  10  11
ENDBRANCH   9  10
ENDBRANCH   1   9
TORSDOF 10
ENDMDL
MODEL 5
REMARK VINA RESULT:    -4.016      4.974      6.858
REMARK INTER + INTRA:          -6.949
REMARK INTER:                  -5.854
REMARK INTRA:                  -1.095
REMARK UNBOUND:                -0.586
REMARK SMILES CCCCCCCCCCCC(=O)[O-]
REMARK SMILES IDX 7 1 8 2 9 3 10 4 11 5 12 6 13 7 14 8 6 9 5 10 4 11 3 12 2 13
REMARK SMILES IDX 1 14
REMARK H PARENT
REMARK Flexibility Score: inf
ROOT
ATOM      1  C   UNL     1      -2.576  -3.323   7.330  1.00  0.00     0.000 C 
ENDROOT
BRANCH   1   2
ATOM      2  C   UNL     1      -1.231  -2.580   7.241  1.00  0.00     0.000 C 
BRANCH   2   3
ATOM      3  C   UNL     1      -0.355  -2.962   6.034  1.00  0.00     0.000 C 
BRANCH   3   4
ATOM      4  C   UNL     1       0.235  -1.740   5.313  1.00  0.00     0.006 C 
BRANCH   4   5
ATOM      5  C   UNL     1       1.282  -1.042   6.187  1.00  0.00     0.053 C 
BRANCH   5   6
ATOM      6  C   UNL     1       2.661  -1.458   5.784  1.00  0.00     0.041 C 
ATOM      7  O   UNL     1       3.655  -1.114   6.478  1.00  0.00    -0.550 OA
ATOM      8  O   UNL     1       2.855  -2.184   4.616  1.00  0.00    -0.550 OA
ENDBRANCH   5   6
ENDBRANCH   4   5
ENDBRANCH   3   4
ENDBRANCH   2   3
ENDBRANCH   1   2
BRANCH   1   9
ATOM      9  C   UNL     1      -3.767  -2.379   7.555  1.00  0.00     0.000 C 
BRANCH   9  10
ATOM     10  C   UNL     1      -4.712  -2.390   6.346  1.00  0.00    -0.000 C 
BRANCH  10  11
ATOM     11  C   UNL     1      -4.675  -1.043   5.607  1.00  0.00    -0.000 C 
BRANCH  11  12
ATOM     12  C   UNL     1      -4.376  -1.193   4.104  1.00  0.00    -0.000 C 
BRANCH  12  13
ATOM     13  C   UNL     1      -2.943  -1.641   3.773  1.00  0.00    -0.003 C 
ATOM     14  C   UNL     1      -2.870  -3.074   3.246  1.00  0.00     0.004 C 
ENDBRANCH  12  13
ENDBRANCH  11  12
ENDBRANCH  10  11
ENDBRANCH   9  10
ENDBRANCH   1   9
TORSDOF 10
ENDMDL
MODEL 6
REMARK VINA RESULT:    -3.992      7.650     10.112
REMARK INTER + INTRA:          -6.912
REMARK INTER:                  -6.101
REMARK INTRA:                  -0.811
REMARK UNBOUND:                -0.586
REMARK SMILES CCCCCCCCCCCC(=O)[O-]
REMARK SMILES IDX 7 1 8 2 9 3 10 4 11 5 12 6 13 7 14 8 6 9 5 10 4 11 3 12 2 13
REMARK SMILES IDX 1 14
REMARK H PARENT
REMARK Flexibility Score: inf
ROOT
ATOM      1  C   UNL     1      -2.669  -4.010   2.428  1.00  0.00     0.000 C 
ENDROOT
BRANCH   1   2
ATOM      2  C   UNL     1      -3.360  -5.215   1.768  1.00  0.00     0.000 C 
BRANCH   2   3
ATOM      3  C   UNL     1      -3.255  -5.266   0.232  1.00  0.00     0.000 C 
BRANCH   3   4
ATOM      4  C   UNL     1      -1.937  -4.682  -0.297  1.00  0.00     0.006 C 
BRANCH   4   5
ATOM      5  C   UNL     1      -1.838  -4.842  -1.817  1.00  0.00     0.053 C 
BRANCH   5   6
ATOM      6  C   UNL     1      -0.563  -4.248  -2.324  1.00  0.00     0.041 C 
ATOM      7  O   UNL     1      -0.590  -3.264  -3.109  1.00  0.00    -0.550 OA
ATOM      8  O   UNL     1       0.657  -4.812  -1.969  1.00  0.00    -0.550 OA
ENDBRANCH   5   6
ENDBRANCH   4   5
ENDBRANCH   3   4
ENDBRANCH   2   3
ENDBRANCH   1   2
BRANCH   1   9
ATOM      9  C   UNL     1      -2.502  -4.174   3.947  1.00  0.00     0.000 C 
BRANCH   9  10
ATOM     10  C   UNL     1      -2.401  -2.808   4.639  1.00  0.00    -0.000 C 
BRANCH  10  11
ATOM     11  C   UNL     1      -2.904  -1.686   3.718  1.00  0.00    -0.000 C 
BRANCH  11  12
ATOM     12  C   UNL     1      -4.161  -0.983   4.261  1.00  0.00    -0.000 C 
BRANCH  12  13
ATOM     13  C   UNL     1      -5.315  -1.926   4.641  1.00  0.00    -0.003 C 
ATOM     14  C   UNL     1      -6.024  -2.524   3.427  1.00  0.00     0.004 C 
ENDBRANCH  12  13
ENDBRANCH  11  12
ENDBRANCH  10  11
ENDBRANCH   9  10
ENDBRANCH   1   9
TORSDOF 10
ENDMDL
MODEL 7
REMARK VINA RESULT:    -3.974      5.256      7.079
REMARK INTER + INTRA:          -6.883
REMARK INTER:                  -5.597
REMARK INTRA:                  -1.286
REMARK UNBOUND:                -0.586
REMARK SMILES CCCCCCCCCCCC(=O)[O-]
REMARK SMILES IDX 7 1 8 2 9 3 10 4 11 5 12 6 13 7 14 8 6 9 5 10 4 11 3 12 2 13
REMARK SMILES IDX 1 14
REMARK H PARENT
REMARK Flexibility Score: inf
ROOT
ATOM      1  C   UNL     1      -4.402  -3.137   7.077  1.00  0.00     0.000 C 
ENDROOT
BRANCH   1   2
ATOM      2  C   UNL     1      -2.942  -2.965   7.533  1.00  0.00     0.000 C 
BRANCH   2   3
ATOM      3  C   UNL     1      -1.884  -3.455   6.527  1.00  0.00     0.000 C 
BRANCH   3   4
ATOM      4  C   UNL     1      -0.565  -2.672   6.619  1.00  0.00     0.006 C 
BRANCH   4   5
ATOM      5  C   UNL     1      -0.217  -2.027   5.274  1.00  0.00     0.053 C 
BRANCH   5   6
ATOM      6  C   UNL     1       1.147  -1.415   5.325  1.00  0.00     0.041 C 
ATOM      7  O   UNL     1       1.307  -0.261   5.804  1.00  0.00    -0.550 OA
ATOM      8  O   UNL     1       2.237  -2.099   4.799  1.00  0.00    -0.550 OA
ENDBRANCH   5   6
ENDBRANCH   4   5
ENDBRANCH   3   4
ENDBRANCH   2   3
ENDBRANCH   1   2
BRANCH   1   9
ATOM      9  C   UNL     1      -5.099  -1.800   6.783  1.00  0.00     0.000 C 
BRANCH   9  10
ATOM     10  C   UNL     1      -5.401  -1.656   5.286  1.00  0.00    -0.000 C 
BRANCH  10  11
ATOM     11  C   UNL     1      -4.362  -0.756   4.599  1.00  0.00    -0.000 C 
BRANCH  11  12
ATOM     12  C   UNL     1      -3.353  -1.548   3.748  1.00  0.00    -0.000 C 
BRANCH  12  13
ATOM     13  C   UNL     1      -3.799  -2.972   3.375  1.00  0.00    -0.003 C 
ATOM     14  C   UNL     1      -2.688  -3.797   2.726  1.00  0.00     0.004 C 
ENDBRANCH  12  13
ENDBRANCH  11  12
ENDBRANCH  10  11
ENDBRANCH   9  10
ENDBRANCH   1   9
TORSDOF 10
ENDMDL
MODEL 8
REMARK VINA RESULT:    -3.962      2.160      3.101
REMARK INTER + INTRA:          -6.864
REMARK INTER:                  -6.292
REMARK INTRA:                  -0.572
REMARK UNBOUND:                -0.586
REMARK SMILES CCCCCCCCCCCC(=O)[O-]
REMARK SMILES IDX 7 1 8 2 9 3 10 4 11 5 12 6 13 7 14 8 6 9 5 10 4 11 3 12 2 13
REMARK SMILES IDX 1 14
REMARK H PARENT
REMARK Flexibility Score: inf
ROOT
ATOM      1  C   UNL     1       1.853  -0.344   7.038  1.00  0.00     0.000 C 
ENDROOT
BRANCH   1   2
ATOM      2  C   UNL     1       1.470   0.873   7.898  1.00  0.00     0.000 C 
BRANCH   2   3
ATOM      3  C   UNL     1       2.104   2.206   7.460  1.00  0.00     0.000 C 
BRANCH   3   4
ATOM      4  C   UNL     1       1.062   3.253   7.039  1.00  0.00     0.006 C 
BRANCH   4   5
ATOM      5  C   UNL     1       1.429   3.878   5.689  1.00  0.00     0.053 C 
BRANCH   5   6
ATOM      6  C   UNL     1       0.596   5.094   5.431  1.00  0.00     0.041 C 
ATOM      7  O   UNL     1       0.440   5.958   6.334  1.00  0.00    -0.550 OA
ATOM      8  O   UNL     1      -0.048   5.249   4.210  1.00  0.00    -0.550 OA
ENDBRANCH   5   6
ENDBRANCH   4   5
ENDBRANCH   3   4
ENDBRANCH   2   3
ENDBRANCH   1   2
BRANCH   1   9
ATOM      9  C   UNL     1       1.170  -0.344   5.662  1.00  0.00     0.000 C 
BRANCH   9  10
ATOM     10  C   UNL     1       0.868  -1.774   5.198  1.00  0.00    -0.000 C 
BRANCH  10  11
ATOM     11  C   UNL     1      -0.306  -2.372   5.987  1.00  0.00    -0.000 C 
BRANCH  11  12
ATOM     12  C   UNL     1      -1.477  -2.804   5.085  1.00  0.00    -0.000 C 
BRANCH  12  13
ATOM     13  C   UNL     1      -1.990  -1.715   4.127  1.00  0.00    -0.003 C 
ATOM     14  C   UNL     1      -3.486  -1.443   4.275  1.00  0.00     0.004 C 
ENDBRANCH  12  13
ENDBRANCH  11  12
ENDBRANCH  10  11
ENDBRANCH   9  10
ENDBRANCH   1   9
TORSDOF 10
ENDMDL
MODEL 9
REMARK VINA RESULT:    -3.915      4.821      6.174
REMARK INTER + INTRA:          -6.789
REMARK INTER:                  -6.060
REMARK INTRA:                  -0.729
REMARK UNBOUND:                -0.586
REMARK SMILES CCCCCCCCCCCC(=O)[O-]
REMARK SMILES IDX 7 1 8 2 9 3 10 4 11 5 12 6 13 7 14 8 6 9 5 10 4 11 3 12 2 13
REMARK SMILES IDX 1 14
REMARK H PARENT
REMARK Flexibility Score: inf
ROOT
ATOM      1  C   UNL     1      -1.973  -3.013   5.701  1.00  0.00     0.000 C 
ENDROOT
BRANCH   1   2
ATOM      2  C   UNL     1      -1.925  -3.035   4.164  1.00  0.00     0.000 C 
BRANCH   2   3
ATOM      3  C   UNL     1      -3.050  -2.250   3.465  1.00  0.00     0.000 C 
BRANCH   3   4
ATOM      4  C   UNL     1      -3.636  -1.135   4.343  1.00  0.00     0.006 C 
BRANCH   4   5
ATOM      5  C   UNL     1      -5.078  -1.460   4.750  1.00  0.00     0.053 C 
BRANCH   5   6
ATOM      6  C   UNL     1      -5.320  -1.069   6.174  1.00  0.00     0.041 C 
ATOM      7  O   UNL     1      -5.514   0.138   6.475  1.00  0.00    -0.550 OA
ATOM      8  O   UNL     1      -5.283  -2.032   7.175  1.00  0.00    -0.550 OA
ENDBRANCH   5   6
ENDBRANCH   4   5
ENDBRANCH   3   4
ENDBRANCH   2   3
ENDBRANCH   1   2
BRANCH   1   9
ATOM      9  C   UNL     1      -0.706  -2.414   6.332  1.00  0.00     0.000 C 
BRANCH   9  10
ATOM     10  C   UNL     1       0.283  -1.959   5.251  1.00  0.00    -0.000 C 
BRANCH  10  11
ATOM     11  C   UNL     1       1.063  -0.717   5.707  1.00  0.00    -0.000 C 
BRANCH  11  12
ATOM     12  C   UNL     1       2.496  -1.044   6.166  1.00  0.00    -0.000 C 
BRANCH  12  13
ATOM     13  C   UNL     1       3.033  -2.404   5.688  1.00  0.00    -0.003 C 
ATOM     14  C   UNL     1       4.005  -2.286   4.515  1.00  0.00     0.004 C 
ENDBRANCH  12  13
ENDBRANCH  11  12
ENDBRANCH  10  11
ENDBRANCH   9  10
ENDBRANCH   1   9
TORSDOF 10
ENDMDL
