MODEL 1
REMARK VINA RESULT:    -5.415      0.000      0.000
REMARK INTER + INTRA:          -6.552
REMARK INTER:                  -6.523
REMARK INTRA:                  -0.029
REMARK UNBOUND:                -0.029
REMARK SMILES O=c1c(O)c(-c2ccc(O)c(O)c2)oc2cc(O)cc(O)c12
REMARK SMILES IDX 5 1 3 2 2 3 1 4 22 5 20 6 19 7 17 8 16 9 15 10 14 11 6 12
REMARK SMILES IDX 7 13 8 14 9 15 13 16 11 17 10 18 12 20 4 22 21 24 18 26
REMARK H PARENT 10 19 12 21 4 23 21 25 18 27
REMARK Flexibility Score: inf
ROOT
ATOM      1  C   UNL     1     -13.687  -3.735   2.473  1.00  0.00     0.180 A 
ATOM      2  C   UNL     1     -13.945  -3.310   1.158  1.00  0.00     0.208 A 
ATOM      3  C   UNL     1     -13.973  -1.934   0.879  1.00  0.00     0.238 A 
ATOM      4  O   UNL     1     -14.151  -1.562  -0.310  1.00  0.00    -0.285 OA
ATOM      5  C   UNL     1     -13.761  -1.001   1.921  1.00  0.00     0.111 A 
ATOM      6  C   UNL     1     -13.808   0.417   1.761  1.00  0.00     0.134 A 
ATOM      7  C   UNL     1     -13.453   1.246   2.832  1.00  0.00     0.093 A 
ATOM      8  C   UNL     1     -13.117   0.711   4.076  1.00  0.00     0.123 A 
ATOM      9  C   UNL     1     -13.125  -0.672   4.260  1.00  0.00     0.094 A 
ATOM     10  C   UNL     1     -13.440  -1.526   3.200  1.00  0.00     0.146 A 
ATOM     11  O   UNL     1     -13.426  -2.835   3.414  1.00  0.00    -0.452 OA
ENDROOT
BRANCH   1  12
ATOM     12  C   UNL     1     -13.666  -5.167   2.848  1.00  0.00     0.025 A 
ATOM     13  C   UNL     1     -12.600  -5.663   3.617  1.00  0.00     0.016 A 
ATOM     14  C   UNL     1     -12.571  -7.006   4.001  1.00  0.00     0.051 A 
ATOM     15  C   UNL     1     -13.611  -7.869   3.634  1.00  0.00     0.157 A 
ATOM     16  C   UNL     1     -14.719  -6.031   2.500  1.00  0.00     0.062 A 
ATOM     17  C   UNL     1     -14.690  -7.380   2.886  1.00  0.00     0.158 A 
BRANCH  15  18
ATOM     18  O   UNL     1     -13.585  -9.210   4.013  1.00  0.00    -0.504 OA
ATOM     19  H   UNL     1     -13.717  -9.490   4.978  1.00  0.00     0.293 HD
ENDBRANCH  15  18
BRANCH  17  20
ATOM     20  O   UNL     1     -15.731  -8.237   2.534  1.00  0.00    -0.504 OA
ATOM     21  H   UNL     1     -15.734  -8.735   1.652  1.00  0.00     0.293 HD
ENDBRANCH  17  20
ENDBRANCH   1  12
BRANCH   2  22
ATOM     22  O   UNL     1     -14.130  -4.250   0.139  1.00  0.00    -0.502 OA
ATOM     23  H   UNL     1     -14.372  -3.985  -0.808  1.00  0.00     0.293 HD
ENDBRANCH   2  22
BRANCH   6  24
ATOM     24  O   UNL     1     -14.220   1.057   0.588  1.00  0.00    -0.507 OA
ATOM     25  H   UNL     1     -14.642   1.973   0.551  1.00  0.00     0.293 HD
ENDBRANCH   6  24
BRANCH   8  26
ATOM     26  O   UNL     1     -12.784   1.565   5.125  1.00  0.00    -0.508 OA
ATOM     27  H   UNL     1     -12.414   1.212   5.999  1.00  0.00     0.293 HD
ENDBRANCH   8  26
TORSDOF 6
ENDMDL
MODEL 2
REMARK VINA RESULT:    -5.296      1.733      3.464
REMARK INTER + INTRA:          -6.408
REMARK INTER:                  -6.578
REMARK INTRA:                   0.170
REMARK UNBOUND:                -0.029
REMARK SMILES O=c1c(O)c(-c2ccc(O)c(O)c2)oc2cc(O)cc(O)c12
REMARK SMILES IDX 5 1 3 2 2 3 1 4 22 5 20 6 19 7 17 8 16 9 15 10 14 11 6 12
REMARK SMILES IDX 7 13 8 14 9 15 13 16 11 17 10 18 12 20 4 22 21 24 18 26
REMARK H PARENT 10 19 12 21 4 23 21 25 18 27
REMARK Flexibility Score: inf
ROOT
ATOM      1  C   UNL     1     -13.636  -1.815   2.407  1.00  0.00     0.180 A 
ATOM      2  C   UNL     1     -13.269  -0.871   3.381  1.00  0.00     0.208 A 
ATOM      3  C   UNL     1     -13.381   0.496   3.081  1.00  0.00     0.238 A 
ATOM      4  O   UNL     1     -13.101   1.337   3.976  1.00  0.00    -0.285 OA
ATOM      5  C   UNL     1     -13.841   0.902   1.805  1.00  0.00     0.111 A 
ATOM      6  C   UNL     1     -13.955   2.259   1.379  1.00  0.00     0.134 A 
ATOM      7  C   UNL     1     -14.546   2.548   0.142  1.00  0.00     0.093 A 
ATOM      8  C   UNL     1     -14.967   1.527  -0.710  1.00  0.00     0.123 A 
ATOM      9  C   UNL     1     -14.807   0.195  -0.328  1.00  0.00     0.094 A 
ATOM     10  C   UNL     1     -14.254  -0.123   0.915  1.00  0.00     0.146 A 
ATOM     11  O   UNL     1     -14.128  -1.403   1.244  1.00  0.00    -0.452 OA
ENDROOT
BRANCH   1  12
ATOM     12  C   UNL     1     -13.523  -3.272   2.641  1.00  0.00     0.025 A 
ATOM     13  C   UNL     1     -12.410  -3.775   3.335  1.00  0.00     0.016 A 
ATOM     14  C   UNL     1     -12.292  -5.145   3.586  1.00  0.00     0.051 A 
ATOM     15  C   UNL     1     -13.291  -6.029   3.159  1.00  0.00     0.157 A 
ATOM     16  C   UNL     1     -14.533  -4.161   2.234  1.00  0.00     0.062 A 
ATOM     17  C   UNL     1     -14.416  -5.536   2.486  1.00  0.00     0.158 A 
BRANCH  15  18
ATOM     18  O   UNL     1     -13.177  -7.396   3.405  1.00  0.00    -0.504 OA
ATOM     19  H   UNL     1     -13.727  -8.074   2.890  1.00  0.00     0.293 HD
ENDBRANCH  15  18
BRANCH  17  20
ATOM     20  O   UNL     1     -15.416  -6.417   2.075  1.00  0.00    -0.504 OA
ATOM     21  H   UNL     1     -15.442  -6.787   1.132  1.00  0.00     0.293 HD
ENDBRANCH  17  20
ENDBRANCH   1  12
BRANCH   2  22
ATOM     22  O   UNL     1     -12.837  -1.292   4.642  1.00  0.00    -0.502 OA
ATOM     23  H   UNL     1     -12.957  -0.728   5.475  1.00  0.00     0.293 HD
ENDBRANCH   2  22
BRANCH   6  24
ATOM     24  O   UNL     1     -13.482   3.351   2.113  1.00  0.00    -0.507 OA
ATOM     25  H   UNL     1     -13.673   4.317   1.894  1.00  0.00     0.293 HD
ENDBRANCH   6  24
BRANCH   8  26
ATOM     26  O   UNL     1     -15.538   1.850  -1.939  1.00  0.00    -0.508 OA
ATOM     27  H   UNL     1     -15.043   1.697  -2.810  1.00  0.00     0.293 HD
ENDBRANCH   8  26
TORSDOF 6
ENDMDL
MODEL 3
REMARK VINA RESULT:    -5.289      2.133      7.510
REMARK INTER + INTRA:          -6.400
REMARK INTER:                  -6.506
REMARK INTRA:                   0.106
REMARK UNBOUND:                -0.029
REMARK SMILES O=c1c(O)c(-c2ccc(O)c(O)c2)oc2cc(O)cc(O)c12
REMARK SMILES IDX 5 1 3 2 2 3 1 4 22 5 20 6 19 7 17 8 16 9 15 10 14 11 6 12
REMARK SMILES IDX 7 13 8 14 9 15 13 16 11 17 10 18 12 20 4 22 21 24 18 26
REMARK H PARENT 10 19 12 21 4 23 21 25 18 27
REMARK Flexibility Score: inf
ROOT
ATOM      1  C   UNL     1     -13.946  -6.025   2.778  1.00  0.00     0.180 A 
ATOM      2  C   UNL     1     -15.283  -6.365   2.509  1.00  0.00     0.208 A 
ATOM      3  C   UNL     1     -15.695  -7.696   2.679  1.00  0.00     0.238 A 
ATOM      4  O   UNL     1     -16.906  -7.984   2.488  1.00  0.00    -0.285 OA
ATOM      5  C   UNL     1     -14.762  -8.674   3.099  1.00  0.00     0.111 A 
ATOM      6  C   UNL     1     -15.059 -10.060   3.264  1.00  0.00     0.134 A 
ATOM      7  C   UNL     1     -14.093 -10.914   3.810  1.00  0.00     0.093 A 
ATOM      8  C   UNL     1     -12.820 -10.447   4.135  1.00  0.00     0.123 A 
ATOM      9  C   UNL     1     -12.499  -9.105   3.922  1.00  0.00     0.094 A 
ATOM     10  C   UNL     1     -13.454  -8.222   3.413  1.00  0.00     0.146 A 
ATOM     11  O   UNL     1     -13.112  -6.952   3.235  1.00  0.00    -0.452 OA
ENDROOT
BRANCH   1  12
ATOM     12  C   UNL     1     -13.432  -4.648   2.598  1.00  0.00     0.025 A 
ATOM     13  C   UNL     1     -12.498  -4.135   3.513  1.00  0.00     0.016 A 
ATOM     14  C   UNL     1     -11.984  -2.846   3.351  1.00  0.00     0.051 A 
ATOM     15  C   UNL     1     -12.384  -2.058   2.265  1.00  0.00     0.157 A 
ATOM     16  C   UNL     1     -13.815  -3.861   1.498  1.00  0.00     0.062 A 
ATOM     17  C   UNL     1     -13.298  -2.567   1.334  1.00  0.00     0.158 A 
BRANCH  15  18
ATOM     18  O   UNL     1     -11.875  -0.771   2.100  1.00  0.00    -0.504 OA
ATOM     19  H   UNL     1     -10.926  -0.614   1.781  1.00  0.00     0.293 HD
ENDBRANCH  15  18
BRANCH  17  20
ATOM     20  O   UNL     1     -13.684  -1.786   0.246  1.00  0.00    -0.504 OA
ATOM     21  H   UNL     1     -13.695  -2.158  -0.696  1.00  0.00     0.293 HD
ENDBRANCH  17  20
ENDBRANCH   1  12
BRANCH   2  22
ATOM     22  O   UNL     1     -16.194  -5.380   2.116  1.00  0.00    -0.502 OA
ATOM     23  H   UNL     1     -15.955  -4.650   1.457  1.00  0.00     0.293 HD
ENDBRANCH   2  22
BRANCH   6  24
ATOM     24  O   UNL     1     -16.269 -10.650   2.886  1.00  0.00    -0.507 OA
ATOM     25  H   UNL     1     -16.586 -10.750   1.933  1.00  0.00     0.293 HD
ENDBRANCH   6  24
BRANCH   8  26
ATOM     26  O   UNL     1     -11.877 -11.327   4.662  1.00  0.00    -0.508 OA
ATOM     27  H   UNL     1     -11.773 -11.456   5.661  1.00  0.00     0.293 HD
ENDBRANCH   8  26
TORSDOF 6
ENDMDL
MODEL 4
REMARK VINA RESULT:    -4.981      1.282      1.659
REMARK INTER + INTRA:          -6.029
REMARK INTER:                  -6.026
REMARK INTRA:                  -0.003
REMARK UNBOUND:                -0.029
REMARK SMILES O=c1c(O)c(-c2ccc(O)c(O)c2)oc2cc(O)cc(O)c12
REMARK SMILES IDX 5 1 3 2 2 3 1 4 22 5 20 6 19 7 17 8 16 9 15 10 14 11 6 12
REMARK SMILES IDX 7 13 8 14 9 15 13 16 11 17 10 18 12 20 4 22 21 24 18 26
REMARK H PARENT 10 19 12 21 4 23 21 25 18 27
REMARK Flexibility Score: inf
ROOT
ATOM      1  C   UNL     1     -13.790  -2.147   2.155  1.00  0.00     0.180 A 
ATOM      2  C   UNL     1     -14.141  -1.745   0.854  1.00  0.00     0.208 A 
ATOM      3  C   UNL     1     -14.325  -0.379   0.589  1.00  0.00     0.238 A 
ATOM      4  O   UNL     1     -14.586  -0.021  -0.589  1.00  0.00    -0.285 OA
ATOM      5  C   UNL     1     -14.173   0.567   1.631  1.00  0.00     0.111 A 
ATOM      6  C   UNL     1     -14.375   1.973   1.485  1.00  0.00     0.134 A 
ATOM      7  C   UNL     1     -14.069   2.829   2.550  1.00  0.00     0.093 A 
ATOM      8  C   UNL     1     -13.632   2.326   3.776  1.00  0.00     0.123 A 
ATOM      9  C   UNL     1     -13.488   0.949   3.948  1.00  0.00     0.094 A 
ATOM     10  C   UNL     1     -13.750   0.073   2.892  1.00  0.00     0.146 A 
ATOM     11  O   UNL     1     -13.590  -1.229   3.094  1.00  0.00    -0.452 OA
ENDROOT
BRANCH   1  12
ATOM     12  C   UNL     1     -13.604  -3.570   2.516  1.00  0.00     0.025 A 
ATOM     13  C   UNL     1     -12.483  -3.949   3.274  1.00  0.00     0.016 A 
ATOM     14  C   UNL     1     -12.299  -5.284   3.644  1.00  0.00     0.051 A 
ATOM     15  C   UNL     1     -13.238  -6.255   3.276  1.00  0.00     0.157 A 
ATOM     16  C   UNL     1     -14.555  -4.546   2.168  1.00  0.00     0.062 A 
ATOM     17  C   UNL     1     -14.370  -5.885   2.540  1.00  0.00     0.158 A 
BRANCH  15  18
ATOM     18  O   UNL     1     -13.057  -7.588   3.642  1.00  0.00    -0.504 OA
ATOM     19  H   UNL     1     -12.133  -8.003   3.689  1.00  0.00     0.293 HD
ENDBRANCH  15  18
BRANCH  17  20
ATOM     20  O   UNL     1     -15.311  -6.852   2.188  1.00  0.00    -0.504 OA
ATOM     21  H   UNL     1     -15.622  -7.554   2.848  1.00  0.00     0.293 HD
ENDBRANCH  17  20
ENDBRANCH   1  12
BRANCH   2  22
ATOM     22  O   UNL     1     -14.265  -2.694  -0.165  1.00  0.00    -0.502 OA
ATOM     23  H   UNL     1     -14.069  -2.479  -1.135  1.00  0.00     0.293 HD
ENDBRANCH   2  22
BRANCH   6  24
ATOM     24  O   UNL     1     -14.896   2.571   0.335  1.00  0.00    -0.507 OA
ATOM     25  H   UNL     1     -15.739   2.276  -0.136  1.00  0.00     0.293 HD
ENDBRANCH   6  24
BRANCH   8  26
ATOM     26  O   UNL     1     -13.352   3.206   4.819  1.00  0.00    -0.508 OA
ATOM     27  H   UNL     1     -12.786   2.925   5.611  1.00  0.00     0.293 HD
ENDBRANCH   8  26
TORSDOF 6
ENDMDL
MODEL 5
REMARK VINA RESULT:    -4.926      6.001      8.783
REMARK INTER + INTRA:          -5.963
REMARK INTER:                  -5.792
REMARK INTRA:                  -0.170
REMARK UNBOUND:                -0.029
REMARK SMILES O=c1c(O)c(-c2ccc(O)c(O)c2)oc2cc(O)cc(O)c12
REMARK SMILES IDX 5 1 3 2 2 3 1 4 22 5 20 6 19 7 17 8 16 9 15 10 14 11 6 12
REMARK SMILES IDX 7 13 8 14 9 15 13 16 11 17 10 18 12 20 4 22 21 24 18 26
REMARK H PARENT 10 19 12 21 4 23 21 25 18 27
REMARK Flexibility Score: inf
ROOT
ATOM      1  C   UNL     1     -13.809   3.084  -0.298  1.00  0.00     0.180 A 
ATOM      2  C   UNL     1     -14.563   1.970   0.110  1.00  0.00     0.208 A 
ATOM      3  C   UNL     1     -14.624   1.652   1.476  1.00  0.00     0.238 A 
ATOM      4  O   UNL     1     -15.344   0.686   1.841  1.00  0.00    -0.285 OA
ATOM      5  C   UNL     1     -13.916   2.440   2.415  1.00  0.00     0.111 A 
ATOM      6  C   UNL     1     -13.874   2.185   3.819  1.00  0.00     0.134 A 
ATOM      7  C   UNL     1     -13.250   3.106   4.670  1.00  0.00     0.093 A 
ATOM      8  C   UNL     1     -12.611   4.237   4.162  1.00  0.00     0.123 A 
ATOM      9  C   UNL     1     -12.596   4.465   2.786  1.00  0.00     0.094 A 
ATOM     10  C   UNL     1     -13.241   3.584   1.915  1.00  0.00     0.146 A 
ATOM     11  O   UNL     1     -13.211   3.843   0.614  1.00  0.00    -0.452 OA
ENDROOT
BRANCH   1  12
ATOM     12  C   UNL     1     -13.678   3.467  -1.722  1.00  0.00     0.025 A 
ATOM     13  C   UNL     1     -14.117   4.734  -2.139  1.00  0.00     0.016 A 
ATOM     14  C   UNL     1     -13.983   5.125  -3.474  1.00  0.00     0.051 A 
ATOM     15  C   UNL     1     -13.396   4.261  -4.407  1.00  0.00     0.157 A 
ATOM     16  C   UNL     1     -13.070   2.612  -2.658  1.00  0.00     0.062 A 
ATOM     17  C   UNL     1     -12.934   3.004  -3.998  1.00  0.00     0.158 A 
BRANCH  15  18
ATOM     18  O   UNL     1     -13.262   4.646  -5.740  1.00  0.00    -0.504 OA
ATOM     19  H   UNL     1     -14.072   4.804  -6.329  1.00  0.00     0.293 HD
ENDBRANCH  15  18
BRANCH  17  20
ATOM     20  O   UNL     1     -12.337   2.152  -4.926  1.00  0.00    -0.504 OA
ATOM     21  H   UNL     1     -12.532   1.158  -4.935  1.00  0.00     0.293 HD
ENDBRANCH  17  20
ENDBRANCH   1  12
BRANCH   2  22
ATOM     22  O   UNL     1     -15.273   1.218  -0.831  1.00  0.00    -0.502 OA
ATOM     23  H   UNL     1     -16.058   1.594  -1.347  1.00  0.00     0.293 HD
ENDBRANCH   2  22
BRANCH   6  24
ATOM     24  O   UNL     1     -14.400   1.039   4.420  1.00  0.00    -0.507 OA
ATOM     25  H   UNL     1     -13.855   0.341   4.904  1.00  0.00     0.293 HD
ENDBRANCH   6  24
BRANCH   8  26
ATOM     26  O   UNL     1     -11.987   5.125   5.036  1.00  0.00    -0.508 OA
ATOM     27  H   UNL     1     -12.400   5.369   5.928  1.00  0.00     0.293 HD
ENDBRANCH   8  26
TORSDOF 6
ENDMDL
MODEL 6
REMARK VINA RESULT:    -4.729      3.814      8.843
REMARK INTER + INTRA:          -5.726
REMARK INTER:                  -5.569
REMARK INTRA:                  -0.156
REMARK UNBOUND:                -0.029
REMARK SMILES O=c1c(O)c(-c2ccc(O)c(O)c2)oc2cc(O)cc(O)c12
REMARK SMILES IDX 5 1 3 2 2 3 1 4 22 5 20 6 19 7 17 8 16 9 15 10 14 11 6 12
REMARK SMILES IDX 7 13 8 14 9 15 13 16 11 17 10 18 12 20 4 22 21 24 18 26
REMARK H PARENT 10 19 12 21 4 23 21 25 18 27
REMARK Flexibility Score: inf
ROOT
ATOM      1  C   UNL     1     -13.447   2.693   0.153  1.00  0.00     0.180 A 
ATOM      2  C   UNL     1     -12.923   3.400   1.249  1.00  0.00     0.208 A 
ATOM      3  C   UNL     1     -12.857   2.767   2.500  1.00  0.00     0.238 A 
ATOM      4  O   UNL     1     -12.338   3.387   3.465  1.00  0.00    -0.285 OA
ATOM      5  C   UNL     1     -13.332   1.442   2.644  1.00  0.00     0.111 A 
ATOM      6  C   UNL     1     -13.351   0.717   3.874  1.00  0.00     0.134 A 
ATOM      7  C   UNL     1     -13.721  -0.634   3.875  1.00  0.00     0.093 A 
ATOM      8  C   UNL     1     -14.134  -1.268   2.703  1.00  0.00     0.123 A 
ATOM      9  C   UNL     1     -14.175  -0.552   1.506  1.00  0.00     0.094 A 
ATOM     10  C   UNL     1     -13.778   0.786   1.467  1.00  0.00     0.146 A 
ATOM     11  O   UNL     1     -13.822   1.428   0.306  1.00  0.00    -0.452 OA
ENDROOT
BRANCH   1  12
ATOM     12  C   UNL     1     -13.572   3.301  -1.190  1.00  0.00     0.025 A 
ATOM     13  C   UNL     1     -14.418   4.408  -1.371  1.00  0.00     0.016 A 
ATOM     14  C   UNL     1     -14.535   5.012  -2.626  1.00  0.00     0.051 A 
ATOM     15  C   UNL     1     -13.798   4.527  -3.714  1.00  0.00     0.157 A 
ATOM     16  C   UNL     1     -12.818   2.833  -2.281  1.00  0.00     0.062 A 
ATOM     17  C   UNL     1     -12.934   3.439  -3.540  1.00  0.00     0.158 A 
BRANCH  15  18
ATOM     18  O   UNL     1     -13.913   5.125  -4.968  1.00  0.00    -0.504 OA
ATOM     19  H   UNL     1     -14.762   5.601  -5.251  1.00  0.00     0.293 HD
ENDBRANCH  15  18
BRANCH  17  20
ATOM     20  O   UNL     1     -12.190   2.968  -4.622  1.00  0.00    -0.504 OA
ATOM     21  H   UNL     1     -12.497   3.109  -5.577  1.00  0.00     0.293 HD
ENDBRANCH  17  20
ENDBRANCH   1  12
BRANCH   2  22
ATOM     22  O   UNL     1     -12.440   4.701   1.080  1.00  0.00    -0.502 OA
ATOM     23  H   UNL     1     -12.772   5.314   0.345  1.00  0.00     0.293 HD
ENDBRANCH   2  22
BRANCH   6  24
ATOM     24  O   UNL     1     -13.046   1.280   5.117  1.00  0.00    -0.507 OA
ATOM     25  H   UNL     1     -13.598   1.161   5.953  1.00  0.00     0.293 HD
ENDBRANCH   6  24
BRANCH   8  26
ATOM     26  O   UNL     1     -14.509  -2.608   2.743  1.00  0.00    -0.508 OA
ATOM     27  H   UNL     1     -13.836  -3.342   2.927  1.00  0.00     0.293 HD
ENDBRANCH   8  26
TORSDOF 6
ENDMDL
MODEL 7
REMARK VINA RESULT:    -4.340      3.565      8.525
REMARK INTER + INTRA:          -5.257
REMARK INTER:                  -5.641
REMARK INTRA:                   0.384
REMARK UNBOUND:                -0.029
REMARK SMILES O=c1c(O)c(-c2ccc(O)c(O)c2)oc2cc(O)cc(O)c12
REMARK SMILES IDX 5 1 3 2 2 3 1 4 22 5 20 6 19 7 17 8 16 9 15 10 14 11 6 12
REMARK SMILES IDX 7 13 8 14 9 15 13 16 11 17 10 18 12 20 4 22 21 24 18 26
REMARK H PARENT 10 19 12 21 4 23 21 25 18 27
REMARK Flexibility Score: inf
ROOT
ATOM      1  C   UNL     1     -14.036   1.584  -0.173  1.00  0.00     0.180 A 
ATOM      2  C   UNL     1     -13.903   2.071   1.139  1.00  0.00     0.208 A 
ATOM      3  C   UNL     1     -13.892   1.159   2.207  1.00  0.00     0.238 A 
ATOM      4  O   UNL     1     -13.718   1.597   3.374  1.00  0.00    -0.285 OA
ATOM      5  C   UNL     1     -14.031  -0.226   1.951  1.00  0.00     0.111 A 
ATOM      6  C   UNL     1     -14.075  -1.235   2.960  1.00  0.00     0.134 A 
ATOM      7  C   UNL     1     -14.083  -2.585   2.587  1.00  0.00     0.093 A 
ATOM      8  C   UNL     1     -14.117  -2.961   1.244  1.00  0.00     0.123 A 
ATOM      9  C   UNL     1     -14.135  -1.981   0.250  1.00  0.00     0.094 A 
ATOM     10  C   UNL     1     -14.090  -0.627   0.591  1.00  0.00     0.146 A 
ATOM     11  O   UNL     1     -14.098   0.274  -0.384  1.00  0.00    -0.452 OA
ENDROOT
BRANCH   1  12
ATOM     12  C   UNL     1     -14.081   2.484  -1.347  1.00  0.00     0.025 A 
ATOM     13  C   UNL     1     -14.486   3.819  -1.178  1.00  0.00     0.016 A 
ATOM     14  C   UNL     1     -14.515   4.692  -2.268  1.00  0.00     0.051 A 
ATOM     15  C   UNL     1     -14.129   4.248  -3.539  1.00  0.00     0.157 A 
ATOM     16  C   UNL     1     -13.674   2.049  -2.621  1.00  0.00     0.062 A 
ATOM     17  C   UNL     1     -13.703   2.926  -3.715  1.00  0.00     0.158 A 
BRANCH  15  18
ATOM     18  O   UNL     1     -14.159   5.116  -4.630  1.00  0.00    -0.504 OA
ATOM     19  H   UNL     1     -14.411   4.791  -5.557  1.00  0.00     0.293 HD
ENDBRANCH  15  18
BRANCH  17  20
ATOM     20  O   UNL     1     -13.305   2.491  -4.978  1.00  0.00    -0.504 OA
ATOM     21  H   UNL     1     -13.750   2.834  -5.822  1.00  0.00     0.293 HD
ENDBRANCH  17  20
ENDBRANCH   1  12
BRANCH   2  22
ATOM     22  O   UNL     1     -13.744   3.441   1.367  1.00  0.00    -0.502 OA
ATOM     23  H   UNL     1     -13.503   3.817   2.276  1.00  0.00     0.293 HD
ENDBRANCH   2  22
BRANCH   6  24
ATOM     24  O   UNL     1     -14.138  -0.968   4.330  1.00  0.00    -0.507 OA
ATOM     25  H   UNL     1     -14.944  -1.138   4.913  1.00  0.00     0.293 HD
ENDBRANCH   6  24
BRANCH   8  26
ATOM     26  O   UNL     1     -14.141  -4.312   0.908  1.00  0.00    -0.508 OA
ATOM     27  H   UNL     1     -13.348  -4.917   1.087  1.00  0.00     0.293 HD
ENDBRANCH   8  26
TORSDOF 6
ENDMDL
MODEL 8
REMARK VINA RESULT:    -4.227      2.018      3.964
REMARK INTER + INTRA:          -5.121
REMARK INTER:                  -5.035
REMARK INTRA:                  -0.086
REMARK UNBOUND:                -0.029
REMARK SMILES O=c1c(O)c(-c2ccc(O)c(O)c2)oc2cc(O)cc(O)c12
REMARK SMILES IDX 5 1 3 2 2 3 1 4 22 5 20 6 19 7 17 8 16 9 15 10 14 11 6 12
REMARK SMILES IDX 7 13 8 14 9 15 13 16 11 17 10 18 12 20 4 22 21 24 18 26
REMARK H PARENT 10 19 12 21 4 23 21 25 18 27
REMARK Flexibility Score: inf
ROOT
ATOM      1  C   UNL     1     -13.640  -6.138   2.948  1.00  0.00     0.180 A 
ATOM      2  C   UNL     1     -12.910  -5.465   3.943  1.00  0.00     0.208 A 
ATOM      3  C   UNL     1     -12.606  -4.106   3.764  1.00  0.00     0.238 A 
ATOM      4  O   UNL     1     -12.000  -3.495   4.683  1.00  0.00    -0.285 OA
ATOM      5  C   UNL     1     -13.019  -3.442   2.584  1.00  0.00     0.111 A 
ATOM      6  C   UNL     1     -12.731  -2.077   2.279  1.00  0.00     0.134 A 
ATOM      7  C   UNL     1     -13.301  -1.487   1.144  1.00  0.00     0.093 A 
ATOM      8  C   UNL     1     -14.095  -2.229   0.269  1.00  0.00     0.123 A 
ATOM      9  C   UNL     1     -14.335  -3.579   0.527  1.00  0.00     0.094 A 
ATOM     10  C   UNL     1     -13.810  -4.186   1.670  1.00  0.00     0.146 A 
ATOM     11  O   UNL     1     -14.070  -5.470   1.883  1.00  0.00    -0.452 OA
ENDROOT
BRANCH   1  12
ATOM     12  C   UNL     1     -13.976  -7.575   3.054  1.00  0.00     0.025 A 
ATOM     13  C   UNL     1     -15.311  -7.985   2.899  1.00  0.00     0.016 A 
ATOM     14  C   UNL     1     -15.648  -9.339   2.974  1.00  0.00     0.051 A 
ATOM     15  C   UNL     1     -14.656 -10.303   3.192  1.00  0.00     0.157 A 
ATOM     16  C   UNL     1     -12.981  -8.549   3.251  1.00  0.00     0.062 A 
ATOM     17  C   UNL     1     -13.319  -9.908   3.326  1.00  0.00     0.158 A 
BRANCH  15  18
ATOM     18  O   UNL     1     -14.988 -11.655   3.270  1.00  0.00    -0.504 OA
ATOM     19  H   UNL     1     -15.870 -12.004   2.912  1.00  0.00     0.293 HD
ENDBRANCH  15  18
BRANCH  17  20
ATOM     20  O   UNL     1     -12.331 -10.871   3.528  1.00  0.00    -0.504 OA
ATOM     21  H   UNL     1     -11.693 -11.139   2.788  1.00  0.00     0.293 HD
ENDBRANCH  17  20
ENDBRANCH   1  12
BRANCH   2  22
ATOM     22  O   UNL     1     -12.531  -6.134   5.111  1.00  0.00    -0.502 OA
ATOM     23  H   UNL     1     -11.576  -6.143   5.446  1.00  0.00     0.293 HD
ENDBRANCH   2  22
BRANCH   6  24
ATOM     24  O   UNL     1     -11.875  -1.272   3.036  1.00  0.00    -0.507 OA
ATOM     25  H   UNL     1     -11.963  -0.272   3.134  1.00  0.00     0.293 HD
ENDBRANCH   6  24
BRANCH   8  26
ATOM     26  O   UNL     1     -14.634  -1.614  -0.859  1.00  0.00    -0.508 OA
ATOM     27  H   UNL     1     -14.050  -1.320  -1.632  1.00  0.00     0.293 HD
ENDBRANCH   8  26
TORSDOF 6
ENDMDL
MODEL 9
REMARK VINA RESULT:    -4.170      2.561      8.260
REMARK INTER + INTRA:          -5.052
REMARK INTER:                  -4.867
REMARK INTRA:                  -0.185
REMARK UNBOUND:                -0.029
REMARK SMILES O=c1c(O)c(-c2ccc(O)c(O)c2)oc2cc(O)cc(O)c12
REMARK SMILES IDX 5 1 3 2 2 3 1 4 22 5 20 6 19 7 17 8 16 9 15 10 14 11 6 12
REMARK SMILES IDX 7 13 8 14 9 15 13 16 11 17 10 18 12 20 4 22 21 24 18 26
REMARK H PARENT 10 19 12 21 4 23 21 25 18 27
REMARK Flexibility Score: inf
ROOT
ATOM      1  C   UNL     1     -14.154  -7.475   3.286  1.00  0.00     0.180 A 
ATOM      2  C   UNL     1     -13.155  -8.463   3.258  1.00  0.00     0.208 A 
ATOM      3  C   UNL     1     -13.473  -9.767   3.671  1.00  0.00     0.238 A 
ATOM      4  O   UNL     1     -12.588 -10.660   3.592  1.00  0.00    -0.285 OA
ATOM      5  C   UNL     1     -14.781 -10.062   4.124  1.00  0.00     0.111 A 
ATOM      6  C   UNL     1     -15.203 -11.339   4.605  1.00  0.00     0.134 A 
ATOM      7  C   UNL     1     -16.554 -11.552   4.904  1.00  0.00     0.093 A 
ATOM      8  C   UNL     1     -17.486 -10.519   4.804  1.00  0.00     0.123 A 
ATOM      9  C   UNL     1     -17.073  -9.251   4.391  1.00  0.00     0.094 A 
ATOM     10  C   UNL     1     -15.738  -9.018   4.051  1.00  0.00     0.146 A 
ATOM     11  O   UNL     1     -15.389  -7.800   3.654  1.00  0.00    -0.452 OA
ENDROOT
BRANCH   1  12
ATOM     12  C   UNL     1     -13.888  -6.075   2.890  1.00  0.00     0.025 A 
ATOM     13  C   UNL     1     -13.012  -5.293   3.661  1.00  0.00     0.016 A 
ATOM     14  C   UNL     1     -12.730  -3.975   3.294  1.00  0.00     0.051 A 
ATOM     15  C   UNL     1     -13.308  -3.424   2.143  1.00  0.00     0.157 A 
ATOM     16  C   UNL     1     -14.449  -5.523   1.724  1.00  0.00     0.062 A 
ATOM     17  C   UNL     1     -14.166  -4.200   1.354  1.00  0.00     0.158 A 
BRANCH  15  18
ATOM     18  O   UNL     1     -13.031  -2.109   1.774  1.00  0.00    -0.504 OA
ATOM     19  H   UNL     1     -12.699  -1.428   2.448  1.00  0.00     0.293 HD
ENDBRANCH  15  18
BRANCH  17  20
ATOM     20  O   UNL     1     -14.728  -3.654   0.201  1.00  0.00    -0.504 OA
ATOM     21  H   UNL     1     -15.331  -4.198  -0.404  1.00  0.00     0.293 HD
ENDBRANCH  17  20
ENDBRANCH   1  12
BRANCH   2  22
ATOM     22  O   UNL     1     -11.875  -8.156   2.785  1.00  0.00    -0.502 OA
ATOM     23  H   UNL     1     -11.691  -7.351   2.200  1.00  0.00     0.293 HD
ENDBRANCH   2  22
BRANCH   6  24
ATOM     24  O   UNL     1     -14.338 -12.413   4.831  1.00  0.00    -0.507 OA
ATOM     25  H   UNL     1     -13.619 -12.434   5.540  1.00  0.00     0.293 HD
ENDBRANCH   6  24
BRANCH   8  26
ATOM     26  O   UNL     1     -18.819 -10.761   5.124  1.00  0.00    -0.508 OA
ATOM     27  H   UNL     1     -19.496 -10.010   5.182  1.00  0.00     0.293 HD
ENDBRANCH   8  26
TORSDOF 6
ENDMDL
