MODEL 1
REMARK VINA RESULT:    -6.066      0.000      0.000
REMARK INTER + INTRA:         -16.078
REMARK INTER:                 -13.867
REMARK INTRA:                  -2.211
REMARK UNBOUND:                -2.211
REMARK SMILES CCCCCCCCCCCCCCCCCCCCCCCC(=O)[O-]
REMARK SMILES IDX 13 1 14 2 15 3 16 4 17 5 18 6 19 7 20 8 21 9 22 10 23 11
REMARK SMILES IDX 24 12 25 13 26 14 12 15 11 16 10 17 9 18 8 19 7 20 6 21 5 22
REMARK SMILES IDX 4 23 3 24 2 25 1 26
REMARK H PARENT
REMARK Flexibility Score: inf
ROOT
ATOM      1  C   UNL     1      88.491 325.930 201.606  1.00  0.00     0.000 C 
ENDROOT
BRANCH   1   2
ATOM      2  C   UNL     1      88.729 324.649 202.430  1.00  0.00     0.000 C 
BRANCH   2   3
ATOM      3  C   UNL     1      87.452 323.956 202.937  1.00  0.00     0.000 C 
BRANCH   3   4
ATOM      4  C   UNL     1      87.565 323.483 204.395  1.00  0.00     0.000 C 
BRANCH   4   5
ATOM      5  C   UNL     1      86.328 323.862 205.242  1.00  0.00     0.000 C 
BRANCH   5   6
ATOM      6  C   UNL     1      86.601 324.975 206.270  1.00  0.00     0.000 C 
BRANCH   6   7
ATOM      7  C   UNL     1      88.065 325.068 206.739  1.00  0.00     0.000 C 
BRANCH   7   8
ATOM      8  C   UNL     1      88.628 326.507 206.741  1.00  0.00     0.000 C 
BRANCH   8   9
ATOM      9  C   UNL     1      89.110 326.956 205.352  1.00  0.00     0.000 C 
BRANCH   9  10
ATOM     10  C   UNL     1      90.636 327.117 205.278  1.00  0.00     0.006 C 
BRANCH  10  11
ATOM     11  C   UNL     1      91.337 325.870 204.723  1.00  0.00     0.053 C 
BRANCH  11  12
ATOM     12  C   UNL     1      91.997 326.181 203.416  1.00  0.00     0.041 C 
ATOM     13  O   UNL     1      92.679 325.303 202.825  1.00  0.00    -0.550 OA
ATOM     14  O   UNL     1      91.817 327.426 202.826  1.00  0.00    -0.550 OA
ENDBRANCH  11  12
ENDBRANCH  10  11
ENDBRANCH   9  10
ENDBRANCH   8   9
ENDBRANCH   7   8
ENDBRANCH   6   7
ENDBRANCH   5   6
ENDBRANCH   4   5
ENDBRANCH   3   4
ENDBRANCH   2   3
ENDBRANCH   1   2
BRANCH   1  15
ATOM     15  C   UNL     1      89.507 326.182 200.474  1.00  0.00     0.000 C 
BRANCH  15  16
ATOM     16  C   UNL     1      88.922 326.132 199.051  1.00  0.00     0.000 C 
BRANCH  16  17
ATOM     17  C   UNL     1      88.745 324.698 198.531  1.00  0.00     0.000 C 
BRANCH  17  18
ATOM     18  C   UNL     1      88.617 324.681 197.002  1.00  0.00    -0.000 C 
BRANCH  18  19
ATOM     19  C   UNL     1      88.065 326.012 196.481  1.00  0.00    -0.000 C 
BRANCH  19  20
ATOM     20  C   UNL     1      88.911 326.539 195.311  1.00  0.00    -0.000 C 
BRANCH  20  21
ATOM     21  C   UNL     1      88.097 326.721 194.019  1.00  0.00    -0.000 C 
BRANCH  21  22
ATOM     22  C   UNL     1      87.250 325.501 193.601  1.00  0.00    -0.000 C 
BRANCH  22  23
ATOM     23  C   UNL     1      88.025 324.377 192.889  1.00  0.00    -0.000 C 
BRANCH  23  24
ATOM     24  C   UNL     1      87.925 324.461 191.357  1.00  0.00    -0.000 C 
BRANCH  24  25
ATOM     25  C   UNL     1      88.270 323.131 190.671  1.00  0.00    -0.003 C 
ATOM     26  C   UNL     1      88.796 323.316 189.248  1.00  0.00     0.004 C 
ENDBRANCH  24  25
ENDBRANCH  23  24
ENDBRANCH  22  23
ENDBRANCH  21  22
ENDBRANCH  20  21
ENDBRANCH  19  20
ENDBRANCH  18  19
ENDBRANCH  17  18
ENDBRANCH  16  17
ENDBRANCH  15  16
ENDBRANCH   1  15
TORSDOF 22
ENDMDL
MODEL 2
REMARK VINA RESULT:    -5.917      3.089     10.625
REMARK INTER + INTRA:         -15.737
REMARK INTER:                 -13.577
REMARK INTRA:                  -2.160
REMARK UNBOUND:                -2.211
REMARK SMILES CCCCCCCCCCCCCCCCCCCCCCCC(=O)[O-]
REMARK SMILES IDX 13 1 14 2 15 3 16 4 17 5 18 6 19 7 20 8 21 9 22 10 23 11
REMARK SMILES IDX 24 12 25 13 26 14 12 15 11 16 10 17 9 18 8 19 7 20 6 21 5 22
REMARK SMILES IDX 4 23 3 24 2 25 1 26
REMARK H PARENT
REMARK Flexibility Score: inf
ROOT
ATOM      1  C   UNL     1      89.127 324.784 200.077  1.00  0.00     0.000 C 
ENDROOT
BRANCH   1   2
ATOM      2  C   UNL     1      88.902 324.790 198.552  1.00  0.00     0.000 C 
BRANCH   2   3
ATOM      3  C   UNL     1      88.546 326.163 197.954  1.00  0.00     0.000 C 
BRANCH   3   4
ATOM      4  C   UNL     1      87.920 326.062 196.554  1.00  0.00     0.000 C 
BRANCH   4   5
ATOM      5  C   UNL     1      88.883 326.523 195.436  1.00  0.00     0.000 C 
BRANCH   5   6
ATOM      6  C   UNL     1      88.190 326.755 194.081  1.00  0.00     0.000 C 
BRANCH   6   7
ATOM      7  C   UNL     1      86.727 326.279 194.020  1.00  0.00     0.000 C 
BRANCH   7   8
ATOM      8  C   UNL     1      86.522 325.010 193.163  1.00  0.00     0.000 C 
BRANCH   8   9
ATOM      9  C   UNL     1      87.789 324.604 192.393  1.00  0.00     0.000 C 
BRANCH   9  10
ATOM     10  C   UNL     1      88.279 323.194 192.758  1.00  0.00     0.006 C 
BRANCH  10  11
ATOM     11  C   UNL     1      88.501 323.017 194.266  1.00  0.00     0.053 C 
BRANCH  11  12
ATOM     12  C   UNL     1      88.015 321.673 194.710  1.00  0.00     0.041 C 
ATOM     13  O   UNL     1      87.262 321.569 195.714  1.00  0.00    -0.550 OA
ATOM     14  O   UNL     1      88.352 320.537 193.984  1.00  0.00    -0.550 OA
ENDBRANCH  11  12
ENDBRANCH  10  11
ENDBRANCH   9  10
ENDBRANCH   8   9
ENDBRANCH   7   8
ENDBRANCH   6   7
ENDBRANCH   5   6
ENDBRANCH   4   5
ENDBRANCH   3   4
ENDBRANCH   2   3
ENDBRANCH   1   2
BRANCH   1  15
ATOM     15  C   UNL     1      89.473 326.154 200.696  1.00  0.00     0.000 C 
BRANCH  15  16
ATOM     16  C   UNL     1      88.868 326.409 202.088  1.00  0.00     0.000 C 
BRANCH  16  17
ATOM     17  C   UNL     1      89.931 326.735 203.148  1.00  0.00     0.000 C 
BRANCH  17  18
ATOM     18  C   UNL     1      89.291 327.360 204.394  1.00  0.00    -0.000 C 
BRANCH  18  19
ATOM     19  C   UNL     1      90.282 327.397 205.563  1.00  0.00    -0.000 C 
BRANCH  19  20
ATOM     20  C   UNL     1      89.775 326.553 206.742  1.00  0.00    -0.000 C 
BRANCH  20  21
ATOM     21  C   UNL     1      88.240 326.500 206.822  1.00  0.00    -0.000 C 
BRANCH  21  22
ATOM     22  C   UNL     1      87.648 325.103 207.101  1.00  0.00    -0.000 C 
BRANCH  22  23
ATOM     23  C   UNL     1      86.617 324.609 206.069  1.00  0.00    -0.000 C 
BRANCH  23  24
ATOM     24  C   UNL     1      87.266 324.142 204.755  1.00  0.00    -0.000 C 
BRANCH  24  25
ATOM     25  C   UNL     1      86.261 323.460 203.814  1.00  0.00    -0.003 C 
ATOM     26  C   UNL     1      86.703 323.494 202.351  1.00  0.00     0.004 C 
ENDBRANCH  24  25
ENDBRANCH  23  24
ENDBRANCH  22  23
ENDBRANCH  21  22
ENDBRANCH  20  21
ENDBRANCH  19  20
ENDBRANCH  18  19
ENDBRANCH  17  18
ENDBRANCH  16  17
ENDBRANCH  15  16
ENDBRANCH   1  15
TORSDOF 22
ENDMDL
MODEL 3
REMARK VINA RESULT:    -5.899      4.581     11.720
REMARK INTER + INTRA:         -15.697
REMARK INTER:                 -14.099
REMARK INTRA:                  -1.598
REMARK UNBOUND:                -2.211
REMARK SMILES CCCCCCCCCCCCCCCCCCCCCCCC(=O)[O-]
REMARK SMILES IDX 13 1 14 2 15 3 16 4 17 5 18 6 19 7 20 8 21 9 22 10 23 11
REMARK SMILES IDX 24 12 25 13 26 14 12 15 11 16 10 17 9 18 8 19 7 20 6 21 5 22
REMARK SMILES IDX 4 23 3 24 2 25 1 26
REMARK H PARENT
REMARK Flexibility Score: inf
ROOT
ATOM      1  C   UNL     1      88.939 325.670 199.424  1.00  0.00     0.000 C 
ENDROOT
BRANCH   1   2
ATOM      2  C   UNL     1      88.867 326.716 198.294  1.00  0.00     0.000 C 
BRANCH   2   3
ATOM      3  C   UNL     1      88.043 326.287 197.065  1.00  0.00     0.000 C 
BRANCH   3   4
ATOM      4  C   UNL     1      88.911 326.030 195.823  1.00  0.00     0.000 C 
BRANCH   4   5
ATOM      5  C   UNL     1      88.292 326.613 194.532  1.00  0.00     0.000 C 
BRANCH   5   6
ATOM      6  C   UNL     1      87.242 325.694 193.882  1.00  0.00     0.000 C 
BRANCH   6   7
ATOM      7  C   UNL     1      87.523 324.188 194.041  1.00  0.00     0.000 C 
BRANCH   7   8
ATOM      8  C   UNL     1      88.271 323.565 192.841  1.00  0.00     0.000 C 
BRANCH   8   9
ATOM      9  C   UNL     1      87.994 324.305 191.522  1.00  0.00     0.000 C 
BRANCH   9  10
ATOM     10  C   UNL     1      87.959 323.361 190.309  1.00  0.00     0.006 C 
BRANCH  10  11
ATOM     11  C   UNL     1      86.702 322.481 190.280  1.00  0.00     0.053 C 
BRANCH  11  12
ATOM     12  C   UNL     1      86.677 321.651 189.035  1.00  0.00     0.041 C 
ATOM     13  O   UNL     1      86.082 322.068 188.006  1.00  0.00    -0.550 OA
ATOM     14  O   UNL     1      87.351 320.438 188.995  1.00  0.00    -0.550 OA
ENDBRANCH  11  12
ENDBRANCH  10  11
ENDBRANCH   9  10
ENDBRANCH   8   9
ENDBRANCH   7   8
ENDBRANCH   6   7
ENDBRANCH   5   6
ENDBRANCH   4   5
ENDBRANCH   3   4
ENDBRANCH   2   3
ENDBRANCH   1   2
BRANCH   1  15
ATOM     15  C   UNL     1      89.746 326.098 200.666  1.00  0.00     0.000 C 
BRANCH  15  16
ATOM     16  C   UNL     1      88.926 326.223 201.963  1.00  0.00     0.000 C 
BRANCH  16  17
ATOM     17  C   UNL     1      89.787 326.597 203.178  1.00  0.00     0.000 C 
BRANCH  17  18
ATOM     18  C   UNL     1      88.913 327.070 204.346  1.00  0.00    -0.000 C 
BRANCH  18  19
ATOM     19  C   UNL     1      89.748 327.259 205.618  1.00  0.00    -0.000 C 
BRANCH  19  20
ATOM     20  C   UNL     1      89.361 326.226 206.688  1.00  0.00    -0.000 C 
BRANCH  20  21
ATOM     21  C   UNL     1      87.847 325.959 206.742  1.00  0.00    -0.000 C 
BRANCH  21  22
ATOM     22  C   UNL     1      87.438 324.480 206.589  1.00  0.00    -0.000 C 
BRANCH  22  23
ATOM     23  C   UNL     1      86.343 324.207 205.541  1.00  0.00    -0.000 C 
BRANCH  23  24
ATOM     24  C   UNL     1      86.793 323.218 204.452  1.00  0.00    -0.000 C 
BRANCH  24  25
ATOM     25  C   UNL     1      86.337 323.643 203.047  1.00  0.00    -0.003 C 
ATOM     26  C   UNL     1      87.240 323.098 201.941  1.00  0.00     0.004 C 
ENDBRANCH  24  25
ENDBRANCH  23  24
ENDBRANCH  22  23
ENDBRANCH  21  22
ENDBRANCH  20  21
ENDBRANCH  19  20
ENDBRANCH  18  19
ENDBRANCH  17  18
ENDBRANCH  16  17
ENDBRANCH  15  16
ENDBRANCH   1  15
TORSDOF 22
ENDMDL
MODEL 4
REMARK VINA RESULT:    -5.896      2.120      3.993
REMARK INTER + INTRA:         -15.689
REMARK INTER:                 -13.368
REMARK INTRA:                  -2.321
REMARK UNBOUND:                -2.211
REMARK SMILES CCCCCCCCCCCCCCCCCCCCCCCC(=O)[O-]
REMARK SMILES IDX 13 1 14 2 15 3 16 4 17 5 18 6 19 7 20 8 21 9 22 10 23 11
REMARK SMILES IDX 24 12 25 13 26 14 12 15 11 16 10 17 9 18 8 19 7 20 6 21 5 22
REMARK SMILES IDX 4 23 3 24 2 25 1 26
REMARK H PARENT
REMARK Flexibility Score: inf
ROOT
ATOM      1  C   UNL     1      89.156 325.538 199.460  1.00  0.00     0.000 C 
ENDROOT
BRANCH   1   2
ATOM      2  C   UNL     1      89.185 326.148 200.876  1.00  0.00     0.000 C 
BRANCH   2   3
ATOM      3  C   UNL     1      90.582 326.227 201.519  1.00  0.00     0.000 C 
BRANCH   3   4
ATOM      4  C   UNL     1      90.550 326.775 202.955  1.00  0.00     0.000 C 
BRANCH   4   5
ATOM      5  C   UNL     1      89.111 327.006 203.471  1.00  0.00     0.000 C 
BRANCH   5   6
ATOM      6  C   UNL     1      89.049 327.469 204.938  1.00  0.00     0.000 C 
BRANCH   6   7
ATOM      7  C   UNL     1      89.989 326.707 205.891  1.00  0.00     0.000 C 
BRANCH   7   8
ATOM      8  C   UNL     1      89.275 326.112 207.125  1.00  0.00     0.000 C 
BRANCH   8   9
ATOM      9  C   UNL     1      87.780 325.853 206.876  1.00  0.00     0.000 C 
BRANCH   9  10
ATOM     10  C   UNL     1      87.480 324.384 206.543  1.00  0.00     0.006 C 
BRANCH  10  11
ATOM     11  C   UNL     1      86.408 324.229 205.456  1.00  0.00     0.053 C 
BRANCH  11  12
ATOM     12  C   UNL     1      87.041 323.881 204.146  1.00  0.00     0.041 C 
ATOM     13  O   UNL     1      88.291 323.759 204.057  1.00  0.00    -0.550 OA
ATOM     14  O   UNL     1      86.246 323.641 203.032  1.00  0.00    -0.550 OA
ENDBRANCH  11  12
ENDBRANCH  10  11
ENDBRANCH   9  10
ENDBRANCH   8   9
ENDBRANCH   7   8
ENDBRANCH   6   7
ENDBRANCH   5   6
ENDBRANCH   4   5
ENDBRANCH   3   4
ENDBRANCH   2   3
ENDBRANCH   1   2
BRANCH   1  15
ATOM     15  C   UNL     1      88.816 326.526 198.326  1.00  0.00     0.000 C 
BRANCH  15  16
ATOM     16  C   UNL     1      88.178 325.888 197.078  1.00  0.00     0.000 C 
BRANCH  16  17
ATOM     17  C   UNL     1      86.838 326.534 196.698  1.00  0.00     0.000 C 
BRANCH  17  18
ATOM     18  C   UNL     1      86.369 326.056 195.318  1.00  0.00    -0.000 C 
BRANCH  18  19
ATOM     19  C   UNL     1      86.991 326.904 194.202  1.00  0.00    -0.000 C 
BRANCH  19  20
ATOM     20  C   UNL     1      88.077 326.117 193.453  1.00  0.00    -0.000 C 
BRANCH  20  21
ATOM     21  C   UNL     1      87.524 324.881 192.723  1.00  0.00    -0.000 C 
BRANCH  21  22
ATOM     22  C   UNL     1      88.192 323.544 193.102  1.00  0.00    -0.000 C 
BRANCH  22  23
ATOM     23  C   UNL     1      88.716 323.458 194.547  1.00  0.00    -0.000 C 
BRANCH  23  24
ATOM     24  C   UNL     1      87.832 322.580 195.450  1.00  0.00    -0.000 C 
BRANCH  24  25
ATOM     25  C   UNL     1      88.513 322.237 196.784  1.00  0.00    -0.003 C 
ATOM     26  C   UNL     1      90.038 322.225 196.686  1.00  0.00     0.004 C 
ENDBRANCH  24  25
ENDBRANCH  23  24
ENDBRANCH  22  23
ENDBRANCH  21  22
ENDBRANCH  20  21
ENDBRANCH  19  20
ENDBRANCH  18  19
ENDBRANCH  17  18
ENDBRANCH  16  17
ENDBRANCH  15  16
ENDBRANCH   1  15
TORSDOF 22
ENDMDL
MODEL 5
REMARK VINA RESULT:    -5.883      4.525     12.016
REMARK INTER + INTRA:         -15.660
REMARK INTER:                 -14.048
REMARK INTRA:                  -1.612
REMARK UNBOUND:                -2.211
REMARK SMILES CCCCCCCCCCCCCCCCCCCCCCCC(=O)[O-]
REMARK SMILES IDX 13 1 14 2 15 3 16 4 17 5 18 6 19 7 20 8 21 9 22 10 23 11
REMARK SMILES IDX 24 12 25 13 26 14 12 15 11 16 10 17 9 18 8 19 7 20 6 21 5 22
REMARK SMILES IDX 4 23 3 24 2 25 1 26
REMARK H PARENT
REMARK Flexibility Score: inf
ROOT
ATOM      1  C   UNL     1      89.044 325.620 199.039  1.00  0.00     0.000 C 
ENDROOT
BRANCH   1   2
ATOM      2  C   UNL     1      88.592 326.610 197.948  1.00  0.00     0.000 C 
BRANCH   2   3
ATOM      3  C   UNL     1      88.149 325.960 196.624  1.00  0.00     0.000 C 
BRANCH   3   4
ATOM      4  C   UNL     1      89.048 326.345 195.438  1.00  0.00     0.000 C 
BRANCH   4   5
ATOM      5  C   UNL     1      88.240 326.810 194.205  1.00  0.00     0.000 C 
BRANCH   5   6
ATOM      6  C   UNL     1      86.817 326.225 194.144  1.00  0.00     0.000 C 
BRANCH   6   7
ATOM      7  C   UNL     1      86.663 325.010 193.210  1.00  0.00     0.000 C 
BRANCH   7   8
ATOM      8  C   UNL     1      87.828 324.844 192.209  1.00  0.00     0.000 C 
BRANCH   8   9
ATOM      9  C   UNL     1      88.126 323.370 191.886  1.00  0.00     0.000 C 
BRANCH   9  10
ATOM     10  C   UNL     1      87.693 322.976 190.466  1.00  0.00     0.006 C 
BRANCH  10  11
ATOM     11  C   UNL     1      88.877 322.858 189.496  1.00  0.00     0.053 C 
BRANCH  11  12
ATOM     12  C   UNL     1      88.627 321.770 188.500  1.00  0.00     0.041 C 
ATOM     13  O   UNL     1      87.457 321.530 188.100  1.00  0.00    -0.550 OA
ATOM     14  O   UNL     1      89.694 321.051 187.975  1.00  0.00    -0.550 OA
ENDBRANCH  11  12
ENDBRANCH  10  11
ENDBRANCH   9  10
ENDBRANCH   8   9
ENDBRANCH   7   8
ENDBRANCH   6   7
ENDBRANCH   5   6
ENDBRANCH   4   5
ENDBRANCH   3   4
ENDBRANCH   2   3
ENDBRANCH   1   2
BRANCH   1  15
ATOM     15  C   UNL     1      89.620 326.265 200.315  1.00  0.00     0.000 C 
BRANCH  15  16
ATOM     16  C   UNL     1      88.760 326.084 201.579  1.00  0.00     0.000 C 
BRANCH  16  17
ATOM     17  C   UNL     1      88.329 324.628 201.803  1.00  0.00     0.000 C 
BRANCH  17  18
ATOM     18  C   UNL     1      88.124 324.338 203.295  1.00  0.00    -0.000 C 
BRANCH  18  19
ATOM     19  C   UNL     1      86.793 323.618 203.538  1.00  0.00    -0.000 C 
BRANCH  19  20
ATOM     20  C   UNL     1      86.311 323.824 204.983  1.00  0.00    -0.000 C 
BRANCH  20  21
ATOM     21  C   UNL     1      87.462 324.122 205.959  1.00  0.00    -0.000 C 
BRANCH  21  22
ATOM     22  C   UNL     1      87.199 325.277 206.947  1.00  0.00    -0.000 C 
BRANCH  22  23
ATOM     23  C   UNL     1      88.251 326.402 206.937  1.00  0.00    -0.000 C 
BRANCH  23  24
ATOM     24  C   UNL     1      89.355 326.176 205.891  1.00  0.00    -0.000 C 
BRANCH  24  25
ATOM     25  C   UNL     1      89.586 327.409 205.003  1.00  0.00    -0.003 C 
ATOM     26  C   UNL     1      90.941 327.386 204.297  1.00  0.00     0.004 C 
ENDBRANCH  24  25
ENDBRANCH  23  24
ENDBRANCH  22  23
ENDBRANCH  21  22
ENDBRANCH  20  21
ENDBRANCH  19  20
ENDBRANCH  18  19
ENDBRANCH  17  18
ENDBRANCH  16  17
ENDBRANCH  15  16
ENDBRANCH   1  15
TORSDOF 22
ENDMDL
MODEL 6
REMARK VINA RESULT:    -5.880      1.988      3.533
REMARK INTER + INTRA:         -15.652
REMARK INTER:                 -14.251
REMARK INTRA:                  -1.401
REMARK UNBOUND:                -2.211
REMARK SMILES CCCCCCCCCCCCCCCCCCCCCCCC(=O)[O-]
REMARK SMILES IDX 13 1 14 2 15 3 16 4 17 5 18 6 19 7 20 8 21 9 22 10 23 11
REMARK SMILES IDX 24 12 25 13 26 14 12 15 11 16 10 17 9 18 8 19 7 20 6 21 5 22
REMARK SMILES IDX 4 23 3 24 2 25 1 26
REMARK H PARENT
REMARK Flexibility Score: inf
ROOT
ATOM      1  C   UNL     1      88.899 325.614 199.082  1.00  0.00     0.000 C 
ENDROOT
BRANCH   1   2
ATOM      2  C   UNL     1      89.496 326.350 200.298  1.00  0.00     0.000 C 
BRANCH   2   3
ATOM      3  C   UNL     1      88.743 326.130 201.623  1.00  0.00     0.000 C 
BRANCH   3   4
ATOM      4  C   UNL     1      89.654 326.247 202.856  1.00  0.00     0.000 C 
BRANCH   4   5
ATOM      5  C   UNL     1      89.149 327.298 203.871  1.00  0.00     0.000 C 
BRANCH   5   6
ATOM      6  C   UNL     1      89.836 327.207 205.246  1.00  0.00     0.000 C 
BRANCH   6   7
ATOM      7  C   UNL     1      89.349 326.043 206.128  1.00  0.00     0.000 C 
BRANCH   7   8
ATOM      8  C   UNL     1      87.888 326.193 206.607  1.00  0.00     0.000 C 
BRANCH   8   9
ATOM      9  C   UNL     1      87.171 324.841 206.755  1.00  0.00     0.000 C 
BRANCH   9  10
ATOM     10  C   UNL     1      86.492 324.385 205.454  1.00  0.00     0.006 C 
BRANCH  10  11
ATOM     11  C   UNL     1      87.181 323.169 204.822  1.00  0.00     0.053 C 
BRANCH  11  12
ATOM     12  C   UNL     1      87.082 323.231 203.330  1.00  0.00     0.041 C 
ATOM     13  O   UNL     1      87.969 322.698 202.611  1.00  0.00    -0.550 OA
ATOM     14  O   UNL     1      85.985 323.837 202.731  1.00  0.00    -0.550 OA
ENDBRANCH  11  12
ENDBRANCH  10  11
ENDBRANCH   9  10
ENDBRANCH   8   9
ENDBRANCH   7   8
ENDBRANCH   6   7
ENDBRANCH   5   6
ENDBRANCH   4   5
ENDBRANCH   3   4
ENDBRANCH   2   3
ENDBRANCH   1   2
BRANCH   1  15
ATOM     15  C   UNL     1      88.544 326.512 197.879  1.00  0.00     0.000 C 
BRANCH  15  16
ATOM     16  C   UNL     1      87.901 325.778 196.689  1.00  0.00     0.000 C 
BRANCH  16  17
ATOM     17  C   UNL     1      86.598 326.439 196.215  1.00  0.00     0.000 C 
BRANCH  17  18
ATOM     18  C   UNL     1      86.630 326.696 194.704  1.00  0.00    -0.000 C 
BRANCH  18  19
ATOM     19  C   UNL     1      88.065 326.637 194.166  1.00  0.00    -0.000 C 
BRANCH  19  20
ATOM     20  C   UNL     1      88.149 325.742 192.919  1.00  0.00    -0.000 C 
BRANCH  20  21
ATOM     21  C   UNL     1      87.646 324.311 193.175  1.00  0.00    -0.000 C 
BRANCH  21  22
ATOM     22  C   UNL     1      86.409 323.896 192.352  1.00  0.00    -0.000 C 
BRANCH  22  23
ATOM     23  C   UNL     1      86.715 323.157 191.036  1.00  0.00    -0.000 C 
BRANCH  23  24
ATOM     24  C   UNL     1      88.057 323.579 190.414  1.00  0.00    -0.000 C 
BRANCH  24  25
ATOM     25  C   UNL     1      88.398 322.773 189.151  1.00  0.00    -0.003 C 
ATOM     26  C   UNL     1      89.882 322.836 188.790  1.00  0.00     0.004 C 
ENDBRANCH  24  25
ENDBRANCH  23  24
ENDBRANCH  22  23
ENDBRANCH  21  22
ENDBRANCH  20  21
ENDBRANCH  19  20
ENDBRANCH  18  19
ENDBRANCH  17  18
ENDBRANCH  16  17
ENDBRANCH  15  16
ENDBRANCH   1  15
TORSDOF 22
ENDMDL
MODEL 7
REMARK VINA RESULT:    -5.864      1.177      2.179
REMARK INTER + INTRA:         -15.616
REMARK INTER:                 -13.063
REMARK INTRA:                  -2.553
REMARK UNBOUND:                -2.211
REMARK SMILES CCCCCCCCCCCCCCCCCCCCCCCC(=O)[O-]
REMARK SMILES IDX 13 1 14 2 15 3 16 4 17 5 18 6 19 7 20 8 21 9 22 10 23 11
REMARK SMILES IDX 24 12 25 13 26 14 12 15 11 16 10 17 9 18 8 19 7 20 6 21 5 22
REMARK SMILES IDX 4 23 3 24 2 25 1 26
REMARK H PARENT
REMARK Flexibility Score: inf
ROOT
ATOM      1  C   UNL     1      88.680 326.020 201.659  1.00  0.00     0.000 C 
ENDROOT
BRANCH   1   2
ATOM      2  C   UNL     1      88.085 324.606 201.813  1.00  0.00     0.000 C 
BRANCH   2   3
ATOM      3  C   UNL     1      88.273 323.971 203.202  1.00  0.00     0.000 C 
BRANCH   3   4
ATOM      4  C   UNL     1      86.964 323.886 204.004  1.00  0.00     0.000 C 
BRANCH   4   5
ATOM      5  C   UNL     1      87.113 323.060 205.302  1.00  0.00     0.000 C 
BRANCH   5   6
ATOM      6  C   UNL     1      87.648 323.874 206.494  1.00  0.00     0.000 C 
BRANCH   6   7
ATOM      7  C   UNL     1      87.190 325.344 206.521  1.00  0.00     0.000 C 
BRANCH   7   8
ATOM      8  C   UNL     1      88.338 326.347 206.773  1.00  0.00     0.000 C 
BRANCH   8   9
ATOM      9  C   UNL     1      88.885 326.961 205.473  1.00  0.00     0.000 C 
BRANCH   9  10
ATOM     10  C   UNL     1      90.418 327.054 205.461  1.00  0.00     0.006 C 
BRANCH  10  11
ATOM     11  C   UNL     1      91.064 326.066 204.480  1.00  0.00     0.053 C 
BRANCH  11  12
ATOM     12  C   UNL     1      92.150 326.741 203.701  1.00  0.00     0.041 C 
ATOM     13  O   UNL     1      91.892 327.293 202.599  1.00  0.00    -0.550 OA
ATOM     14  O   UNL     1      93.438 326.802 204.216  1.00  0.00    -0.550 OA
ENDBRANCH  11  12
ENDBRANCH  10  11
ENDBRANCH   9  10
ENDBRANCH   8   9
ENDBRANCH   7   8
ENDBRANCH   6   7
ENDBRANCH   5   6
ENDBRANCH   4   5
ENDBRANCH   3   4
ENDBRANCH   2   3
ENDBRANCH   1   2
BRANCH   1  15
ATOM     15  C   UNL     1      89.469 326.263 200.357  1.00  0.00     0.000 C 
BRANCH  15  16
ATOM     16  C   UNL     1      88.787 325.745 199.077  1.00  0.00     0.000 C 
BRANCH  16  17
ATOM     17  C   UNL     1      88.802 326.774 197.937  1.00  0.00     0.000 C 
BRANCH  17  18
ATOM     18  C   UNL     1      88.059 326.240 196.706  1.00  0.00    -0.000 C 
BRANCH  18  19
ATOM     19  C   UNL     1      88.910 326.392 195.440  1.00  0.00    -0.000 C 
BRANCH  19  20
ATOM     20  C   UNL     1      88.041 326.792 194.238  1.00  0.00    -0.000 C 
BRANCH  20  21
ATOM     21  C   UNL     1      87.215 325.619 193.681  1.00  0.00    -0.000 C 
BRANCH  21  22
ATOM     22  C   UNL     1      87.896 324.815 192.555  1.00  0.00    -0.000 C 
BRANCH  22  23
ATOM     23  C   UNL     1      88.317 323.383 192.933  1.00  0.00    -0.000 C 
BRANCH  23  24
ATOM     24  C   UNL     1      87.879 322.989 194.354  1.00  0.00    -0.000 C 
BRANCH  24  25
ATOM     25  C   UNL     1      89.065 322.589 195.245  1.00  0.00    -0.003 C 
ATOM     26  C   UNL     1      88.758 322.727 196.736  1.00  0.00     0.004 C 
ENDBRANCH  24  25
ENDBRANCH  23  24
ENDBRANCH  22  23
ENDBRANCH  21  22
ENDBRANCH  20  21
ENDBRANCH  19  20
ENDBRANCH  18  19
ENDBRANCH  17  18
ENDBRANCH  16  17
ENDBRANCH  15  16
ENDBRANCH   1  15
TORSDOF 22
ENDMDL
MODEL 8
REMARK VINA RESULT:    -5.855      3.317     10.433
REMARK INTER + INTRA:         -15.597
REMARK INTER:                 -13.114
REMARK INTRA:                  -2.483
REMARK UNBOUND:                -2.211
REMARK SMILES CCCCCCCCCCCCCCCCCCCCCCCC(=O)[O-]
REMARK SMILES IDX 13 1 14 2 15 3 16 4 17 5 18 6 19 7 20 8 21 9 22 10 23 11
REMARK SMILES IDX 24 12 25 13 26 14 12 15 11 16 10 17 9 18 8 19 7 20 6 21 5 22
REMARK SMILES IDX 4 23 3 24 2 25 1 26
REMARK H PARENT
REMARK Flexibility Score: inf
ROOT
ATOM      1  C   UNL     1      89.434 325.573 201.087  1.00  0.00     0.000 C 
ENDROOT
BRANCH   1   2
ATOM      2  C   UNL     1      89.617 326.433 199.820  1.00  0.00     0.000 C 
BRANCH   2   3
ATOM      3  C   UNL     1      88.620 326.136 198.685  1.00  0.00     0.000 C 
BRANCH   3   4
ATOM      4  C   UNL     1      88.895 324.797 197.982  1.00  0.00     0.000 C 
BRANCH   4   5
ATOM      5  C   UNL     1      89.133 324.961 196.463  1.00  0.00     0.000 C 
BRANCH   5   6
ATOM      6  C   UNL     1      88.951 326.405 195.962  1.00  0.00     0.000 C 
BRANCH   6   7
ATOM      7  C   UNL     1      88.330 326.521 194.558  1.00  0.00     0.000 C 
BRANCH   7   8
ATOM      8  C   UNL     1      86.881 325.991 194.473  1.00  0.00     0.000 C 
BRANCH   8   9
ATOM      9  C   UNL     1      86.622 325.177 193.194  1.00  0.00     0.000 C 
BRANCH   9  10
ATOM     10  C   UNL     1      87.902 324.928 192.381  1.00  0.00     0.006 C 
BRANCH  10  11
ATOM     11  C   UNL     1      87.839 323.634 191.559  1.00  0.00     0.053 C 
BRANCH  11  12
ATOM     12  C   UNL     1      88.210 322.459 192.408  1.00  0.00     0.041 C 
ATOM     13  O   UNL     1      88.086 321.288 191.961  1.00  0.00    -0.550 OA
ATOM     14  O   UNL     1      88.740 322.658 193.676  1.00  0.00    -0.550 OA
ENDBRANCH  11  12
ENDBRANCH  10  11
ENDBRANCH   9  10
ENDBRANCH   8   9
ENDBRANCH   7   8
ENDBRANCH   6   7
ENDBRANCH   5   6
ENDBRANCH   4   5
ENDBRANCH   3   4
ENDBRANCH   2   3
ENDBRANCH   1   2
BRANCH   1  15
ATOM     15  C   UNL     1      88.849 326.315 202.306  1.00  0.00     0.000 C 
BRANCH  15  16
ATOM     16  C   UNL     1      89.609 326.096 203.626  1.00  0.00     0.000 C 
BRANCH  16  17
ATOM     17  C   UNL     1      89.194 327.087 204.723  1.00  0.00     0.000 C 
BRANCH  17  18
ATOM     18  C   UNL     1      89.720 326.641 206.093  1.00  0.00    -0.000 C 
BRANCH  18  19
ATOM     19  C   UNL     1      88.575 326.497 207.103  1.00  0.00    -0.000 C 
BRANCH  19  20
ATOM     20  C   UNL     1      87.973 325.084 207.055  1.00  0.00    -0.000 C 
BRANCH  20  21
ATOM     21  C   UNL     1      86.589 325.046 206.384  1.00  0.00    -0.000 C 
BRANCH  21  22
ATOM     22  C   UNL     1      86.448 324.033 205.230  1.00  0.00    -0.000 C 
BRANCH  22  23
ATOM     23  C   UNL     1      87.662 323.110 205.016  1.00  0.00    -0.000 C 
BRANCH  23  24
ATOM     24  C   UNL     1      87.982 322.880 203.529  1.00  0.00    -0.000 C 
BRANCH  24  25
ATOM     25  C   UNL     1      86.735 322.983 202.637  1.00  0.00    -0.003 C 
ATOM     26  C   UNL     1      87.030 322.678 201.169  1.00  0.00     0.004 C 
ENDBRANCH  24  25
ENDBRANCH  23  24
ENDBRANCH  22  23
ENDBRANCH  21  22
ENDBRANCH  20  21
ENDBRANCH  19  20
ENDBRANCH  18  19
ENDBRANCH  17  18
ENDBRANCH  16  17
ENDBRANCH  15  16
ENDBRANCH   1  15
TORSDOF 22
ENDMDL
MODEL 9
REMARK VINA RESULT:    -5.809     18.821     20.441
REMARK INTER + INTRA:         -15.490
REMARK INTER:                 -12.558
REMARK INTRA:                  -2.932
REMARK UNBOUND:                -2.211
REMARK SMILES CCCCCCCCCCCCCCCCCCCCCCCC(=O)[O-]
REMARK SMILES IDX 13 1 14 2 15 3 16 4 17 5 18 6 19 7 20 8 21 9 22 10 23 11
REMARK SMILES IDX 24 12 25 13 26 14 12 15 11 16 10 17 9 18 8 19 7 20 6 21 5 22
REMARK SMILES IDX 4 23 3 24 2 25 1 26
REMARK H PARENT
REMARK Flexibility Score: inf
ROOT
ATOM      1  C   UNL     1     103.488 311.820 194.885  1.00  0.00     0.000 C 
ENDROOT
BRANCH   1   2
ATOM      2  C   UNL     1     104.625 311.903 195.923  1.00  0.00     0.000 C 
BRANCH   2   3
ATOM      3  C   UNL     1     104.163 311.923 197.391  1.00  0.00     0.000 C 
BRANCH   3   4
ATOM      4  C   UNL     1     103.639 313.298 197.835  1.00  0.00     0.000 C 
BRANCH   4   5
ATOM      5  C   UNL     1     103.318 313.353 199.346  1.00  0.00     0.000 C 
BRANCH   5   6
ATOM      6  C   UNL     1     104.429 312.763 200.235  1.00  0.00     0.000 C 
BRANCH   6   7
ATOM      7  C   UNL     1     103.977 311.598 201.135  1.00  0.00     0.000 C 
BRANCH   7   8
ATOM      8  C   UNL     1     102.449 311.543 201.360  1.00  0.00     0.000 C 
BRANCH   8   9
ATOM      9  C   UNL     1     102.068 310.813 202.659  1.00  0.00     0.000 C 
BRANCH   9  10
ATOM     10  C   UNL     1     102.457 311.602 203.918  1.00  0.00     0.006 C 
BRANCH  10  11
ATOM     11  C   UNL     1     103.483 310.863 204.787  1.00  0.00     0.053 C 
BRANCH  11  12
ATOM     12  C   UNL     1     104.661 311.744 205.065  1.00  0.00     0.041 C 
ATOM     13  O   UNL     1     104.985 312.647 204.250  1.00  0.00    -0.550 OA
ATOM     14  O   UNL     1     105.371 311.600 206.250  1.00  0.00    -0.550 OA
ENDBRANCH  11  12
ENDBRANCH  10  11
ENDBRANCH   9  10
ENDBRANCH   8   9
ENDBRANCH   7   8
ENDBRANCH   6   7
ENDBRANCH   5   6
ENDBRANCH   4   5
ENDBRANCH   3   4
ENDBRANCH   2   3
ENDBRANCH   1   2
BRANCH   1  15
ATOM     15  C   UNL     1     103.929 311.445 193.455  1.00  0.00     0.000 C 
BRANCH  15  16
ATOM     16  C   UNL     1     105.403 311.745 193.130  1.00  0.00     0.000 C 
BRANCH  16  17
ATOM     17  C   UNL     1     105.571 312.932 192.171  1.00  0.00     0.000 C 
BRANCH  17  18
ATOM     18  C   UNL     1     104.228 313.327 191.545  1.00  0.00    -0.000 C 
BRANCH  18  19
ATOM     19  C   UNL     1     104.430 314.300 190.377  1.00  0.00    -0.000 C 
BRANCH  19  20
ATOM     20  C   UNL     1     105.870 314.834 190.348  1.00  0.00    -0.000 C 
BRANCH  20  21
ATOM     21  C   UNL     1     105.982 316.281 190.858  1.00  0.00    -0.000 C 
BRANCH  21  22
ATOM     22  C   UNL     1     104.642 316.948 191.233  1.00  0.00    -0.000 C 
BRANCH  22  23
ATOM     23  C   UNL     1     104.346 317.024 192.742  1.00  0.00    -0.000 C 
BRANCH  23  24
ATOM     24  C   UNL     1     105.384 316.270 193.591  1.00  0.00    -0.000 C 
BRANCH  24  25
ATOM     25  C   UNL     1     104.749 315.550 194.791  1.00  0.00    -0.003 C 
ATOM     26  C   UNL     1     103.241 315.354 194.635  1.00  0.00     0.004 C 
ENDBRANCH  24  25
ENDBRANCH  23  24
ENDBRANCH  22  23
ENDBRANCH  21  22
ENDBRANCH  20  21
ENDBRANCH  19  20
ENDBRANCH  18  19
ENDBRANCH  17  18
ENDBRANCH  16  17
ENDBRANCH  15  16
ENDBRANCH   1  15
TORSDOF 22
ENDMDL
