MODEL 1
REMARK VINA RESULT:    -9.131      0.000      0.000
REMARK INTER + INTRA:         -17.454
REMARK INTER:                 -15.003
REMARK INTRA:                  -2.451
REMARK UNBOUND:                -2.451
REMARK SMILES C[C@H]1O[C@@H](OC[C@@H]2O[C@@H](Oc3c(-c4ccc(O)c(O)c4)oc4cc(O)cc(O)c4c3=O)[C@H](O)[C@H](O)[C@H]2O)[C@H](O)[C@@H](O)[C@@H]1O
REMARK SMILES IDX 7 1 36 2 34 3 32 4 9 5 8 6 6 7 5 8 4 9 1 10 2 11 42 12 3 13
REMARK SMILES IDX 40 14 38 15 43 16 41 18 39 20 37 22 35 24 10 26 11 27 12 28
REMARK SMILES IDX 30 29 21 30 29 31 31 32 22 33 27 34 23 35 26 36 24 37 13 38
REMARK SMILES IDX 20 39 14 40 18 41 15 42 16 43 19 44 17 46 28 48 25 50 33 52
REMARK H PARENT 43 17 41 19 39 21 37 23 35 25 19 45 17 47 28 49 25 51 33 53
REMARK Flexibility Score: inf
ROOT
ATOM      1  C   UNL     1      21.430   5.558  21.207  1.00  0.00     0.180 C 
ATOM      2  C   UNL     1      20.849   4.386  22.039  1.00  0.00     0.177 C 
ATOM      3  C   UNL     1      21.817   4.020  23.175  1.00  0.00     0.180 C 
ATOM      4  C   UNL     1      23.255   3.841  22.644  1.00  0.00     0.214 C 
ATOM      5  C   UNL     1      23.656   5.036  21.754  1.00  0.00     0.339 C 
ATOM      6  O   UNL     1      22.716   5.231  20.708  1.00  0.00    -0.332 OA
ENDROOT
BRANCH   1   7
ATOM      7  C   UNL     1      20.536   5.899  20.009  1.00  0.00     0.198 C 
BRANCH   7   8
ATOM      8  O   UNL     1      19.276   6.339  20.477  1.00  0.00    -0.347 OA
BRANCH   8   9
ATOM      9  C   UNL     1      18.563   7.056  19.486  1.00  0.00     0.281 C 
ATOM     10  C   UNL     1      19.535   8.792  21.882  1.00  0.00     0.041 C 
ATOM     11  C   UNL     1      18.589   9.109  20.709  1.00  0.00     0.150 C 
ATOM     12  C   UNL     1      17.087   8.993  21.069  1.00  0.00     0.174 C 
ATOM     13  O   UNL     1      18.940   8.426  19.509  1.00  0.00    -0.344 OA
ATOM     14  C   UNL     1      16.571   7.545  20.975  1.00  0.00     0.179 C 
ATOM     15  C   UNL     1      17.044   6.877  19.672  1.00  0.00     0.202 C 
BRANCH  12  16
ATOM     16  O   UNL     1      16.351   9.810  20.191  1.00  0.00    -0.388 OA
ATOM     17  H   UNL     1      16.592  10.752  20.402  1.00  0.00     0.211 HD
ENDBRANCH  12  16
BRANCH  14  18
ATOM     18  O   UNL     1      17.023   6.804  22.083  1.00  0.00    -0.387 OA
ATOM     19  H   UNL     1      16.229   6.383  22.504  1.00  0.00     0.211 HD
ENDBRANCH  14  18
BRANCH  15  20
ATOM     20  O   UNL     1      16.376   7.451  18.575  1.00  0.00    -0.385 OA
ATOM     21  H   UNL     1      16.174   6.716  17.935  1.00  0.00     0.211 HD
ENDBRANCH  15  20
ENDBRANCH   8   9
ENDBRANCH   7   8
ENDBRANCH   1   7
BRANCH   2  22
ATOM     22  O   UNL     1      19.613   4.754  22.598  1.00  0.00    -0.387 OA
ATOM     23  H   UNL     1      19.713   4.706  23.587  1.00  0.00     0.211 HD
ENDBRANCH   2  22
BRANCH   3  24
ATOM     24  O   UNL     1      21.384   2.842  23.803  1.00  0.00    -0.387 OA
ATOM     25  H   UNL     1      22.202   2.297  23.990  1.00  0.00     0.211 HD
ENDBRANCH   3  24
BRANCH   5  26
ATOM     26  O   UNL     1      23.794   6.206  22.564  1.00  0.00    -0.454 OA
BRANCH  26  27
ATOM     27  C   UNL     1      24.937   7.016  22.709  1.00  0.00     0.214 A 
ATOM     28  C   UNL     1      25.269   7.894  21.655  1.00  0.00     0.180 A 
ATOM     29  C   UNL     1      25.791   6.964  23.833  1.00  0.00     0.239 A 
ATOM     30  O   UNL     1      26.387   8.610  21.711  1.00  0.00    -0.452 OA
ATOM     31  C   UNL     1      26.972   7.737  23.849  1.00  0.00     0.111 A 
ATOM     32  O   UNL     1      25.509   6.227  24.815  1.00  0.00    -0.285 OA
ATOM     33  C   UNL     1      27.232   8.566  22.733  1.00  0.00     0.146 A 
ATOM     34  C   UNL     1      27.905   7.707  24.917  1.00  0.00     0.134 A 
ATOM     35  C   UNL     1      28.385   9.352  22.690  1.00  0.00     0.094 A 
ATOM     36  C   UNL     1      29.058   8.504  24.855  1.00  0.00     0.093 A 
ATOM     37  C   UNL     1      29.301   9.322  23.747  1.00  0.00     0.123 A 
BRANCH  28  38
ATOM     38  C   UNL     1      24.405   8.047  20.457  1.00  0.00     0.025 A 
ATOM     39  C   UNL     1      24.849   7.559  19.214  1.00  0.00     0.062 A 
ATOM     40  C   UNL     1      23.169   8.716  20.524  1.00  0.00     0.016 A 
ATOM     41  C   UNL     1      24.051   7.685  18.069  1.00  0.00     0.158 A 
ATOM     42  C   UNL     1      22.366   8.828  19.387  1.00  0.00     0.051 A 
ATOM     43  C   UNL     1      22.796   8.311  18.161  1.00  0.00     0.157 A 
BRANCH  41  44
ATOM     44  O   UNL     1      24.498   7.189  16.845  1.00  0.00    -0.504 OA
ATOM     45  H   UNL     1      24.893   6.260  16.761  1.00  0.00     0.293 HD
ENDBRANCH  41  44
BRANCH  43  46
ATOM     46  O   UNL     1      21.965   8.426  17.046  1.00  0.00    -0.504 OA
ATOM     47  H   UNL     1      22.171   9.059  16.284  1.00  0.00     0.293 HD
ENDBRANCH  43  46
ENDBRANCH  28  38
BRANCH  34  48
ATOM     48  O   UNL     1      27.700   6.887  26.031  1.00  0.00    -0.507 OA
ATOM     49  H   UNL     1      28.188   6.006  26.143  1.00  0.00     0.293 HD
ENDBRANCH  34  48
BRANCH  37  50
ATOM     50  O   UNL     1      30.457  10.101  23.708  1.00  0.00    -0.508 OA
ATOM     51  H   UNL     1      31.195   9.995  24.396  1.00  0.00     0.293 HD
ENDBRANCH  37  50
ENDBRANCH  26  27
ENDBRANCH   5  26
BRANCH   4  52
ATOM     52  O   UNL     1      23.410   2.619  21.959  1.00  0.00    -0.384 OA
ATOM     53  H   UNL     1      23.165   1.884  22.576  1.00  0.00     0.211 HD
ENDBRANCH   4  52
TORSDOF 16
ENDMDL
MODEL 2
REMARK VINA RESULT:    -9.035      2.246      3.486
REMARK INTER + INTRA:         -17.296
REMARK INTER:                 -14.841
REMARK INTRA:                  -2.455
REMARK UNBOUND:                -2.451
REMARK SMILES C[C@H]1O[C@@H](OC[C@@H]2O[C@@H](Oc3c(-c4ccc(O)c(O)c4)oc4cc(O)cc(O)c4c3=O)[C@H](O)[C@H](O)[C@H]2O)[C@H](O)[C@@H](O)[C@@H]1O
REMARK SMILES IDX 7 1 36 2 34 3 32 4 9 5 8 6 6 7 5 8 4 9 1 10 2 11 42 12 3 13
REMARK SMILES IDX 40 14 38 15 43 16 41 18 39 20 37 22 35 24 10 26 11 27 12 28
REMARK SMILES IDX 30 29 21 30 29 31 31 32 22 33 27 34 23 35 26 36 24 37 13 38
REMARK SMILES IDX 20 39 14 40 18 41 15 42 16 43 19 44 17 46 28 48 25 50 33 52
REMARK H PARENT 43 17 41 19 39 21 37 23 35 25 19 45 17 47 28 49 25 51 33 53
REMARK Flexibility Score: inf
ROOT
ATOM      1  C   UNL     1      20.867   5.496  21.378  1.00  0.00     0.180 C 
ATOM      2  C   UNL     1      20.483   4.388  22.393  1.00  0.00     0.177 C 
ATOM      3  C   UNL     1      21.657   4.125  23.348  1.00  0.00     0.180 C 
ATOM      4  C   UNL     1      22.974   3.919  22.569  1.00  0.00     0.214 C 
ATOM      5  C   UNL     1      23.168   5.042  21.529  1.00  0.00     0.339 C 
ATOM      6  O   UNL     1      22.043   5.143  20.669  1.00  0.00    -0.332 OA
ENDROOT
BRANCH   1   7
ATOM      7  C   UNL     1      19.754   5.730  20.349  1.00  0.00     0.198 C 
BRANCH   7   8
ATOM      8  O   UNL     1      19.065   4.516  20.121  1.00  0.00    -0.347 OA
BRANCH   8   9
ATOM      9  C   UNL     1      18.801   4.307  18.746  1.00  0.00     0.281 C 
ATOM     10  C   UNL     1      17.809   2.018  20.609  1.00  0.00     0.041 C 
ATOM     11  C   UNL     1      17.900   2.118  19.076  1.00  0.00     0.150 C 
ATOM     12  C   UNL     1      19.156   1.437  18.479  1.00  0.00     0.174 C 
ATOM     13  O   UNL     1      17.685   3.441  18.590  1.00  0.00    -0.344 OA
ATOM     14  C   UNL     1      20.395   2.350  18.522  1.00  0.00     0.179 C 
ATOM     15  C   UNL     1      20.051   3.766  18.027  1.00  0.00     0.202 C 
BRANCH  12  16
ATOM     16  O   UNL     1      18.883   1.082  17.145  1.00  0.00    -0.388 OA
ATOM     17  H   UNL     1      17.922   1.284  16.983  1.00  0.00     0.211 HD
ENDBRANCH  12  16
BRANCH  14  18
ATOM     18  O   UNL     1      20.898   2.412  19.835  1.00  0.00    -0.387 OA
ATOM     19  H   UNL     1      20.758   3.337  20.164  1.00  0.00     0.211 HD
ENDBRANCH  14  18
BRANCH  15  20
ATOM     20  O   UNL     1      19.809   3.739  16.642  1.00  0.00    -0.385 OA
ATOM     21  H   UNL     1      19.457   2.834  16.422  1.00  0.00     0.211 HD
ENDBRANCH  15  20
ENDBRANCH   8   9
ENDBRANCH   7   8
ENDBRANCH   1   7
BRANCH   2  22
ATOM     22  O   UNL     1      19.366   4.787  23.147  1.00  0.00    -0.387 OA
ATOM     23  H   UNL     1      19.526   4.494  24.084  1.00  0.00     0.211 HD
ENDBRANCH   2  22
BRANCH   3  24
ATOM     24  O   UNL     1      21.381   2.996  24.136  1.00  0.00    -0.387 OA
ATOM     25  H   UNL     1      20.385   2.911  24.178  1.00  0.00     0.211 HD
ENDBRANCH   3  24
BRANCH   5  26
ATOM     26  O   UNL     1      23.427   6.276  22.206  1.00  0.00    -0.454 OA
BRANCH  26  27
ATOM     27  C   UNL     1      24.669   6.755  22.665  1.00  0.00     0.214 A 
ATOM     28  C   UNL     1      25.596   7.225  21.710  1.00  0.00     0.180 A 
ATOM     29  C   UNL     1      25.052   6.750  24.025  1.00  0.00     0.239 A 
ATOM     30  O   UNL     1      26.812   7.601  22.091  1.00  0.00    -0.452 OA
ATOM     31  C   UNL     1      26.356   7.153  24.386  1.00  0.00     0.111 A 
ATOM     32  O   UNL     1      24.239   6.380  24.914  1.00  0.00    -0.285 OA
ATOM     33  C   UNL     1      27.222   7.580  23.353  1.00  0.00     0.146 A 
ATOM     34  C   UNL     1      26.833   7.132  25.721  1.00  0.00     0.134 A 
ATOM     35  C   UNL     1      28.524   7.989  23.647  1.00  0.00     0.094 A 
ATOM     36  C   UNL     1      28.145   7.546  25.996  1.00  0.00     0.093 A 
ATOM     37  C   UNL     1      28.990   7.971  24.965  1.00  0.00     0.123 A 
BRANCH  28  38
ATOM     38  C   UNL     1      25.263   7.308  20.266  1.00  0.00     0.025 A 
ATOM     39  C   UNL     1      24.137   8.046  19.855  1.00  0.00     0.062 A 
ATOM     40  C   UNL     1      26.019   6.623  19.297  1.00  0.00     0.016 A 
ATOM     41  C   UNL     1      23.804   8.146  18.497  1.00  0.00     0.158 A 
ATOM     42  C   UNL     1      25.696   6.735  17.943  1.00  0.00     0.051 A 
ATOM     43  C   UNL     1      24.597   7.498  17.536  1.00  0.00     0.157 A 
BRANCH  41  44
ATOM     44  O   UNL     1      22.691   8.887  18.102  1.00  0.00    -0.504 OA
ATOM     45  H   UNL     1      21.962   8.484  17.525  1.00  0.00     0.293 HD
ENDBRANCH  41  44
BRANCH  43  46
ATOM     46  O   UNL     1      24.310   7.602  16.175  1.00  0.00    -0.504 OA
ATOM     47  H   UNL     1      24.295   6.794  15.563  1.00  0.00     0.293 HD
ENDBRANCH  43  46
ENDBRANCH  28  38
BRANCH  34  48
ATOM     48  O   UNL     1      26.020   6.696  26.771  1.00  0.00    -0.507 OA
ATOM     49  H   UNL     1      26.121   7.058  27.712  1.00  0.00     0.293 HD
ENDBRANCH  34  48
BRANCH  37  50
ATOM     50  O   UNL     1      30.292   8.373  25.265  1.00  0.00    -0.508 OA
ATOM     51  H   UNL     1      30.881   7.841  25.897  1.00  0.00     0.293 HD
ENDBRANCH  37  50
ENDBRANCH  26  27
ENDBRANCH   5  26
BRANCH   4  52
ATOM     52  O   UNL     1      23.027   2.648  21.963  1.00  0.00    -0.384 OA
ATOM     53  H   UNL     1      23.788   2.148  22.354  1.00  0.00     0.211 HD
ENDBRANCH   4  52
TORSDOF 16
ENDMDL
MODEL 3
REMARK VINA RESULT:    -9.004      2.309      4.139
REMARK INTER + INTRA:         -17.246
REMARK INTER:                 -14.156
REMARK INTRA:                  -3.090
REMARK UNBOUND:                -2.451
REMARK SMILES C[C@H]1O[C@@H](OC[C@@H]2O[C@@H](Oc3c(-c4ccc(O)c(O)c4)oc4cc(O)cc(O)c4c3=O)[C@H](O)[C@H](O)[C@H]2O)[C@H](O)[C@@H](O)[C@@H]1O
REMARK SMILES IDX 7 1 36 2 34 3 32 4 9 5 8 6 6 7 5 8 4 9 1 10 2 11 42 12 3 13
REMARK SMILES IDX 40 14 38 15 43 16 41 18 39 20 37 22 35 24 10 26 11 27 12 28
REMARK SMILES IDX 30 29 21 30 29 31 31 32 22 33 27 34 23 35 26 36 24 37 13 38
REMARK SMILES IDX 20 39 14 40 18 41 15 42 16 43 19 44 17 46 28 48 25 50 33 52
REMARK H PARENT 43 17 41 19 39 21 37 23 35 25 19 45 17 47 28 49 25 51 33 53
REMARK Flexibility Score: inf
ROOT
ATOM      1  C   UNL     1      20.389   6.182  21.698  1.00  0.00     0.180 C 
ATOM      2  C   UNL     1      20.210   7.514  20.926  1.00  0.00     0.177 C 
ATOM      3  C   UNL     1      21.443   8.408  21.134  1.00  0.00     0.180 C 
ATOM      4  C   UNL     1      21.800   8.523  22.631  1.00  0.00     0.214 C 
ATOM      5  C   UNL     1      21.842   7.127  23.286  1.00  0.00     0.339 C 
ATOM      6  O   UNL     1      20.625   6.427  23.075  1.00  0.00    -0.332 OA
ENDROOT
BRANCH   1   7
ATOM      7  C   UNL     1      19.143   5.293  21.588  1.00  0.00     0.198 C 
BRANCH   7   8
ATOM      8  O   UNL     1      19.204   4.552  20.386  1.00  0.00    -0.347 OA
BRANCH   8   9
ATOM      9  C   UNL     1      20.535   4.234  20.025  1.00  0.00     0.281 C 
ATOM     10  C   UNL     1      18.548   4.351  17.632  1.00  0.00     0.041 C 
ATOM     11  C   UNL     1      20.007   3.871  17.723  1.00  0.00     0.150 C 
ATOM     12  C   UNL     1      20.152   2.335  17.862  1.00  0.00     0.174 C 
ATOM     13  O   UNL     1      20.777   4.602  18.674  1.00  0.00    -0.344 OA
ATOM     14  C   UNL     1      19.998   1.860  19.319  1.00  0.00     0.179 C 
ATOM     15  C   UNL     1      20.825   2.741  20.273  1.00  0.00     0.202 C 
BRANCH  12  16
ATOM     16  O   UNL     1      21.418   1.957  17.378  1.00  0.00    -0.388 OA
ATOM     17  H   UNL     1      22.074   2.156  18.099  1.00  0.00     0.211 HD
ENDBRANCH  12  16
BRANCH  14  18
ATOM     18  O   UNL     1      18.642   1.893  19.692  1.00  0.00    -0.387 OA
ATOM     19  H   UNL     1      18.143   1.325  19.050  1.00  0.00     0.211 HD
ENDBRANCH  14  18
BRANCH  15  20
ATOM     20  O   UNL     1      22.196   2.499  20.074  1.00  0.00    -0.385 OA
ATOM     21  H   UNL     1      22.674   3.355  20.249  1.00  0.00     0.211 HD
ENDBRANCH  15  20
ENDBRANCH   8   9
ENDBRANCH   7   8
ENDBRANCH   1   7
BRANCH   2  22
ATOM     22  O   UNL     1      20.062   7.261  19.551  1.00  0.00    -0.387 OA
ATOM     23  H   UNL     1      20.870   7.623  19.097  1.00  0.00     0.211 HD
ENDBRANCH   2  22
BRANCH   3  24
ATOM     24  O   UNL     1      21.197   9.682  20.597  1.00  0.00    -0.387 OA
ATOM     25  H   UNL     1      20.422  10.063  21.101  1.00  0.00     0.211 HD
ENDBRANCH   3  24
BRANCH   5  26
ATOM     26  O   UNL     1      22.964   6.399  22.779  1.00  0.00    -0.454 OA
BRANCH  26  27
ATOM     27  C   UNL     1      24.329   6.674  22.993  1.00  0.00     0.214 A 
ATOM     28  C   UNL     1      25.173   6.773  21.868  1.00  0.00     0.180 A 
ATOM     29  C   UNL     1      24.903   6.814  24.277  1.00  0.00     0.239 A 
ATOM     30  O   UNL     1      26.481   6.942  22.028  1.00  0.00    -0.452 OA
ATOM     31  C   UNL     1      26.299   6.986  24.403  1.00  0.00     0.111 A 
ATOM     32  O   UNL     1      24.179   6.776  25.307  1.00  0.00    -0.285 OA
ATOM     33  C   UNL     1      27.065   7.044  23.216  1.00  0.00     0.146 A 
ATOM     34  C   UNL     1      26.959   7.087  25.655  1.00  0.00     0.134 A 
ATOM     35  C   UNL     1      28.449   7.212  23.276  1.00  0.00     0.094 A 
ATOM     36  C   UNL     1      28.351   7.254  25.694  1.00  0.00     0.093 A 
ATOM     37  C   UNL     1      29.096   7.314  24.512  1.00  0.00     0.123 A 
BRANCH  28  38
ATOM     38  C   UNL     1      24.649   6.685  20.482  1.00  0.00     0.025 A 
ATOM     39  C   UNL     1      24.332   5.427  19.937  1.00  0.00     0.062 A 
ATOM     40  C   UNL     1      24.508   7.831  19.676  1.00  0.00     0.016 A 
ATOM     41  C   UNL     1      23.830   5.317  18.633  1.00  0.00     0.158 A 
ATOM     42  C   UNL     1      23.993   7.723  18.382  1.00  0.00     0.051 A 
ATOM     43  C   UNL     1      23.647   6.474  17.858  1.00  0.00     0.157 A 
BRANCH  41  44
ATOM     44  O   UNL     1      23.512   4.065  18.109  1.00  0.00    -0.504 OA
ATOM     45  H   UNL     1      23.488   3.236  18.691  1.00  0.00     0.293 HD
ENDBRANCH  41  44
BRANCH  43  46
ATOM     46  O   UNL     1      23.121   6.401  16.568  1.00  0.00    -0.504 OA
ATOM     47  H   UNL     1      22.494   7.106  16.201  1.00  0.00     0.293 HD
ENDBRANCH  43  46
ENDBRANCH  28  38
BRANCH  34  48
ATOM     48  O   UNL     1      26.245   7.012  26.854  1.00  0.00    -0.507 OA
ATOM     49  H   UNL     1      26.280   7.753  27.545  1.00  0.00     0.293 HD
ENDBRANCH  34  48
BRANCH  37  50
ATOM     50  O   UNL     1      30.480   7.476  24.579  1.00  0.00    -0.508 OA
ATOM     51  H   UNL     1      30.928   8.344  24.306  1.00  0.00     0.293 HD
ENDBRANCH  37  50
ENDBRANCH  26  27
ENDBRANCH   5  26
BRANCH   4  52
ATOM     52  O   UNL     1      20.914   9.381  23.314  1.00  0.00    -0.384 OA
ATOM     53  H   UNL     1      20.489   8.869  24.048  1.00  0.00     0.211 HD
ENDBRANCH   4  52
TORSDOF 16
ENDMDL
MODEL 4
REMARK VINA RESULT:    -8.989      1.839      2.735
REMARK INTER + INTRA:         -17.220
REMARK INTER:                 -14.508
REMARK INTRA:                  -2.712
REMARK UNBOUND:                -2.451
REMARK SMILES C[C@H]1O[C@@H](OC[C@@H]2O[C@@H](Oc3c(-c4ccc(O)c(O)c4)oc4cc(O)cc(O)c4c3=O)[C@H](O)[C@H](O)[C@H]2O)[C@H](O)[C@@H](O)[C@@H]1O
REMARK SMILES IDX 7 1 36 2 34 3 32 4 9 5 8 6 6 7 5 8 4 9 1 10 2 11 42 12 3 13
REMARK SMILES IDX 40 14 38 15 43 16 41 18 39 20 37 22 35 24 10 26 11 27 12 28
REMARK SMILES IDX 30 29 21 30 29 31 31 32 22 33 27 34 23 35 26 36 24 37 13 38
REMARK SMILES IDX 20 39 14 40 18 41 15 42 16 43 19 44 17 46 28 48 25 50 33 52
REMARK H PARENT 43 17 41 19 39 21 37 23 35 25 19 45 17 47 28 49 25 51 33 53
REMARK Flexibility Score: inf
ROOT
ATOM      1  C   UNL     1      21.541   5.515  20.300  1.00  0.00     0.180 C 
ATOM      2  C   UNL     1      20.288   5.029  21.074  1.00  0.00     0.177 C 
ATOM      3  C   UNL     1      20.572   5.034  22.585  1.00  0.00     0.180 C 
ATOM      4  C   UNL     1      21.900   4.315  22.903  1.00  0.00     0.214 C 
ATOM      5  C   UNL     1      23.029   4.832  21.987  1.00  0.00     0.339 C 
ATOM      6  O   UNL     1      22.669   4.717  20.619  1.00  0.00    -0.332 OA
ENDROOT
BRANCH   1   7
ATOM      7  C   UNL     1      21.331   5.444  18.783  1.00  0.00     0.198 C 
BRANCH   7   8
ATOM      8  O   UNL     1      20.446   6.473  18.385  1.00  0.00    -0.347 OA
BRANCH   8   9
ATOM      9  C   UNL     1      20.486   6.695  16.988  1.00  0.00     0.281 C 
ATOM     10  C   UNL     1      18.340   8.373  18.497  1.00  0.00     0.041 C 
ATOM     11  C   UNL     1      18.598   8.161  16.994  1.00  0.00     0.150 C 
ATOM     12  C   UNL     1      17.681   7.093  16.348  1.00  0.00     0.174 C 
ATOM     13  O   UNL     1      19.978   7.987  16.684  1.00  0.00    -0.344 OA
ATOM     14  C   UNL     1      18.213   5.662  16.549  1.00  0.00     0.179 C 
ATOM     15  C   UNL     1      19.719   5.588  16.239  1.00  0.00     0.202 C 
BRANCH  12  16
ATOM     16  O   UNL     1      17.577   7.364  14.971  1.00  0.00    -0.388 OA
ATOM     17  H   UNL     1      16.610   7.487  14.772  1.00  0.00     0.211 HD
ENDBRANCH  12  16
BRANCH  14  18
ATOM     18  O   UNL     1      17.977   5.246  17.872  1.00  0.00    -0.387 OA
ATOM     19  H   UNL     1      17.943   4.254  17.871  1.00  0.00     0.211 HD
ENDBRANCH  14  18
BRANCH  15  20
ATOM     20  O   UNL     1      19.927   5.740  14.856  1.00  0.00    -0.385 OA
ATOM     21  H   UNL     1      19.086   5.463  14.400  1.00  0.00     0.211 HD
ENDBRANCH  15  20
ENDBRANCH   8   9
ENDBRANCH   7   8
ENDBRANCH   1   7
BRANCH   2  22
ATOM     22  O   UNL     1      19.199   5.878  20.816  1.00  0.00    -0.387 OA
ATOM     23  H   UNL     1      18.547   5.361  20.270  1.00  0.00     0.211 HD
ENDBRANCH   2  22
BRANCH   3  24
ATOM     24  O   UNL     1      19.512   4.414  23.266  1.00  0.00    -0.387 OA
ATOM     25  H   UNL     1      19.353   3.536  22.814  1.00  0.00     0.211 HD
ENDBRANCH   3  24
BRANCH   5  26
ATOM     26  O   UNL     1      23.344   6.182  22.339  1.00  0.00    -0.454 OA
BRANCH  26  27
ATOM     27  C   UNL     1      24.572   6.677  22.817  1.00  0.00     0.214 A 
ATOM     28  C   UNL     1      25.502   7.172  21.879  1.00  0.00     0.180 A 
ATOM     29  C   UNL     1      24.939   6.663  24.182  1.00  0.00     0.239 A 
ATOM     30  O   UNL     1      26.707   7.565  22.278  1.00  0.00    -0.452 OA
ATOM     31  C   UNL     1      26.231   7.084  24.562  1.00  0.00     0.111 A 
ATOM     32  O   UNL     1      24.122   6.271  25.058  1.00  0.00    -0.285 OA
ATOM     33  C   UNL     1      27.102   7.537  23.545  1.00  0.00     0.146 A 
ATOM     34  C   UNL     1      26.693   7.058  25.903  1.00  0.00     0.134 A 
ATOM     35  C   UNL     1      28.394   7.964  23.858  1.00  0.00     0.094 A 
ATOM     36  C   UNL     1      27.995   7.490  26.199  1.00  0.00     0.093 A 
ATOM     37  C   UNL     1      28.844   7.939  25.182  1.00  0.00     0.123 A 
BRANCH  28  38
ATOM     38  C   UNL     1      25.184   7.266  20.432  1.00  0.00     0.025 A 
ATOM     39  C   UNL     1      24.065   8.009  20.013  1.00  0.00     0.062 A 
ATOM     40  C   UNL     1      25.949   6.585  19.467  1.00  0.00     0.016 A 
ATOM     41  C   UNL     1      23.746   8.118  18.653  1.00  0.00     0.158 A 
ATOM     42  C   UNL     1      25.642   6.706  18.110  1.00  0.00     0.051 A 
ATOM     43  C   UNL     1      24.549   7.474  17.696  1.00  0.00     0.157 A 
BRANCH  41  44
ATOM     44  O   UNL     1      22.639   8.864  18.250  1.00  0.00    -0.504 OA
ATOM     45  H   UNL     1      22.605   9.315  17.344  1.00  0.00     0.293 HD
ENDBRANCH  41  44
BRANCH  43  46
ATOM     46  O   UNL     1      24.276   7.587  16.332  1.00  0.00    -0.504 OA
ATOM     47  H   UNL     1      23.755   6.882  15.826  1.00  0.00     0.293 HD
ENDBRANCH  43  46
ENDBRANCH  28  38
BRANCH  34  48
ATOM     48  O   UNL     1      25.875   6.597  26.939  1.00  0.00    -0.507 OA
ATOM     49  H   UNL     1      25.661   7.169  27.747  1.00  0.00     0.293 HD
ENDBRANCH  34  48
BRANCH  37  50
ATOM     50  O   UNL     1      30.135   8.360  25.502  1.00  0.00    -0.508 OA
ATOM     51  H   UNL     1      30.475   8.358  26.458  1.00  0.00     0.293 HD
ENDBRANCH  37  50
ENDBRANCH  26  27
ENDBRANCH   5  26
BRANCH   4  52
ATOM     52  O   UNL     1      21.770   2.914  22.811  1.00  0.00    -0.384 OA
ATOM     53  H   UNL     1      20.825   2.703  22.602  1.00  0.00     0.211 HD
ENDBRANCH   4  52
TORSDOF 16
ENDMDL
MODEL 5
REMARK VINA RESULT:    -8.983      2.085      4.696
REMARK INTER + INTRA:         -17.210
REMARK INTER:                 -14.324
REMARK INTRA:                  -2.886
REMARK UNBOUND:                -2.451
REMARK SMILES C[C@H]1O[C@@H](OC[C@@H]2O[C@@H](Oc3c(-c4ccc(O)c(O)c4)oc4cc(O)cc(O)c4c3=O)[C@H](O)[C@H](O)[C@H]2O)[C@H](O)[C@@H](O)[C@@H]1O
REMARK SMILES IDX 7 1 36 2 34 3 32 4 9 5 8 6 6 7 5 8 4 9 1 10 2 11 42 12 3 13
REMARK SMILES IDX 40 14 38 15 43 16 41 18 39 20 37 22 35 24 10 26 11 27 12 28
REMARK SMILES IDX 30 29 21 30 29 31 31 32 22 33 27 34 23 35 26 36 24 37 13 38
REMARK SMILES IDX 20 39 14 40 18 41 15 42 16 43 19 44 17 46 28 48 25 50 33 52
REMARK H PARENT 43 17 41 19 39 21 37 23 35 25 19 45 17 47 28 49 25 51 33 53
REMARK Flexibility Score: inf
ROOT
ATOM      1  C   UNL     1      20.818   6.884  19.832  1.00  0.00     0.180 C 
ATOM      2  C   UNL     1      21.285   6.381  18.441  1.00  0.00     0.177 C 
ATOM      3  C   UNL     1      22.801   6.583  18.294  1.00  0.00     0.180 C 
ATOM      4  C   UNL     1      23.209   8.022  18.678  1.00  0.00     0.214 C 
ATOM      5  C   UNL     1      22.589   8.416  20.035  1.00  0.00     0.339 C 
ATOM      6  O   UNL     1      21.180   8.242  20.022  1.00  0.00    -0.332 OA
ENDROOT
BRANCH   1   7
ATOM      7  C   UNL     1      19.296   6.779  19.989  1.00  0.00     0.198 C 
BRANCH   7   8
ATOM      8  O   UNL     1      18.917   5.417  19.973  1.00  0.00    -0.347 OA
BRANCH   8   9
ATOM      9  C   UNL     1      19.490   4.695  21.047  1.00  0.00     0.281 C 
ATOM     10  C   UNL     1      17.839   2.955  19.063  1.00  0.00     0.041 C 
ATOM     11  C   UNL     1      18.458   2.629  20.434  1.00  0.00     0.150 C 
ATOM     12  C   UNL     1      17.451   2.704  21.609  1.00  0.00     0.174 C 
ATOM     13  O   UNL     1      19.671   3.335  20.680  1.00  0.00    -0.344 OA
ATOM     14  C   UNL     1      17.268   4.141  22.133  1.00  0.00     0.179 C 
ATOM     15  C   UNL     1      18.629   4.836  22.318  1.00  0.00     0.202 C 
BRANCH  12  16
ATOM     16  O   UNL     1      17.914   1.881  22.652  1.00  0.00    -0.388 OA
ATOM     17  H   UNL     1      17.539   2.248  23.497  1.00  0.00     0.211 HD
ENDBRANCH  12  16
BRANCH  14  18
ATOM     18  O   UNL     1      16.472   4.879  21.238  1.00  0.00    -0.387 OA
ATOM     19  H   UNL     1      16.888   5.775  21.138  1.00  0.00     0.211 HD
ENDBRANCH  14  18
BRANCH  15  20
ATOM     20  O   UNL     1      19.313   4.259  23.403  1.00  0.00    -0.385 OA
ATOM     21  H   UNL     1      19.662   3.379  23.096  1.00  0.00     0.211 HD
ENDBRANCH  15  20
ENDBRANCH   8   9
ENDBRANCH   7   8
ENDBRANCH   1   7
BRANCH   2  22
ATOM     22  O   UNL     1      20.995   5.013  18.299  1.00  0.00    -0.387 OA
ATOM     23  H   UNL     1      21.731   4.510  18.742  1.00  0.00     0.211 HD
ENDBRANCH   2  22
BRANCH   3  24
ATOM     24  O   UNL     1      23.187   6.308  16.972  1.00  0.00    -0.387 OA
ATOM     25  H   UNL     1      23.356   5.324  16.920  1.00  0.00     0.211 HD
ENDBRANCH   3  24
BRANCH   5  26
ATOM     26  O   UNL     1      23.206   7.656  21.077  1.00  0.00    -0.454 OA
BRANCH  26  27
ATOM     27  C   UNL     1      24.574   7.610  21.407  1.00  0.00     0.214 A 
ATOM     28  C   UNL     1      25.198   6.347  21.489  1.00  0.00     0.180 A 
ATOM     29  C   UNL     1      25.344   8.758  21.700  1.00  0.00     0.239 A 
ATOM     30  O   UNL     1      26.463   6.252  21.884  1.00  0.00    -0.452 OA
ATOM     31  C   UNL     1      26.683   8.613  22.122  1.00  0.00     0.111 A 
ATOM     32  O   UNL     1      24.839   9.908  21.596  1.00  0.00    -0.285 OA
ATOM     33  C   UNL     1      27.210   7.302  22.201  1.00  0.00     0.146 A 
ATOM     34  C   UNL     1      27.508   9.710  22.480  1.00  0.00     0.134 A 
ATOM     35  C   UNL     1      28.527   7.094  22.613  1.00  0.00     0.094 A 
ATOM     36  C   UNL     1      28.829   9.480  22.893  1.00  0.00     0.093 A 
ATOM     37  C   UNL     1      29.338   8.179  22.962  1.00  0.00     0.123 A 
BRANCH  28  38
ATOM     38  C   UNL     1      24.479   5.092  21.154  1.00  0.00     0.025 A 
ATOM     39  C   UNL     1      23.552   4.557  22.068  1.00  0.00     0.062 A 
ATOM     40  C   UNL     1      24.741   4.393  19.961  1.00  0.00     0.016 A 
ATOM     41  C   UNL     1      22.856   3.377  21.772  1.00  0.00     0.158 A 
ATOM     42  C   UNL     1      24.036   3.225  19.660  1.00  0.00     0.051 A 
ATOM     43  C   UNL     1      23.090   2.716  20.555  1.00  0.00     0.157 A 
BRANCH  41  44
ATOM     44  O   UNL     1      21.933   2.862  22.683  1.00  0.00    -0.504 OA
ATOM     45  H   UNL     1      21.988   1.905  23.010  1.00  0.00     0.293 HD
ENDBRANCH  41  44
BRANCH  43  46
ATOM     46  O   UNL     1      22.391   1.556  20.219  1.00  0.00    -0.504 OA
ATOM     47  H   UNL     1      21.461   1.584  19.820  1.00  0.00     0.293 HD
ENDBRANCH  43  46
ENDBRANCH  28  38
BRANCH  34  48
ATOM     48  O   UNL     1      27.023  11.020  22.439  1.00  0.00    -0.507 OA
ATOM     49  H   UNL     1      27.101  11.645  23.232  1.00  0.00     0.293 HD
ENDBRANCH  34  48
BRANCH  37  50
ATOM     50  O   UNL     1      30.654   7.978  23.380  1.00  0.00    -0.508 OA
ATOM     51  H   UNL     1      31.278   8.755  23.567  1.00  0.00     0.293 HD
ENDBRANCH  37  50
ENDBRANCH  26  27
ENDBRANCH   5  26
BRANCH   4  52
ATOM     52  O   UNL     1      22.867   8.948  17.672  1.00  0.00    -0.384 OA
ATOM     53  H   UNL     1      22.097   8.585  17.164  1.00  0.00     0.211 HD
ENDBRANCH   4  52
TORSDOF 16
ENDMDL
MODEL 6
REMARK VINA RESULT:    -8.890      2.439      4.161
REMARK INTER + INTRA:         -17.058
REMARK INTER:                 -14.713
REMARK INTRA:                  -2.345
REMARK UNBOUND:                -2.451
REMARK SMILES C[C@H]1O[C@@H](OC[C@@H]2O[C@@H](Oc3c(-c4ccc(O)c(O)c4)oc4cc(O)cc(O)c4c3=O)[C@H](O)[C@H](O)[C@H]2O)[C@H](O)[C@@H](O)[C@@H]1O
REMARK SMILES IDX 7 1 36 2 34 3 32 4 9 5 8 6 6 7 5 8 4 9 1 10 2 11 42 12 3 13
REMARK SMILES IDX 40 14 38 15 43 16 41 18 39 20 37 22 35 24 10 26 11 27 12 28
REMARK SMILES IDX 30 29 21 30 29 31 31 32 22 33 27 34 23 35 26 36 24 37 13 38
REMARK SMILES IDX 20 39 14 40 18 41 15 42 16 43 19 44 17 46 28 48 25 50 33 52
REMARK H PARENT 43 17 41 19 39 21 37 23 35 25 19 45 17 47 28 49 25 51 33 53
REMARK Flexibility Score: inf
ROOT
ATOM      1  C   UNL     1      20.955   6.641  20.416  1.00  0.00     0.180 C 
ATOM      2  C   UNL     1      20.253   7.748  21.244  1.00  0.00     0.177 C 
ATOM      3  C   UNL     1      21.282   8.474  22.125  1.00  0.00     0.180 C 
ATOM      4  C   UNL     1      22.148   7.468  22.913  1.00  0.00     0.214 C 
ATOM      5  C   UNL     1      22.693   6.372  21.975  1.00  0.00     0.339 C 
ATOM      6  O   UNL     1      21.641   5.736  21.266  1.00  0.00    -0.332 OA
ENDROOT
BRANCH   1   7
ATOM      7  C   UNL     1      19.950   5.832  19.586  1.00  0.00     0.198 C 
BRANCH   7   8
ATOM      8  O   UNL     1      18.728   5.743  20.290  1.00  0.00    -0.347 OA
BRANCH   8   9
ATOM      9  C   UNL     1      18.182   4.438  20.241  1.00  0.00     0.281 C 
ATOM     10  C   UNL     1      16.513   6.467  21.911  1.00  0.00     0.041 C 
ATOM     11  C   UNL     1      16.398   4.941  21.750  1.00  0.00     0.150 C 
ATOM     12  C   UNL     1      17.055   4.140  22.902  1.00  0.00     0.174 C 
ATOM     13  O   UNL     1      16.778   4.486  20.453  1.00  0.00    -0.344 OA
ATOM     14  C   UNL     1      18.571   3.957  22.699  1.00  0.00     0.179 C 
ATOM     15  C   UNL     1      18.883   3.516  21.258  1.00  0.00     0.202 C 
BRANCH  12  16
ATOM     16  O   UNL     1      16.439   2.878  22.980  1.00  0.00    -0.388 OA
ATOM     17  H   UNL     1      16.018   2.706  22.094  1.00  0.00     0.211 HD
ENDBRANCH  12  16
BRANCH  14  18
ATOM     18  O   UNL     1      19.240   5.161  22.986  1.00  0.00    -0.387 OA
ATOM     19  H   UNL     1      18.601   5.751  23.464  1.00  0.00     0.211 HD
ENDBRANCH  14  18
BRANCH  15  20
ATOM     20  O   UNL     1      18.444   2.195  21.060  1.00  0.00    -0.385 OA
ATOM     21  H   UNL     1      18.756   1.913  20.159  1.00  0.00     0.211 HD
ENDBRANCH  15  20
ENDBRANCH   8   9
ENDBRANCH   7   8
ENDBRANCH   1   7
BRANCH   2  22
ATOM     22  O   UNL     1      19.649   8.684  20.388  1.00  0.00    -0.387 OA
ATOM     23  H   UNL     1      19.075   8.173  19.754  1.00  0.00     0.211 HD
ENDBRANCH   2  22
BRANCH   3  24
ATOM     24  O   UNL     1      20.618   9.338  23.010  1.00  0.00    -0.387 OA
ATOM     25  H   UNL     1      19.948   9.847  22.469  1.00  0.00     0.211 HD
ENDBRANCH   3  24
BRANCH   5  26
ATOM     26  O   UNL     1      23.658   6.945  21.087  1.00  0.00    -0.454 OA
BRANCH  26  27
ATOM     27  C   UNL     1      25.027   7.161  21.337  1.00  0.00     0.214 A 
ATOM     28  C   UNL     1      25.899   6.054  21.271  1.00  0.00     0.180 A 
ATOM     29  C   UNL     1      25.566   8.418  21.691  1.00  0.00     0.239 A 
ATOM     30  O   UNL     1      27.182   6.195  21.586  1.00  0.00    -0.452 OA
ATOM     31  C   UNL     1      26.933   8.524  22.025  1.00  0.00     0.111 A 
ATOM     32  O   UNL     1      24.831   9.441  21.719  1.00  0.00    -0.285 OA
ATOM     33  C   UNL     1      27.720   7.351  21.956  1.00  0.00     0.146 A 
ATOM     34  C   UNL     1      27.541   9.738  22.435  1.00  0.00     0.134 A 
ATOM     35  C   UNL     1      29.079   7.391  22.276  1.00  0.00     0.094 A 
ATOM     36  C   UNL     1      28.907   9.759  22.753  1.00  0.00     0.093 A 
ATOM     37  C   UNL     1      29.674   8.592  22.677  1.00  0.00     0.123 A 
BRANCH  28  38
ATOM     38  C   UNL     1      25.429   4.706  20.863  1.00  0.00     0.025 A 
ATOM     39  C   UNL     1      24.632   4.568  19.711  1.00  0.00     0.062 A 
ATOM     40  C   UNL     1      25.718   3.563  21.632  1.00  0.00     0.016 A 
ATOM     41  C   UNL     1      24.180   3.306  19.300  1.00  0.00     0.158 A 
ATOM     42  C   UNL     1      25.281   2.304  21.214  1.00  0.00     0.051 A 
ATOM     43  C   UNL     1      24.520   2.167  20.050  1.00  0.00     0.157 A 
BRANCH  41  44
ATOM     44  O   UNL     1      23.399   3.182  18.152  1.00  0.00    -0.504 OA
ATOM     45  H   UNL     1      23.805   3.230  17.226  1.00  0.00     0.293 HD
ENDBRANCH  41  44
BRANCH  43  46
ATOM     46  O   UNL     1      24.110   0.894  19.652  1.00  0.00    -0.504 OA
ATOM     47  H   UNL     1      23.137   0.668  19.486  1.00  0.00     0.293 HD
ENDBRANCH  43  46
ENDBRANCH  28  38
BRANCH  34  48
ATOM     48  O   UNL     1      26.797  10.917  22.539  1.00  0.00    -0.507 OA
ATOM     49  H   UNL     1      26.998  11.616  23.244  1.00  0.00     0.293 HD
ENDBRANCH  34  48
BRANCH  37  50
ATOM     50  O   UNL     1      31.030   8.638  23.003  1.00  0.00    -0.508 OA
ATOM     51  H   UNL     1      31.715   8.074  22.512  1.00  0.00     0.293 HD
ENDBRANCH  37  50
ENDBRANCH  26  27
ENDBRANCH   5  26
BRANCH   4  52
ATOM     52  O   UNL     1      21.440   6.907  23.996  1.00  0.00    -0.384 OA
ATOM     53  H   UNL     1      21.806   6.004  24.172  1.00  0.00     0.211 HD
ENDBRANCH   4  52
TORSDOF 16
ENDMDL
MODEL 7
REMARK VINA RESULT:    -8.804      2.377      3.627
REMARK INTER + INTRA:         -16.916
REMARK INTER:                 -13.746
REMARK INTRA:                  -3.170
REMARK UNBOUND:                -2.451
REMARK SMILES C[C@H]1O[C@@H](OC[C@@H]2O[C@@H](Oc3c(-c4ccc(O)c(O)c4)oc4cc(O)cc(O)c4c3=O)[C@H](O)[C@H](O)[C@H]2O)[C@H](O)[C@@H](O)[C@@H]1O
REMARK SMILES IDX 7 1 36 2 34 3 32 4 9 5 8 6 6 7 5 8 4 9 1 10 2 11 42 12 3 13
REMARK SMILES IDX 40 14 38 15 43 16 41 18 39 20 37 22 35 24 10 26 11 27 12 28
REMARK SMILES IDX 30 29 21 30 29 31 31 32 22 33 27 34 23 35 26 36 24 37 13 38
REMARK SMILES IDX 20 39 14 40 18 41 15 42 16 43 19 44 17 46 28 48 25 50 33 52
REMARK H PARENT 43 17 41 19 39 21 37 23 35 25 19 45 17 47 28 49 25 51 33 53
REMARK Flexibility Score: inf
ROOT
ATOM      1  C   UNL     1      20.964   4.181  20.732  1.00  0.00     0.180 C 
ATOM      2  C   UNL     1      20.190   4.778  21.936  1.00  0.00     0.177 C 
ATOM      3  C   UNL     1      21.175   5.166  23.050  1.00  0.00     0.180 C 
ATOM      4  C   UNL     1      22.146   4.007  23.362  1.00  0.00     0.214 C 
ATOM      5  C   UNL     1      22.760   3.451  22.060  1.00  0.00     0.339 C 
ATOM      6  O   UNL     1      21.749   3.072  21.139  1.00  0.00    -0.332 OA
ENDROOT
BRANCH   1   7
ATOM      7  C   UNL     1      20.011   3.701  19.631  1.00  0.00     0.198 C 
BRANCH   7   8
ATOM      8  O   UNL     1      19.808   4.746  18.701  1.00  0.00    -0.347 OA
BRANCH   8   9
ATOM      9  C   UNL     1      20.890   5.659  18.685  1.00  0.00     0.281 C 
ATOM     10  C   UNL     1      18.096   6.968  18.267  1.00  0.00     0.041 C 
ATOM     11  C   UNL     1      19.519   7.539  18.137  1.00  0.00     0.150 C 
ATOM     12  C   UNL     1      20.044   7.583  16.680  1.00  0.00     0.174 C 
ATOM     13  O   UNL     1      20.441   6.955  19.055  1.00  0.00    -0.344 OA
ATOM     14  C   UNL     1      20.640   6.236  16.230  1.00  0.00     0.179 C 
ATOM     15  C   UNL     1      21.579   5.663  17.306  1.00  0.00     0.202 C 
BRANCH  12  16
ATOM     16  O   UNL     1      21.028   8.584  16.588  1.00  0.00    -0.388 OA
ATOM     17  H   UNL     1      20.554   9.459  16.605  1.00  0.00     0.211 HD
ENDBRANCH  12  16
BRANCH  14  18
ATOM     18  O   UNL     1      19.604   5.321  15.963  1.00  0.00    -0.387 OA
ATOM     19  H   UNL     1      20.026   4.459  15.712  1.00  0.00     0.211 HD
ENDBRANCH  14  18
BRANCH  15  20
ATOM     20  O   UNL     1      22.748   6.442  17.379  1.00  0.00    -0.385 OA
ATOM     21  H   UNL     1      23.470   5.856  17.734  1.00  0.00     0.211 HD
ENDBRANCH  15  20
ENDBRANCH   8   9
ENDBRANCH   7   8
ENDBRANCH   1   7
BRANCH   2  22
ATOM     22  O   UNL     1      19.484   5.926  21.537  1.00  0.00    -0.387 OA
ATOM     23  H   UNL     1      19.299   6.457  22.359  1.00  0.00     0.211 HD
ENDBRANCH   2  22
BRANCH   3  24
ATOM     24  O   UNL     1      20.463   5.524  24.206  1.00  0.00    -0.387 OA
ATOM     25  H   UNL     1      19.668   6.050  23.903  1.00  0.00     0.211 HD
ENDBRANCH   3  24
BRANCH   5  26
ATOM     26  O   UNL     1      23.647   4.423  21.501  1.00  0.00    -0.454 OA
BRANCH  26  27
ATOM     27  C   UNL     1      24.907   4.814  21.993  1.00  0.00     0.214 A 
ATOM     28  C   UNL     1      25.174   6.194  22.121  1.00  0.00     0.180 A 
ATOM     29  C   UNL     1      25.933   3.900  22.324  1.00  0.00     0.239 A 
ATOM     30  O   UNL     1      26.379   6.608  22.495  1.00  0.00    -0.452 OA
ATOM     31  C   UNL     1      27.201   4.382  22.711  1.00  0.00     0.111 A 
ATOM     32  O   UNL     1      25.722   2.659  22.266  1.00  0.00    -0.285 OA
ATOM     33  C   UNL     1      27.379   5.783  22.782  1.00  0.00     0.146 A 
ATOM     34  C   UNL     1      28.296   3.532  23.014  1.00  0.00     0.134 A 
ATOM     35  C   UNL     1      28.611   6.321  23.158  1.00  0.00     0.094 A 
ATOM     36  C   UNL     1      29.527   4.092  23.389  1.00  0.00     0.093 A 
ATOM     37  C   UNL     1      29.687   5.479  23.459  1.00  0.00     0.123 A 
BRANCH  28  38
ATOM     38  C   UNL     1      24.142   7.223  21.840  1.00  0.00     0.025 A 
ATOM     39  C   UNL     1      23.893   7.612  20.510  1.00  0.00     0.062 A 
ATOM     40  C   UNL     1      23.439   7.861  22.879  1.00  0.00     0.016 A 
ATOM     41  C   UNL     1      22.920   8.577  20.217  1.00  0.00     0.158 A 
ATOM     42  C   UNL     1      22.458   8.811  22.586  1.00  0.00     0.051 A 
ATOM     43  C   UNL     1      22.189   9.169  21.261  1.00  0.00     0.157 A 
BRANCH  41  44
ATOM     44  O   UNL     1      22.677   8.948  18.895  1.00  0.00    -0.504 OA
ATOM     45  H   UNL     1      21.839   8.654  18.407  1.00  0.00     0.293 HD
ENDBRANCH  41  44
BRANCH  43  46
ATOM     46  O   UNL     1      21.194  10.111  21.001  1.00  0.00    -0.504 OA
ATOM     47  H   UNL     1      20.992  10.872  21.638  1.00  0.00     0.293 HD
ENDBRANCH  43  46
ENDBRANCH  28  38
BRANCH  34  48
ATOM     48  O   UNL     1      28.172   2.142  22.936  1.00  0.00    -0.507 OA
ATOM     49  H   UNL     1      27.275   1.692  22.797  1.00  0.00     0.293 HD
ENDBRANCH  34  48
BRANCH  37  50
ATOM     50  O   UNL     1      30.923   6.010  23.830  1.00  0.00    -0.508 OA
ATOM     51  H   UNL     1      31.155   6.191  24.801  1.00  0.00     0.293 HD
ENDBRANCH  37  50
ENDBRANCH  26  27
ENDBRANCH   5  26
BRANCH   4  52
ATOM     52  O   UNL     1      21.519   2.988  24.107  1.00  0.00    -0.384 OA
ATOM     53  H   UNL     1      20.623   3.309  24.380  1.00  0.00     0.211 HD
ENDBRANCH   4  52
TORSDOF 16
ENDMDL
MODEL 8
REMARK VINA RESULT:    -8.748      1.844      8.207
REMARK INTER + INTRA:         -16.825
REMARK INTER:                 -14.094
REMARK INTRA:                  -2.732
REMARK UNBOUND:                -2.451
REMARK SMILES C[C@H]1O[C@@H](OC[C@@H]2O[C@@H](Oc3c(-c4ccc(O)c(O)c4)oc4cc(O)cc(O)c4c3=O)[C@H](O)[C@H](O)[C@H]2O)[C@H](O)[C@@H](O)[C@@H]1O
REMARK SMILES IDX 7 1 36 2 34 3 32 4 9 5 8 6 6 7 5 8 4 9 1 10 2 11 42 12 3 13
REMARK SMILES IDX 40 14 38 15 43 16 41 18 39 20 37 22 35 24 10 26 11 27 12 28
REMARK SMILES IDX 30 29 21 30 29 31 31 32 22 33 27 34 23 35 26 36 24 37 13 38
REMARK SMILES IDX 20 39 14 40 18 41 15 42 16 43 19 44 17 46 28 48 25 50 33 52
REMARK H PARENT 43 17 41 19 39 21 37 23 35 25 19 45 17 47 28 49 25 51 33 53
REMARK Flexibility Score: inf
ROOT
ATOM      1  C   UNL     1      22.257   5.024  20.983  1.00  0.00     0.180 C 
ATOM      2  C   UNL     1      22.435   3.808  21.928  1.00  0.00     0.177 C 
ATOM      3  C   UNL     1      21.168   3.616  22.777  1.00  0.00     0.180 C 
ATOM      4  C   UNL     1      20.735   4.943  23.437  1.00  0.00     0.214 C 
ATOM      5  C   UNL     1      20.701   6.079  22.394  1.00  0.00     0.339 C 
ATOM      6  O   UNL     1      21.947   6.194  21.723  1.00  0.00    -0.332 OA
ENDROOT
BRANCH   1   7
ATOM      7  C   UNL     1      23.531   5.305  20.177  1.00  0.00     0.198 C 
BRANCH   7   8
ATOM      8  O   UNL     1      24.659   5.139  21.014  1.00  0.00    -0.347 OA
BRANCH   8   9
ATOM      9  C   UNL     1      25.529   6.255  20.958  1.00  0.00     0.281 C 
ATOM     10  C   UNL     1      26.649   3.830  22.556  1.00  0.00     0.041 C 
ATOM     11  C   UNL     1      27.159   5.274  22.404  1.00  0.00     0.150 C 
ATOM     12  C   UNL     1      26.771   6.201  23.583  1.00  0.00     0.174 C 
ATOM     13  O   UNL     1      26.875   5.834  21.124  1.00  0.00    -0.344 OA
ATOM     14  C   UNL     1      25.352   6.781  23.431  1.00  0.00     0.179 C 
ATOM     15  C   UNL     1      25.126   7.312  22.004  1.00  0.00     0.202 C 
BRANCH  12  16
ATOM     16  O   UNL     1      27.702   7.254  23.651  1.00  0.00    -0.388 OA
ATOM     17  H   UNL     1      27.227   8.034  24.047  1.00  0.00     0.211 HD
ENDBRANCH  12  16
BRANCH  14  18
ATOM     18  O   UNL     1      24.398   5.792  23.729  1.00  0.00    -0.387 OA
ATOM     19  H   UNL     1      24.413   5.130  22.990  1.00  0.00     0.211 HD
ENDBRANCH  14  18
BRANCH  15  20
ATOM     20  O   UNL     1      25.894   8.474  21.803  1.00  0.00    -0.385 OA
ATOM     21  H   UNL     1      25.369   9.073  21.206  1.00  0.00     0.211 HD
ENDBRANCH  15  20
ENDBRANCH   8   9
ENDBRANCH   7   8
ENDBRANCH   1   7
BRANCH   2  22
ATOM     22  O   UNL     1      22.658   2.640  21.178  1.00  0.00    -0.387 OA
ATOM     23  H   UNL     1      23.002   1.949  21.807  1.00  0.00     0.211 HD
ENDBRANCH   2  22
BRANCH   3  24
ATOM     24  O   UNL     1      21.403   2.642  23.760  1.00  0.00    -0.387 OA
ATOM     25  H   UNL     1      22.273   2.875  24.195  1.00  0.00     0.211 HD
ENDBRANCH   3  24
BRANCH   5  26
ATOM     26  O   UNL     1      19.627   5.851  21.478  1.00  0.00    -0.454 OA
BRANCH  26  27
ATOM     27  C   UNL     1      18.543   6.707  21.201  1.00  0.00     0.214 A 
ATOM     28  C   UNL     1      18.736   7.743  20.263  1.00  0.00     0.180 A 
ATOM     29  C   UNL     1      17.288   6.609  21.843  1.00  0.00     0.239 A 
ATOM     30  O   UNL     1      17.770   8.627  20.038  1.00  0.00    -0.452 OA
ATOM     31  C   UNL     1      16.291   7.573  21.580  1.00  0.00     0.111 A 
ATOM     32  O   UNL     1      17.059   5.672  22.654  1.00  0.00    -0.285 OA
ATOM     33  C   UNL     1      16.590   8.590  20.645  1.00  0.00     0.146 A 
ATOM     34  C   UNL     1      15.024   7.573  22.217  1.00  0.00     0.134 A 
ATOM     35  C   UNL     1      15.645   9.573  20.344  1.00  0.00     0.094 A 
ATOM     36  C   UNL     1      14.088   8.569  21.902  1.00  0.00     0.093 A 
ATOM     37  C   UNL     1      14.395   9.567  20.972  1.00  0.00     0.123 A 
BRANCH  28  38
ATOM     38  C   UNL     1      20.005   7.894  19.508  1.00  0.00     0.025 A 
ATOM     39  C   UNL     1      21.089   8.571  20.098  1.00  0.00     0.062 A 
ATOM     40  C   UNL     1      20.135   7.419  18.189  1.00  0.00     0.016 A 
ATOM     41  C   UNL     1      22.300   8.721  19.409  1.00  0.00     0.158 A 
ATOM     42  C   UNL     1      21.347   7.555  17.508  1.00  0.00     0.051 A 
ATOM     43  C   UNL     1      22.432   8.198  18.112  1.00  0.00     0.157 A 
BRANCH  41  44
ATOM     44  O   UNL     1      23.369   9.386  20.009  1.00  0.00    -0.504 OA
ATOM     45  H   UNL     1      23.345   9.657  20.984  1.00  0.00     0.293 HD
ENDBRANCH  41  44
BRANCH  43  46
ATOM     46  O   UNL     1      23.634   8.305  17.411  1.00  0.00    -0.504 OA
ATOM     47  H   UNL     1      23.689   8.742  16.499  1.00  0.00     0.293 HD
ENDBRANCH  43  46
ENDBRANCH  28  38
BRANCH  34  48
ATOM     48  O   UNL     1      14.693   6.599  23.164  1.00  0.00    -0.507 OA
ATOM     49  H   UNL     1      13.732   6.412  23.426  1.00  0.00     0.293 HD
ENDBRANCH  34  48
BRANCH  37  50
ATOM     50  O   UNL     1      13.449  10.549  20.680  1.00  0.00    -0.508 OA
ATOM     51  H   UNL     1      13.697  11.532  20.635  1.00  0.00     0.293 HD
ENDBRANCH  37  50
ENDBRANCH  26  27
ENDBRANCH   5  26
BRANCH   4  52
ATOM     52  O   UNL     1      21.561   5.276  24.529  1.00  0.00    -0.384 OA
ATOM     53  H   UNL     1      22.489   5.379  24.197  1.00  0.00     0.211 HD
ENDBRANCH   4  52
TORSDOF 16
ENDMDL
MODEL 9
REMARK VINA RESULT:    -8.732      2.999      8.907
REMARK INTER + INTRA:         -16.799
REMARK INTER:                 -13.528
REMARK INTRA:                  -3.271
REMARK UNBOUND:                -2.451
REMARK SMILES C[C@H]1O[C@@H](OC[C@@H]2O[C@@H](Oc3c(-c4ccc(O)c(O)c4)oc4cc(O)cc(O)c4c3=O)[C@H](O)[C@H](O)[C@H]2O)[C@H](O)[C@@H](O)[C@@H]1O
REMARK SMILES IDX 7 1 36 2 34 3 32 4 9 5 8 6 6 7 5 8 4 9 1 10 2 11 42 12 3 13
REMARK SMILES IDX 40 14 38 15 43 16 41 18 39 20 37 22 35 24 10 26 11 27 12 28
REMARK SMILES IDX 30 29 21 30 29 31 31 32 22 33 27 34 23 35 26 36 24 37 13 38
REMARK SMILES IDX 20 39 14 40 18 41 15 42 16 43 19 44 17 46 28 48 25 50 33 52
REMARK H PARENT 43 17 41 19 39 21 37 23 35 25 19 45 17 47 28 49 25 51 33 53
REMARK Flexibility Score: inf
ROOT
ATOM      1  C   UNL     1      21.739   5.289  20.352  1.00  0.00     0.180 C 
ATOM      2  C   UNL     1      22.711   4.168  19.903  1.00  0.00     0.177 C 
ATOM      3  C   UNL     1      22.459   3.818  18.428  1.00  0.00     0.180 C 
ATOM      4  C   UNL     1      20.958   3.575  18.162  1.00  0.00     0.214 C 
ATOM      5  C   UNL     1      20.112   4.721  18.754  1.00  0.00     0.339 C 
ATOM      6  O   UNL     1      20.392   4.903  20.133  1.00  0.00    -0.332 OA
ENDROOT
BRANCH   1   7
ATOM      7  C   UNL     1      21.897   5.611  21.843  1.00  0.00     0.198 C 
BRANCH   7   8
ATOM      8  O   UNL     1      23.037   6.427  22.026  1.00  0.00    -0.347 OA
BRANCH   8   9
ATOM      9  C   UNL     1      23.142   6.900  23.356  1.00  0.00     0.281 C 
ATOM     10  C   UNL     1      25.534   7.679  21.522  1.00  0.00     0.041 C 
ATOM     11  C   UNL     1      25.327   7.814  23.041  1.00  0.00     0.150 C 
ATOM     12  C   UNL     1      25.993   6.684  23.865  1.00  0.00     0.174 C 
ATOM     13  O   UNL     1      23.969   8.055  23.401  1.00  0.00    -0.344 OA
ATOM     14  C   UNL     1      25.113   5.422  23.948  1.00  0.00     0.179 C 
ATOM     15  C   UNL     1      23.659   5.789  24.290  1.00  0.00     0.202 C 
BRANCH  12  16
ATOM     16  O   UNL     1      26.247   7.164  25.163  1.00  0.00    -0.388 OA
ATOM     17  H   UNL     1      25.423   7.000  25.697  1.00  0.00     0.211 HD
ENDBRANCH  12  16
BRANCH  14  18
ATOM     18  O   UNL     1      25.157   4.728  22.725  1.00  0.00    -0.387 OA
ATOM     19  H   UNL     1      25.800   5.202  22.136  1.00  0.00     0.211 HD
ENDBRANCH  14  18
BRANCH  15  20
ATOM     20  O   UNL     1      23.582   6.235  25.622  1.00  0.00    -0.385 OA
ATOM     21  H   UNL     1      24.400   5.912  26.088  1.00  0.00     0.211 HD
ENDBRANCH  15  20
ENDBRANCH   8   9
ENDBRANCH   7   8
ENDBRANCH   1   7
BRANCH   2  22
ATOM     22  O   UNL     1      24.042   4.596  20.045  1.00  0.00    -0.387 OA
ATOM     23  H   UNL     1      24.029   5.410  20.618  1.00  0.00     0.211 HD
ENDBRANCH   2  22
BRANCH   3  24
ATOM     24  O   UNL     1      23.202   2.678  18.080  1.00  0.00    -0.387 OA
ATOM     25  H   UNL     1      23.546   2.287  18.934  1.00  0.00     0.211 HD
ENDBRANCH   3  24
BRANCH   5  26
ATOM     26  O   UNL     1      20.344   5.917  18.005  1.00  0.00    -0.454 OA
BRANCH  26  27
ATOM     27  C   UNL     1      19.383   6.735  17.380  1.00  0.00     0.214 A 
ATOM     28  C   UNL     1      18.899   7.854  18.089  1.00  0.00     0.180 A 
ATOM     29  C   UNL     1      18.847   6.469  16.100  1.00  0.00     0.239 A 
ATOM     30  O   UNL     1      17.927   8.601  17.574  1.00  0.00    -0.452 OA
ATOM     31  C   UNL     1      17.812   7.283  15.592  1.00  0.00     0.111 A 
ATOM     32  O   UNL     1      19.282   5.505  15.414  1.00  0.00    -0.285 OA
ATOM     33  C   UNL     1      17.374   8.365  16.391  1.00  0.00     0.146 A 
ATOM     34  C   UNL     1      17.189   7.056  14.338  1.00  0.00     0.134 A 
ATOM     35  C   UNL     1      16.352   9.205  15.944  1.00  0.00     0.094 A 
ATOM     36  C   UNL     1      16.163   7.910  13.907  1.00  0.00     0.093 A 
ATOM     37  C   UNL     1      15.743   8.980  14.705  1.00  0.00     0.123 A 
BRANCH  28  38
ATOM     38  C   UNL     1      19.436   8.235  19.419  1.00  0.00     0.025 A 
ATOM     39  C   UNL     1      20.772   8.665  19.531  1.00  0.00     0.062 A 
ATOM     40  C   UNL     1      18.655   8.127  20.585  1.00  0.00     0.016 A 
ATOM     41  C   UNL     1      21.302   9.036  20.775  1.00  0.00     0.158 A 
ATOM     42  C   UNL     1      19.179   8.512  21.822  1.00  0.00     0.051 A 
ATOM     43  C   UNL     1      20.495   8.972  21.923  1.00  0.00     0.157 A 
BRANCH  41  44
ATOM     44  O   UNL     1      22.624   9.469  20.871  1.00  0.00    -0.504 OA
ATOM     45  H   UNL     1      23.212   9.208  21.653  1.00  0.00     0.293 HD
ENDBRANCH  41  44
BRANCH  43  46
ATOM     46  O   UNL     1      20.984   9.362  23.170  1.00  0.00    -0.504 OA
ATOM     47  H   UNL     1      21.726  10.045  23.268  1.00  0.00     0.293 HD
ENDBRANCH  43  46
ENDBRANCH  28  38
BRANCH  34  48
ATOM     48  O   UNL     1      17.574   5.986  13.526  1.00  0.00    -0.507 OA
ATOM     49  H   UNL     1      18.530   5.869  13.212  1.00  0.00     0.293 HD
ENDBRANCH  34  48
BRANCH  37  50
ATOM     50  O   UNL     1      14.718   9.812  14.255  1.00  0.00    -0.508 OA
ATOM     51  H   UNL     1      14.879  10.521  13.548  1.00  0.00     0.293 HD
ENDBRANCH  37  50
ENDBRANCH  26  27
ENDBRANCH   5  26
BRANCH   4  52
ATOM     52  O   UNL     1      20.538   2.322  18.655  1.00  0.00    -0.384 OA
ATOM     53  H   UNL     1      21.074   1.618  18.211  1.00  0.00     0.211 HD
ENDBRANCH   4  52
TORSDOF 16
ENDMDL
