MODEL 1
REMARK VINA RESULT:    -3.919      0.000      0.000
REMARK INTER + INTRA:          -4.723
REMARK INTER:                  -4.720
REMARK INTRA:                  -0.003
REMARK UNBOUND:                -0.003
REMARK SMILES OCC(O)CO
REMARK SMILES IDX 3 1 5 2 6 3 2 5 1 6 4 8
REMARK H PARENT 6 4 1 7 4 9
REMARK Flexibility Score: inf
ROOT
ATOM      1  C   UNL     1      51.644  16.678  17.738  1.00  0.00     0.165 C 
ENDROOT
BRANCH   1   2
ATOM      2  C   UNL     1      53.135  17.016  17.573  1.00  0.00     0.190 C 
BRANCH   2   3
ATOM      3  O   UNL     1      53.443  17.226  16.221  1.00  0.00    -0.394 OA
ATOM      4  H   UNL     1      53.518  16.328  15.804  1.00  0.00     0.210 HD
ENDBRANCH   2   3
ENDBRANCH   1   2
BRANCH   1   5
ATOM      5  C   UNL     1      51.154  17.007  19.156  1.00  0.00     0.190 C 
BRANCH   5   6
ATOM      6  O   UNL     1      50.142  16.112  19.525  1.00  0.00    -0.394 OA
ATOM      7  H   UNL     1      49.356  16.339  18.963  1.00  0.00     0.210 HD
ENDBRANCH   5   6
ENDBRANCH   1   5
BRANCH   1   8
ATOM      8  O   UNL     1      50.872  17.355  16.777  1.00  0.00    -0.388 OA
ATOM      9  H   UNL     1      49.967  16.943  16.772  1.00  0.00     0.211 HD
ENDBRANCH   1   8
TORSDOF 5
ENDMDL
MODEL 2
REMARK VINA RESULT:    -3.649      0.922      3.078
REMARK INTER + INTRA:          -4.398
REMARK INTER:                  -4.394
REMARK INTRA:                  -0.005
REMARK UNBOUND:                -0.003
REMARK SMILES OCC(O)CO
REMARK SMILES IDX 3 1 5 2 6 3 2 5 1 6 4 8
REMARK H PARENT 6 4 1 7 4 9
REMARK Flexibility Score: inf
ROOT
ATOM      1  C   UNL     1      51.143  17.039  17.253  1.00  0.00     0.165 C 
ENDROOT
BRANCH   1   2
ATOM      2  C   UNL     1      50.138  17.133  18.413  1.00  0.00     0.190 C 
BRANCH   2   3
ATOM      3  O   UNL     1      50.464  16.212  19.419  1.00  0.00    -0.394 OA
ATOM      4  H   UNL     1      51.441  16.295  19.575  1.00  0.00     0.210 HD
ENDBRANCH   2   3
ENDBRANCH   1   2
BRANCH   1   5
ATOM      5  C   UNL     1      52.587  16.994  17.772  1.00  0.00     0.190 C 
BRANCH   5   6
ATOM      6  O   UNL     1      53.476  17.231  16.716  1.00  0.00    -0.394 OA
ATOM      7  H   UNL     1      53.910  16.359  16.522  1.00  0.00     0.210 HD
ENDBRANCH   5   6
ENDBRANCH   1   5
BRANCH   1   8
ATOM      8  O   UNL     1      50.870  15.919  16.448  1.00  0.00    -0.388 OA
ATOM      9  H   UNL     1      51.237  15.119  16.910  1.00  0.00     0.211 HD
ENDBRANCH   1   8
TORSDOF 5
ENDMDL
MODEL 3
REMARK VINA RESULT:    -3.340      1.089      2.064
REMARK INTER + INTRA:          -4.026
REMARK INTER:                  -3.837
REMARK INTRA:                  -0.189
REMARK UNBOUND:                -0.003
REMARK SMILES OCC(O)CO
REMARK SMILES IDX 3 1 5 2 6 3 2 5 1 6 4 8
REMARK H PARENT 6 4 1 7 4 9
REMARK Flexibility Score: inf
ROOT
ATOM      1  C   UNL     1      51.812  17.317  18.154  1.00  0.00     0.165 C 
ENDROOT
BRANCH   1   2
ATOM      2  C   UNL     1      53.160  16.723  17.709  1.00  0.00     0.190 C 
BRANCH   2   3
ATOM      3  O   UNL     1      53.604  17.345  16.534  1.00  0.00    -0.394 OA
ATOM      4  H   UNL     1      53.837  16.619  15.899  1.00  0.00     0.210 HD
ENDBRANCH   2   3
ENDBRANCH   1   2
BRANCH   1   5
ATOM      5  C   UNL     1      50.653  16.738  17.331  1.00  0.00     0.190 C 
BRANCH   5   6
ATOM      6  O   UNL     1      51.124  16.323  16.079  1.00  0.00    -0.394 OA
ATOM      7  H   UNL     1      51.933  15.776  16.257  1.00  0.00     0.210 HD
ENDBRANCH   5   6
ENDBRANCH   1   5
BRANCH   1   8
ATOM      8  O   UNL     1      51.604  17.100  19.528  1.00  0.00    -0.388 OA
ATOM      9  H   UNL     1      51.601  16.118  19.681  1.00  0.00     0.211 HD
ENDBRANCH   1   8
TORSDOF 5
ENDMDL
MODEL 4
REMARK VINA RESULT:    -3.280      1.037      2.831
REMARK INTER + INTRA:          -3.954
REMARK INTER:                  -3.771
REMARK INTRA:                  -0.183
REMARK UNBOUND:                -0.003
REMARK SMILES OCC(O)CO
REMARK SMILES IDX 3 1 5 2 6 3 2 5 1 6 4 8
REMARK H PARENT 6 4 1 7 4 9
REMARK Flexibility Score: inf
ROOT
ATOM      1  C   UNL     1      51.882  16.717  18.225  1.00  0.00     0.165 C 
ENDROOT
BRANCH   1   2
ATOM      2  C   UNL     1      50.770  16.997  17.201  1.00  0.00     0.190 C 
BRANCH   2   3
ATOM      3  O   UNL     1      51.039  16.340  15.993  1.00  0.00    -0.394 OA
ATOM      4  H   UNL     1      50.629  16.887  15.273  1.00  0.00     0.210 HD
ENDBRANCH   2   3
ENDBRANCH   1   2
BRANCH   1   5
ATOM      5  C   UNL     1      53.163  17.489  17.877  1.00  0.00     0.190 C 
BRANCH   5   6
ATOM      6  O   UNL     1      53.543  17.204  16.560  1.00  0.00    -0.394 OA
ATOM      7  H   UNL     1      52.815  16.648  16.178  1.00  0.00     0.210 HD
ENDBRANCH   5   6
ENDBRANCH   1   5
BRANCH   1   8
ATOM      8  O   UNL     1      51.451  17.031  19.526  1.00  0.00    -0.388 OA
ATOM      9  H   UNL     1      51.199  16.180  19.973  1.00  0.00     0.211 HD
ENDBRANCH   1   8
TORSDOF 5
ENDMDL
MODEL 5
REMARK VINA RESULT:    -3.268      1.476      3.472
REMARK INTER + INTRA:          -3.940
REMARK INTER:                  -3.937
REMARK INTRA:                  -0.003
REMARK UNBOUND:                -0.003
REMARK SMILES OCC(O)CO
REMARK SMILES IDX 3 1 5 2 6 3 2 5 1 6 4 8
REMARK H PARENT 6 4 1 7 4 9
REMARK Flexibility Score: inf
ROOT
ATOM      1  C   UNL     1      50.974  16.624  18.548  1.00  0.00     0.165 C 
ENDROOT
BRANCH   1   2
ATOM      2  C   UNL     1      49.567  17.035  19.014  1.00  0.00     0.190 C 
BRANCH   2   3
ATOM      3  O   UNL     1      48.634  16.039  18.694  1.00  0.00    -0.394 OA
ATOM      4  H   UNL     1      48.213  15.759  19.548  1.00  0.00     0.210 HD
ENDBRANCH   2   3
ENDBRANCH   1   2
BRANCH   1   5
ATOM      5  C   UNL     1      51.127  16.798  17.030  1.00  0.00     0.190 C 
BRANCH   5   6
ATOM      6  O   UNL     1      52.487  16.812  16.692  1.00  0.00    -0.394 OA
ATOM      7  H   UNL     1      52.925  17.424  17.339  1.00  0.00     0.210 HD
ENDBRANCH   5   6
ENDBRANCH   1   5
BRANCH   1   8
ATOM      8  O   UNL     1      51.959  17.355  19.234  1.00  0.00    -0.388 OA
ATOM      9  H   UNL     1      52.263  18.088  18.635  1.00  0.00     0.211 HD
ENDBRANCH   1   8
TORSDOF 5
ENDMDL
MODEL 6
REMARK VINA RESULT:    -3.267     16.766     17.234
REMARK INTER + INTRA:          -3.938
REMARK INTER:                  -3.715
REMARK INTRA:                  -0.223
REMARK UNBOUND:                -0.003
REMARK SMILES OCC(O)CO
REMARK SMILES IDX 3 1 5 2 6 3 2 5 1 6 4 8
REMARK H PARENT 6 4 1 7 4 9
REMARK Flexibility Score: inf
ROOT
ATOM      1  C   UNL     1      46.468   6.772   6.129  1.00  0.00     0.165 C 
ENDROOT
BRANCH   1   2
ATOM      2  C   UNL     1      47.220   6.328   4.862  1.00  0.00     0.190 C 
BRANCH   2   3
ATOM      3  O   UNL     1      47.633   4.994   4.980  1.00  0.00    -0.394 OA
ATOM      4  H   UNL     1      48.486   5.004   5.489  1.00  0.00     0.210 HD
ENDBRANCH   2   3
ENDBRANCH   1   2
BRANCH   1   5
ATOM      5  C   UNL     1      44.963   6.496   6.005  1.00  0.00     0.190 C 
BRANCH   5   6
ATOM      6  O   UNL     1      44.757   5.331   5.256  1.00  0.00    -0.394 OA
ATOM      7  H   UNL     1      45.652   4.918   5.137  1.00  0.00     0.210 HD
ENDBRANCH   5   6
ENDBRANCH   1   5
BRANCH   1   8
ATOM      8  O   UNL     1      46.997   6.139   7.267  1.00  0.00    -0.388 OA
ATOM      9  H   UNL     1      47.721   5.529   6.964  1.00  0.00     0.211 HD
ENDBRANCH   1   8
TORSDOF 5
ENDMDL
MODEL 7
REMARK VINA RESULT:    -3.214     17.454     17.687
REMARK INTER + INTRA:          -3.875
REMARK INTER:                  -3.658
REMARK INTRA:                  -0.217
REMARK UNBOUND:                -0.003
REMARK SMILES OCC(O)CO
REMARK SMILES IDX 3 1 5 2 6 3 2 5 1 6 4 8
REMARK H PARENT 6 4 1 7 4 9
REMARK Flexibility Score: inf
ROOT
ATOM      1  C   UNL     1      46.487   7.121   5.064  1.00  0.00     0.165 C 
ENDROOT
BRANCH   1   2
ATOM      2  C   UNL     1      45.250   6.584   5.802  1.00  0.00     0.190 C 
BRANCH   2   3
ATOM      3  O   UNL     1      44.840   5.363   5.248  1.00  0.00    -0.394 OA
ATOM      4  H   UNL     1      45.664   4.889   4.965  1.00  0.00     0.210 HD
ENDBRANCH   2   3
ENDBRANCH   1   2
BRANCH   1   5
ATOM      5  C   UNL     1      47.745   6.325   5.439  1.00  0.00     0.190 C 
BRANCH   5   6
ATOM      6  O   UNL     1      47.645   5.021   4.939  1.00  0.00    -0.394 OA
ATOM      7  H   UNL     1      47.984   5.057   4.007  1.00  0.00     0.210 HD
ENDBRANCH   5   6
ENDBRANCH   1   5
BRANCH   1   8
ATOM      8  O   UNL     1      46.283   7.100   3.673  1.00  0.00    -0.388 OA
ATOM      9  H   UNL     1      46.787   7.863   3.283  1.00  0.00     0.211 HD
ENDBRANCH   1   8
TORSDOF 5
ENDMDL
MODEL 8
REMARK VINA RESULT:    -3.196     17.568     17.868
REMARK INTER + INTRA:          -3.853
REMARK INTER:                  -3.631
REMARK INTRA:                  -0.222
REMARK UNBOUND:                -0.003
REMARK SMILES OCC(O)CO
REMARK SMILES IDX 3 1 5 2 6 3 2 5 1 6 4 8
REMARK H PARENT 6 4 1 7 4 9
REMARK Flexibility Score: inf
ROOT
ATOM      1  C   UNL     1      44.751   7.676   5.098  1.00  0.00     0.165 C 
ENDROOT
BRANCH   1   2
ATOM      2  C   UNL     1      44.727   6.417   5.981  1.00  0.00     0.190 C 
BRANCH   2   3
ATOM      3  O   UNL     1      45.045   5.281   5.222  1.00  0.00    -0.394 OA
ATOM      4  H   UNL     1      44.397   4.575   5.482  1.00  0.00     0.210 HD
ENDBRANCH   2   3
ENDBRANCH   1   2
BRANCH   1   5
ATOM      5  C   UNL     1      46.174   7.981   4.607  1.00  0.00     0.190 C 
BRANCH   5   6
ATOM      6  O   UNL     1      46.498   7.130   3.543  1.00  0.00    -0.394 OA
ATOM      7  H   UNL     1      47.472   7.243   3.387  1.00  0.00     0.210 HD
ENDBRANCH   5   6
ENDBRANCH   1   5
BRANCH   1   8
ATOM      8  O   UNL     1      43.870   7.538   4.011  1.00  0.00    -0.388 OA
ATOM      9  H   UNL     1      44.203   8.118   3.277  1.00  0.00     0.211 HD
ENDBRANCH   1   8
TORSDOF 5
ENDMDL
MODEL 9
REMARK VINA RESULT:    -3.160     12.764     13.792
REMARK INTER + INTRA:          -3.809
REMARK INTER:                  -3.594
REMARK INTRA:                  -0.216
REMARK UNBOUND:                -0.003
REMARK SMILES OCC(O)CO
REMARK SMILES IDX 3 1 5 2 6 3 2 5 1 6 4 8
REMARK H PARENT 6 4 1 7 4 9
REMARK Flexibility Score: inf
ROOT
ATOM      1  C   UNL     1      39.210  12.552  16.906  1.00  0.00     0.165 C 
ENDROOT
BRANCH   1   2
ATOM      2  C   UNL     1      39.928  12.856  18.232  1.00  0.00     0.190 C 
BRANCH   2   3
ATOM      3  O   UNL     1      39.518  11.959  19.228  1.00  0.00    -0.394 OA
ATOM      4  H   UNL     1      38.526  11.938  19.201  1.00  0.00     0.210 HD
ENDBRANCH   2   3
ENDBRANCH   1   2
BRANCH   1   5
ATOM      5  C   UNL     1      37.727  12.231  17.140  1.00  0.00     0.190 C 
BRANCH   5   6
ATOM      6  O   UNL     1      37.549  10.844  17.205  1.00  0.00    -0.394 OA
ATOM      7  H   UNL     1      37.715  10.502  16.288  1.00  0.00     0.210 HD
ENDBRANCH   5   6
ENDBRANCH   1   5
BRANCH   1   8
ATOM      8  O   UNL     1      39.350  13.625  16.008  1.00  0.00    -0.388 OA
ATOM      9  H   UNL     1      39.935  14.303  16.437  1.00  0.00     0.211 HD
ENDBRANCH   1   8
TORSDOF 5
ENDMDL
