MODEL 1
REMARK VINA RESULT:    -6.239      0.000      0.000
REMARK INTER + INTRA:         -10.345
REMARK INTER:                  -9.704
REMARK INTRA:                  -0.641
REMARK UNBOUND:                -0.641
REMARK SMILES COc1cc(CNC(=O)CCCCC=CC(C)C)ccc1O
REMARK SMILES IDX 11 1 12 2 13 3 14 4 15 5 16 6 17 7 18 8 10 9 8 10 9 11 7 12
REMARK SMILES IDX 6 14 5 15 4 16 19 17 3 18 20 19 21 20 2 21 1 22 22 23
REMARK H PARENT 7 13 22 24
REMARK Flexibility Score: inf
ROOT
ATOM      1  C   UNL     1      28.725 -28.619  35.564  1.00  0.00     0.010 C 
ENDROOT
BRANCH   1   2
ATOM      2  C   UNL     1      27.699 -28.999  36.645  1.00  0.00     0.005 C 
BRANCH   2   3
ATOM      3  C   UNL     1      27.039 -27.767  37.278  1.00  0.00     0.027 C 
BRANCH   3   4
ATOM      4  C   UNL     1      26.942 -27.903  38.780  1.00  0.00    -0.031 C 
ATOM      5  C   UNL     1      26.871 -26.878  39.650  1.00  0.00    -0.028 C 
BRANCH   5   6
ATOM      6  C   UNL     1      26.939 -25.413  39.271  1.00  0.00     0.005 C 
ATOM      7  C   UNL     1      27.916 -24.672  40.191  1.00  0.00     0.012 C 
ATOM      8  C   UNL     1      25.547 -24.780  39.359  1.00  0.00     0.012 C 
ENDBRANCH   5   6
ENDBRANCH   3   4
ENDBRANCH   2   3
ENDBRANCH   1   2
BRANCH   1   9
ATOM      9  C   UNL     1      28.486 -29.367  34.246  1.00  0.00     0.100 C 
BRANCH   9  10
ATOM     10  C   UNL     1      27.377 -28.745  33.447  1.00  0.00     0.220 C 
ATOM     11  O   UNL     1      26.995 -27.575  33.725  1.00  0.00    -0.275 OA
ATOM     12  N   UNL     1      26.785 -29.461  32.354  1.00  0.00    -0.352 N 
ATOM     13  H   UNL     1      27.147 -30.410  32.111  1.00  0.00     0.163 HD
BRANCH  12  14
ATOM     14  C   UNL     1      25.702 -28.903  31.547  1.00  0.00     0.151 C 
BRANCH  14  15
ATOM     15  C   UNL     1      26.260 -28.202  30.338  1.00  0.00    -0.025 A 
ATOM     16  C   UNL     1      25.471 -27.273  29.639  1.00  0.00     0.056 A 
ATOM     17  C   UNL     1      27.575 -28.444  29.916  1.00  0.00     0.009 A 
ATOM     18  C   UNL     1      25.990 -26.589  28.521  1.00  0.00     0.160 A 
ATOM     19  C   UNL     1      28.093 -27.773  28.807  1.00  0.00     0.050 A 
ATOM     20  C   UNL     1      27.310 -26.848  28.109  1.00  0.00     0.157 A 
BRANCH  18  21
ATOM     21  O   UNL     1      25.227 -25.654  27.802  1.00  0.00    -0.493 OA
ATOM     22  C   UNL     1      24.321 -25.985  26.755  1.00  0.00     0.278 C 
ENDBRANCH  18  21
BRANCH  20  23
ATOM     23  O   UNL     1      27.863 -26.195  27.008  1.00  0.00    -0.504 OA
ATOM     24  H   UNL     1      28.793 -26.407  26.665  1.00  0.00     0.293 HD
ENDBRANCH  20  23
ENDBRANCH  14  15
ENDBRANCH  12  14
ENDBRANCH   9  10
ENDBRANCH   1   9
TORSDOF 10
ENDMDL
MODEL 2
REMARK VINA RESULT:    -6.217      4.431      7.362
REMARK INTER + INTRA:         -10.311
REMARK INTER:                  -8.977
REMARK INTRA:                  -1.334
REMARK UNBOUND:                -0.641
REMARK SMILES COc1cc(CNC(=O)CCCCC=CC(C)C)ccc1O
REMARK SMILES IDX 11 1 12 2 13 3 14 4 15 5 16 6 17 7 18 8 10 9 8 10 9 11 7 12
REMARK SMILES IDX 6 14 5 15 4 16 19 17 3 18 20 19 21 20 2 21 1 22 22 23
REMARK H PARENT 7 13 22 24
REMARK Flexibility Score: inf
ROOT
ATOM      1  C   UNL     1      26.783 -28.549  37.097  1.00  0.00     0.010 C 
ENDROOT
BRANCH   1   2
ATOM      2  C   UNL     1      28.096 -29.203  36.635  1.00  0.00     0.005 C 
BRANCH   2   3
ATOM      3  C   UNL     1      28.706 -28.487  35.423  1.00  0.00     0.027 C 
BRANCH   3   4
ATOM      4  C   UNL     1      28.716 -29.378  34.202  1.00  0.00    -0.031 C 
ATOM      5  C   UNL     1      27.734 -29.449  33.283  1.00  0.00    -0.028 C 
BRANCH   5   6
ATOM      6  C   UNL     1      26.427 -28.689  33.352  1.00  0.00     0.005 C 
ATOM      7  C   UNL     1      25.271 -29.577  32.877  1.00  0.00     0.012 C 
ATOM      8  C   UNL     1      26.506 -27.422  32.494  1.00  0.00     0.012 C 
ENDBRANCH   5   6
ENDBRANCH   3   4
ENDBRANCH   2   3
ENDBRANCH   1   2
BRANCH   1   9
ATOM      9  C   UNL     1      26.484 -28.828  38.576  1.00  0.00     0.100 C 
BRANCH   9  10
ATOM     10  C   UNL     1      25.254 -29.673  38.743  1.00  0.00     0.220 C 
ATOM     11  O   UNL     1      24.366 -29.318  39.566  1.00  0.00    -0.275 OA
ATOM     12  N   UNL     1      25.074 -30.852  37.946  1.00  0.00    -0.352 N 
ATOM     13  H   UNL     1      25.799 -31.103  37.237  1.00  0.00     0.163 HD
BRANCH  12  14
ATOM     14  C   UNL     1      23.898 -31.710  38.071  1.00  0.00     0.151 C 
BRANCH  14  15
ATOM     15  C   UNL     1      23.273 -31.939  36.721  1.00  0.00    -0.025 A 
ATOM     16  C   UNL     1      22.870 -30.844  35.939  1.00  0.00     0.056 A 
ATOM     17  C   UNL     1      23.114 -33.239  36.220  1.00  0.00     0.009 A 
ATOM     18  C   UNL     1      22.308 -31.043  34.662  1.00  0.00     0.160 A 
ATOM     19  C   UNL     1      22.554 -33.442  34.958  1.00  0.00     0.050 A 
ATOM     20  C   UNL     1      22.152 -32.355  34.177  1.00  0.00     0.157 A 
BRANCH  18  21
ATOM     21  O   UNL     1      21.897 -29.969  33.856  1.00  0.00    -0.493 OA
ATOM     22  C   UNL     1      20.633 -29.322  33.955  1.00  0.00     0.278 C 
ENDBRANCH  18  21
BRANCH  20  23
ATOM     23  O   UNL     1      21.599 -32.597  32.919  1.00  0.00    -0.504 OA
ATOM     24  H   UNL     1      22.172 -32.784  32.105  1.00  0.00     0.293 HD
ENDBRANCH  20  23
ENDBRANCH  14  15
ENDBRANCH  12  14
ENDBRANCH   9  10
ENDBRANCH   1   9
TORSDOF 10
ENDMDL
MODEL 3
REMARK VINA RESULT:    -6.104      3.964      6.831
REMARK INTER + INTRA:         -10.135
REMARK INTER:                  -8.906
REMARK INTRA:                  -1.229
REMARK UNBOUND:                -0.641
REMARK SMILES COc1cc(CNC(=O)CCCCC=CC(C)C)ccc1O
REMARK SMILES IDX 11 1 12 2 13 3 14 4 15 5 16 6 17 7 18 8 10 9 8 10 9 11 7 12
REMARK SMILES IDX 6 14 5 15 4 16 19 17 3 18 20 19 21 20 2 21 1 22 22 23
REMARK H PARENT 7 13 22 24
REMARK Flexibility Score: inf
ROOT
ATOM      1  C   UNL     1      23.256 -31.733  37.816  1.00  0.00     0.010 C 
ENDROOT
BRANCH   1   2
ATOM      2  C   UNL     1      23.524 -33.010  37.003  1.00  0.00     0.005 C 
BRANCH   2   3
ATOM      3  C   UNL     1      22.349 -33.372  36.085  1.00  0.00     0.027 C 
BRANCH   3   4
ATOM      4  C   UNL     1      22.751 -33.325  34.629  1.00  0.00    -0.031 C 
ATOM      5  C   UNL     1      22.670 -32.240  33.834  1.00  0.00    -0.028 C 
BRANCH   5   6
ATOM      6  C   UNL     1      22.105 -30.900  34.253  1.00  0.00     0.005 C 
ATOM      7  C   UNL     1      20.756 -30.654  33.567  1.00  0.00     0.012 C 
ATOM      8  C   UNL     1      23.088 -29.779  33.901  1.00  0.00     0.012 C 
ENDBRANCH   5   6
ENDBRANCH   3   4
ENDBRANCH   2   3
ENDBRANCH   1   2
BRANCH   1   9
ATOM      9  C   UNL     1      24.481 -31.293  38.629  1.00  0.00     0.100 C 
BRANCH   9  10
ATOM     10  C   UNL     1      25.036 -29.989  38.135  1.00  0.00     0.220 C 
ATOM     11  O   UNL     1      24.244 -29.064  37.807  1.00  0.00    -0.275 OA
ATOM     12  N   UNL     1      26.454 -29.784  38.076  1.00  0.00    -0.352 N 
ATOM     13  H   UNL     1      27.093 -30.546  38.397  1.00  0.00     0.163 HD
BRANCH  12  14
ATOM     14  C   UNL     1      27.047 -28.535  37.601  1.00  0.00     0.151 C 
BRANCH  14  15
ATOM     15  C   UNL     1      27.535 -28.695  36.186  1.00  0.00    -0.025 A 
ATOM     16  C   UNL     1      26.884 -28.024  35.139  1.00  0.00     0.056 A 
ATOM     17  C   UNL     1      28.657 -29.487  35.904  1.00  0.00     0.009 A 
ATOM     18  C   UNL     1      27.346 -28.143  33.813  1.00  0.00     0.160 A 
ATOM     19  C   UNL     1      29.118 -29.612  34.593  1.00  0.00     0.050 A 
ATOM     20  C   UNL     1      28.471 -28.945  33.548  1.00  0.00     0.157 A 
BRANCH  18  21
ATOM     21  O   UNL     1      26.718 -27.482  32.744  1.00  0.00    -0.493 OA
ATOM     22  C   UNL     1      25.648 -28.025  31.978  1.00  0.00     0.278 C 
ENDBRANCH  18  21
BRANCH  20  23
ATOM     23  O   UNL     1      28.963 -29.092  32.250  1.00  0.00    -0.504 OA
ATOM     24  H   UNL     1      29.209 -29.996  31.865  1.00  0.00     0.293 HD
ENDBRANCH  20  23
ENDBRANCH  14  15
ENDBRANCH  12  14
ENDBRANCH   9  10
ENDBRANCH   1   9
TORSDOF 10
ENDMDL
MODEL 4
REMARK VINA RESULT:    -6.096      1.771      2.805
REMARK INTER + INTRA:         -10.123
REMARK INTER:                  -9.433
REMARK INTRA:                  -0.690
REMARK UNBOUND:                -0.641
REMARK SMILES COc1cc(CNC(=O)CCCCC=CC(C)C)ccc1O
REMARK SMILES IDX 11 1 12 2 13 3 14 4 15 5 16 6 17 7 18 8 10 9 8 10 9 11 7 12
REMARK SMILES IDX 6 14 5 15 4 16 19 17 3 18 20 19 21 20 2 21 1 22 22 23
REMARK H PARENT 7 13 22 24
REMARK Flexibility Score: inf
ROOT
ATOM      1  C   UNL     1      27.804 -28.742  33.556  1.00  0.00     0.010 C 
ENDROOT
BRANCH   1   2
ATOM      2  C   UNL     1      28.741 -29.528  34.489  1.00  0.00     0.005 C 
BRANCH   2   3
ATOM      3  C   UNL     1      28.514 -29.181  35.966  1.00  0.00     0.027 C 
BRANCH   3   4
ATOM      4  C   UNL     1      27.968 -27.782  36.128  1.00  0.00    -0.031 C 
ATOM      5  C   UNL     1      27.293 -27.329  37.202  1.00  0.00    -0.028 C 
BRANCH   5   6
ATOM      6  C   UNL     1      26.915 -28.168  38.404  1.00  0.00     0.005 C 
ATOM      7  C   UNL     1      25.572 -28.868  38.162  1.00  0.00     0.012 C 
ATOM      8  C   UNL     1      26.835 -27.290  39.657  1.00  0.00     0.012 C 
ENDBRANCH   5   6
ENDBRANCH   3   4
ENDBRANCH   2   3
ENDBRANCH   1   2
BRANCH   1   9
ATOM      9  C   UNL     1      27.967 -29.154  32.087  1.00  0.00     0.100 C 
BRANCH   9  10
ATOM     10  C   UNL     1      26.955 -28.481  31.206  1.00  0.00     0.220 C 
ATOM     11  O   UNL     1      26.017 -27.822  31.733  1.00  0.00    -0.275 OA
ATOM     12  N   UNL     1      27.077 -28.555  29.779  1.00  0.00    -0.352 N 
ATOM     13  H   UNL     1      27.888 -29.067  29.362  1.00  0.00     0.163 HD
BRANCH  12  14
ATOM     14  C   UNL     1      26.119 -27.921  28.876  1.00  0.00     0.151 C 
BRANCH  14  15
ATOM     15  C   UNL     1      26.804 -26.877  28.037  1.00  0.00    -0.025 A 
ATOM     16  C   UNL     1      26.042 -25.984  27.266  1.00  0.00     0.056 A 
ATOM     17  C   UNL     1      28.201 -26.766  28.036  1.00  0.00     0.009 A 
ATOM     18  C   UNL     1      26.669 -24.984  26.495  1.00  0.00     0.160 A 
ATOM     19  C   UNL     1      28.829 -25.781  27.273  1.00  0.00     0.050 A 
ATOM     20  C   UNL     1      28.073 -24.891  26.504  1.00  0.00     0.157 A 
BRANCH  18  21
ATOM     21  O   UNL     1      25.934 -24.076  25.716  1.00  0.00    -0.493 OA
ATOM     22  C   UNL     1      25.464 -24.339  24.399  1.00  0.00     0.278 C 
ENDBRANCH  18  21
BRANCH  20  23
ATOM     23  O   UNL     1      28.735 -23.918  25.756  1.00  0.00    -0.504 OA
ATOM     24  H   UNL     1      28.650 -22.929  25.960  1.00  0.00     0.293 HD
ENDBRANCH  20  23
ENDBRANCH  14  15
ENDBRANCH  12  14
ENDBRANCH   9  10
ENDBRANCH   1   9
TORSDOF 10
ENDMDL
MODEL 5
REMARK VINA RESULT:    -6.077      7.424     11.158
REMARK INTER + INTRA:         -10.094
REMARK INTER:                  -9.199
REMARK INTRA:                  -0.895
REMARK UNBOUND:                -0.641
REMARK SMILES COc1cc(CNC(=O)CCCCC=CC(C)C)ccc1O
REMARK SMILES IDX 11 1 12 2 13 3 14 4 15 5 16 6 17 7 18 8 10 9 8 10 9 11 7 12
REMARK SMILES IDX 6 14 5 15 4 16 19 17 3 18 20 19 21 20 2 21 1 22 22 23
REMARK H PARENT 7 13 22 24
REMARK Flexibility Score: inf
ROOT
ATOM      1  C   UNL     1      24.472 -19.388  26.435  1.00  0.00     0.010 C 
ENDROOT
BRANCH   1   2
ATOM      2  C   UNL     1      23.131 -20.125  26.593  1.00  0.00     0.005 C 
BRANCH   2   3
ATOM      3  C   UNL     1      22.045 -19.229  27.202  1.00  0.00     0.027 C 
BRANCH   3   4
ATOM      4  C   UNL     1      22.273 -17.774  26.863  1.00  0.00    -0.031 C 
ATOM      5  C   UNL     1      21.551 -16.742  27.339  1.00  0.00    -0.028 C 
BRANCH   5   6
ATOM      6  C   UNL     1      20.348 -16.873  28.249  1.00  0.00     0.005 C 
ATOM      7  C   UNL     1      19.362 -15.728  27.992  1.00  0.00     0.012 C 
ATOM      8  C   UNL     1      20.793 -16.869  29.715  1.00  0.00     0.012 C 
ENDBRANCH   5   6
ENDBRANCH   3   4
ENDBRANCH   2   3
ENDBRANCH   1   2
BRANCH   1   9
ATOM      9  C   UNL     1      25.134 -19.670  25.079  1.00  0.00     0.100 C 
BRANCH   9  10
ATOM     10  C   UNL     1      25.597 -21.094  24.973  1.00  0.00     0.220 C 
ATOM     11  O   UNL     1      26.502 -21.510  25.746  1.00  0.00    -0.275 OA
ATOM     12  N   UNL     1      24.986 -21.983  24.026  1.00  0.00    -0.352 N 
ATOM     13  H   UNL     1      24.206 -21.631  23.427  1.00  0.00     0.163 HD
BRANCH  12  14
ATOM     14  C   UNL     1      25.401 -23.376  23.880  1.00  0.00     0.151 C 
BRANCH  14  15
ATOM     15  C   UNL     1      24.612 -24.256  24.811  1.00  0.00    -0.025 A 
ATOM     16  C   UNL     1      25.228 -24.808  25.946  1.00  0.00     0.056 A 
ATOM     17  C   UNL     1      23.254 -24.510  24.573  1.00  0.00     0.009 A 
ATOM     18  C   UNL     1      24.494 -25.612  26.841  1.00  0.00     0.160 A 
ATOM     19  C   UNL     1      22.522 -25.308  25.454  1.00  0.00     0.050 A 
ATOM     20  C   UNL     1      23.133 -25.859  26.584  1.00  0.00     0.157 A 
BRANCH  18  21
ATOM     21  O   UNL     1      25.081 -26.176  27.986  1.00  0.00    -0.493 OA
ATOM     22  C   UNL     1      26.295 -26.919  27.987  1.00  0.00     0.278 C 
ENDBRANCH  18  21
BRANCH  20  23
ATOM     23  O   UNL     1      22.369 -26.650  27.443  1.00  0.00    -0.504 OA
ATOM     24  H   UNL     1      22.538 -26.681  28.442  1.00  0.00     0.293 HD
ENDBRANCH  20  23
ENDBRANCH  14  15
ENDBRANCH  12  14
ENDBRANCH   9  10
ENDBRANCH   1   9
TORSDOF 10
ENDMDL
MODEL 6
REMARK VINA RESULT:    -6.068      6.549      9.648
REMARK INTER + INTRA:         -10.079
REMARK INTER:                  -8.397
REMARK INTRA:                  -1.682
REMARK UNBOUND:                -0.641
REMARK SMILES COc1cc(CNC(=O)CCCCC=CC(C)C)ccc1O
REMARK SMILES IDX 11 1 12 2 13 3 14 4 15 5 16 6 17 7 18 8 10 9 8 10 9 11 7 12
REMARK SMILES IDX 6 14 5 15 4 16 19 17 3 18 20 19 21 20 2 21 1 22 22 23
REMARK H PARENT 7 13 22 24
REMARK Flexibility Score: inf
ROOT
ATOM      1  C   UNL     1      25.057 -24.599  23.271  1.00  0.00     0.010 C 
ENDROOT
BRANCH   1   2
ATOM      2  C   UNL     1      24.108 -25.191  24.326  1.00  0.00     0.005 C 
BRANCH   2   3
ATOM      3  C   UNL     1      23.079 -24.166  24.821  1.00  0.00     0.027 C 
BRANCH   3   4
ATOM      4  C   UNL     1      23.215 -23.919  26.305  1.00  0.00    -0.031 C 
ATOM      5  C   UNL     1      23.449 -22.722  26.877  1.00  0.00    -0.028 C 
BRANCH   5   6
ATOM      6  C   UNL     1      23.675 -21.431  26.120  1.00  0.00     0.005 C 
ATOM      7  C   UNL     1      25.078 -20.884  26.410  1.00  0.00     0.012 C 
ATOM      8  C   UNL     1      22.614 -20.397  26.510  1.00  0.00     0.012 C 
ENDBRANCH   5   6
ENDBRANCH   3   4
ENDBRANCH   2   3
ENDBRANCH   1   2
BRANCH   1   9
ATOM      9  C   UNL     1      25.943 -23.485  23.846  1.00  0.00     0.100 C 
BRANCH   9  10
ATOM     10  C   UNL     1      27.009 -24.035  24.750  1.00  0.00     0.220 C 
ATOM     11  O   UNL     1      27.967 -24.687  24.252  1.00  0.00    -0.275 OA
ATOM     12  N   UNL     1      26.958 -23.785  26.162  1.00  0.00    -0.352 N 
ATOM     13  H   UNL     1      26.181 -23.203  26.548  1.00  0.00     0.163 HD
BRANCH  12  14
ATOM     14  C   UNL     1      27.967 -24.299  27.085  1.00  0.00     0.151 C 
BRANCH  14  15
ATOM     15  C   UNL     1      27.479 -25.563  27.740  1.00  0.00    -0.025 A 
ATOM     16  C   UNL     1      26.105 -25.758  27.953  1.00  0.00     0.056 A 
ATOM     17  C   UNL     1      28.383 -26.566  28.116  1.00  0.00     0.009 A 
ATOM     18  C   UNL     1      25.632 -26.948  28.542  1.00  0.00     0.160 A 
ATOM     19  C   UNL     1      27.922 -27.745  28.702  1.00  0.00     0.050 A 
ATOM     20  C   UNL     1      26.554 -27.942  28.916  1.00  0.00     0.157 A 
BRANCH  18  21
ATOM     21  O   UNL     1      24.264 -27.173  28.766  1.00  0.00    -0.493 OA
ATOM     22  C   UNL     1      23.308 -26.149  29.019  1.00  0.00     0.278 C 
ENDBRANCH  18  21
BRANCH  20  23
ATOM     23  O   UNL     1      26.130 -29.135  29.502  1.00  0.00    -0.504 OA
ATOM     24  H   UNL     1      26.783 -29.831  29.845  1.00  0.00     0.293 HD
ENDBRANCH  20  23
ENDBRANCH  14  15
ENDBRANCH  12  14
ENDBRANCH   9  10
ENDBRANCH   1   9
TORSDOF 10
ENDMDL
MODEL 7
REMARK VINA RESULT:    -6.061      2.266      3.431
REMARK INTER + INTRA:         -10.069
REMARK INTER:                  -9.097
REMARK INTRA:                  -0.972
REMARK UNBOUND:                -0.641
REMARK SMILES COc1cc(CNC(=O)CCCCC=CC(C)C)ccc1O
REMARK SMILES IDX 11 1 12 2 13 3 14 4 15 5 16 6 17 7 18 8 10 9 8 10 9 11 7 12
REMARK SMILES IDX 6 14 5 15 4 16 19 17 3 18 20 19 21 20 2 21 1 22 22 23
REMARK H PARENT 7 13 22 24
REMARK Flexibility Score: inf
ROOT
ATOM      1  C   UNL     1      26.002 -29.824  37.884  1.00  0.00     0.010 C 
ENDROOT
BRANCH   1   2
ATOM      2  C   UNL     1      25.968 -29.697  39.416  1.00  0.00     0.005 C 
BRANCH   2   3
ATOM      3  C   UNL     1      26.708 -28.448  39.912  1.00  0.00     0.027 C 
BRANCH   3   4
ATOM      4  C   UNL     1      25.753 -27.305  40.168  1.00  0.00    -0.031 C 
ATOM      5  C   UNL     1      26.041 -26.000  40.006  1.00  0.00    -0.028 C 
BRANCH   5   6
ATOM      6  C   UNL     1      27.394 -25.456  39.597  1.00  0.00     0.005 C 
ATOM      7  C   UNL     1      27.681 -24.141  40.331  1.00  0.00     0.012 C 
ATOM      8  C   UNL     1      27.437 -25.234  38.081  1.00  0.00     0.012 C 
ENDBRANCH   5   6
ENDBRANCH   3   4
ENDBRANCH   2   3
ENDBRANCH   1   2
BRANCH   1   9
ATOM      9  C   UNL     1      24.614 -29.650  37.255  1.00  0.00     0.100 C 
BRANCH   9  10
ATOM     10  C   UNL     1      24.676 -28.850  35.985  1.00  0.00     0.220 C 
ATOM     11  O   UNL     1      23.778 -29.003  35.113  1.00  0.00    -0.275 OA
ATOM     12  N   UNL     1      25.725 -27.891  35.787  1.00  0.00    -0.352 N 
ATOM     13  H   UNL     1      26.432 -27.746  36.542  1.00  0.00     0.163 HD
BRANCH  12  14
ATOM     14  C   UNL     1      25.833 -27.090  34.570  1.00  0.00     0.151 C 
BRANCH  14  15
ATOM     15  C   UNL     1      26.622 -27.832  33.525  1.00  0.00    -0.025 A 
ATOM     16  C   UNL     1      26.465 -27.509  32.167  1.00  0.00     0.056 A 
ATOM     17  C   UNL     1      27.537 -28.827  33.895  1.00  0.00     0.009 A 
ATOM     18  C   UNL     1      27.216 -28.178  31.179  1.00  0.00     0.160 A 
ATOM     19  C   UNL     1      28.281 -29.495  32.921  1.00  0.00     0.050 A 
ATOM     20  C   UNL     1      28.127 -29.176  31.569  1.00  0.00     0.157 A 
BRANCH  18  21
ATOM     21  O   UNL     1      27.083 -27.876  29.814  1.00  0.00    -0.493 OA
ATOM     22  C   UNL     1      25.867 -27.972  29.081  1.00  0.00     0.278 C 
ENDBRANCH  18  21
BRANCH  20  23
ATOM     23  O   UNL     1      28.891 -29.864  30.625  1.00  0.00    -0.504 OA
ATOM     24  H   UNL     1      29.901 -29.798  30.596  1.00  0.00     0.293 HD
ENDBRANCH  20  23
ENDBRANCH  14  15
ENDBRANCH  12  14
ENDBRANCH   9  10
ENDBRANCH   1   9
TORSDOF 10
ENDMDL
MODEL 8
REMARK VINA RESULT:    -6.060      5.240      7.718
REMARK INTER + INTRA:         -10.068
REMARK INTER:                  -8.225
REMARK INTRA:                  -1.842
REMARK UNBOUND:                -0.641
REMARK SMILES COc1cc(CNC(=O)CCCCC=CC(C)C)ccc1O
REMARK SMILES IDX 11 1 12 2 13 3 14 4 15 5 16 6 17 7 18 8 10 9 8 10 9 11 7 12
REMARK SMILES IDX 6 14 5 15 4 16 19 17 3 18 20 19 21 20 2 21 1 22 22 23
REMARK H PARENT 7 13 22 24
REMARK Flexibility Score: inf
ROOT
ATOM      1  C   UNL     1      26.000 -26.017  31.323  1.00  0.00     0.010 C 
ENDROOT
BRANCH   1   2
ATOM      2  C   UNL     1      26.903 -27.215  30.987  1.00  0.00     0.005 C 
BRANCH   2   3
ATOM      3  C   UNL     1      26.731 -27.684  29.537  1.00  0.00     0.027 C 
BRANCH   3   4
ATOM      4  C   UNL     1      27.991 -27.462  28.731  1.00  0.00    -0.031 C 
ATOM      5  C   UNL     1      28.198 -26.444  27.874  1.00  0.00    -0.028 C 
BRANCH   5   6
ATOM      6  C   UNL     1      27.175 -25.382  27.529  1.00  0.00     0.005 C 
ATOM      7  C   UNL     1      27.362 -24.917  26.080  1.00  0.00     0.012 C 
ATOM      8  C   UNL     1      27.305 -24.193  28.486  1.00  0.00     0.012 C 
ENDBRANCH   5   6
ENDBRANCH   3   4
ENDBRANCH   2   3
ENDBRANCH   1   2
BRANCH   1   9
ATOM      9  C   UNL     1      24.536 -26.266  30.936  1.00  0.00     0.100 C 
BRANCH   9  10
ATOM     10  C   UNL     1      23.974 -25.132  30.129  1.00  0.00     0.220 C 
ATOM     11  O   UNL     1      24.118 -23.948  30.540  1.00  0.00    -0.275 OA
ATOM     12  N   UNL     1      23.314 -25.391  28.881  1.00  0.00    -0.352 N 
ATOM     13  H   UNL     1      23.246 -26.375  28.536  1.00  0.00     0.163 HD
BRANCH  12  14
ATOM     14  C   UNL     1      22.747 -24.325  28.058  1.00  0.00     0.151 C 
BRANCH  14  15
ATOM     15  C   UNL     1      23.221 -24.456  26.636  1.00  0.00    -0.025 A 
ATOM     16  C   UNL     1      23.874 -23.380  26.012  1.00  0.00     0.056 A 
ATOM     17  C   UNL     1      23.043 -25.655  25.933  1.00  0.00     0.009 A 
ATOM     18  C   UNL     1      24.346 -23.498  24.689  1.00  0.00     0.160 A 
ATOM     19  C   UNL     1      23.506 -25.777  24.621  1.00  0.00     0.050 A 
ATOM     20  C   UNL     1      24.155 -24.708  23.997  1.00  0.00     0.157 A 
BRANCH  18  21
ATOM     21  O   UNL     1      25.004 -22.441  24.039  1.00  0.00    -0.493 OA
ATOM     22  C   UNL     1      26.093 -21.708  24.589  1.00  0.00     0.278 C 
ENDBRANCH  18  21
BRANCH  20  23
ATOM     23  O   UNL     1      24.606 -24.868  22.687  1.00  0.00    -0.504 OA
ATOM     24  H   UNL     1      24.146 -24.425  21.900  1.00  0.00     0.293 HD
ENDBRANCH  20  23
ENDBRANCH  14  15
ENDBRANCH  12  14
ENDBRANCH   9  10
ENDBRANCH   1   9
TORSDOF 10
ENDMDL
MODEL 9
REMARK VINA RESULT:    -6.031      4.821      8.515
REMARK INTER + INTRA:         -10.022
REMARK INTER:                  -8.395
REMARK INTRA:                  -1.626
REMARK UNBOUND:                -0.641
REMARK SMILES COc1cc(CNC(=O)CCCCC=CC(C)C)ccc1O
REMARK SMILES IDX 11 1 12 2 13 3 14 4 15 5 16 6 17 7 18 8 10 9 8 10 9 11 7 12
REMARK SMILES IDX 6 14 5 15 4 16 19 17 3 18 20 19 21 20 2 21 1 22 22 23
REMARK H PARENT 7 13 22 24
REMARK Flexibility Score: inf
ROOT
ATOM      1  C   UNL     1      25.135 -23.571  25.450  1.00  0.00     0.010 C 
ENDROOT
BRANCH   1   2
ATOM      2  C   UNL     1      26.411 -23.128  24.716  1.00  0.00     0.005 C 
BRANCH   2   3
ATOM      3  C   UNL     1      27.541 -22.759  25.685  1.00  0.00     0.027 C 
BRANCH   3   4
ATOM      4  C   UNL     1      28.003 -23.959  26.478  1.00  0.00    -0.031 C 
ATOM      5  C   UNL     1      27.830 -24.132  27.802  1.00  0.00    -0.028 C 
BRANCH   5   6
ATOM      6  C   UNL     1      27.194 -23.119  28.731  1.00  0.00     0.005 C 
ATOM      7  C   UNL     1      28.107 -22.855  29.934  1.00  0.00     0.012 C 
ATOM      8  C   UNL     1      25.828 -23.623  29.206  1.00  0.00     0.012 C 
ENDBRANCH   5   6
ENDBRANCH   3   4
ENDBRANCH   2   3
ENDBRANCH   1   2
BRANCH   1   9
ATOM      9  C   UNL     1      24.674 -24.971  25.021  1.00  0.00     0.100 C 
BRANCH   9  10
ATOM     10  C   UNL     1      24.083 -25.737  26.170  1.00  0.00     0.220 C 
ATOM     11  O   UNL     1      22.840 -25.949  26.198  1.00  0.00    -0.275 OA
ATOM     12  N   UNL     1      24.931 -26.256  27.204  1.00  0.00    -0.352 N 
ATOM     13  H   UNL     1      25.964 -26.109  27.138  1.00  0.00     0.163 HD
BRANCH  12  14
ATOM     14  C   UNL     1      24.408 -27.005  28.344  1.00  0.00     0.151 C 
BRANCH  14  15
ATOM     15  C   UNL     1      25.539 -27.560  29.167  1.00  0.00    -0.025 A 
ATOM     16  C   UNL     1      25.276 -28.145  30.417  1.00  0.00     0.056 A 
ATOM     17  C   UNL     1      26.854 -27.527  28.685  1.00  0.00     0.009 A 
ATOM     18  C   UNL     1      26.322 -28.693  31.187  1.00  0.00     0.160 A 
ATOM     19  C   UNL     1      27.895 -28.065  29.444  1.00  0.00     0.050 A 
ATOM     20  C   UNL     1      27.637 -28.647  30.689  1.00  0.00     0.157 A 
BRANCH  18  21
ATOM     21  O   UNL     1      26.091 -29.285  32.439  1.00  0.00    -0.493 OA
ATOM     22  C   UNL     1      24.865 -29.892  32.831  1.00  0.00     0.278 C 
ENDBRANCH  18  21
BRANCH  20  23
ATOM     23  O   UNL     1      28.702 -29.176  31.418  1.00  0.00    -0.504 OA
ATOM     24  H   UNL     1      29.663 -29.096  31.105  1.00  0.00     0.293 HD
ENDBRANCH  20  23
ENDBRANCH  14  15
ENDBRANCH  12  14
ENDBRANCH   9  10
ENDBRANCH   1   9
TORSDOF 10
ENDMDL
