MODEL 1
REMARK VINA RESULT:    -3.272      0.000      0.000
REMARK INTER + INTRA:          -5.307
REMARK INTER:                  -4.610
REMARK INTRA:                  -0.696
REMARK UNBOUND:                -0.696
REMARK SMILES CCCCCCCCC(=O)[O-]
REMARK SMILES IDX 6 1 7 2 8 3 9 4 10 5 11 6 5 7 4 8 3 9 2 10 1 11
REMARK H PARENT
REMARK Flexibility Score: inf
ROOT
ATOM      1  C   UNL     1      25.749   6.283  26.991  1.00  0.00     0.000 C 
ENDROOT
BRANCH   1   2
ATOM      2  C   UNL     1      24.631   6.567  25.972  1.00  0.00     0.006 C 
BRANCH   2   3
ATOM      3  C   UNL     1      23.223   6.182  26.454  1.00  0.00     0.053 C 
BRANCH   3   4
ATOM      4  C   UNL     1      22.659   5.035  25.675  1.00  0.00     0.041 C 
ATOM      5  O   UNL     1      23.421   4.146  25.213  1.00  0.00    -0.550 OA
ATOM      6  O   UNL     1      21.292   4.965  25.432  1.00  0.00    -0.550 OA
ENDBRANCH   3   4
ENDBRANCH   2   3
ENDBRANCH   1   2
BRANCH   1   7
ATOM      7  C   UNL     1      26.397   7.564  27.539  1.00  0.00     0.000 C 
BRANCH   7   8
ATOM      8  C   UNL     1      25.753   7.979  28.869  1.00  0.00    -0.000 C 
BRANCH   8   9
ATOM      9  C   UNL     1      25.271   9.439  28.865  1.00  0.00    -0.000 C 
BRANCH   9  10
ATOM     10  C   UNL     1      24.794   9.899  27.480  1.00  0.00    -0.003 C 
ATOM     11  C   UNL     1      23.274   9.804  27.362  1.00  0.00     0.004 C 
ENDBRANCH   9  10
ENDBRANCH   8   9
ENDBRANCH   7   8
ENDBRANCH   1   7
TORSDOF 7
ENDMDL
MODEL 2
REMARK VINA RESULT:    -3.020     10.271     11.418
REMARK INTER + INTRA:          -4.952
REMARK INTER:                  -4.249
REMARK INTRA:                  -0.703
REMARK UNBOUND:                -0.696
REMARK SMILES CCCCCCCCC(=O)[O-]
REMARK SMILES IDX 6 1 7 2 8 3 9 4 10 5 11 6 5 7 4 8 3 9 2 10 1 11
REMARK H PARENT
REMARK Flexibility Score: inf
ROOT
ATOM      1  C   UNL     1      22.426   8.783  39.329  1.00  0.00     0.000 C 
ENDROOT
BRANCH   1   2
ATOM      2  C   UNL     1      21.452   7.592  39.370  1.00  0.00     0.006 C 
BRANCH   2   3
ATOM      3  C   UNL     1      22.089   6.240  39.010  1.00  0.00     0.053 C 
BRANCH   3   4
ATOM      4  C   UNL     1      21.597   5.720  37.696  1.00  0.00     0.041 C 
ATOM      5  O   UNL     1      21.988   6.243  36.620  1.00  0.00    -0.550 OA
ATOM      6  O   UNL     1      20.679   4.677  37.660  1.00  0.00    -0.550 OA
ENDBRANCH   3   4
ENDBRANCH   2   3
ENDBRANCH   1   2
BRANCH   1   7
ATOM      7  C   UNL     1      22.324   9.594  38.028  1.00  0.00     0.000 C 
BRANCH   7   8
ATOM      8  C   UNL     1      20.873   9.649  37.529  1.00  0.00    -0.000 C 
BRANCH   8   9
ATOM      9  C   UNL     1      20.771  10.011  36.038  1.00  0.00    -0.000 C 
BRANCH   9  10
ATOM     10  C   UNL     1      20.122   8.898  35.203  1.00  0.00    -0.003 C 
ATOM     11  C   UNL     1      19.128   8.094  36.038  1.00  0.00     0.004 C 
ENDBRANCH   9  10
ENDBRANCH   8   9
ENDBRANCH   7   8
ENDBRANCH   1   7
TORSDOF 7
ENDMDL
MODEL 3
REMARK VINA RESULT:    -2.994      1.474      2.232
REMARK INTER + INTRA:          -4.916
REMARK INTER:                  -4.242
REMARK INTRA:                  -0.674
REMARK UNBOUND:                -0.696
REMARK SMILES CCCCCCCCC(=O)[O-]
REMARK SMILES IDX 6 1 7 2 8 3 9 4 10 5 11 6 5 7 4 8 3 9 2 10 1 11
REMARK H PARENT
REMARK Flexibility Score: inf
ROOT
ATOM      1  C   UNL     1      23.302   7.769  27.806  1.00  0.00     0.000 C 
ENDROOT
BRANCH   1   2
ATOM      2  C   UNL     1      23.158   6.276  27.461  1.00  0.00     0.006 C 
BRANCH   2   3
ATOM      3  C   UNL     1      24.344   5.691  26.677  1.00  0.00     0.053 C 
BRANCH   3   4
ATOM      4  C   UNL     1      23.950   5.275  25.293  1.00  0.00     0.041 C 
ATOM      5  O   UNL     1      23.661   4.074  25.050  1.00  0.00    -0.550 OA
ATOM      6  O   UNL     1      23.934   6.209  24.264  1.00  0.00    -0.550 OA
ENDBRANCH   3   4
ENDBRANCH   2   3
ENDBRANCH   1   2
BRANCH   1   7
ATOM      7  C   UNL     1      24.382   8.036  28.865  1.00  0.00     0.000 C 
BRANCH   7   8
ATOM      8  C   UNL     1      25.339   9.145  28.405  1.00  0.00    -0.000 C 
BRANCH   8   9
ATOM      9  C   UNL     1      24.817   9.908  27.177  1.00  0.00    -0.000 C 
BRANCH   9  10
ATOM     10  C   UNL     1      25.837   9.946  26.029  1.00  0.00    -0.003 C 
ATOM     11  C   UNL     1      26.355   8.546  25.707  1.00  0.00     0.004 C 
ENDBRANCH   9  10
ENDBRANCH   8   9
ENDBRANCH   7   8
ENDBRANCH   1   7
TORSDOF 7
ENDMDL
MODEL 4
REMARK VINA RESULT:    -2.945      9.589     10.602
REMARK INTER + INTRA:          -4.847
REMARK INTER:                  -4.163
REMARK INTRA:                  -0.684
REMARK UNBOUND:                -0.696
REMARK SMILES CCCCCCCCC(=O)[O-]
REMARK SMILES IDX 6 1 7 2 8 3 9 4 10 5 11 6 5 7 4 8 3 9 2 10 1 11
REMARK H PARENT
REMARK Flexibility Score: inf
ROOT
ATOM      1  C   UNL     1      19.347   8.286  35.657  1.00  0.00     0.000 C 
ENDROOT
BRANCH   1   2
ATOM      2  C   UNL     1      19.684   6.986  34.905  1.00  0.00     0.006 C 
BRANCH   2   3
ATOM      3  C   UNL     1      21.189   6.695  34.788  1.00  0.00     0.053 C 
BRANCH   3   4
ATOM      4  C   UNL     1      21.679   5.822  35.901  1.00  0.00     0.041 C 
ATOM      5  O   UNL     1      21.981   6.324  37.015  1.00  0.00    -0.550 OA
ATOM      6  O   UNL     1      21.834   4.456  35.697  1.00  0.00    -0.550 OA
ENDBRANCH   3   4
ENDBRANCH   2   3
ENDBRANCH   1   2
BRANCH   1   7
ATOM      7  C   UNL     1      20.372   9.403  35.408  1.00  0.00     0.000 C 
BRANCH   7   8
ATOM      8  C   UNL     1      20.954   9.918  36.732  1.00  0.00    -0.000 C 
BRANCH   8   9
ATOM      9  C   UNL     1      20.187   9.401  37.959  1.00  0.00    -0.000 C 
BRANCH   9  10
ATOM     10  C   UNL     1      21.120   8.967  39.099  1.00  0.00    -0.003 C 
ATOM     11  C   UNL     1      22.564   9.374  38.812  1.00  0.00     0.004 C 
ENDBRANCH   9  10
ENDBRANCH   8   9
ENDBRANCH   7   8
ENDBRANCH   1   7
TORSDOF 7
ENDMDL
MODEL 5
REMARK VINA RESULT:    -2.917      3.169      5.331
REMARK INTER + INTRA:          -4.808
REMARK INTER:                  -4.292
REMARK INTRA:                  -0.516
REMARK UNBOUND:                -0.696
REMARK SMILES CCCCCCCCC(=O)[O-]
REMARK SMILES IDX 6 1 7 2 8 3 9 4 10 5 11 6 5 7 4 8 3 9 2 10 1 11
REMARK H PARENT
REMARK Flexibility Score: inf
ROOT
ATOM      1  C   UNL     1      24.672   6.734  27.052  1.00  0.00     0.000 C 
ENDROOT
BRANCH   1   2
ATOM      2  C   UNL     1      23.517   7.477  27.746  1.00  0.00     0.006 C 
BRANCH   2   3
ATOM      3  C   UNL     1      23.456   8.982  27.435  1.00  0.00     0.053 C 
BRANCH   3   4
ATOM      4  C   UNL     1      24.793   9.639  27.583  1.00  0.00     0.041 C 
ATOM      5  O   UNL     1      25.307   9.781  28.723  1.00  0.00    -0.550 OA
ATOM      6  O   UNL     1      25.457  10.125  26.463  1.00  0.00    -0.550 OA
ENDBRANCH   3   4
ENDBRANCH   2   3
ENDBRANCH   1   2
BRANCH   1   7
ATOM      7  C   UNL     1      24.368   6.395  25.584  1.00  0.00     0.000 C 
BRANCH   7   8
ATOM      8  C   UNL     1      23.142   5.477  25.476  1.00  0.00    -0.000 C 
BRANCH   8   9
ATOM      9  C   UNL     1      23.508   4.047  25.049  1.00  0.00    -0.000 C 
BRANCH   9  10
ATOM     10  C   UNL     1      24.175   3.246  26.177  1.00  0.00    -0.003 C 
ATOM     11  C   UNL     1      23.164   2.872  27.258  1.00  0.00     0.004 C 
ENDBRANCH   9  10
ENDBRANCH   8   9
ENDBRANCH   7   8
ENDBRANCH   1   7
TORSDOF 7
ENDMDL
MODEL 6
REMARK VINA RESULT:    -2.912      9.770     10.945
REMARK INTER + INTRA:          -4.800
REMARK INTER:                  -3.979
REMARK INTRA:                  -0.822
REMARK UNBOUND:                -0.696
REMARK SMILES CCCCCCCCC(=O)[O-]
REMARK SMILES IDX 6 1 7 2 8 3 9 4 10 5 11 6 5 7 4 8 3 9 2 10 1 11
REMARK H PARENT
REMARK Flexibility Score: inf
ROOT
ATOM      1  C   UNL     1      20.821  10.111  36.749  1.00  0.00     0.000 C 
ENDROOT
BRANCH   1   2
ATOM      2  C   UNL     1      20.275   9.432  35.480  1.00  0.00     0.006 C 
BRANCH   2   3
ATOM      3  C   UNL     1      19.559   8.096  35.736  1.00  0.00     0.053 C 
BRANCH   3   4
ATOM      4  C   UNL     1      20.425   6.922  35.398  1.00  0.00     0.041 C 
ATOM      5  O   UNL     1      20.265   5.823  35.992  1.00  0.00    -0.550 OA
ATOM      6  O   UNL     1      21.431   7.051  34.448  1.00  0.00    -0.550 OA
ENDBRANCH   3   4
ENDBRANCH   2   3
ENDBRANCH   1   2
BRANCH   1   7
ATOM      7  C   UNL     1      22.298   9.783  37.014  1.00  0.00     0.000 C 
BRANCH   7   8
ATOM      8  C   UNL     1      22.491   9.227  38.431  1.00  0.00    -0.000 C 
BRANCH   8   9
ATOM      9  C   UNL     1      21.159   8.921  39.135  1.00  0.00    -0.000 C 
BRANCH   9  10
ATOM     10  C   UNL     1      20.900   7.414  39.280  1.00  0.00    -0.003 C 
ATOM     11  C   UNL     1      22.165   6.609  38.989  1.00  0.00     0.004 C 
ENDBRANCH   9  10
ENDBRANCH   8   9
ENDBRANCH   7   8
ENDBRANCH   1   7
TORSDOF 7
ENDMDL
MODEL 7
REMARK VINA RESULT:    -2.907      9.960     11.284
REMARK INTER + INTRA:          -4.793
REMARK INTER:                  -3.976
REMARK INTRA:                  -0.817
REMARK UNBOUND:                -0.696
REMARK SMILES CCCCCCCCC(=O)[O-]
REMARK SMILES IDX 6 1 7 2 8 3 9 4 10 5 11 6 5 7 4 8 3 9 2 10 1 11
REMARK H PARENT
REMARK Flexibility Score: inf
ROOT
ATOM      1  C   UNL     1      22.737   9.710  38.248  1.00  0.00     0.000 C 
ENDROOT
BRANCH   1   2
ATOM      2  C   UNL     1      21.754   9.695  37.064  1.00  0.00     0.006 C 
BRANCH   2   3
ATOM      3  C   UNL     1      22.293   8.998  35.803  1.00  0.00     0.053 C 
BRANCH   3   4
ATOM      4  C   UNL     1      21.209   8.301  35.042  1.00  0.00     0.041 C 
ATOM      5  O   UNL     1      21.488   7.336  34.282  1.00  0.00    -0.550 OA
ATOM      6  O   UNL     1      19.894   8.737  35.147  1.00  0.00    -0.550 OA
ENDBRANCH   3   4
ENDBRANCH   2   3
ENDBRANCH   1   2
BRANCH   1   7
ATOM      7  C   UNL     1      22.196   8.973  39.483  1.00  0.00     0.000 C 
BRANCH   7   8
ATOM      8  C   UNL     1      20.717   8.605  39.298  1.00  0.00    -0.000 C 
BRANCH   8   9
ATOM      9  C   UNL     1      20.456   7.098  39.452  1.00  0.00    -0.000 C 
BRANCH   9  10
ATOM     10  C   UNL     1      20.423   6.364  38.103  1.00  0.00    -0.003 C 
ATOM     11  C   UNL     1      21.792   5.780  37.763  1.00  0.00     0.004 C 
ENDBRANCH   9  10
ENDBRANCH   8   9
ENDBRANCH   7   8
ENDBRANCH   1   7
TORSDOF 7
ENDMDL
MODEL 8
REMARK VINA RESULT:    -2.888     11.323     12.578
REMARK INTER + INTRA:          -4.766
REMARK INTER:                  -4.068
REMARK INTRA:                  -0.699
REMARK UNBOUND:                -0.696
REMARK SMILES CCCCCCCCC(=O)[O-]
REMARK SMILES IDX 6 1 7 2 8 3 9 4 10 5 11 6 5 7 4 8 3 9 2 10 1 11
REMARK H PARENT
REMARK Flexibility Score: inf
ROOT
ATOM      1  C   UNL     1      22.065   8.217  38.743  1.00  0.00     0.000 C 
ENDROOT
BRANCH   1   2
ATOM      2  C   UNL     1      21.096   8.531  39.897  1.00  0.00     0.006 C 
BRANCH   2   3
ATOM      3  C   UNL     1      19.617   8.263  39.573  1.00  0.00     0.053 C 
BRANCH   3   4
ATOM      4  C   UNL     1      18.781   9.497  39.707  1.00  0.00     0.041 C 
ATOM      5  O   UNL     1      18.408  10.125  38.681  1.00  0.00    -0.550 OA
ATOM      6  O   UNL     1      18.441   9.974  40.967  1.00  0.00    -0.550 OA
ENDBRANCH   3   4
ENDBRANCH   2   3
ENDBRANCH   1   2
BRANCH   1   7
ATOM      7  C   UNL     1      22.693   9.478  38.132  1.00  0.00     0.000 C 
BRANCH   7   8
ATOM      8  C   UNL     1      22.367   9.583  36.635  1.00  0.00    -0.000 C 
BRANCH   8   9
ATOM      9  C   UNL     1      20.916  10.016  36.373  1.00  0.00    -0.000 C 
BRANCH   9  10
ATOM     10  C   UNL     1      20.101   8.938  35.644  1.00  0.00    -0.003 C 
ATOM     11  C   UNL     1      21.016   7.892  35.011  1.00  0.00     0.004 C 
ENDBRANCH   9  10
ENDBRANCH   8   9
ENDBRANCH   7   8
ENDBRANCH   1   7
TORSDOF 7
ENDMDL
MODEL 9
REMARK VINA RESULT:    -2.877      1.975      2.394
REMARK INTER + INTRA:          -4.751
REMARK INTER:                  -4.387
REMARK INTRA:                  -0.364
REMARK UNBOUND:                -0.696
REMARK SMILES CCCCCCCCC(=O)[O-]
REMARK SMILES IDX 6 1 7 2 8 3 9 4 10 5 11 6 5 7 4 8 3 9 2 10 1 11
REMARK H PARENT
REMARK Flexibility Score: inf
ROOT
ATOM      1  C   UNL     1      24.654   6.002  26.614  1.00  0.00     0.000 C 
ENDROOT
BRANCH   1   2
ATOM      2  C   UNL     1      24.247   4.536  26.377  1.00  0.00     0.006 C 
BRANCH   2   3
ATOM      3  C   UNL     1      22.775   4.230  26.697  1.00  0.00     0.053 C 
BRANCH   3   4
ATOM      4  C   UNL     1      22.618   3.564  28.029  1.00  0.00     0.041 C 
ATOM      5  O   UNL     1      22.098   4.187  28.992  1.00  0.00    -0.550 OA
ATOM      6  O   UNL     1      23.077   2.266  28.216  1.00  0.00    -0.550 OA
ENDBRANCH   3   4
ENDBRANCH   2   3
ENDBRANCH   1   2
BRANCH   1   7
ATOM      7  C   UNL     1      26.127   6.153  27.024  1.00  0.00     0.000 C 
BRANCH   7   8
ATOM      8  C   UNL     1      26.424   7.587  27.483  1.00  0.00    -0.000 C 
BRANCH   8   9
ATOM      9  C   UNL     1      25.758   8.647  26.590  1.00  0.00    -0.000 C 
BRANCH   9  10
ATOM     10  C   UNL     1      25.012   9.717  27.400  1.00  0.00    -0.003 C 
ATOM     11  C   UNL     1      23.502   9.493  27.346  1.00  0.00     0.004 C 
ENDBRANCH   9  10
ENDBRANCH   8   9
ENDBRANCH   7   8
ENDBRANCH   1   7
TORSDOF 7
ENDMDL
