MODEL 1
REMARK VINA RESULT:    -4.104      0.000      0.000
REMARK INTER + INTRA:          -7.656
REMARK INTER:                  -6.263
REMARK INTRA:                  -1.393
REMARK UNBOUND:                -1.393
REMARK SMILES CCCCCCCCCC=CC(=O)[O-]
REMARK SMILES IDX 7 1 8 2 9 3 10 4 11 5 12 6 13 7 14 8 6 9 5 10 4 11 3 12 2 13
REMARK SMILES IDX 1 14
REMARK H PARENT
REMARK Flexibility Score: inf
ROOT
ATOM      1  C   UNL     1     100.208   4.304  24.627  1.00  0.00     0.000 C 
ENDROOT
BRANCH   1   2
ATOM      2  C   UNL     1      99.920   3.568  25.949  1.00  0.00     0.004 C 
BRANCH   2   3
ATOM      3  C   UNL     1      98.632   2.725  25.937  1.00  0.00     0.027 C 
BRANCH   3   4
ATOM      4  C   UNL     1      97.418   3.513  26.355  1.00  0.00    -0.025 C 
ATOM      5  C   UNL     1      96.420   3.913  25.552  1.00  0.00     0.020 C 
BRANCH   5   6
ATOM      6  C   UNL     1      96.272   3.612  24.113  1.00  0.00     0.064 C 
ATOM      7  O   UNL     1      96.393   4.547  23.280  1.00  0.00    -0.545 OA
ATOM      8  O   UNL     1      95.967   2.338  23.650  1.00  0.00    -0.545 OA
ENDBRANCH   5   6
ENDBRANCH   3   4
ENDBRANCH   2   3
ENDBRANCH   1   2
BRANCH   1   9
ATOM      9  C   UNL     1      99.887   3.450  23.388  1.00  0.00     0.000 C 
BRANCH   9  10
ATOM     10  C   UNL     1     101.080   2.592  22.937  1.00  0.00     0.000 C 
BRANCH  10  11
ATOM     11  C   UNL     1     100.960   1.126  23.384  1.00  0.00    -0.000 C 
BRANCH  11  12
ATOM     12  C   UNL     1     101.993   0.800  24.473  1.00  0.00    -0.000 C 
BRANCH  12  13
ATOM     13  C   UNL     1     103.217   1.727  24.423  1.00  0.00    -0.003 C 
ATOM     14  C   UNL     1     103.510   2.396  25.766  1.00  0.00     0.004 C 
ENDBRANCH  12  13
ENDBRANCH  11  12
ENDBRANCH  10  11
ENDBRANCH   9  10
ENDBRANCH   1   9
TORSDOF 9
ENDMDL
MODEL 2
REMARK VINA RESULT:    -3.988      2.416      5.313
REMARK INTER + INTRA:          -7.480
REMARK INTER:                  -5.938
REMARK INTRA:                  -1.542
REMARK UNBOUND:                -1.393
REMARK SMILES CCCCCCCCCC=CC(=O)[O-]
REMARK SMILES IDX 7 1 8 2 9 3 10 4 11 5 12 6 13 7 14 8 6 9 5 10 4 11 3 12 2 13
REMARK SMILES IDX 1 14
REMARK H PARENT
REMARK Flexibility Score: inf
ROOT
ATOM      1  C   UNL     1      98.702   4.549  27.552  1.00  0.00     0.000 C 
ENDROOT
BRANCH   1   2
ATOM      2  C   UNL     1      99.511   5.233  26.434  1.00  0.00     0.004 C 
BRANCH   2   3
ATOM      3  C   UNL     1     100.295   4.261  25.534  1.00  0.00     0.027 C 
BRANCH   3   4
ATOM      4  C   UNL     1      99.901   4.367  24.084  1.00  0.00    -0.025 C 
ATOM      5  C   UNL     1     100.166   3.466  23.124  1.00  0.00     0.020 C 
BRANCH   5   6
ATOM      6  C   UNL     1     100.840   2.163  23.301  1.00  0.00     0.064 C 
ATOM      7  O   UNL     1     100.157   1.169  23.660  1.00  0.00    -0.545 OA
ATOM      8  O   UNL     1     102.208   2.006  23.121  1.00  0.00    -0.545 OA
ENDBRANCH   5   6
ENDBRANCH   3   4
ENDBRANCH   2   3
ENDBRANCH   1   2
BRANCH   1   9
ATOM      9  C   UNL     1      97.211   4.927  27.527  1.00  0.00     0.000 C 
BRANCH   9  10
ATOM     10  C   UNL     1      96.832   5.756  26.289  1.00  0.00     0.000 C 
BRANCH  10  11
ATOM     11  C   UNL     1      95.707   5.112  25.464  1.00  0.00    -0.000 C 
BRANCH  11  12
ATOM     12  C   UNL     1      96.261   4.492  24.172  1.00  0.00    -0.000 C 
BRANCH  12  13
ATOM     13  C   UNL     1      96.078   2.968  24.123  1.00  0.00    -0.003 C 
ATOM     14  C   UNL     1      97.057   2.224  25.032  1.00  0.00     0.004 C 
ENDBRANCH  12  13
ENDBRANCH  11  12
ENDBRANCH  10  11
ENDBRANCH   9  10
ENDBRANCH   1   9
TORSDOF 9
ENDMDL
MODEL 3
REMARK VINA RESULT:    -3.982      1.457      2.242
REMARK INTER + INTRA:          -7.471
REMARK INTER:                  -5.950
REMARK INTRA:                  -1.521
REMARK UNBOUND:                -1.393
REMARK SMILES CCCCCCCCCC=CC(=O)[O-]
REMARK SMILES IDX 7 1 8 2 9 3 10 4 11 5 12 6 13 7 14 8 6 9 5 10 4 11 3 12 2 13
REMARK SMILES IDX 1 14
REMARK H PARENT
REMARK Flexibility Score: inf
ROOT
ATOM      1  C   UNL     1      99.801   4.502  26.141  1.00  0.00     0.000 C 
ENDROOT
BRANCH   1   2
ATOM      2  C   UNL     1      98.943   3.303  26.588  1.00  0.00     0.004 C 
BRANCH   2   3
ATOM      3  C   UNL     1      97.432   3.482  26.350  1.00  0.00     0.027 C 
BRANCH   3   4
ATOM      4  C   UNL     1      96.941   2.729  25.141  1.00  0.00    -0.025 C 
ATOM      5  C   UNL     1      96.466   3.272  24.009  1.00  0.00     0.020 C 
BRANCH   5   6
ATOM      6  C   UNL     1      96.385   4.712  23.690  1.00  0.00     0.064 C 
ATOM      7  O   UNL     1      97.327   5.247  23.048  1.00  0.00    -0.545 OA
ATOM      8  O   UNL     1      95.325   5.505  24.107  1.00  0.00    -0.545 OA
ENDBRANCH   5   6
ENDBRANCH   3   4
ENDBRANCH   2   3
ENDBRANCH   1   2
BRANCH   1   9
ATOM      9  C   UNL     1     100.908   4.107  25.148  1.00  0.00     0.000 C 
BRANCH   9  10
ATOM     10  C   UNL     1     100.352   3.715  23.770  1.00  0.00     0.000 C 
BRANCH  10  11
ATOM     11  C   UNL     1     100.944   2.398  23.243  1.00  0.00    -0.000 C 
BRANCH  11  12
ATOM     12  C   UNL     1     101.422   1.511  24.402  1.00  0.00    -0.000 C 
BRANCH  12  13
ATOM     13  C   UNL     1     100.416   0.404  24.753  1.00  0.00    -0.003 C 
ATOM     14  C   UNL     1      99.337   0.224  23.685  1.00  0.00     0.004 C 
ENDBRANCH  12  13
ENDBRANCH  11  12
ENDBRANCH  10  11
ENDBRANCH   9  10
ENDBRANCH   1   9
TORSDOF 9
ENDMDL
MODEL 4
REMARK VINA RESULT:    -3.964      3.881      5.642
REMARK INTER + INTRA:          -7.443
REMARK INTER:                  -6.036
REMARK INTRA:                  -1.407
REMARK UNBOUND:                -1.393
REMARK SMILES CCCCCCCCCC=CC(=O)[O-]
REMARK SMILES IDX 7 1 8 2 9 3 10 4 11 5 12 6 13 7 14 8 6 9 5 10 4 11 3 12 2 13
REMARK SMILES IDX 1 14
REMARK H PARENT
REMARK Flexibility Score: inf
ROOT
ATOM      1  C   UNL     1      95.783   6.870  24.946  1.00  0.00     0.000 C 
ENDROOT
BRANCH   1   2
ATOM      2  C   UNL     1      95.312   6.719  23.488  1.00  0.00     0.004 C 
BRANCH   2   3
ATOM      3  C   UNL     1      96.095   5.672  22.674  1.00  0.00     0.027 C 
BRANCH   3   4
ATOM      4  C   UNL     1      97.565   5.992  22.578  1.00  0.00    -0.025 C 
ATOM      5  C   UNL     1      98.156   6.710  21.611  1.00  0.00     0.020 C 
BRANCH   5   6
ATOM      6  C   UNL     1      97.487   7.386  20.481  1.00  0.00     0.064 C 
ATOM      7  O   UNL     1      97.055   8.557  20.641  1.00  0.00    -0.545 OA
ATOM      8  O   UNL     1      97.283   6.759  19.258  1.00  0.00    -0.545 OA
ENDBRANCH   5   6
ENDBRANCH   3   4
ENDBRANCH   2   3
ENDBRANCH   1   2
BRANCH   1   9
ATOM      9  C   UNL     1      95.548   5.600  25.783  1.00  0.00     0.000 C 
BRANCH   9  10
ATOM     10  C   UNL     1      96.716   5.297  26.736  1.00  0.00     0.000 C 
BRANCH  10  11
ATOM     11  C   UNL     1      97.878   4.570  26.040  1.00  0.00    -0.000 C 
BRANCH  11  12
ATOM     12  C   UNL     1      97.551   3.082  25.839  1.00  0.00    -0.000 C 
BRANCH  12  13
ATOM     13  C   UNL     1      97.518   2.680  24.357  1.00  0.00    -0.003 C 
ATOM     14  C   UNL     1      96.127   2.252  23.890  1.00  0.00     0.004 C 
ENDBRANCH  12  13
ENDBRANCH  11  12
ENDBRANCH  10  11
ENDBRANCH   9  10
ENDBRANCH   1   9
TORSDOF 9
ENDMDL
MODEL 5
REMARK VINA RESULT:    -3.946      2.126      4.624
REMARK INTER + INTRA:          -7.415
REMARK INTER:                  -5.898
REMARK INTRA:                  -1.517
REMARK UNBOUND:                -1.393
REMARK SMILES CCCCCCCCCC=CC(=O)[O-]
REMARK SMILES IDX 7 1 8 2 9 3 10 4 11 5 12 6 13 7 14 8 6 9 5 10 4 11 3 12 2 13
REMARK SMILES IDX 1 14
REMARK H PARENT
REMARK Flexibility Score: inf
ROOT
ATOM      1  C   UNL     1      99.030   4.637  23.136  1.00  0.00     0.000 C 
ENDROOT
BRANCH   1   2
ATOM      2  C   UNL     1      99.957   4.478  24.356  1.00  0.00     0.004 C 
BRANCH   2   3
ATOM      3  C   UNL     1     100.755   3.161  24.378  1.00  0.00     0.027 C 
BRANCH   3   4
ATOM      4  C   UNL     1     100.337   2.248  25.501  1.00  0.00    -0.025 C 
ATOM      5  C   UNL     1      99.575   1.149  25.384  1.00  0.00     0.020 C 
BRANCH   5   6
ATOM      6  C   UNL     1      99.044   0.574  24.132  1.00  0.00     0.064 C 
ATOM      7  O   UNL     1      97.841   0.785  23.828  1.00  0.00    -0.545 OA
ATOM      8  O   UNL     1      99.815  -0.223  23.296  1.00  0.00    -0.545 OA
ENDBRANCH   5   6
ENDBRANCH   3   4
ENDBRANCH   2   3
ENDBRANCH   1   2
BRANCH   1   9
ATOM      9  C   UNL     1      97.610   5.089  23.520  1.00  0.00     0.000 C 
BRANCH   9  10
ATOM     10  C   UNL     1      96.716   3.918  23.960  1.00  0.00     0.000 C 
BRANCH  10  11
ATOM     11  C   UNL     1      96.444   3.914  25.473  1.00  0.00    -0.000 C 
BRANCH  11  12
ATOM     12  C   UNL     1      96.709   5.299  26.080  1.00  0.00    -0.000 C 
BRANCH  12  13
ATOM     13  C   UNL     1      97.653   5.242  27.291  1.00  0.00    -0.003 C 
ATOM     14  C   UNL     1      97.934   3.813  27.757  1.00  0.00     0.004 C 
ENDBRANCH  12  13
ENDBRANCH  11  12
ENDBRANCH  10  11
ENDBRANCH   9  10
ENDBRANCH   1   9
TORSDOF 9
ENDMDL
MODEL 6
REMARK VINA RESULT:    -3.946      2.691      5.519
REMARK INTER + INTRA:          -7.415
REMARK INTER:                  -6.053
REMARK INTRA:                  -1.362
REMARK UNBOUND:                -1.393
REMARK SMILES CCCCCCCCCC=CC(=O)[O-]
REMARK SMILES IDX 7 1 8 2 9 3 10 4 11 5 12 6 13 7 14 8 6 9 5 10 4 11 3 12 2 13
REMARK SMILES IDX 1 14
REMARK H PARENT
REMARK Flexibility Score: inf
ROOT
ATOM      1  C   UNL     1      97.370   2.954  25.442  1.00  0.00     0.000 C 
ENDROOT
BRANCH   1   2
ATOM      2  C   UNL     1      98.212   4.011  26.181  1.00  0.00     0.004 C 
BRANCH   2   3
ATOM      3  C   UNL     1      99.608   4.245  25.575  1.00  0.00     0.027 C 
BRANCH   3   4
ATOM      4  C   UNL     1      99.563   4.486  24.088  1.00  0.00    -0.025 C 
ATOM      5  C   UNL     1     100.063   3.677  23.140  1.00  0.00     0.020 C 
BRANCH   5   6
ATOM      6  C   UNL     1     100.702   2.362  23.352  1.00  0.00     0.064 C 
ATOM      7  O   UNL     1     101.955   2.274  23.269  1.00  0.00    -0.545 OA
ATOM      8  O   UNL     1      99.965   1.212  23.601  1.00  0.00    -0.545 OA
ENDBRANCH   5   6
ENDBRANCH   3   4
ENDBRANCH   2   3
ENDBRANCH   1   2
BRANCH   1   9
ATOM      9  C   UNL     1      96.136   3.555  24.747  1.00  0.00     0.000 C 
BRANCH   9  10
ATOM     10  C   UNL     1      95.689   4.883  25.380  1.00  0.00     0.000 C 
BRANCH  10  11
ATOM     11  C   UNL     1      95.416   5.977  24.336  1.00  0.00    -0.000 C 
BRANCH  11  12
ATOM     12  C   UNL     1      96.181   5.695  23.034  1.00  0.00    -0.000 C 
BRANCH  12  13
ATOM     13  C   UNL     1      97.113   6.850  22.635  1.00  0.00    -0.003 C 
ATOM     14  C   UNL     1      97.978   6.520  21.419  1.00  0.00     0.004 C 
ENDBRANCH  12  13
ENDBRANCH  11  12
ENDBRANCH  10  11
ENDBRANCH   9  10
ENDBRANCH   1   9
TORSDOF 9
ENDMDL
MODEL 7
REMARK VINA RESULT:    -3.926      2.160      3.730
REMARK INTER + INTRA:          -7.386
REMARK INTER:                  -6.162
REMARK INTRA:                  -1.224
REMARK UNBOUND:                -1.393
REMARK SMILES CCCCCCCCCC=CC(=O)[O-]
REMARK SMILES IDX 7 1 8 2 9 3 10 4 11 5 12 6 13 7 14 8 6 9 5 10 4 11 3 12 2 13
REMARK SMILES IDX 1 14
REMARK H PARENT
REMARK Flexibility Score: inf
ROOT
ATOM      1  C   UNL     1      96.139   2.794  24.172  1.00  0.00     0.000 C 
ENDROOT
BRANCH   1   2
ATOM      2  C   UNL     1      96.508   3.819  25.261  1.00  0.00     0.004 C 
BRANCH   2   3
ATOM      3  C   UNL     1      95.542   5.014  25.360  1.00  0.00     0.027 C 
BRANCH   3   4
ATOM      4  C   UNL     1      96.221   6.333  25.100  1.00  0.00    -0.025 C 
ATOM      5  C   UNL     1      96.218   7.009  23.940  1.00  0.00     0.020 C 
BRANCH   5   6
ATOM      6  C   UNL     1      95.501   6.635  22.704  1.00  0.00     0.064 C 
ATOM      7  O   UNL     1      96.120   5.998  21.811  1.00  0.00    -0.545 OA
ATOM      8  O   UNL     1      94.180   6.995  22.476  1.00  0.00    -0.545 OA
ENDBRANCH   5   6
ENDBRANCH   3   4
ENDBRANCH   2   3
ENDBRANCH   1   2
BRANCH   1   9
ATOM      9  C   UNL     1      97.142   1.631  24.083  1.00  0.00     0.000 C 
BRANCH   9  10
ATOM     10  C   UNL     1      98.503   1.975  24.709  1.00  0.00     0.000 C 
BRANCH  10  11
ATOM     11  C   UNL     1      99.685   1.626  23.791  1.00  0.00    -0.000 C 
BRANCH  11  12
ATOM     12  C   UNL     1     100.511   2.879  23.463  1.00  0.00    -0.000 C 
BRANCH  12  13
ATOM     13  C   UNL     1      99.823   4.176  23.916  1.00  0.00    -0.003 C 
ATOM     14  C   UNL     1      99.224   4.967  22.753  1.00  0.00     0.004 C 
ENDBRANCH  12  13
ENDBRANCH  11  12
ENDBRANCH  10  11
ENDBRANCH   9  10
ENDBRANCH   1   9
TORSDOF 9
ENDMDL
MODEL 8
REMARK VINA RESULT:    -3.885      1.094      1.999
REMARK INTER + INTRA:          -7.323
REMARK INTER:                  -6.033
REMARK INTRA:                  -1.290
REMARK UNBOUND:                -1.393
REMARK SMILES CCCCCCCCCC=CC(=O)[O-]
REMARK SMILES IDX 7 1 8 2 9 3 10 4 11 5 12 6 13 7 14 8 6 9 5 10 4 11 3 12 2 13
REMARK SMILES IDX 1 14
REMARK H PARENT
REMARK Flexibility Score: inf
ROOT
ATOM      1  C   UNL     1      99.164   3.340  26.136  1.00  0.00     0.000 C 
ENDROOT
BRANCH   1   2
ATOM      2  C   UNL     1      97.988   3.897  26.959  1.00  0.00     0.004 C 
BRANCH   2   3
ATOM      3  C   UNL     1      97.567   5.328  26.575  1.00  0.00     0.027 C 
BRANCH   3   4
ATOM      4  C   UNL     1      96.102   5.433  26.242  1.00  0.00    -0.025 C 
ATOM      5  C   UNL     1      95.535   5.132  25.062  1.00  0.00     0.020 C 
BRANCH   5   6
ATOM      6  C   UNL     1      96.216   4.581  23.873  1.00  0.00     0.064 C 
ATOM      7  O   UNL     1      96.333   3.332  23.764  1.00  0.00    -0.545 OA
ATOM      8  O   UNL     1      96.765   5.394  22.890  1.00  0.00    -0.545 OA
ENDBRANCH   5   6
ENDBRANCH   3   4
ENDBRANCH   2   3
ENDBRANCH   1   2
BRANCH   1   9
ATOM      9  C   UNL     1      99.851   4.414  25.275  1.00  0.00     0.000 C 
BRANCH   9  10
ATOM     10  C   UNL     1      99.921   4.025  23.790  1.00  0.00     0.000 C 
BRANCH  10  11
ATOM     11  C   UNL     1      99.967   2.504  23.575  1.00  0.00    -0.000 C 
BRANCH  11  12
ATOM     12  C   UNL     1     101.393   2.041  23.245  1.00  0.00    -0.000 C 
BRANCH  12  13
ATOM     13  C   UNL     1     102.035   1.241  24.389  1.00  0.00    -0.003 C 
ATOM     14  C   UNL     1     102.871   2.114  25.325  1.00  0.00     0.004 C 
ENDBRANCH  12  13
ENDBRANCH  11  12
ENDBRANCH  10  11
ENDBRANCH   9  10
ENDBRANCH   1   9
TORSDOF 9
ENDMDL
MODEL 9
REMARK VINA RESULT:    -3.874      3.540      5.772
REMARK INTER + INTRA:          -7.305
REMARK INTER:                  -6.104
REMARK INTRA:                  -1.201
REMARK UNBOUND:                -1.393
REMARK SMILES CCCCCCCCCC=CC(=O)[O-]
REMARK SMILES IDX 7 1 8 2 9 3 10 4 11 5 12 6 13 7 14 8 6 9 5 10 4 11 3 12 2 13
REMARK SMILES IDX 1 14
REMARK H PARENT
REMARK Flexibility Score: inf
ROOT
ATOM      1  C   UNL     1      95.956   7.212  24.346  1.00  0.00     0.000 C 
ENDROOT
BRANCH   1   2
ATOM      2  C   UNL     1      95.000   6.664  23.271  1.00  0.00     0.004 C 
BRANCH   2   3
ATOM      3  C   UNL     1      95.636   6.508  21.877  1.00  0.00     0.027 C 
BRANCH   3   4
ATOM      4  C   UNL     1      97.129   6.316  21.938  1.00  0.00    -0.025 C 
ATOM      5  C   UNL     1      98.015   6.702  21.007  1.00  0.00     0.020 C 
BRANCH   5   6
ATOM      6  C   UNL     1      97.721   7.446  19.765  1.00  0.00     0.064 C 
ATOM      7  O   UNL     1      97.286   6.815  18.766  1.00  0.00    -0.545 OA
ATOM      8  O   UNL     1      97.943   8.812  19.650  1.00  0.00    -0.545 OA
ENDBRANCH   5   6
ENDBRANCH   3   4
ENDBRANCH   2   3
ENDBRANCH   1   2
BRANCH   1   9
ATOM      9  C   UNL     1      96.109   6.264  25.548  1.00  0.00     0.000 C 
BRANCH   9  10
ATOM     10  C   UNL     1      95.516   4.872  25.281  1.00  0.00     0.000 C 
BRANCH  10  11
ATOM     11  C   UNL     1      96.554   3.746  25.423  1.00  0.00    -0.000 C 
BRANCH  11  12
ATOM     12  C   UNL     1      97.152   3.378  24.057  1.00  0.00    -0.000 C 
BRANCH  12  13
ATOM     13  C   UNL     1      98.653   3.060  24.136  1.00  0.00    -0.003 C 
ATOM     14  C   UNL     1      99.502   3.993  23.274  1.00  0.00     0.004 C 
ENDBRANCH  12  13
ENDBRANCH  11  12
ENDBRANCH  10  11
ENDBRANCH   9  10
ENDBRANCH   1   9
TORSDOF 9
ENDMDL
