MODEL 1
REMARK VINA RESULT:    -4.023      0.000      0.000
REMARK INTER + INTRA:          -6.303
REMARK INTER:                  -5.905
REMARK INTRA:                  -0.399
REMARK UNBOUND:                -0.399
REMARK SMILES O=C([O-])CCCCCCCC(=O)[O-]
REMARK SMILES IDX 7 1 6 2 5 3 4 4 2 5 1 6 3 7 8 8 9 9 10 10 11 11 12 12 13 13
REMARK H PARENT
REMARK Flexibility Score: inf
ROOT
ATOM      1  C   UNL     1      36.733  34.224  27.707  1.00  0.00     0.000 C 
ENDROOT
BRANCH   1   2
ATOM      2  C   UNL     1      36.284  33.099  26.766  1.00  0.00     0.000 C 
BRANCH   2   3
ATOM      3  C   UNL     1      35.055  33.520  25.952  1.00  0.00     0.006 C 
BRANCH   3   4
ATOM      4  C   UNL     1      34.138  32.323  25.682  1.00  0.00     0.053 C 
BRANCH   4   5
ATOM      5  C   UNL     1      34.065  32.040  24.215  1.00  0.00     0.041 C 
ATOM      6  O   UNL     1      33.619  32.910  23.422  1.00  0.00    -0.550 OA
ATOM      7  O   UNL     1      34.536  30.831  23.717  1.00  0.00    -0.550 OA
ENDBRANCH   4   5
ENDBRANCH   3   4
ENDBRANCH   2   3
ENDBRANCH   1   2
BRANCH   1   8
ATOM      8  C   UNL     1      36.026  35.544  27.362  1.00  0.00     0.000 C 
BRANCH   8   9
ATOM      9  C   UNL     1      35.274  36.143  28.561  1.00  0.00     0.006 C 
BRANCH   9  10
ATOM     10  C   UNL     1      36.188  36.386  29.769  1.00  0.00     0.053 C 
BRANCH  10  11
ATOM     11  C   UNL     1      37.287  37.335  29.410  1.00  0.00     0.041 C 
ATOM     12  O   UNL     1      37.021  38.530  29.114  1.00  0.00    -0.550 OA
ATOM     13  O   UNL     1      38.611  36.914  29.451  1.00  0.00    -0.550 OA
ENDBRANCH  10  11
ENDBRANCH   9  10
ENDBRANCH   8   9
ENDBRANCH   1   8
TORSDOF 8
ENDMDL
MODEL 2
REMARK VINA RESULT:    -3.997      2.829      4.456
REMARK INTER + INTRA:          -6.265
REMARK INTER:                  -5.911
REMARK INTRA:                  -0.354
REMARK UNBOUND:                -0.399
REMARK SMILES O=C([O-])CCCCCCCC(=O)[O-]
REMARK SMILES IDX 7 1 6 2 5 3 4 4 2 5 1 6 3 7 8 8 9 9 10 10 11 11 12 12 13 13
REMARK H PARENT
REMARK Flexibility Score: inf
ROOT
ATOM      1  C   UNL     1      34.431  31.570  24.158  1.00  0.00     0.000 C 
ENDROOT
BRANCH   1   2
ATOM      2  C   UNL     1      33.564  32.374  23.181  1.00  0.00     0.000 C 
BRANCH   2   3
ATOM      3  C   UNL     1      32.909  31.456  22.143  1.00  0.00     0.006 C 
BRANCH   3   4
ATOM      4  C   UNL     1      33.541  30.061  22.166  1.00  0.00     0.053 C 
BRANCH   4   5
ATOM      5  C   UNL     1      32.857  29.160  21.186  1.00  0.00     0.041 C 
ATOM      6  O   UNL     1      31.677  28.777  21.393  1.00  0.00    -0.550 OA
ATOM      7  O   UNL     1      33.509  28.782  20.018  1.00  0.00    -0.550 OA
ENDBRANCH   4   5
ENDBRANCH   3   4
ENDBRANCH   2   3
ENDBRANCH   1   2
BRANCH   1   8
ATOM      8  C   UNL     1      34.243  32.069  25.599  1.00  0.00     0.000 C 
BRANCH   8   9
ATOM      9  C   UNL     1      34.139  33.600  25.686  1.00  0.00     0.006 C 
BRANCH   9  10
ATOM     10  C   UNL     1      35.511  34.282  25.761  1.00  0.00     0.053 C 
BRANCH  10  11
ATOM     11  C   UNL     1      35.865  34.588  27.182  1.00  0.00     0.041 C 
ATOM     12  O   UNL     1      36.581  33.790  27.844  1.00  0.00    -0.550 OA
ATOM     13  O   UNL     1      35.445  35.779  27.762  1.00  0.00    -0.550 OA
ENDBRANCH  10  11
ENDBRANCH   9  10
ENDBRANCH   8   9
ENDBRANCH   1   8
TORSDOF 8
ENDMDL
MODEL 3
REMARK VINA RESULT:    -3.947      3.412      8.610
REMARK INTER + INTRA:          -6.192
REMARK INTER:                  -5.839
REMARK INTRA:                  -0.354
REMARK UNBOUND:                -0.399
REMARK SMILES O=C([O-])CCCCCCCC(=O)[O-]
REMARK SMILES IDX 7 1 6 2 5 3 4 4 2 5 1 6 3 7 8 8 9 9 10 10 11 11 12 12 13 13
REMARK H PARENT
REMARK Flexibility Score: inf
ROOT
ATOM      1  C   UNL     1      34.898  31.227  23.393  1.00  0.00     0.000 C 
ENDROOT
BRANCH   1   2
ATOM      2  C   UNL     1      33.960  32.287  23.985  1.00  0.00     0.000 C 
BRANCH   2   3
ATOM      3  C   UNL     1      34.073  32.332  25.513  1.00  0.00     0.006 C 
BRANCH   3   4
ATOM      4  C   UNL     1      35.536  32.444  25.952  1.00  0.00     0.053 C 
BRANCH   4   5
ATOM      5  C   UNL     1      35.783  33.760  26.622  1.00  0.00     0.041 C 
ATOM      6  O   UNL     1      36.768  33.905  27.391  1.00  0.00    -0.550 OA
ATOM      7  O   UNL     1      34.951  34.841  26.356  1.00  0.00    -0.550 OA
ENDBRANCH   4   5
ENDBRANCH   3   4
ENDBRANCH   2   3
ENDBRANCH   1   2
BRANCH   1   8
ATOM      8  C   UNL     1      34.098  30.084  22.750  1.00  0.00     0.000 C 
BRANCH   8   9
ATOM      9  C   UNL     1      32.931  30.589  21.888  1.00  0.00     0.006 C 
BRANCH   9  10
ATOM     10  C   UNL     1      32.264  29.468  21.080  1.00  0.00     0.053 C 
BRANCH  10  11
ATOM     11  C   UNL     1      32.932  29.315  19.750  1.00  0.00     0.041 C 
ATOM     12  O   UNL     1      33.700  28.340  19.535  1.00  0.00    -0.550 OA
ATOM     13  O   UNL     1      32.666  30.221  18.731  1.00  0.00    -0.550 OA
ENDBRANCH  10  11
ENDBRANCH   9  10
ENDBRANCH   8   9
ENDBRANCH   1   8
TORSDOF 8
ENDMDL
MODEL 4
REMARK VINA RESULT:    -3.944      3.766      6.104
REMARK INTER + INTRA:          -6.187
REMARK INTER:                  -5.816
REMARK INTRA:                  -0.371
REMARK UNBOUND:                -0.399
REMARK SMILES O=C([O-])CCCCCCCC(=O)[O-]
REMARK SMILES IDX 7 1 6 2 5 3 4 4 2 5 1 6 3 7 8 8 9 9 10 10 11 11 12 12 13 13
REMARK H PARENT
REMARK Flexibility Score: inf
ROOT
ATOM      1  C   UNL     1      34.161  30.145  22.618  1.00  0.00     0.000 C 
ENDROOT
BRANCH   1   2
ATOM      2  C   UNL     1      33.010  30.865  21.904  1.00  0.00     0.000 C 
BRANCH   2   3
ATOM      3  C   UNL     1      32.139  29.873  21.124  1.00  0.00     0.006 C 
BRANCH   3   4
ATOM      4  C   UNL     1      32.948  28.642  20.705  1.00  0.00     0.053 C 
BRANCH   4   5
ATOM      5  C   UNL     1      33.296  28.714  19.252  1.00  0.00     0.041 C 
ATOM      6  O   UNL     1      32.946  29.708  18.564  1.00  0.00    -0.550 OA
ATOM      7  O   UNL     1      34.052  27.704  18.668  1.00  0.00    -0.550 OA
ENDBRANCH   4   5
ENDBRANCH   3   4
ENDBRANCH   2   3
ENDBRANCH   1   2
BRANCH   1   8
ATOM      8  C   UNL     1      34.731  31.011  23.751  1.00  0.00     0.000 C 
BRANCH   8   9
ATOM      9  C   UNL     1      33.888  32.267  24.019  1.00  0.00     0.006 C 
BRANCH   9  10
ATOM     10  C   UNL     1      33.961  32.728  25.480  1.00  0.00     0.053 C 
BRANCH  10  11
ATOM     11  C   UNL     1      34.719  34.014  25.584  1.00  0.00     0.041 C 
ATOM     12  O   UNL     1      34.653  34.866  24.658  1.00  0.00    -0.550 OA
ATOM     13  O   UNL     1      35.460  34.294  26.726  1.00  0.00    -0.550 OA
ENDBRANCH  10  11
ENDBRANCH   9  10
ENDBRANCH   8   9
ENDBRANCH   1   8
TORSDOF 8
ENDMDL
MODEL 5
REMARK VINA RESULT:    -3.927      0.588      6.822
REMARK INTER + INTRA:          -6.162
REMARK INTER:                  -5.794
REMARK INTRA:                  -0.368
REMARK UNBOUND:                -0.399
REMARK SMILES O=C([O-])CCCCCCCC(=O)[O-]
REMARK SMILES IDX 7 1 6 2 5 3 4 4 2 5 1 6 3 7 8 8 9 9 10 10 11 11 12 12 13 13
REMARK H PARENT
REMARK Flexibility Score: inf
ROOT
ATOM      1  C   UNL     1      36.211  33.562  26.919  1.00  0.00     0.000 C 
ENDROOT
BRANCH   1   2
ATOM      2  C   UNL     1      36.674  34.349  28.151  1.00  0.00     0.000 C 
BRANCH   2   3
ATOM      3  C   UNL     1      35.927  35.683  28.266  1.00  0.00     0.006 C 
BRANCH   3   4
ATOM      4  C   UNL     1      36.262  36.390  29.582  1.00  0.00     0.053 C 
BRANCH   4   5
ATOM      5  C   UNL     1      37.372  37.374  29.381  1.00  0.00     0.041 C 
ATOM      6  O   UNL     1      38.571  37.001  29.456  1.00  0.00    -0.550 OA
ATOM      7  O   UNL     1      37.079  38.694  29.061  1.00  0.00    -0.550 OA
ENDBRANCH   4   5
ENDBRANCH   3   4
ENDBRANCH   2   3
ENDBRANCH   1   2
BRANCH   1   8
ATOM      8  C   UNL     1      35.118  34.329  26.157  1.00  0.00     0.000 C 
BRANCH   8   9
ATOM      9  C   UNL     1      33.997  33.410  25.648  1.00  0.00     0.006 C 
BRANCH   9  10
ATOM     10  C   UNL     1      34.486  31.986  25.357  1.00  0.00     0.053 C 
BRANCH  10  11
ATOM     11  C   UNL     1      34.234  31.630  23.925  1.00  0.00     0.041 C 
ATOM     12  O   UNL     1      33.490  32.355  23.213  1.00  0.00    -0.550 OA
ATOM     13  O   UNL     1      34.861  30.525  23.363  1.00  0.00    -0.550 OA
ENDBRANCH  10  11
ENDBRANCH   9  10
ENDBRANCH   8   9
ENDBRANCH   1   8
TORSDOF 8
ENDMDL
MODEL 6
REMARK VINA RESULT:    -3.927      3.167      8.274
REMARK INTER + INTRA:          -6.162
REMARK INTER:                  -5.734
REMARK INTRA:                  -0.428
REMARK UNBOUND:                -0.399
REMARK SMILES O=C([O-])CCCCCCCC(=O)[O-]
REMARK SMILES IDX 7 1 6 2 5 3 4 4 2 5 1 6 3 7 8 8 9 9 10 10 11 11 12 12 13 13
REMARK H PARENT
REMARK Flexibility Score: inf
ROOT
ATOM      1  C   UNL     1      34.550  32.060  23.189  1.00  0.00     0.000 C 
ENDROOT
BRANCH   1   2
ATOM      2  C   UNL     1      34.369  31.445  24.582  1.00  0.00     0.000 C 
BRANCH   2   3
ATOM      3  C   UNL     1      33.989  32.516  25.612  1.00  0.00     0.006 C 
BRANCH   3   4
ATOM      4  C   UNL     1      35.217  33.319  26.048  1.00  0.00     0.053 C 
BRANCH   4   5
ATOM      5  C   UNL     1      34.960  34.787  25.909  1.00  0.00     0.041 C 
ATOM      6  O   UNL     1      34.802  35.298  24.770  1.00  0.00    -0.550 OA
ATOM      7  O   UNL     1      34.846  35.583  27.043  1.00  0.00    -0.550 OA
ENDBRANCH   4   5
ENDBRANCH   3   4
ENDBRANCH   2   3
ENDBRANCH   1   2
BRANCH   1   8
ATOM      8  C   UNL     1      33.191  32.404  22.560  1.00  0.00     0.000 C 
BRANCH   8   9
ATOM      9  C   UNL     1      32.518  31.189  21.903  1.00  0.00     0.006 C 
BRANCH   9  10
ATOM     10  C   UNL     1      33.449  30.451  20.933  1.00  0.00     0.053 C 
BRANCH  10  11
ATOM     11  C   UNL     1      32.857  29.134  20.541  1.00  0.00     0.041 C 
ATOM     12  O   UNL     1      31.937  28.622  21.232  1.00  0.00    -0.550 OA
ATOM     13  O   UNL     1      33.285  28.497  19.383  1.00  0.00    -0.550 OA
ENDBRANCH  10  11
ENDBRANCH   9  10
ENDBRANCH   8   9
ENDBRANCH   1   8
TORSDOF 8
ENDMDL
MODEL 7
REMARK VINA RESULT:    -3.907      1.369      6.879
REMARK INTER + INTRA:          -6.133
REMARK INTER:                  -5.733
REMARK INTRA:                  -0.400
REMARK UNBOUND:                -0.399
REMARK SMILES O=C([O-])CCCCCCCC(=O)[O-]
REMARK SMILES IDX 7 1 6 2 5 3 4 4 2 5 1 6 3 7 8 8 9 9 10 10 11 11 12 12 13 13
REMARK H PARENT
REMARK Flexibility Score: inf
ROOT
ATOM      1  C   UNL     1      35.220  33.769  25.789  1.00  0.00     0.000 C 
ENDROOT
BRANCH   1   2
ATOM      2  C   UNL     1      36.311  33.175  26.688  1.00  0.00     0.000 C 
BRANCH   2   3
ATOM      3  C   UNL     1      36.711  34.160  27.793  1.00  0.00     0.006 C 
BRANCH   3   4
ATOM      4  C   UNL     1      35.734  35.338  27.859  1.00  0.00     0.053 C 
BRANCH   4   5
ATOM      5  C   UNL     1      36.114  36.271  28.966  1.00  0.00     0.041 C 
ATOM      6  O   UNL     1      35.846  35.980  30.161  1.00  0.00    -0.550 OA
ATOM      7  O   UNL     1      36.808  37.441  28.680  1.00  0.00    -0.550 OA
ENDBRANCH   4   5
ENDBRANCH   3   4
ENDBRANCH   2   3
ENDBRANCH   1   2
BRANCH   1   8
ATOM      8  C   UNL     1      34.059  32.780  25.607  1.00  0.00     0.000 C 
BRANCH   8   9
ATOM      9  C   UNL     1      34.404  31.631  24.647  1.00  0.00     0.006 C 
BRANCH   9  10
ATOM     10  C   UNL     1      34.689  32.118  23.221  1.00  0.00     0.053 C 
BRANCH  10  11
ATOM     11  C   UNL     1      33.410  32.438  22.513  1.00  0.00     0.041 C 
ATOM     12  O   UNL     1      33.137  33.627  22.204  1.00  0.00    -0.550 OA
ATOM     13  O   UNL     1      32.543  31.415  22.150  1.00  0.00    -0.550 OA
ENDBRANCH  10  11
ENDBRANCH   9  10
ENDBRANCH   8   9
ENDBRANCH   1   8
TORSDOF 8
ENDMDL
MODEL 8
REMARK VINA RESULT:    -3.907      2.050      3.369
REMARK INTER + INTRA:          -6.132
REMARK INTER:                  -5.797
REMARK INTRA:                  -0.336
REMARK UNBOUND:                -0.399
REMARK SMILES O=C([O-])CCCCCCCC(=O)[O-]
REMARK SMILES IDX 7 1 6 2 5 3 4 4 2 5 1 6 3 7 8 8 9 9 10 10 11 11 12 12 13 13
REMARK H PARENT
REMARK Flexibility Score: inf
ROOT
ATOM      1  C   UNL     1      34.226  32.004  25.416  1.00  0.00     0.000 C 
ENDROOT
BRANCH   1   2
ATOM      2  C   UNL     1      34.689  31.534  24.031  1.00  0.00     0.000 C 
BRANCH   2   3
ATOM      3  C   UNL     1      34.010  32.343  22.920  1.00  0.00     0.006 C 
BRANCH   3   4
ATOM      4  C   UNL     1      32.867  31.548  22.282  1.00  0.00     0.053 C 
BRANCH   4   5
ATOM      5  C   UNL     1      33.387  30.292  21.657  1.00  0.00     0.041 C 
ATOM      6  O   UNL     1      34.225  30.349  20.720  1.00  0.00    -0.550 OA
ATOM      7  O   UNL     1      32.983  29.054  22.146  1.00  0.00    -0.550 OA
ENDBRANCH   4   5
ENDBRANCH   3   4
ENDBRANCH   2   3
ENDBRANCH   1   2
BRANCH   1   8
ATOM      8  C   UNL     1      34.237  33.538  25.508  1.00  0.00     0.000 C 
BRANCH   8   9
ATOM      9  C   UNL     1      35.404  34.072  26.353  1.00  0.00     0.006 C 
BRANCH   9  10
ATOM     10  C   UNL     1      35.126  35.465  26.931  1.00  0.00     0.053 C 
BRANCH  10  11
ATOM     11  C   UNL     1      35.778  35.614  28.269  1.00  0.00     0.041 C 
ATOM     12  O   UNL     1      36.563  34.726  28.694  1.00  0.00    -0.550 OA
ATOM     13  O   UNL     1      35.558  36.758  29.026  1.00  0.00    -0.550 OA
ENDBRANCH  10  11
ENDBRANCH   9  10
ENDBRANCH   8   9
ENDBRANCH   1   8
TORSDOF 8
ENDMDL
MODEL 9
REMARK VINA RESULT:    -3.877      1.478      2.480
REMARK INTER + INTRA:          -6.088
REMARK INTER:                  -5.737
REMARK INTRA:                  -0.351
REMARK UNBOUND:                -0.399
REMARK SMILES O=C([O-])CCCCCCCC(=O)[O-]
REMARK SMILES IDX 7 1 6 2 5 3 4 4 2 5 1 6 3 7 8 8 9 9 10 10 11 11 12 12 13 13
REMARK H PARENT
REMARK Flexibility Score: inf
ROOT
ATOM      1  C   UNL     1      35.219  33.872  25.783  1.00  0.00     0.000 C 
ENDROOT
BRANCH   1   2
ATOM      2  C   UNL     1      33.992  32.974  25.581  1.00  0.00     0.000 C 
BRANCH   2   3
ATOM      3  C   UNL     1      34.380  31.658  24.898  1.00  0.00     0.006 C 
BRANCH   3   4
ATOM      4  C   UNL     1      34.606  31.863  23.397  1.00  0.00     0.053 C 
BRANCH   4   5
ATOM      5  C   UNL     1      33.685  30.990  22.605  1.00  0.00     0.041 C 
ATOM      6  O   UNL     1      33.866  29.745  22.567  1.00  0.00    -0.550 OA
ATOM      7  O   UNL     1      32.595  31.548  21.947  1.00  0.00    -0.550 OA
ENDBRANCH   4   5
ENDBRANCH   3   4
ENDBRANCH   2   3
ENDBRANCH   1   2
BRANCH   1   8
ATOM      8  C   UNL     1      36.220  33.224  26.753  1.00  0.00     0.000 C 
BRANCH   8   9
ATOM      9  C   UNL     1      37.179  34.246  27.384  1.00  0.00     0.006 C 
BRANCH   9  10
ATOM     10  C   UNL     1      36.627  34.851  28.681  1.00  0.00     0.053 C 
BRANCH  10  11
ATOM     11  C   UNL     1      36.288  36.294  28.480  1.00  0.00     0.041 C 
ATOM     12  O   UNL     1      35.896  36.995  29.450  1.00  0.00    -0.550 OA
ATOM     13  O   UNL     1      36.452  36.880  27.230  1.00  0.00    -0.550 OA
ENDBRANCH  10  11
ENDBRANCH   9  10
ENDBRANCH   8   9
ENDBRANCH   1   8
TORSDOF 8
ENDMDL
