MODEL 1
REMARK VINA RESULT:    -4.535      0.000      0.000
REMARK INTER + INTRA:          -5.903
REMARK INTER:                  -5.595
REMARK INTRA:                  -0.307
REMARK UNBOUND:                -0.307
REMARK SMILES COC(=O)c1ccccc1C(=O)OC
REMARK SMILES IDX 5 1 6 2 7 3 8 4 9 5 10 6 3 7 4 8 2 9 1 10 11 11 12 12 13 13
REMARK SMILES IDX 14 14
REMARK H PARENT
REMARK Flexibility Score: inf
ROOT
ATOM      1  C   UNL     1      17.082  -7.738  13.740  1.00  0.00     0.074 A 
ATOM      2  C   UNL     1      17.954  -8.838  13.646  1.00  0.00     0.016 A 
ATOM      3  C   UNL     1      17.604  -9.965  12.902  1.00  0.00     0.001 A 
ATOM      4  C   UNL     1      16.379 -10.012  12.241  1.00  0.00     0.001 A 
ATOM      5  C   UNL     1      15.509  -8.924  12.301  1.00  0.00     0.016 A 
ATOM      6  C   UNL     1      15.850  -7.769  13.027  1.00  0.00     0.074 A 
ENDROOT
BRANCH   1   7
ATOM      7  C   UNL     1      17.467  -6.625  14.638  1.00  0.00     0.338 C 
ATOM      8  O   UNL     1      17.769  -5.497  14.160  1.00  0.00    -0.246 OA
BRANCH   7   9
ATOM      9  O   UNL     1      17.437  -6.815  16.024  1.00  0.00    -0.465 OA
ATOM     10  C   UNL     1      16.712  -5.960  16.899  1.00  0.00     0.282 C 
ENDBRANCH   7   9
ENDBRANCH   1   7
BRANCH   6  11
ATOM     11  C   UNL     1      14.931  -6.609  12.955  1.00  0.00     0.338 C 
ATOM     12  O   UNL     1      14.978  -5.819  11.972  1.00  0.00    -0.246 OA
BRANCH  11  13
ATOM     13  O   UNL     1      13.970  -6.430  13.955  1.00  0.00    -0.465 OA
ATOM     14  C   UNL     1      13.825  -5.208  14.670  1.00  0.00     0.282 C 
ENDBRANCH  11  13
ENDBRANCH   6  11
TORSDOF 4
ENDMDL
MODEL 2
REMARK VINA RESULT:    -4.514      0.071      3.026
REMARK INTER + INTRA:          -5.877
REMARK INTER:                  -5.558
REMARK INTRA:                  -0.319
REMARK UNBOUND:                -0.307
REMARK SMILES COC(=O)c1ccccc1C(=O)OC
REMARK SMILES IDX 5 1 6 2 7 3 8 4 9 5 10 6 3 7 4 8 2 9 1 10 11 11 12 12 13 13
REMARK SMILES IDX 14 14
REMARK H PARENT
REMARK Flexibility Score: inf
ROOT
ATOM      1  C   UNL     1      15.900  -7.792  13.050  1.00  0.00     0.074 A 
ATOM      2  C   UNL     1      15.579  -8.951  12.319  1.00  0.00     0.016 A 
ATOM      3  C   UNL     1      16.461 -10.030  12.271  1.00  0.00     0.001 A 
ATOM      4  C   UNL     1      17.676  -9.970  12.949  1.00  0.00     0.001 A 
ATOM      5  C   UNL     1      18.005  -8.840  13.698  1.00  0.00     0.016 A 
ATOM      6  C   UNL     1      17.121  -7.749  13.779  1.00  0.00     0.074 A 
ENDROOT
BRANCH   1   7
ATOM      7  C   UNL     1      14.970  -6.642  12.965  1.00  0.00     0.338 C 
ATOM      8  O   UNL     1      14.985  -5.883  11.956  1.00  0.00    -0.246 OA
BRANCH   7   9
ATOM      9  O   UNL     1      14.033  -6.436  13.983  1.00  0.00    -0.465 OA
ATOM     10  C   UNL     1      13.811  -5.163  14.575  1.00  0.00     0.282 C 
ENDBRANCH   7   9
ENDBRANCH   1   7
BRANCH   6  11
ATOM     11  C   UNL     1      17.482  -6.632  14.682  1.00  0.00     0.338 C 
ATOM     12  O   UNL     1      17.805  -5.508  14.207  1.00  0.00    -0.246 OA
BRANCH  11  13
ATOM     13  O   UNL     1      17.407  -6.814  16.067  1.00  0.00    -0.465 OA
ATOM     14  C   UNL     1      16.633  -5.969  16.911  1.00  0.00     0.282 C 
ENDBRANCH  11  13
ENDBRANCH   6  11
TORSDOF 4
ENDMDL
MODEL 3
REMARK VINA RESULT:    -4.418      0.752      1.552
REMARK INTER + INTRA:          -5.759
REMARK INTER:                  -5.370
REMARK INTRA:                  -0.389
REMARK UNBOUND:                -0.307
REMARK SMILES COC(=O)c1ccccc1C(=O)OC
REMARK SMILES IDX 5 1 6 2 7 3 8 4 9 5 10 6 3 7 4 8 2 9 1 10 11 11 12 12 13 13
REMARK SMILES IDX 14 14
REMARK H PARENT
REMARK Flexibility Score: inf
ROOT
ATOM      1  C   UNL     1      17.091  -7.628  13.707  1.00  0.00     0.074 A 
ATOM      2  C   UNL     1      18.016  -8.688  13.675  1.00  0.00     0.016 A 
ATOM      3  C   UNL     1      17.705  -9.887  13.035  1.00  0.00     0.001 A 
ATOM      4  C   UNL     1      16.467 -10.048  12.417  1.00  0.00     0.001 A 
ATOM      5  C   UNL     1      15.543  -9.002  12.417  1.00  0.00     0.016 A 
ATOM      6  C   UNL     1      15.845  -7.776  13.036  1.00  0.00     0.074 A 
ENDROOT
BRANCH   1   7
ATOM      7  C   UNL     1      17.443  -6.428  14.500  1.00  0.00     0.338 C 
ATOM      8  O   UNL     1      17.195  -6.386  15.737  1.00  0.00    -0.246 OA
BRANCH   7   9
ATOM      9  O   UNL     1      18.106  -5.362  13.882  1.00  0.00    -0.465 OA
ATOM     10  C   UNL     1      18.414  -5.352  12.494  1.00  0.00     0.282 C 
ENDBRANCH   7   9
ENDBRANCH   1   7
BRANCH   6  11
ATOM     11  C   UNL     1      14.866  -6.673  12.900  1.00  0.00     0.338 C 
ATOM     12  O   UNL     1      14.875  -5.936  11.875  1.00  0.00    -0.246 OA
BRANCH  11  13
ATOM     13  O   UNL     1      13.893  -6.490  13.887  1.00  0.00    -0.465 OA
ATOM     14  C   UNL     1      13.869  -5.350  14.739  1.00  0.00     0.282 C 
ENDBRANCH  11  13
ENDBRANCH   6  11
TORSDOF 4
ENDMDL
MODEL 4
REMARK VINA RESULT:    -4.376      1.123      3.261
REMARK INTER + INTRA:          -5.707
REMARK INTER:                  -5.273
REMARK INTRA:                  -0.433
REMARK UNBOUND:                -0.307
REMARK SMILES COC(=O)c1ccccc1C(=O)OC
REMARK SMILES IDX 5 1 6 2 7 3 8 4 9 5 10 6 3 7 4 8 2 9 1 10 11 11 12 12 13 13
REMARK SMILES IDX 14 14
REMARK H PARENT
REMARK Flexibility Score: inf
ROOT
ATOM      1  C   UNL     1      15.634  -8.113  12.878  1.00  0.00     0.074 A 
ATOM      2  C   UNL     1      15.018  -9.287  12.408  1.00  0.00     0.016 A 
ATOM      3  C   UNL     1      15.739 -10.476  12.298  1.00  0.00     0.001 A 
ATOM      4  C   UNL     1      17.084 -10.512  12.656  1.00  0.00     0.001 A 
ATOM      5  C   UNL     1      17.709  -9.365  13.147  1.00  0.00     0.016 A 
ATOM      6  C   UNL     1      16.997  -8.162  13.287  1.00  0.00     0.074 A 
ENDROOT
BRANCH   1   7
ATOM      7  C   UNL     1      14.841  -6.862  12.861  1.00  0.00     0.338 C 
ATOM      8  O   UNL     1      14.914  -6.075  11.877  1.00  0.00    -0.246 OA
BRANCH   7   9
ATOM      9  O   UNL     1      13.965  -6.586  13.917  1.00  0.00    -0.465 OA
ATOM     10  C   UNL     1      14.149  -5.484  14.796  1.00  0.00     0.282 C 
ENDBRANCH   7   9
ENDBRANCH   1   7
BRANCH   6  11
ATOM     11  C   UNL     1      17.691  -7.016  13.919  1.00  0.00     0.338 C 
ATOM     12  O   UNL     1      17.524  -6.769  15.145  1.00  0.00    -0.246 OA
BRANCH  11  13
ATOM     13  O   UNL     1      18.578  -6.245  13.162  1.00  0.00    -0.465 OA
ATOM     14  C   UNL     1      18.265  -4.931  12.715  1.00  0.00     0.282 C 
ENDBRANCH  11  13
ENDBRANCH   6  11
TORSDOF 4
ENDMDL
MODEL 5
REMARK VINA RESULT:    -4.329      1.849      2.691
REMARK INTER + INTRA:          -5.649
REMARK INTER:                  -5.547
REMARK INTRA:                  -0.102
REMARK UNBOUND:                -0.307
REMARK SMILES COC(=O)c1ccccc1C(=O)OC
REMARK SMILES IDX 5 1 6 2 7 3 8 4 9 5 10 6 3 7 4 8 2 9 1 10 11 11 12 12 13 13
REMARK SMILES IDX 14 14
REMARK H PARENT
REMARK Flexibility Score: inf
ROOT
ATOM      1  C   UNL     1      16.561  -9.563  12.600  1.00  0.00     0.074 A 
ATOM      2  C   UNL     1      16.735 -10.940  12.371  1.00  0.00     0.016 A 
ATOM      3  C   UNL     1      15.634 -11.786  12.234  1.00  0.00     0.001 A 
ATOM      4  C   UNL     1      14.343 -11.271  12.324  1.00  0.00     0.001 A 
ATOM      5  C   UNL     1      14.147  -9.904  12.527  1.00  0.00     0.016 A 
ATOM      6  C   UNL     1      15.242  -9.030  12.645  1.00  0.00     0.074 A 
ENDROOT
BRANCH   1   7
ATOM      7  C   UNL     1      17.770  -8.745  12.848  1.00  0.00     0.338 C 
ATOM      8  O   UNL     1      18.484  -8.957  13.867  1.00  0.00    -0.246 OA
BRANCH   7   9
ATOM      9  O   UNL     1      18.150  -7.774  11.915  1.00  0.00    -0.465 OA
ATOM     10  C   UNL     1      18.692  -6.516  12.295  1.00  0.00     0.282 C 
ENDBRANCH   7   9
ENDBRANCH   1   7
BRANCH   6  11
ATOM     11  C   UNL     1      14.961  -7.579  12.746  1.00  0.00     0.338 C 
ATOM     12  O   UNL     1      14.250  -7.006  11.875  1.00  0.00    -0.246 OA
BRANCH  11  13
ATOM     13  O   UNL     1      15.440  -6.860  13.845  1.00  0.00    -0.465 OA
ATOM     14  C   UNL     1      14.760  -5.730  14.379  1.00  0.00     0.282 C 
ENDBRANCH  11  13
ENDBRANCH   6  11
TORSDOF 4
ENDMDL
MODEL 6
REMARK VINA RESULT:    -4.251      1.648      2.305
REMARK INTER + INTRA:          -5.553
REMARK INTER:                  -5.260
REMARK INTRA:                  -0.293
REMARK UNBOUND:                -0.307
REMARK SMILES COC(=O)c1ccccc1C(=O)OC
REMARK SMILES IDX 5 1 6 2 7 3 8 4 9 5 10 6 3 7 4 8 2 9 1 10 11 11 12 12 13 13
REMARK SMILES IDX 14 14
REMARK H PARENT
REMARK Flexibility Score: inf
ROOT
ATOM      1  C   UNL     1      16.306  -8.999  12.743  1.00  0.00     0.074 A 
ATOM      2  C   UNL     1      16.208 -10.373  12.454  1.00  0.00     0.016 A 
ATOM      3  C   UNL     1      14.964 -10.985  12.311  1.00  0.00     0.001 A 
ATOM      4  C   UNL     1      13.797 -10.237  12.454  1.00  0.00     0.001 A 
ATOM      5  C   UNL     1      13.871  -8.869  12.718  1.00  0.00     0.016 A 
ATOM      6  C   UNL     1      15.115  -8.227  12.844  1.00  0.00     0.074 A 
ENDROOT
BRANCH   1   7
ATOM      7  C   UNL     1      17.654  -8.440  12.994  1.00  0.00     0.338 C 
ATOM      8  O   UNL     1      18.322  -7.936  12.048  1.00  0.00    -0.246 OA
BRANCH   7   9
ATOM      9  O   UNL     1      18.161  -8.420  14.298  1.00  0.00    -0.465 OA
ATOM     10  C   UNL     1      18.651  -9.585  14.948  1.00  0.00     0.282 C 
ENDBRANCH   7   9
ENDBRANCH   1   7
BRANCH   6  11
ATOM     11  C   UNL     1      15.120  -6.755  13.011  1.00  0.00     0.338 C 
ATOM     12  O   UNL     1      14.974  -6.000  12.010  1.00  0.00    -0.246 OA
BRANCH  11  13
ATOM     13  O   UNL     1      15.229  -6.208  14.293  1.00  0.00    -0.465 OA
ATOM     14  C   UNL     1      14.197  -5.426  14.884  1.00  0.00     0.282 C 
ENDBRANCH  11  13
ENDBRANCH   6  11
TORSDOF 4
ENDMDL
MODEL 7
REMARK VINA RESULT:    -4.179      1.936      3.516
REMARK INTER + INTRA:          -5.464
REMARK INTER:                  -5.320
REMARK INTRA:                  -0.145
REMARK UNBOUND:                -0.307
REMARK SMILES COC(=O)c1ccccc1C(=O)OC
REMARK SMILES IDX 5 1 6 2 7 3 8 4 9 5 10 6 3 7 4 8 2 9 1 10 11 11 12 12 13 13
REMARK SMILES IDX 14 14
REMARK H PARENT
REMARK Flexibility Score: inf
ROOT
ATOM      1  C   UNL     1      15.085  -7.948  12.919  1.00  0.00     0.074 A 
ATOM      2  C   UNL     1      13.694  -8.153  12.967  1.00  0.00     0.016 A 
ATOM      3  C   UNL     1      13.147  -9.406  12.691  1.00  0.00     0.001 A 
ATOM      4  C   UNL     1      13.979 -10.473  12.360  1.00  0.00     0.001 A 
ATOM      5  C   UNL     1      15.363 -10.298  12.328  1.00  0.00     0.016 A 
ATOM      6  C   UNL     1      15.937  -9.050  12.626  1.00  0.00     0.074 A 
ENDROOT
BRANCH   1   7
ATOM      7  C   UNL     1      15.587  -6.568  13.112  1.00  0.00     0.338 C 
ATOM      8  O   UNL     1      15.731  -5.798  12.123  1.00  0.00    -0.246 OA
BRANCH   7   9
ATOM      9  O   UNL     1      15.846  -6.103  14.406  1.00  0.00    -0.465 OA
ATOM     10  C   UNL     1      17.155  -6.065  14.959  1.00  0.00     0.282 C 
ENDBRANCH   7   9
ENDBRANCH   1   7
BRANCH   6  11
ATOM     11  C   UNL     1      17.415  -8.964  12.684  1.00  0.00     0.338 C 
ATOM     12  O   UNL     1      18.028  -8.078  12.028  1.00  0.00    -0.246 OA
BRANCH  11  13
ATOM     13  O   UNL     1      18.122  -9.836  13.518  1.00  0.00    -0.465 OA
ATOM     14  C   UNL     1      18.506  -9.488  14.843  1.00  0.00     0.282 C 
ENDBRANCH  11  13
ENDBRANCH   6  11
TORSDOF 4
ENDMDL
MODEL 8
REMARK VINA RESULT:    -4.014      1.548      4.535
REMARK INTER + INTRA:          -5.260
REMARK INTER:                  -4.915
REMARK INTRA:                  -0.345
REMARK UNBOUND:                -0.307
REMARK SMILES COC(=O)c1ccccc1C(=O)OC
REMARK SMILES IDX 5 1 6 2 7 3 8 4 9 5 10 6 3 7 4 8 2 9 1 10 11 11 12 12 13 13
REMARK SMILES IDX 14 14
REMARK H PARENT
REMARK Flexibility Score: inf
ROOT
ATOM      1  C   UNL     1      15.709  -6.450  14.081  1.00  0.00     0.074 A 
ATOM      2  C   UNL     1      14.911  -5.751  15.005  1.00  0.00     0.016 A 
ATOM      3  C   UNL     1      15.355  -5.530  16.309  1.00  0.00     0.001 A 
ATOM      4  C   UNL     1      16.601  -6.003  16.711  1.00  0.00     0.001 A 
ATOM      5  C   UNL     1      17.420  -6.679  15.805  1.00  0.00     0.016 A 
ATOM      6  C   UNL     1      17.002  -6.893  14.480  1.00  0.00     0.074 A 
ENDROOT
BRANCH   1   7
ATOM      7  C   UNL     1      15.129  -6.747  12.752  1.00  0.00     0.338 C 
ATOM      8  O   UNL     1      15.044  -5.841  11.876  1.00  0.00    -0.246 OA
BRANCH   7   9
ATOM      9  O   UNL     1      14.729  -8.053  12.450  1.00  0.00    -0.465 OA
ATOM     10  C   UNL     1      13.450  -8.564  12.803  1.00  0.00     0.282 C 
ENDBRANCH   7   9
ENDBRANCH   1   7
BRANCH   6  11
ATOM     11  C   UNL     1      17.966  -7.516  13.543  1.00  0.00     0.338 C 
ATOM     12  O   UNL     1      18.552  -6.815  12.673  1.00  0.00    -0.246 OA
BRANCH  11  13
ATOM     13  O   UNL     1      18.266  -8.876  13.668  1.00  0.00    -0.465 OA
ATOM     14  C   UNL     1      17.613  -9.879  12.899  1.00  0.00     0.282 C 
ENDBRANCH  11  13
ENDBRANCH   6  11
TORSDOF 4
ENDMDL
MODEL 9
REMARK VINA RESULT:    -3.961      1.609      2.481
REMARK INTER + INTRA:          -5.195
REMARK INTER:                  -5.126
REMARK INTRA:                  -0.069
REMARK UNBOUND:                -0.307
REMARK SMILES COC(=O)c1ccccc1C(=O)OC
REMARK SMILES IDX 5 1 6 2 7 3 8 4 9 5 10 6 3 7 4 8 2 9 1 10 11 11 12 12 13 13
REMARK SMILES IDX 14 14
REMARK H PARENT
REMARK Flexibility Score: inf
ROOT
ATOM      1  C   UNL     1      16.487  -7.364  13.404  1.00  0.00     0.074 A 
ATOM      2  C   UNL     1      17.870  -7.505  13.619  1.00  0.00     0.016 A 
ATOM      3  C   UNL     1      18.495  -8.741  13.458  1.00  0.00     0.001 A 
ATOM      4  C   UNL     1      17.750  -9.856  13.081  1.00  0.00     0.001 A 
ATOM      5  C   UNL     1      16.381  -9.735  12.841  1.00  0.00     0.016 A 
ATOM      6  C   UNL     1      15.735  -8.493  12.975  1.00  0.00     0.074 A 
ENDROOT
BRANCH   1   7
ATOM      7  C   UNL     1      15.871  -6.051  13.703  1.00  0.00     0.338 C 
ATOM      8  O   UNL     1      15.952  -5.104  12.872  1.00  0.00    -0.246 OA
BRANCH   7   9
ATOM      9  O   UNL     1      15.148  -5.882  14.889  1.00  0.00    -0.465 OA
ATOM     10  C   UNL     1      13.930  -5.152  14.946  1.00  0.00     0.282 C 
ENDBRANCH   7   9
ENDBRANCH   1   7
BRANCH   6  11
ATOM     11  C   UNL     1      14.305  -8.413  12.595  1.00  0.00     0.338 C 
ATOM     12  O   UNL     1      13.889  -7.463  11.877  1.00  0.00    -0.246 OA
BRANCH  11  13
ATOM     13  O   UNL     1      13.430  -9.430  12.989  1.00  0.00    -0.465 OA
ATOM     14  C   UNL     1      12.334  -9.853  12.187  1.00  0.00     0.282 C 
ENDBRANCH  11  13
ENDBRANCH   6  11
TORSDOF 4
ENDMDL
