MODEL 1
REMARK VINA RESULT:    -3.738      0.000      0.000
REMARK INTER + INTRA:          -4.500
REMARK INTER:                  -4.393
REMARK INTRA:                  -0.107
REMARK UNBOUND:                -0.107
REMARK SMILES CCCCC(=O)[O-]
REMARK SMILES IDX 4 1 5 2 6 3 7 4 3 5 2 6 1 7
REMARK H PARENT
REMARK Flexibility Score: inf
ROOT
ATOM      1  C   UNL     1      14.812   1.187  27.702  1.00  0.00     0.053 C 
ENDROOT
BRANCH   1   2
ATOM      2  C   UNL     1      13.533   0.634  28.250  1.00  0.00     0.041 C 
ATOM      3  O   UNL     1      12.662   0.166  27.471  1.00  0.00    -0.550 OA
ATOM      4  O   UNL     1      13.326   0.593  29.622  1.00  0.00    -0.550 OA
ENDBRANCH   1   2
BRANCH   1   5
ATOM      5  C   UNL     1      15.176   0.493  26.386  1.00  0.00     0.006 C 
BRANCH   5   6
ATOM      6  C   UNL     1      15.492   1.520  25.293  1.00  0.00    -0.003 C 
ATOM      7  C   UNL     1      14.240   2.292  24.885  1.00  0.00     0.004 C 
ENDBRANCH   5   6
ENDBRANCH   1   5
TORSDOF 3
ENDMDL
MODEL 2
REMARK VINA RESULT:    -3.723      2.733      3.425
REMARK INTER + INTRA:          -4.482
REMARK INTER:                  -4.380
REMARK INTRA:                  -0.102
REMARK UNBOUND:                -0.107
REMARK SMILES CCCCC(=O)[O-]
REMARK SMILES IDX 4 1 5 2 6 3 7 4 3 5 2 6 1 7
REMARK H PARENT
REMARK Flexibility Score: inf
ROOT
ATOM      1  C   UNL     1      13.550  -1.263  26.243  1.00  0.00     0.053 C 
ENDROOT
BRANCH   1   2
ATOM      2  C   UNL     1      15.016  -0.961  26.238  1.00  0.00     0.041 C 
ATOM      3  O   UNL     1      15.855  -1.896  26.309  1.00  0.00    -0.550 OA
ATOM      4  O   UNL     1      15.454   0.351  26.108  1.00  0.00    -0.550 OA
ENDBRANCH   1   2
BRANCH   1   5
ATOM      5  C   UNL     1      12.779  -0.169  26.989  1.00  0.00     0.006 C 
BRANCH   5   6
ATOM      6  C   UNL     1      11.592   0.330  26.158  1.00  0.00    -0.003 C 
ATOM      7  C   UNL     1      12.049   0.833  24.792  1.00  0.00     0.004 C 
ENDBRANCH   5   6
ENDBRANCH   1   5
TORSDOF 3
ENDMDL
MODEL 3
REMARK VINA RESULT:    -3.711      2.151      3.106
REMARK INTER + INTRA:          -4.469
REMARK INTER:                  -4.371
REMARK INTRA:                  -0.098
REMARK UNBOUND:                -0.107
REMARK SMILES CCCCC(=O)[O-]
REMARK SMILES IDX 4 1 5 2 6 3 7 4 3 5 2 6 1 7
REMARK H PARENT
REMARK Flexibility Score: inf
ROOT
ATOM      1  C   UNL     1      13.529  -1.155  26.236  1.00  0.00     0.053 C 
ENDROOT
BRANCH   1   2
ATOM      2  C   UNL     1      12.736  -0.086  26.920  1.00  0.00     0.041 C 
ATOM      3  O   UNL     1      11.660   0.325  26.413  1.00  0.00    -0.550 OA
ATOM      4  O   UNL     1      13.161   0.421  28.140  1.00  0.00    -0.550 OA
ENDBRANCH   1   2
BRANCH   1   5
ATOM      5  C   UNL     1      15.021  -0.805  26.247  1.00  0.00     0.006 C 
BRANCH   5   6
ATOM      6  C   UNL     1      15.866  -2.020  26.647  1.00  0.00    -0.003 C 
ATOM      7  C   UNL     1      15.473  -2.532  28.030  1.00  0.00     0.004 C 
ENDBRANCH   5   6
ENDBRANCH   1   5
TORSDOF 3
ENDMDL
MODEL 4
REMARK VINA RESULT:    -3.706      2.121      3.429
REMARK INTER + INTRA:          -4.463
REMARK INTER:                  -4.355
REMARK INTRA:                  -0.108
REMARK UNBOUND:                -0.107
REMARK SMILES CCCCC(=O)[O-]
REMARK SMILES IDX 4 1 5 2 6 3 7 4 3 5 2 6 1 7
REMARK H PARENT
REMARK Flexibility Score: inf
ROOT
ATOM      1  C   UNL     1      14.620   0.632  26.299  1.00  0.00     0.053 C 
ENDROOT
BRANCH   1   2
ATOM      2  C   UNL     1      14.635  -0.865  26.308  1.00  0.00     0.041 C 
ATOM      3  O   UNL     1      13.602  -1.510  25.993  1.00  0.00    -0.550 OA
ATOM      4  O   UNL     1      15.805  -1.546  26.619  1.00  0.00    -0.550 OA
ENDBRANCH   1   2
BRANCH   1   5
ATOM      5  C   UNL     1      14.761   1.178  27.724  1.00  0.00     0.006 C 
BRANCH   5   6
ATOM      6  C   UNL     1      13.541   0.808  28.575  1.00  0.00    -0.003 C 
ATOM      7  C   UNL     1      13.962   0.114  29.868  1.00  0.00     0.004 C 
ENDBRANCH   5   6
ENDBRANCH   1   5
TORSDOF 3
ENDMDL
MODEL 5
REMARK VINA RESULT:    -3.688      1.614      1.964
REMARK INTER + INTRA:          -4.442
REMARK INTER:                  -4.388
REMARK INTRA:                  -0.054
REMARK UNBOUND:                -0.107
REMARK SMILES CCCCC(=O)[O-]
REMARK SMILES IDX 4 1 5 2 6 3 7 4 3 5 2 6 1 7
REMARK H PARENT
REMARK Flexibility Score: inf
ROOT
ATOM      1  C   UNL     1      13.821   0.387  27.778  1.00  0.00     0.053 C 
ENDROOT
BRANCH   1   2
ATOM      2  C   UNL     1      12.926  -0.191  26.726  1.00  0.00     0.041 C 
ATOM      3  O   UNL     1      11.962   0.482  26.276  1.00  0.00    -0.550 OA
ATOM      4  O   UNL     1      13.187  -1.454  26.210  1.00  0.00    -0.550 OA
ENDBRANCH   1   2
BRANCH   1   5
ATOM      5  C   UNL     1      14.731   1.462  27.175  1.00  0.00     0.006 C 
BRANCH   5   6
ATOM      6  C   UNL     1      15.491   0.918  25.960  1.00  0.00    -0.003 C 
ATOM      7  C   UNL     1      15.421   1.891  24.786  1.00  0.00     0.004 C 
ENDBRANCH   5   6
ENDBRANCH   1   5
TORSDOF 3
ENDMDL
MODEL 6
REMARK VINA RESULT:    -3.657      2.136      2.560
REMARK INTER + INTRA:          -4.405
REMARK INTER:                  -4.299
REMARK INTRA:                  -0.106
REMARK UNBOUND:                -0.107
REMARK SMILES CCCCC(=O)[O-]
REMARK SMILES IDX 4 1 5 2 6 3 7 4 3 5 2 6 1 7
REMARK H PARENT
REMARK Flexibility Score: inf
ROOT
ATOM      1  C   UNL     1      14.672  -0.422  26.359  1.00  0.00     0.053 C 
ENDROOT
BRANCH   1   2
ATOM      2  C   UNL     1      14.736   0.210  27.714  1.00  0.00     0.041 C 
ATOM      3  O   UNL     1      14.769   1.463  27.827  1.00  0.00    -0.550 OA
ATOM      4  O   UNL     1      14.710  -0.585  28.853  1.00  0.00    -0.550 OA
ENDBRANCH   1   2
BRANCH   1   5
ATOM      5  C   UNL     1      13.360  -1.194  26.189  1.00  0.00     0.006 C 
BRANCH   5   6
ATOM      6  C   UNL     1      12.152  -0.277  26.407  1.00  0.00    -0.003 C 
ATOM      7  C   UNL     1      12.004   0.722  25.263  1.00  0.00     0.004 C 
ENDBRANCH   5   6
ENDBRANCH   1   5
TORSDOF 3
ENDMDL
MODEL 7
REMARK VINA RESULT:    -3.651      2.192      3.117
REMARK INTER + INTRA:          -4.398
REMARK INTER:                  -4.309
REMARK INTRA:                  -0.089
REMARK UNBOUND:                -0.107
REMARK SMILES CCCCC(=O)[O-]
REMARK SMILES IDX 4 1 5 2 6 3 7 4 3 5 2 6 1 7
REMARK H PARENT
REMARK Flexibility Score: inf
ROOT
ATOM      1  C   UNL     1      13.338  -0.548  26.255  1.00  0.00     0.053 C 
ENDROOT
BRANCH   1   2
ATOM      2  C   UNL     1      12.300   0.374  25.695  1.00  0.00     0.041 C 
ATOM      3  O   UNL     1      12.586   1.146  24.743  1.00  0.00    -0.550 OA
ATOM      4  O   UNL     1      11.004   0.345  26.194  1.00  0.00    -0.550 OA
ENDBRANCH   1   2
BRANCH   1   5
ATOM      5  C   UNL     1      14.660   0.199  26.465  1.00  0.00     0.006 C 
BRANCH   5   6
ATOM      6  C   UNL     1      14.582   1.116  27.690  1.00  0.00    -0.003 C 
ATOM      7  C   UNL     1      14.035   0.369  28.903  1.00  0.00     0.004 C 
ENDBRANCH   5   6
ENDBRANCH   1   5
TORSDOF 3
ENDMDL
MODEL 8
REMARK VINA RESULT:    -3.644      2.522      3.562
REMARK INTER + INTRA:          -4.390
REMARK INTER:                  -4.300
REMARK INTRA:                  -0.090
REMARK UNBOUND:                -0.107
REMARK SMILES CCCCC(=O)[O-]
REMARK SMILES IDX 4 1 5 2 6 3 7 4 3 5 2 6 1 7
REMARK H PARENT
REMARK Flexibility Score: inf
ROOT
ATOM      1  C   UNL     1      14.771   0.889  26.812  1.00  0.00     0.053 C 
ENDROOT
BRANCH   1   2
ATOM      2  C   UNL     1      14.694   1.515  25.454  1.00  0.00     0.041 C 
ATOM      3  O   UNL     1      13.575   1.763  24.934  1.00  0.00    -0.550 OA
ATOM      4  O   UNL     1      15.858   1.869  24.786  1.00  0.00    -0.550 OA
ENDBRANCH   1   2
BRANCH   1   5
ATOM      5  C   UNL     1      13.724  -0.221  26.949  1.00  0.00     0.006 C 
BRANCH   5   6
ATOM      6  C   UNL     1      14.183  -1.498  26.237  1.00  0.00    -0.003 C 
ATOM      7  C   UNL     1      15.618  -1.854  26.615  1.00  0.00     0.004 C 
ENDBRANCH   5   6
ENDBRANCH   1   5
TORSDOF 3
ENDMDL
MODEL 9
REMARK VINA RESULT:    -3.635      2.473      2.974
REMARK INTER + INTRA:          -4.379
REMARK INTER:                  -4.266
REMARK INTRA:                  -0.113
REMARK UNBOUND:                -0.107
REMARK SMILES CCCCC(=O)[O-]
REMARK SMILES IDX 4 1 5 2 6 3 7 4 3 5 2 6 1 7
REMARK H PARENT
REMARK Flexibility Score: inf
ROOT
ATOM      1  C   UNL     1      14.003  -1.077  26.420  1.00  0.00     0.053 C 
ENDROOT
BRANCH   1   2
ATOM      2  C   UNL     1      15.170  -1.739  27.084  1.00  0.00     0.041 C 
ATOM      3  O   UNL     1      15.181  -1.894  28.333  1.00  0.00    -0.550 OA
ATOM      4  O   UNL     1      16.221  -2.226  26.319  1.00  0.00    -0.550 OA
ENDBRANCH   1   2
BRANCH   1   5
ATOM      5  C   UNL     1      13.801   0.337  26.975  1.00  0.00     0.006 C 
BRANCH   5   6
ATOM      6  C   UNL     1      15.044   1.201  26.740  1.00  0.00    -0.003 C 
ATOM      7  C   UNL     1      15.200   1.551  25.262  1.00  0.00     0.004 C 
ENDBRANCH   5   6
ENDBRANCH   1   5
TORSDOF 3
ENDMDL
