MODEL 1
REMARK VINA RESULT:     2.825      0.000      0.000
REMARK INTER + INTRA:           2.811
REMARK INTER:                   3.816
REMARK INTRA:                  -1.005
REMARK UNBOUND:                -1.005
REMARK SMILES CC[C@@H](CC[C@@H](C)[C@@H]1CC[C@H]2[C@@H]3CC(=O)C4=CC(=O)CC[C@@]4(C)[C@@H]3CC[C@@]21C)C(C)C
REMARK SMILES IDX 4 1 3 2 2 3 1 4 29 5 30 6 31 7 5 8 6 9 7 10 8 11 9 12 27 13
REMARK SMILES IDX 10 14 11 15 26 16 28 17 12 18 25 19 24 20 13 21 22 22 14 23
REMARK SMILES IDX 16 24 21 25 23 26 15 27 17 28 20 29 18 30 19 31
REMARK H PARENT
REMARK Flexibility Score: inf
ROOT
ATOM      1  C   UNL     1      28.717  33.524  24.042  1.00  0.00     0.004 C 
ENDROOT
BRANCH   1   2
ATOM      2  C   UNL     1      27.824  34.436  23.146  1.00  0.00    -0.009 C 
BRANCH   2   3
ATOM      3  C   UNL     1      28.701  35.030  22.001  1.00  0.00     0.000 C 
ATOM      4  C   UNL     1      28.559  34.339  20.643  1.00  0.00     0.004 C 
ENDBRANCH   2   3
BRANCH   2   5
ATOM      5  C   UNL     1      27.019  35.540  23.937  1.00  0.00    -0.014 C 
ATOM      6  C   UNL     1      27.432  35.701  25.419  1.00  0.00     0.007 C 
ATOM      7  C   UNL     1      25.504  35.254  23.929  1.00  0.00     0.007 C 
ENDBRANCH   2   5
ENDBRANCH   1   2
BRANCH   1   8
ATOM      8  C   UNL     1      29.121  32.177  23.388  1.00  0.00     0.004 C 
BRANCH   8   9
ATOM      9  C   UNL     1      28.969  30.973  24.355  1.00  0.00    -0.011 C 
ATOM     10  C   UNL     1      28.848  31.515  25.799  1.00  0.00     0.008 C 
BRANCH   9  11
ATOM     11  C   UNL     1      27.827  29.980  23.858  1.00  0.00    -0.002 C 
ATOM     12  C   UNL     1      26.381  30.538  24.017  1.00  0.00     0.005 C 
ATOM     13  C   UNL     1      27.732  28.561  24.525  1.00  0.00    -0.026 C 
ATOM     14  C   UNL     1      25.707  29.750  25.163  1.00  0.00     0.005 C 
ATOM     15  C   UNL     1      26.818  28.865  25.724  1.00  0.00    -0.001 C 
ATOM     16  C   UNL     1      29.047  27.837  24.982  1.00  0.00     0.007 C 
ATOM     17  C   UNL     1      27.037  27.603  23.497  1.00  0.00     0.012 C 
ATOM     18  C   UNL     1      26.480  27.610  26.551  1.00  0.00     0.004 C 
ATOM     19  C   UNL     1      29.125  27.606  26.500  1.00  0.00     0.005 C 
ATOM     20  C   UNL     1      27.824  26.952  27.099  1.00  0.00     0.003 C 
ATOM     21  C   UNL     1      25.418  27.918  27.622  1.00  0.00     0.085 C 
ATOM     22  C   UNL     1      27.912  26.779  28.674  1.00  0.00    -0.000 C 
ATOM     23  C   UNL     1      25.329  26.801  28.604  1.00  0.00     0.159 C 
ATOM     24  C   UNL     1      26.569  26.288  29.222  1.00  0.00     0.005 C 
ATOM     25  C   UNL     1      29.021  25.719  29.013  1.00  0.00     0.020 C 
ATOM     26  C   UNL     1      28.270  28.123  29.369  1.00  0.00     0.017 C 
ATOM     27  O   UNL     1      24.200  26.328  28.914  1.00  0.00    -0.295 OA
ATOM     28  C   UNL     1      26.493  25.488  30.302  1.00  0.00     0.055 C 
ATOM     29  C   UNL     1      29.056  25.338  30.497  1.00  0.00     0.081 C 
ATOM     30  C   UNL     1      27.688  24.972  30.979  1.00  0.00     0.156 C 
ATOM     31  O   UNL     1      27.560  24.240  31.996  1.00  0.00    -0.295 OA
ENDBRANCH   9  11
ENDBRANCH   8   9
ENDBRANCH   1   8
TORSDOF 6
ENDMDL
MODEL 2
REMARK VINA RESULT:     3.036      2.081      2.616
REMARK INTER + INTRA:           3.096
REMARK INTER:                   3.404
REMARK INTRA:                  -0.308
REMARK UNBOUND:                -1.005
REMARK SMILES CC[C@@H](CC[C@@H](C)[C@@H]1CC[C@H]2[C@@H]3CC(=O)C4=CC(=O)CC[C@@]4(C)[C@@H]3CC[C@@]21C)C(C)C
REMARK SMILES IDX 4 1 3 2 2 3 1 4 29 5 30 6 31 7 5 8 6 9 7 10 8 11 9 12 27 13
REMARK SMILES IDX 10 14 11 15 26 16 28 17 12 18 25 19 24 20 13 21 22 22 14 23
REMARK SMILES IDX 16 24 21 25 23 26 15 27 17 28 20 29 18 30 19 31
REMARK H PARENT
REMARK Flexibility Score: inf
ROOT
ATOM      1  C   UNL     1      28.684  32.626  23.952  1.00  0.00     0.004 C 
ENDROOT
BRANCH   1   2
ATOM      2  C   UNL     1      28.069  33.657  22.958  1.00  0.00    -0.009 C 
BRANCH   2   3
ATOM      3  C   UNL     1      29.125  33.986  21.857  1.00  0.00     0.000 C 
ATOM      4  C   UNL     1      28.769  33.509  20.447  1.00  0.00     0.004 C 
ENDBRANCH   2   3
BRANCH   2   5
ATOM      5  C   UNL     1      27.474  34.950  23.642  1.00  0.00    -0.014 C 
ATOM      6  C   UNL     1      27.448  36.203  22.737  1.00  0.00     0.007 C 
ATOM      7  C   UNL     1      28.263  35.336  24.909  1.00  0.00     0.007 C 
ENDBRANCH   2   5
ENDBRANCH   1   2
BRANCH   1   8
ATOM      8  C   UNL     1      28.786  31.181  23.400  1.00  0.00     0.004 C 
BRANCH   8   9
ATOM      9  C   UNL     1      29.124  30.141  24.502  1.00  0.00    -0.011 C 
ATOM     10  C   UNL     1      29.098  30.855  25.875  1.00  0.00     0.008 C 
BRANCH   9  11
ATOM     11  C   UNL     1      28.227  28.834  24.351  1.00  0.00    -0.002 C 
ATOM     12  C   UNL     1      26.877  29.067  23.609  1.00  0.00     0.005 C 
ATOM     13  C   UNL     1      27.786  28.079  25.656  1.00  0.00    -0.026 C 
ATOM     14  C   UNL     1      25.750  28.967  24.662  1.00  0.00     0.005 C 
ATOM     15  C   UNL     1      26.482  28.822  25.994  1.00  0.00    -0.001 C 
ATOM     16  C   UNL     1      28.757  28.043  26.888  1.00  0.00     0.007 C 
ATOM     17  C   UNL     1      27.514  26.585  25.266  1.00  0.00     0.012 C 
ATOM     18  C   UNL     1      25.764  28.238  27.226  1.00  0.00     0.004 C 
ATOM     19  C   UNL     1      28.196  28.753  28.131  1.00  0.00     0.005 C 
ATOM     20  C   UNL     1      26.728  28.313  28.493  1.00  0.00     0.003 C 
ATOM     21  C   UNL     1      24.378  28.880  27.418  1.00  0.00     0.085 C 
ATOM     22  C   UNL     1      26.158  29.104  29.744  1.00  0.00    -0.000 C 
ATOM     23  C   UNL     1      23.833  28.546  28.764  1.00  0.00     0.159 C 
ATOM     24  C   UNL     1      24.681  28.754  29.955  1.00  0.00     0.005 C 
ATOM     25  C   UNL     1      26.968  28.692  31.025  1.00  0.00     0.020 C 
ATOM     26  C   UNL     1      26.279  30.640  29.543  1.00  0.00     0.017 C 
ATOM     27  O   UNL     1      22.649  28.117  28.871  1.00  0.00    -0.295 OA
ATOM     28  C   UNL     1      24.126  28.729  31.181  1.00  0.00     0.055 C 
ATOM     29  C   UNL     1      26.373  29.255  32.321  1.00  0.00     0.081 C 
ATOM     30  C   UNL     1      24.909  28.960  32.400  1.00  0.00     0.156 C 
ATOM     31  O   UNL     1      24.336  28.943  33.521  1.00  0.00    -0.295 OA
ENDBRANCH   9  11
ENDBRANCH   8   9
ENDBRANCH   1   8
TORSDOF 6
ENDMDL
MODEL 3
REMARK VINA RESULT:     3.338      0.504      1.562
REMARK INTER + INTRA:           3.504
REMARK INTER:                   4.147
REMARK INTRA:                  -0.644
REMARK UNBOUND:                -1.005
REMARK SMILES CC[C@@H](CC[C@@H](C)[C@@H]1CC[C@H]2[C@@H]3CC(=O)C4=CC(=O)CC[C@@]4(C)[C@@H]3CC[C@@]21C)C(C)C
REMARK SMILES IDX 4 1 3 2 2 3 1 4 29 5 30 6 31 7 5 8 6 9 7 10 8 11 9 12 27 13
REMARK SMILES IDX 10 14 11 15 26 16 28 17 12 18 25 19 24 20 13 21 22 22 14 23
REMARK SMILES IDX 16 24 21 25 23 26 15 27 17 28 20 29 18 30 19 31
REMARK H PARENT
REMARK Flexibility Score: inf
ROOT
ATOM      1  C   UNL     1      28.049  33.271  23.570  1.00  0.00     0.004 C 
ENDROOT
BRANCH   1   2
ATOM      2  C   UNL     1      28.619  34.673  23.198  1.00  0.00    -0.009 C 
BRANCH   2   3
ATOM      3  C   UNL     1      27.620  35.768  23.685  1.00  0.00     0.000 C 
ATOM      4  C   UNL     1      26.305  35.242  24.265  1.00  0.00     0.004 C 
ENDBRANCH   2   3
BRANCH   2   5
ATOM      5  C   UNL     1      29.011  34.836  21.676  1.00  0.00    -0.014 C 
ATOM      6  C   UNL     1      28.955  36.288  21.149  1.00  0.00     0.007 C 
ATOM      7  C   UNL     1      28.097  33.997  20.761  1.00  0.00     0.007 C 
ENDBRANCH   2   5
ENDBRANCH   1   2
BRANCH   1   8
ATOM      8  C   UNL     1      28.948  32.079  23.150  1.00  0.00     0.004 C 
BRANCH   8   9
ATOM      9  C   UNL     1      28.882  30.897  24.154  1.00  0.00    -0.011 C 
ATOM     10  C   UNL     1      28.687  31.472  25.577  1.00  0.00     0.008 C 
BRANCH   9  11
ATOM     11  C   UNL     1      27.839  29.795  23.672  1.00  0.00    -0.002 C 
ATOM     12  C   UNL     1      26.352  30.261  23.707  1.00  0.00     0.005 C 
ATOM     13  C   UNL     1      27.796  28.425  24.439  1.00  0.00    -0.026 C 
ATOM     14  C   UNL     1      25.663  29.513  24.870  1.00  0.00     0.005 C 
ATOM     15  C   UNL     1      26.792  28.750  25.558  1.00  0.00    -0.001 C 
ATOM     16  C   UNL     1      29.125  27.828  25.021  1.00  0.00     0.007 C 
ATOM     17  C   UNL     1      27.227  27.349  23.449  1.00  0.00     0.012 C 
ATOM     18  C   UNL     1      26.487  27.538  26.458  1.00  0.00     0.004 C 
ATOM     19  C   UNL     1      29.125  27.713  26.554  1.00  0.00     0.005 C 
ATOM     20  C   UNL     1      27.835  27.015  27.128  1.00  0.00     0.003 C 
ATOM     21  C   UNL     1      25.344  27.849  27.442  1.00  0.00     0.085 C 
ATOM     22  C   UNL     1      27.839  26.964  28.714  1.00  0.00    -0.000 C 
ATOM     23  C   UNL     1      25.269  26.802  28.499  1.00  0.00     0.159 C 
ATOM     24  C   UNL     1      26.500  26.421  29.222  1.00  0.00     0.005 C 
ATOM     25  C   UNL     1      28.991  26.010  29.194  1.00  0.00     0.020 C 
ATOM     26  C   UNL     1      28.066  28.375  29.324  1.00  0.00     0.017 C 
ATOM     27  O   UNL     1      24.156  26.275  28.781  1.00  0.00    -0.295 OA
ATOM     28  C   UNL     1      26.411  25.698  30.354  1.00  0.00     0.055 C 
ATOM     29  C   UNL     1      28.961  25.741  30.702  1.00  0.00     0.081 C 
ATOM     30  C   UNL     1      27.593  25.316  31.134  1.00  0.00     0.156 C 
ATOM     31  O   UNL     1      27.451  24.653  32.195  1.00  0.00    -0.295 OA
ENDBRANCH   9  11
ENDBRANCH   8   9
ENDBRANCH   1   8
TORSDOF 6
ENDMDL
MODEL 4
REMARK VINA RESULT:     5.335      2.213      4.622
REMARK INTER + INTRA:           6.202
REMARK INTER:                   6.131
REMARK INTRA:                   0.071
REMARK UNBOUND:                -1.005
REMARK SMILES CC[C@@H](CC[C@@H](C)[C@@H]1CC[C@H]2[C@@H]3CC(=O)C4=CC(=O)CC[C@@]4(C)[C@@H]3CC[C@@]21C)C(C)C
REMARK SMILES IDX 4 1 3 2 2 3 1 4 29 5 30 6 31 7 5 8 6 9 7 10 8 11 9 12 27 13
REMARK SMILES IDX 10 14 11 15 26 16 28 17 12 18 25 19 24 20 13 21 22 22 14 23
REMARK SMILES IDX 16 24 21 25 23 26 15 27 17 28 20 29 18 30 19 31
REMARK H PARENT
REMARK Flexibility Score: inf
ROOT
ATOM      1  C   UNL     1      27.487  30.581  24.670  1.00  0.00     0.004 C 
ENDROOT
BRANCH   1   2
ATOM      2  C   UNL     1      28.146  31.049  23.338  1.00  0.00    -0.009 C 
BRANCH   2   3
ATOM      3  C   UNL     1      29.123  29.938  22.842  1.00  0.00     0.000 C 
ATOM      4  C   UNL     1      28.458  28.632  22.402  1.00  0.00     0.004 C 
ENDBRANCH   2   3
BRANCH   2   5
ATOM      5  C   UNL     1      28.825  32.474  23.411  1.00  0.00    -0.014 C 
ATOM      6  C   UNL     1      29.002  33.031  24.842  1.00  0.00     0.007 C 
ATOM      7  C   UNL     1      28.021  33.527  22.623  1.00  0.00     0.007 C 
ENDBRANCH   2   5
ENDBRANCH   1   2
BRANCH   1   8
ATOM      8  C   UNL     1      27.842  29.131  25.089  1.00  0.00     0.004 C 
BRANCH   8   9
ATOM      9  C   UNL     1      29.018  29.072  26.101  1.00  0.00    -0.011 C 
ATOM     10  C   UNL     1      28.904  30.284  27.057  1.00  0.00     0.008 C 
BRANCH   9  11
ATOM     11  C   UNL     1      29.125  27.631  26.771  1.00  0.00    -0.002 C 
ATOM     12  C   UNL     1      29.071  26.448  25.759  1.00  0.00     0.005 C 
ATOM     13  C   UNL     1      28.050  27.227  27.842  1.00  0.00    -0.026 C 
ATOM     14  C   UNL     1      27.705  25.749  25.940  1.00  0.00     0.005 C 
ATOM     15  C   UNL     1      26.957  26.624  26.943  1.00  0.00    -0.001 C 
ATOM     16  C   UNL     1      27.461  28.326  28.794  1.00  0.00     0.007 C 
ATOM     17  C   UNL     1      28.696  26.141  28.771  1.00  0.00     0.012 C 
ATOM     18  C   UNL     1      25.768  26.061  27.744  1.00  0.00     0.004 C 
ATOM     19  C   UNL     1      25.952  28.553  28.609  1.00  0.00     0.005 C 
ATOM     20  C   UNL     1      25.114  27.220  28.620  1.00  0.00     0.003 C 
ATOM     21  C   UNL     1      24.790  25.301  26.828  1.00  0.00     0.085 C 
ATOM     22  C   UNL     1      23.570  27.483  28.370  1.00  0.00    -0.000 C 
ATOM     23  C   UNL     1      23.509  25.036  27.541  1.00  0.00     0.159 C 
ATOM     24  C   UNL     1      22.828  26.149  28.233  1.00  0.00     0.005 C 
ATOM     25  C   UNL     1      22.979  28.272  29.592  1.00  0.00     0.020 C 
ATOM     26  C   UNL     1      23.340  28.312  27.075  1.00  0.00     0.017 C 
ATOM     27  O   UNL     1      23.011  23.875  27.522  1.00  0.00    -0.295 OA
ATOM     28  C   UNL     1      21.552  26.002  28.636  1.00  0.00     0.055 C 
ATOM     29  C   UNL     1      21.453  28.411  29.539  1.00  0.00     0.081 C 
ATOM     30  C   UNL     1      20.812  27.081  29.299  1.00  0.00     0.156 C 
ATOM     31  O   UNL     1      19.614  26.895  29.641  1.00  0.00    -0.295 OA
ENDBRANCH   9  11
ENDBRANCH   8   9
ENDBRANCH   1   8
TORSDOF 6
ENDMDL
MODEL 5
REMARK VINA RESULT:     5.712      5.119     11.139
REMARK INTER + INTRA:           6.711
REMARK INTER:                   7.319
REMARK INTRA:                  -0.609
REMARK UNBOUND:                -1.005
REMARK SMILES CC[C@@H](CC[C@@H](C)[C@@H]1CC[C@H]2[C@@H]3CC(=O)C4=CC(=O)CC[C@@]4(C)[C@@H]3CC[C@@]21C)C(C)C
REMARK SMILES IDX 4 1 3 2 2 3 1 4 29 5 30 6 31 7 5 8 6 9 7 10 8 11 9 12 27 13
REMARK SMILES IDX 10 14 11 15 26 16 28 17 12 18 25 19 24 20 13 21 22 22 14 23
REMARK SMILES IDX 16 24 21 25 23 26 15 27 17 28 20 29 18 30 19 31
REMARK H PARENT
REMARK Flexibility Score: inf
ROOT
ATOM      1  C   UNL     1      28.916  31.140  25.607  1.00  0.00     0.004 C 
ENDROOT
BRANCH   1   2
ATOM      2  C   UNL     1      28.932  29.682  26.157  1.00  0.00    -0.009 C 
BRANCH   2   3
ATOM      3  C   UNL     1      28.305  28.733  25.089  1.00  0.00     0.000 C 
ATOM      4  C   UNL     1      26.788  28.850  24.920  1.00  0.00     0.004 C 
ENDBRANCH   2   3
BRANCH   2   5
ATOM      5  C   UNL     1      28.277  29.515  27.584  1.00  0.00    -0.014 C 
ATOM      6  C   UNL     1      28.795  30.507  28.651  1.00  0.00     0.007 C 
ATOM      7  C   UNL     1      28.501  28.099  28.151  1.00  0.00     0.007 C 
ENDBRANCH   2   5
ENDBRANCH   1   2
BRANCH   1   8
ATOM      8  C   UNL     1      28.556  31.255  24.102  1.00  0.00     0.004 C 
BRANCH   8   9
ATOM      9  C   UNL     1      28.609  32.718  23.585  1.00  0.00    -0.011 C 
ATOM     10  C   UNL     1      28.358  32.708  22.058  1.00  0.00     0.008 C 
BRANCH   9  11
ATOM     11  C   UNL     1      27.683  33.670  24.462  1.00  0.00    -0.002 C 
ATOM     12  C   UNL     1      26.159  33.366  24.345  1.00  0.00     0.005 C 
ATOM     13  C   UNL     1      27.753  35.218  24.208  1.00  0.00    -0.026 C 
ATOM     14  C   UNL     1      25.521  34.520  23.538  1.00  0.00     0.005 C 
ATOM     15  C   UNL     1      26.704  35.378  23.095  1.00  0.00    -0.001 C 
ATOM     16  C   UNL     1      29.121  35.868  23.797  1.00  0.00     0.007 C 
ATOM     17  C   UNL     1      27.306  35.934  25.530  1.00  0.00     0.012 C 
ATOM     18  C   UNL     1      26.496  36.845  22.675  1.00  0.00     0.004 C 
ATOM     19  C   UNL     1      29.104  36.499  22.395  1.00  0.00     0.005 C 
ATOM     20  C   UNL     1      27.874  37.453  22.155  1.00  0.00     0.003 C 
ATOM     21  C   UNL     1      25.311  36.983  21.701  1.00  0.00     0.085 C 
ATOM     22  C   UNL     1      27.854  38.043  20.683  1.00  0.00    -0.000 C 
ATOM     23  C   UNL     1      25.314  38.330  21.065  1.00  0.00     0.159 C 
ATOM     24  C   UNL     1      26.562  38.834  20.454  1.00  0.00     0.005 C 
ATOM     25  C   UNL     1      29.081  39.006  20.498  1.00  0.00     0.020 C 
ATOM     26  C   UNL     1      27.937  36.911  19.620  1.00  0.00     0.017 C 
ATOM     27  O   UNL     1      24.250  39.010  21.034  1.00  0.00    -0.295 OA
ATOM     28  C   UNL     1      26.519  39.905  19.640  1.00  0.00     0.055 C 
ATOM     29  C   UNL     1      29.047  39.776  19.173  1.00  0.00     0.081 C 
ATOM     30  C   UNL     1      27.718  40.432  18.979  1.00  0.00     0.156 C 
ATOM     31  O   UNL     1      27.618  41.428  18.213  1.00  0.00    -0.295 OA
ENDBRANCH   9  11
ENDBRANCH   8   9
ENDBRANCH   1   8
TORSDOF 6
ENDMDL
