MODEL 1
REMARK VINA RESULT:    25.393      0.000      0.000
REMARK INTER + INTRA:          31.039
REMARK INTER:                  31.331
REMARK INTRA:                  -0.293
REMARK UNBOUND:                -0.293
REMARK SMILES O=c1c(O)c(-c2cc(O)c(O)c(O)c2)oc2cc(O)cc(O)c12
REMARK SMILES IDX 5 1 3 2 2 3 1 4 23 5 21 6 20 7 18 8 17 9 16 10 15 11 6 12
REMARK SMILES IDX 7 13 8 14 14 15 10 16 12 17 9 18 11 20 13 22 4 24 22 26
REMARK SMILES IDX 19 28
REMARK H PARENT 9 19 11 21 13 23 4 25 22 27 19 29
REMARK Flexibility Score: inf
ROOT
ATOM      1  C   UNL     1      -6.537  -7.784  15.804  1.00  0.00     0.180 A 
ATOM      2  C   UNL     1      -7.258  -8.084  14.635  1.00  0.00     0.208 A 
ATOM      3  C   UNL     1      -7.485  -9.429  14.301  1.00  0.00     0.238 A 
ATOM      4  O   UNL     1      -8.178  -9.691  13.283  1.00  0.00    -0.285 OA
ATOM      5  C   UNL     1      -6.973 -10.457  15.129  1.00  0.00     0.111 A 
ATOM      6  C   UNL     1      -7.108 -11.854  14.865  1.00  0.00     0.134 A 
ATOM      7  C   UNL     1      -6.676 -12.782  15.821  1.00  0.00     0.093 A 
ATOM      8  C   UNL     1      -6.055 -12.364  17.001  1.00  0.00     0.123 A 
ATOM      9  C   UNL     1      -5.866 -11.006  17.240  1.00  0.00     0.094 A 
ATOM     10  C   UNL     1      -6.319 -10.054  16.323  1.00  0.00     0.146 A 
ATOM     11  O   UNL     1      -6.127  -8.769  16.594  1.00  0.00    -0.452 OA
ENDROOT
BRANCH   1  12
ATOM     12  C   UNL     1      -6.238  -6.392  16.208  1.00  0.00     0.029 A 
ATOM     13  C   UNL     1      -4.955  -5.870  15.991  1.00  0.00     0.062 A 
ATOM     14  C   UNL     1      -4.643  -4.552  16.340  1.00  0.00     0.162 A 
ATOM     15  C   UNL     1      -7.229  -5.560  16.749  1.00  0.00     0.062 A 
ATOM     16  C   UNL     1      -5.642  -3.724  16.909  1.00  0.00     0.200 A 
ATOM     17  C   UNL     1      -6.936  -4.240  17.104  1.00  0.00     0.162 A 
BRANCH  14  18
ATOM     18  O   UNL     1      -3.339  -4.109  16.104  1.00  0.00    -0.504 OA
ATOM     19  H   UNL     1      -2.558  -4.720  15.918  1.00  0.00     0.293 HD
ENDBRANCH  14  18
BRANCH  16  20
ATOM     20  O   UNL     1      -5.388  -2.402  17.284  1.00  0.00    -0.502 OA
ATOM     21  H   UNL     1      -5.816  -1.944  18.075  1.00  0.00     0.293 HD
ENDBRANCH  16  20
BRANCH  17  22
ATOM     22  O   UNL     1      -7.951  -3.452  17.647  1.00  0.00    -0.504 OA
ATOM     23  H   UNL     1      -8.536  -3.772  18.409  1.00  0.00     0.293 HD
ENDBRANCH  17  22
ENDBRANCH   1  12
BRANCH   2  24
ATOM     24  O   UNL     1      -7.773  -7.055  13.842  1.00  0.00    -0.502 OA
ATOM     25  H   UNL     1      -8.748  -7.013  13.569  1.00  0.00     0.293 HD
ENDBRANCH   2  24
BRANCH   6  26
ATOM     26  O   UNL     1      -7.630 -12.376  13.678  1.00  0.00    -0.507 OA
ATOM     27  H   UNL     1      -8.274 -13.150  13.625  1.00  0.00     0.293 HD
ENDBRANCH   6  26
BRANCH   8  28
ATOM     28  O   UNL     1      -5.614 -13.295  17.939  1.00  0.00    -0.508 OA
ATOM     29  H   UNL     1      -5.822 -13.192  18.926  1.00  0.00     0.293 HD
ENDBRANCH   8  28
TORSDOF 7
ENDMDL
MODEL 2
REMARK VINA RESULT:    26.740      1.233      3.314
REMARK INTER + INTRA:          32.701
REMARK INTER:                  33.003
REMARK INTRA:                  -0.302
REMARK UNBOUND:                -0.293
REMARK SMILES O=c1c(O)c(-c2cc(O)c(O)c(O)c2)oc2cc(O)cc(O)c12
REMARK SMILES IDX 5 1 3 2 2 3 1 4 23 5 21 6 20 7 18 8 17 9 16 10 15 11 6 12
REMARK SMILES IDX 7 13 8 14 14 15 10 16 12 17 9 18 11 20 13 22 4 24 22 26
REMARK SMILES IDX 19 28
REMARK H PARENT 9 19 11 21 13 23 4 25 22 27 19 29
REMARK Flexibility Score: inf
ROOT
ATOM      1  C   UNL     1      -6.385  -7.467  16.445  1.00  0.00     0.180 A 
ATOM      2  C   UNL     1      -5.842  -8.361  17.384  1.00  0.00     0.208 A 
ATOM      3  C   UNL     1      -6.020  -9.741  17.193  1.00  0.00     0.238 A 
ATOM      4  O   UNL     1      -5.486 -10.538  18.008  1.00  0.00    -0.285 OA
ATOM      5  C   UNL     1      -6.753 -10.209  16.075  1.00  0.00     0.111 A 
ATOM      6  C   UNL     1      -7.030 -11.583  15.805  1.00  0.00     0.134 A 
ATOM      7  C   UNL     1      -7.651 -11.938  14.601  1.00  0.00     0.093 A 
ATOM      8  C   UNL     1      -8.064 -10.964  13.689  1.00  0.00     0.123 A 
ATOM      9  C   UNL     1      -7.852  -9.617  13.972  1.00  0.00     0.094 A 
ATOM     10  C   UNL     1      -7.202  -9.233  15.147  1.00  0.00     0.146 A 
ATOM     11  O   UNL     1      -7.010  -7.939  15.373  1.00  0.00    -0.452 OA
ENDROOT
BRANCH   1  12
ATOM     12  C   UNL     1      -6.259  -5.999  16.592  1.00  0.00     0.029 A 
ATOM     13  C   UNL     1      -7.345  -5.258  17.078  1.00  0.00     0.062 A 
ATOM     14  C   UNL     1      -7.254  -3.873  17.251  1.00  0.00     0.162 A 
ATOM     15  C   UNL     1      -5.054  -5.339  16.313  1.00  0.00     0.062 A 
ATOM     16  C   UNL     1      -6.042  -3.208  16.944  1.00  0.00     0.200 A 
ATOM     17  C   UNL     1      -4.944  -3.955  16.479  1.00  0.00     0.162 A 
BRANCH  14  18
ATOM     18  O   UNL     1      -8.383  -3.203  17.727  1.00  0.00    -0.504 OA
ATOM     19  H   UNL     1      -8.416  -2.213  17.921  1.00  0.00     0.293 HD
ENDBRANCH  14  18
BRANCH  16  20
ATOM     20  O   UNL     1      -5.893  -1.826  17.089  1.00  0.00    -0.502 OA
ATOM     21  H   UNL     1      -6.072  -1.322  17.946  1.00  0.00     0.293 HD
ENDBRANCH  16  20
BRANCH  17  22
ATOM     22  O   UNL     1      -3.728  -3.339  16.182  1.00  0.00    -0.504 OA
ATOM     23  H   UNL     1      -3.669  -2.369  15.897  1.00  0.00     0.293 HD
ENDBRANCH  17  22
ENDBRANCH   1  12
BRANCH   2  24
ATOM     24  O   UNL     1      -5.104  -7.880  18.469  1.00  0.00    -0.502 OA
ATOM     25  H   UNL     1      -4.461  -7.101  18.388  1.00  0.00     0.293 HD
ENDBRANCH   2  24
BRANCH   6  26
ATOM     26  O   UNL     1      -6.742 -12.625  16.691  1.00  0.00    -0.507 OA
ATOM     27  H   UNL     1      -6.429 -12.502  17.641  1.00  0.00     0.293 HD
ENDBRANCH   6  26
BRANCH   8  28
ATOM     28  O   UNL     1      -8.696 -11.325  12.501  1.00  0.00    -0.508 OA
ATOM     29  H   UNL     1      -8.214 -11.858  11.785  1.00  0.00     0.293 HD
ENDBRANCH   8  28
TORSDOF 7
ENDMDL
MODEL 3
REMARK VINA RESULT:    27.249      1.437      7.287
REMARK INTER + INTRA:          33.329
REMARK INTER:                  33.673
REMARK INTRA:                  -0.345
REMARK UNBOUND:                -0.293
REMARK SMILES O=c1c(O)c(-c2cc(O)c(O)c(O)c2)oc2cc(O)cc(O)c12
REMARK SMILES IDX 5 1 3 2 2 3 1 4 23 5 21 6 20 7 18 8 17 9 16 10 15 11 6 12
REMARK SMILES IDX 7 13 8 14 14 15 10 16 12 17 9 18 11 20 13 22 4 24 22 26
REMARK SMILES IDX 19 28
REMARK H PARENT 9 19 11 21 13 23 4 25 22 27 19 29
REMARK Flexibility Score: inf
ROOT
ATOM      1  C   UNL     1      -6.451  -7.056  16.359  1.00  0.00     0.180 A 
ATOM      2  C   UNL     1      -5.218  -6.411  16.162  1.00  0.00     0.208 A 
ATOM      3  C   UNL     1      -5.129  -5.028  16.389  1.00  0.00     0.238 A 
ATOM      4  O   UNL     1      -4.010  -4.465  16.263  1.00  0.00    -0.285 OA
ATOM      5  C   UNL     1      -6.278  -4.305  16.794  1.00  0.00     0.111 A 
ATOM      6  C   UNL     1      -6.312  -2.895  17.013  1.00  0.00     0.134 A 
ATOM      7  C   UNL     1      -7.469  -2.306  17.538  1.00  0.00     0.093 A 
ATOM      8  C   UNL     1      -8.614  -3.067  17.790  1.00  0.00     0.123 A 
ATOM      9  C   UNL     1      -8.609  -4.433  17.523  1.00  0.00     0.094 A 
ATOM     10  C   UNL     1      -7.458  -5.056  17.033  1.00  0.00     0.146 A 
ATOM     11  O   UNL     1      -7.493  -6.362  16.802  1.00  0.00    -0.452 OA
ENDROOT
BRANCH   1  12
ATOM     12  C   UNL     1      -6.627  -8.506  16.117  1.00  0.00     0.029 A 
ATOM     13  C   UNL     1      -7.083  -8.947  14.866  1.00  0.00     0.062 A 
ATOM     14  C   UNL     1      -7.240 -10.310  14.594  1.00  0.00     0.162 A 
ATOM     15  C   UNL     1      -6.291  -9.456  17.092  1.00  0.00     0.062 A 
ATOM     16  C   UNL     1      -6.921 -11.263  15.592  1.00  0.00     0.200 A 
ATOM     17  C   UNL     1      -6.441 -10.822  16.839  1.00  0.00     0.162 A 
BRANCH  14  18
ATOM     18  O   UNL     1      -7.711 -10.670  13.330  1.00  0.00    -0.504 OA
ATOM     19  H   UNL     1      -8.470 -10.205  12.854  1.00  0.00     0.293 HD
ENDBRANCH  14  18
BRANCH  16  20
ATOM     20  O   UNL     1      -7.065 -12.638  15.382  1.00  0.00    -0.502 OA
ATOM     21  H   UNL     1      -7.393 -13.288  16.080  1.00  0.00     0.293 HD
ENDBRANCH  16  20
BRANCH  17  22
ATOM     22  O   UNL     1      -6.100 -11.731  17.841  1.00  0.00    -0.504 OA
ATOM     23  H   UNL     1      -6.452 -11.649  18.788  1.00  0.00     0.293 HD
ENDBRANCH  17  22
ENDBRANCH   1  12
BRANCH   2  24
ATOM     24  O   UNL     1      -4.091  -7.146  15.783  1.00  0.00    -0.502 OA
ATOM     25  H   UNL     1      -3.695  -7.093  14.852  1.00  0.00     0.293 HD
ENDBRANCH   2  24
BRANCH   6  26
ATOM     26  O   UNL     1      -5.256  -2.032  16.708  1.00  0.00    -0.507 OA
ATOM     27  H   UNL     1      -4.458  -1.868  17.302  1.00  0.00     0.293 HD
ENDBRANCH   6  26
BRANCH   8  28
ATOM     28  O   UNL     1      -9.766  -2.470  18.297  1.00  0.00    -0.508 OA
ATOM     29  H   UNL     1     -10.236  -2.838  19.117  1.00  0.00     0.293 HD
ENDBRANCH   8  28
TORSDOF 7
ENDMDL
