MODEL 1
REMARK VINA RESULT:    -5.361      0.000      0.000
REMARK INTER + INTRA:          -6.208
REMARK INTER:                  -5.988
REMARK INTRA:                  -0.220
REMARK UNBOUND:                -0.220
REMARK SMILES CC(C)c1ccc(C(=O)[O-])cc1
REMARK SMILES IDX 7 1 6 2 11 3 5 4 12 5 4 6 8 7 9 8 10 9 2 10 1 11 3 12
REMARK H PARENT
REMARK Flexibility Score: inf
ROOT
ATOM      1  C   UNL     1      93.514  29.893  24.861  1.00  0.00    -0.003 A 
ATOM      2  C   UNL     1      92.474  29.293  25.590  1.00  0.00     0.010 A 
ATOM      3  C   UNL     1      93.326  30.149  23.492  1.00  0.00     0.010 A 
ATOM      4  C   UNL     1      91.271  28.956  24.964  1.00  0.00     0.004 A 
ATOM      5  C   UNL     1      92.123  29.812  22.866  1.00  0.00     0.004 A 
ATOM      6  C   UNL     1      91.081  29.212  23.594  1.00  0.00    -0.045 A 
ENDROOT
BRANCH   1   7
ATOM      7  C   UNL     1      94.786  30.248  25.528  1.00  0.00     0.071 C 
ATOM      8  O   UNL     1      95.177  29.611  26.542  1.00  0.00    -0.545 OA
ATOM      9  O   UNL     1      95.567  31.292  25.045  1.00  0.00    -0.545 OA
ENDBRANCH   1   7
BRANCH   6  10
ATOM     10  C   UNL     1      89.780  28.852  22.901  1.00  0.00     0.013 C 
ATOM     11  C   UNL     1      89.504  29.790  21.720  1.00  0.00     0.012 C 
ATOM     12  C   UNL     1      88.609  28.851  23.890  1.00  0.00     0.012 C 
ENDBRANCH   6  10
TORSDOF 2
ENDMDL
MODEL 2
REMARK VINA RESULT:    -5.349      6.542      6.996
REMARK INTER + INTRA:          -6.193
REMARK INTER:                  -5.974
REMARK INTRA:                  -0.219
REMARK UNBOUND:                -0.220
REMARK SMILES CC(C)c1ccc(C(=O)[O-])cc1
REMARK SMILES IDX 7 1 6 2 11 3 5 4 12 5 4 6 8 7 9 8 10 9 2 10 1 11 3 12
REMARK H PARENT
REMARK Flexibility Score: inf
ROOT
ATOM      1  C   UNL     1      90.744  34.928  24.642  1.00  0.00    -0.003 A 
ATOM      2  C   UNL     1      89.722  33.995  24.884  1.00  0.00     0.010 A 
ATOM      3  C   UNL     1      90.802  36.092  25.428  1.00  0.00     0.010 A 
ATOM      4  C   UNL     1      88.778  34.220  25.889  1.00  0.00     0.004 A 
ATOM      5  C   UNL     1      89.858  36.317  26.434  1.00  0.00     0.004 A 
ATOM      6  C   UNL     1      88.836  35.384  26.677  1.00  0.00    -0.045 A 
ENDROOT
BRANCH   1   7
ATOM      7  C   UNL     1      91.741  34.685  23.577  1.00  0.00     0.071 C 
ATOM      8  O   UNL     1      92.895  35.183  23.654  1.00  0.00    -0.545 OA
ATOM      9  O   UNL     1      91.417  33.904  22.473  1.00  0.00    -0.545 OA
ENDBRANCH   1   7
BRANCH   6  10
ATOM     10  C   UNL     1      87.818  35.642  27.772  1.00  0.00     0.013 C 
ATOM     11  C   UNL     1      88.409  36.522  28.881  1.00  0.00     0.012 C 
ATOM     12  C   UNL     1      87.275  34.327  28.343  1.00  0.00     0.012 C 
ENDBRANCH   6  10
TORSDOF 2
ENDMDL
MODEL 3
REMARK VINA RESULT:    -5.323      6.576      7.008
REMARK INTER + INTRA:          -6.165
REMARK INTER:                  -5.949
REMARK INTRA:                  -0.217
REMARK UNBOUND:                -0.220
REMARK SMILES CC(C)c1ccc(C(=O)[O-])cc1
REMARK SMILES IDX 7 1 6 2 11 3 5 4 12 5 4 6 8 7 9 8 10 9 2 10 1 11 3 12
REMARK H PARENT
REMARK Flexibility Score: inf
ROOT
ATOM      1  C   UNL     1      93.305  33.374  29.412  1.00  0.00    -0.003 A 
ATOM      2  C   UNL     1      92.009  32.923  29.711  1.00  0.00     0.010 A 
ATOM      3  C   UNL     1      94.395  32.522  29.658  1.00  0.00     0.010 A 
ATOM      4  C   UNL     1      91.806  31.648  30.246  1.00  0.00     0.004 A 
ATOM      5  C   UNL     1      94.192  31.246  30.192  1.00  0.00     0.004 A 
ATOM      6  C   UNL     1      92.896  30.794  30.492  1.00  0.00    -0.045 A 
ENDROOT
BRANCH   1   7
ATOM      7  C   UNL     1      93.515  34.725  28.846  1.00  0.00     0.071 C 
ATOM      8  O   UNL     1      92.896  35.718  29.312  1.00  0.00    -0.545 OA
ATOM      9  O   UNL     1      94.399  34.917  27.790  1.00  0.00    -0.545 OA
ENDBRANCH   1   7
BRANCH   6  10
ATOM     10  C   UNL     1      92.691  29.407  31.072  1.00  0.00     0.013 C 
ATOM     11  C   UNL     1      93.711  28.413  30.503  1.00  0.00     0.012 C 
ATOM     12  C   UNL     1      91.257  28.918  30.842  1.00  0.00     0.012 C 
ENDBRANCH   6  10
TORSDOF 2
ENDMDL
MODEL 4
REMARK VINA RESULT:    -5.039      6.239      7.702
REMARK INTER + INTRA:          -5.847
REMARK INTER:                  -5.639
REMARK INTRA:                  -0.208
REMARK UNBOUND:                -0.220
REMARK SMILES CC(C)c1ccc(C(=O)[O-])cc1
REMARK SMILES IDX 7 1 6 2 11 3 5 4 12 5 4 6 8 7 9 8 10 9 2 10 1 11 3 12
REMARK H PARENT
REMARK Flexibility Score: inf
ROOT
ATOM      1  C   UNL     1      90.479  29.055  30.754  1.00  0.00    -0.003 A 
ATOM      2  C   UNL     1      91.452  28.165  30.269  1.00  0.00     0.010 A 
ATOM      3  C   UNL     1      90.791  30.422  30.843  1.00  0.00     0.010 A 
ATOM      4  C   UNL     1      92.710  28.632  29.880  1.00  0.00     0.004 A 
ATOM      5  C   UNL     1      92.050  30.889  30.455  1.00  0.00     0.004 A 
ATOM      6  C   UNL     1      93.024  30.001  29.968  1.00  0.00    -0.045 A 
ENDROOT
BRANCH   1   7
ATOM      7  C   UNL     1      89.148  28.556  31.164  1.00  0.00     0.071 C 
ATOM      8  O   UNL     1      88.967  28.089  32.320  1.00  0.00    -0.545 OA
ATOM      9  O   UNL     1      88.077  28.594  30.277  1.00  0.00    -0.545 OA
ENDBRANCH   1   7
BRANCH   6  10
ATOM     10  C   UNL     1      94.386  30.522  29.550  1.00  0.00     0.013 C 
ATOM     11  C   UNL     1      94.534  32.012  29.883  1.00  0.00     0.012 C 
ATOM     12  C   UNL     1      94.646  30.261  28.063  1.00  0.00     0.012 C 
ENDBRANCH   6  10
TORSDOF 2
ENDMDL
MODEL 5
REMARK VINA RESULT:    -5.026      3.957      5.335
REMARK INTER + INTRA:          -5.833
REMARK INTER:                  -5.612
REMARK INTRA:                  -0.220
REMARK UNBOUND:                -0.220
REMARK SMILES CC(C)c1ccc(C(=O)[O-])cc1
REMARK SMILES IDX 7 1 6 2 11 3 5 4 12 5 4 6 8 7 9 8 10 9 2 10 1 11 3 12
REMARK H PARENT
REMARK Flexibility Score: inf
ROOT
ATOM      1  C   UNL     1      94.740  30.382  26.765  1.00  0.00    -0.003 A 
ATOM      2  C   UNL     1      94.055  29.160  26.669  1.00  0.00     0.010 A 
ATOM      3  C   UNL     1      94.795  31.036  28.008  1.00  0.00     0.010 A 
ATOM      4  C   UNL     1      93.439  28.601  27.792  1.00  0.00     0.004 A 
ATOM      5  C   UNL     1      94.179  30.477  29.131  1.00  0.00     0.004 A 
ATOM      6  C   UNL     1      93.494  29.254  29.038  1.00  0.00    -0.045 A 
ENDROOT
BRANCH   1   7
ATOM      7  C   UNL     1      95.391  30.970  25.573  1.00  0.00     0.071 C 
ATOM      8  O   UNL     1      95.067  30.594  24.416  1.00  0.00    -0.545 OA
ATOM      9  O   UNL     1      96.371  31.946  25.715  1.00  0.00    -0.545 OA
ENDBRANCH   1   7
BRANCH   6  10
ATOM     10  C   UNL     1      92.829  28.659  30.265  1.00  0.00     0.013 C 
ATOM     11  C   UNL     1      91.572  27.868  29.884  1.00  0.00     0.012 C 
ATOM     12  C   UNL     1      92.506  29.743  31.299  1.00  0.00     0.012 C 
ENDBRANCH   6  10
TORSDOF 2
ENDMDL
MODEL 6
REMARK VINA RESULT:    -4.994      6.907      7.437
REMARK INTER + INTRA:          -5.797
REMARK INTER:                  -5.583
REMARK INTRA:                  -0.214
REMARK UNBOUND:                -0.220
REMARK SMILES CC(C)c1ccc(C(=O)[O-])cc1
REMARK SMILES IDX 7 1 6 2 11 3 5 4 12 5 4 6 8 7 9 8 10 9 2 10 1 11 3 12
REMARK H PARENT
REMARK Flexibility Score: inf
ROOT
ATOM      1  C   UNL     1      89.086  35.544  27.072  1.00  0.00    -0.003 A 
ATOM      2  C   UNL     1      90.178  36.381  26.789  1.00  0.00     0.010 A 
ATOM      3  C   UNL     1      88.832  34.449  26.227  1.00  0.00     0.010 A 
ATOM      4  C   UNL     1      90.998  36.131  25.686  1.00  0.00     0.004 A 
ATOM      5  C   UNL     1      89.652  34.199  25.123  1.00  0.00     0.004 A 
ATOM      6  C   UNL     1      90.744  35.036  24.839  1.00  0.00    -0.045 A 
ENDROOT
BRANCH   1   7
ATOM      7  C   UNL     1      88.221  35.812  28.241  1.00  0.00     0.071 C 
ATOM      8  O   UNL     1      88.403  36.837  28.951  1.00  0.00    -0.545 OA
ATOM      9  O   UNL     1      87.194  34.935  28.574  1.00  0.00    -0.545 OA
ENDBRANCH   1   7
BRANCH   6  10
ATOM     10  C   UNL     1      91.626  34.753  23.638  1.00  0.00     0.013 C 
ATOM     11  C   UNL     1      90.897  33.876  22.612  1.00  0.00     0.012 C 
ATOM     12  C   UNL     1      92.953  34.115  24.064  1.00  0.00     0.012 C 
ENDBRANCH   6  10
TORSDOF 2
ENDMDL
MODEL 7
REMARK VINA RESULT:    -4.987      3.810      5.885
REMARK INTER + INTRA:          -5.790
REMARK INTER:                  -5.579
REMARK INTRA:                  -0.211
REMARK UNBOUND:                -0.220
REMARK SMILES CC(C)c1ccc(C(=O)[O-])cc1
REMARK SMILES IDX 7 1 6 2 11 3 5 4 12 5 4 6 8 7 9 8 10 9 2 10 1 11 3 12
REMARK H PARENT
REMARK Flexibility Score: inf
ROOT
ATOM      1  C   UNL     1      91.471  28.966  26.292  1.00  0.00    -0.003 A 
ATOM      2  C   UNL     1      92.789  28.638  26.648  1.00  0.00     0.010 A 
ATOM      3  C   UNL     1      90.549  29.278  27.306  1.00  0.00     0.010 A 
ATOM      4  C   UNL     1      93.179  28.622  27.990  1.00  0.00     0.004 A 
ATOM      5  C   UNL     1      90.938  29.261  28.648  1.00  0.00     0.004 A 
ATOM      6  C   UNL     1      92.257  28.934  29.007  1.00  0.00    -0.045 A 
ENDROOT
BRANCH   1   7
ATOM      7  C   UNL     1      91.063  28.982  24.869  1.00  0.00     0.071 C 
ATOM      8  O   UNL     1      89.934  28.546  24.522  1.00  0.00    -0.545 OA
ATOM      9  O   UNL     1      91.923  29.479  23.896  1.00  0.00    -0.545 OA
ENDBRANCH   1   7
BRANCH   6  10
ATOM     10  C   UNL     1      92.666  28.920  30.468  1.00  0.00     0.013 C 
ATOM     11  C   UNL     1      92.589  30.326  31.076  1.00  0.00     0.012 C 
ATOM     12  C   UNL     1      94.064  28.318  30.645  1.00  0.00     0.012 C 
ENDBRANCH   6  10
TORSDOF 2
ENDMDL
MODEL 8
REMARK VINA RESULT:    -4.968      3.504      4.173
REMARK INTER + INTRA:          -5.769
REMARK INTER:                  -5.550
REMARK INTRA:                  -0.218
REMARK UNBOUND:                -0.220
REMARK SMILES CC(C)c1ccc(C(=O)[O-])cc1
REMARK SMILES IDX 7 1 6 2 11 3 5 4 12 5 4 6 8 7 9 8 10 9 2 10 1 11 3 12
REMARK H PARENT
REMARK Flexibility Score: inf
ROOT
ATOM      1  C   UNL     1      91.402  33.657  23.511  1.00  0.00    -0.003 A 
ATOM      2  C   UNL     1      90.007  33.493  23.518  1.00  0.00     0.010 A 
ATOM      3  C   UNL     1      92.217  32.540  23.257  1.00  0.00     0.010 A 
ATOM      4  C   UNL     1      89.438  32.240  23.277  1.00  0.00     0.004 A 
ATOM      5  C   UNL     1      91.648  31.287  23.016  1.00  0.00     0.004 A 
ATOM      6  C   UNL     1      90.253  31.121  23.022  1.00  0.00    -0.045 A 
ENDROOT
BRANCH   1   7
ATOM      7  C   UNL     1      92.000  34.986  23.766  1.00  0.00     0.071 C 
ATOM      8  O   UNL     1      93.078  35.322  23.208  1.00  0.00    -0.545 OA
ATOM      9  O   UNL     1      91.379  35.883  24.629  1.00  0.00    -0.545 OA
ENDBRANCH   1   7
BRANCH   6  10
ATOM     10  C   UNL     1      89.649  29.754  22.759  1.00  0.00     0.013 C 
ATOM     11  C   UNL     1      88.226  29.661  23.323  1.00  0.00     0.012 C 
ATOM     12  C   UNL     1      90.538  28.640  23.319  1.00  0.00     0.012 C 
ENDBRANCH   6  10
TORSDOF 2
ENDMDL
MODEL 9
REMARK VINA RESULT:    -4.913      6.562      7.259
REMARK INTER + INTRA:          -5.707
REMARK INTER:                  -5.492
REMARK INTRA:                  -0.215
REMARK UNBOUND:                -0.220
REMARK SMILES CC(C)c1ccc(C(=O)[O-])cc1
REMARK SMILES IDX 7 1 6 2 11 3 5 4 12 5 4 6 8 7 9 8 10 9 2 10 1 11 3 12
REMARK H PARENT
REMARK Flexibility Score: inf
ROOT
ATOM      1  C   UNL     1      90.600  32.151  29.872  1.00  0.00    -0.003 A 
ATOM      2  C   UNL     1      91.030  33.481  30.010  1.00  0.00     0.010 A 
ATOM      3  C   UNL     1      89.361  31.896  29.259  1.00  0.00     0.010 A 
ATOM      4  C   UNL     1      90.239  34.535  29.545  1.00  0.00     0.004 A 
ATOM      5  C   UNL     1      88.570  32.950  28.794  1.00  0.00     0.004 A 
ATOM      6  C   UNL     1      88.998  34.281  28.931  1.00  0.00    -0.045 A 
ENDROOT
BRANCH   1   7
ATOM      7  C   UNL     1      91.442  31.038  30.366  1.00  0.00     0.071 C 
ATOM      8  O   UNL     1      90.976  29.871  30.448  1.00  0.00    -0.545 OA
ATOM      9  O   UNL     1      92.759  31.267  30.747  1.00  0.00    -0.545 OA
ENDBRANCH   1   7
BRANCH   6  10
ATOM     10  C   UNL     1      88.129  35.415  28.422  1.00  0.00     0.013 C 
ATOM     11  C   UNL     1      88.025  35.388  26.891  1.00  0.00     0.012 C 
ATOM     12  C   UNL     1      88.644  36.772  28.915  1.00  0.00     0.012 C 
ENDBRANCH   6  10
TORSDOF 2
ENDMDL
