MODEL 1
REMARK VINA RESULT:    -3.966      0.000      0.000
REMARK INTER + INTRA:          -5.439
REMARK INTER:                  -5.589
REMARK INTRA:                   0.151
REMARK UNBOUND:                 0.151
REMARK SMILES CC1=CCC(=C(C)C)C(=O)CC(C)=CCC1
REMARK SMILES IDX 12 1 14 2 13 3 15 4 16 5 2 6 1 7 3 8 11 10 9 11 10 12 5 13
REMARK SMILES IDX 6 14 7 15 8 16 4 17
REMARK H PARENT
REMARK Flexibility Score: 60.00
ROOT
ATOM      1  C   UNL     1      17.232  30.417  29.534  1.00  0.00    -0.070 C 
ATOM      2  C   UNL     1      18.381  30.377  28.818  1.00  0.00    -0.027 C 
ATOM      3  C   UNL     1      16.420  31.688  29.494  1.00  0.00     0.039 C 
ENDROOT
BRANCH   2   4
ATOM      4  C   UNL     1      19.303  29.187  28.722  1.00  0.00     0.032 C 
BRANCH   4   5
ATOM      5  C   UNL     1      18.737  28.124  27.766  1.00  0.00     0.034 C 
BRANCH   5   6
ATOM      6  C   UNL     1      18.815  26.714  28.321  1.00  0.00    -0.077 C 
ATOM      7  C   UNL     1      20.175  26.133  28.625  1.00  0.00     0.039 C 
ATOM      8  C   UNL     1      17.737  25.907  28.484  1.00  0.00    -0.023 CG0
ATOM      9  G   UNL     1      16.281  26.297  28.345  1.00  0.00     0.000 G0
ENDBRANCH   5   6
ENDBRANCH   4   5
ENDBRANCH   2   4
BRANCH   1  10
ATOM     10  C   UNL     1      16.730  29.251  30.375  1.00  0.00     0.111 C 
BRANCH  10  11
ATOM     11  C   UNL     1      15.665  28.462  29.650  1.00  0.00     0.163 C 
ATOM     12  O   UNL     1      14.755  29.126  29.083  1.00  0.00    -0.294 OA
BRANCH  11  13
ATOM     13  C   UNL     1      15.648  26.957  29.560  1.00  0.00    -0.002 C 
ATOM     14  C   UNL     1      15.077  26.195  30.547  1.00  0.00    -0.069 C 
ATOM     15  C   UNL     1      14.990  24.687  30.432  1.00  0.00     0.039 C 
ATOM     16  C   UNL     1      14.551  26.802  31.828  1.00  0.00     0.039 C 
BRANCH  13  17
ATOM     17  C   UNL     1      16.268  26.277  28.341  1.00  0.00     0.066 CG0
ATOM     18  G   UNL     1      17.727  25.907  28.503  1.00  0.00     0.000 G0
ENDBRANCH  13  17
ENDBRANCH  11  13
ENDBRANCH  10  11
ENDBRANCH   1  10
TORSDOF 0
ENDMDL
MODEL 2
REMARK VINA RESULT:    -3.919      4.771      7.028
REMARK INTER + INTRA:          -5.372
REMARK INTER:                  -5.564
REMARK INTRA:                   0.192
REMARK UNBOUND:                 0.151
REMARK SMILES CC1=CCC(=C(C)C)C(=O)CC(C)=CCC1
REMARK SMILES IDX 12 1 14 2 13 3 15 4 16 5 2 6 1 7 3 8 11 10 9 11 10 12 5 13
REMARK SMILES IDX 6 14 7 15 8 16 4 17
REMARK H PARENT
REMARK Flexibility Score: 60.00
ROOT
ATOM      1  C   UNL     1      25.512  28.640  28.700  1.00  0.00    -0.070 C 
ATOM      2  C   UNL     1      25.616  29.701  29.536  1.00  0.00    -0.027 C 
ATOM      3  C   UNL     1      26.424  28.599  27.498  1.00  0.00     0.039 C 
ENDROOT
BRANCH   2   4
ATOM      4  C   UNL     1      24.805  29.897  30.793  1.00  0.00     0.032 C 
BRANCH   4   5
ATOM      5  C   UNL     1      23.472  30.601  30.487  1.00  0.00     0.034 C 
BRANCH   5   6
ATOM      6  C   UNL     1      22.275  29.929  31.134  1.00  0.00    -0.077 C 
ATOM      7  C   UNL     1      22.097  30.057  32.627  1.00  0.00     0.039 C 
ATOM      8  C   UNL     1      21.396  29.145  30.462  1.00  0.00    -0.023 CG0
ATOM      9  G   UNL     1      21.311  28.953  28.962  1.00  0.00     0.000 G0
ENDBRANCH   5   6
ENDBRANCH   4   5
ENDBRANCH   2   4
BRANCH   1  10
ATOM     10  C   UNL     1      24.522  27.502  28.910  1.00  0.00     0.111 C 
BRANCH  10  11
ATOM     11  C   UNL     1      23.335  27.622  27.982  1.00  0.00     0.163 C 
ATOM     12  O   UNL     1      23.586  27.696  26.749  1.00  0.00    -0.294 OA
BRANCH  11  13
ATOM     13  C   UNL     1      21.902  27.641  28.449  1.00  0.00    -0.002 C 
ATOM     14  C   UNL     1      21.137  26.503  28.437  1.00  0.00    -0.069 C 
ATOM     15  C   UNL     1      19.720  26.495  28.971  1.00  0.00     0.039 C 
ATOM     16  C   UNL     1      21.638  25.205  27.843  1.00  0.00     0.039 C 
BRANCH  13  17
ATOM     17  C   UNL     1      21.301  28.951  28.954  1.00  0.00     0.066 CG0
ATOM     18  G   UNL     1      21.403  29.155  30.451  1.00  0.00     0.000 G0
ENDBRANCH  13  17
ENDBRANCH  11  13
ENDBRANCH  10  11
ENDBRANCH   1  10
TORSDOF 0
ENDMDL
MODEL 3
REMARK VINA RESULT:    -3.917      2.851      5.780
REMARK INTER + INTRA:          -5.369
REMARK INTER:                  -5.567
REMARK INTRA:                   0.199
REMARK UNBOUND:                 0.151
REMARK SMILES CC1=CCC(=C(C)C)C(=O)CC(C)=CCC1
REMARK SMILES IDX 12 1 14 2 13 3 15 4 16 5 2 6 1 7 3 8 11 10 9 11 10 12 5 13
REMARK SMILES IDX 6 14 7 15 8 16 4 17
REMARK H PARENT
REMARK Flexibility Score: 60.00
ROOT
ATOM      1  C   UNL     1      20.284  25.624  28.183  1.00  0.00    -0.070 C 
ATOM      2  C   UNL     1      19.011  25.415  27.767  1.00  0.00    -0.027 C 
ATOM      3  C   UNL     1      21.388  24.879  27.474  1.00  0.00     0.039 C 
ENDROOT
BRANCH   2   4
ATOM      4  C   UNL     1      17.790  26.087  28.341  1.00  0.00     0.032 C 
BRANCH   4   5
ATOM      5  C   UNL     1      17.670  27.537  27.842  1.00  0.00     0.034 C 
BRANCH   5   6
ATOM      6  C   UNL     1      17.423  28.537  28.957  1.00  0.00    -0.077 C 
ATOM      7  C   UNL     1      16.160  28.409  29.774  1.00  0.00     0.039 C 
ATOM      8  C   UNL     1      18.230  29.596  29.212  1.00  0.00    -0.023 CG0
ATOM      9  G   UNL     1      19.589  29.872  28.603  1.00  0.00     0.000 G0
ENDBRANCH   5   6
ENDBRANCH   4   5
ENDBRANCH   2   4
BRANCH   1  10
ATOM     10  C   UNL     1      20.646  26.560  29.328  1.00  0.00     0.111 C 
BRANCH  10  11
ATOM     11  C   UNL     1      21.225  27.860  28.819  1.00  0.00     0.163 C 
ATOM     12  O   UNL     1      22.132  27.772  27.948  1.00  0.00    -0.294 OA
BRANCH  11  13
ATOM     13  C   UNL     1      20.769  29.220  29.280  1.00  0.00    -0.002 C 
ATOM     14  C   UNL     1      21.406  29.871  30.306  1.00  0.00    -0.069 C 
ATOM     15  C   UNL     1      21.003  31.269  30.728  1.00  0.00     0.039 C 
ATOM     16  C   UNL     1      22.509  29.218  31.110  1.00  0.00     0.039 C 
BRANCH  13  17
ATOM     17  C   UNL     1      19.585  29.885  28.582  1.00  0.00     0.066 CG0
ATOM     18  G   UNL     1      18.240  29.597  29.215  1.00  0.00     0.000 G0
ENDBRANCH  13  17
ENDBRANCH  11  13
ENDBRANCH  10  11
ENDBRANCH   1  10
TORSDOF 0
ENDMDL
MODEL 4
REMARK VINA RESULT:    -3.908      1.741      4.131
REMARK INTER + INTRA:          -5.357
REMARK INTER:                  -5.519
REMARK INTRA:                   0.162
REMARK UNBOUND:                 0.151
REMARK SMILES CC1=CCC(=C(C)C)C(=O)CC(C)=CCC1
REMARK SMILES IDX 12 1 14 2 13 3 15 4 16 5 2 6 1 7 3 8 11 10 9 11 10 12 5 13
REMARK SMILES IDX 6 14 7 15 8 16 4 17
REMARK H PARENT
REMARK Flexibility Score: 60.00
ROOT
ATOM      1  C   UNL     1      19.814  27.335  28.432  1.00  0.00    -0.070 C 
ATOM      2  C   UNL     1      19.436  26.068  28.138  1.00  0.00    -0.027 C 
ATOM      3  C   UNL     1      21.261  27.574  28.788  1.00  0.00     0.039 C 
ENDROOT
BRANCH   2   4
ATOM      4  C   UNL     1      18.044  25.648  27.740  1.00  0.00     0.032 C 
BRANCH   4   5
ATOM      5  C   UNL     1      17.131  25.519  28.971  1.00  0.00     0.034 C 
BRANCH   5   6
ATOM      6  C   UNL     1      15.714  26.000  28.722  1.00  0.00    -0.077 C 
ATOM      7  C   UNL     1      14.875  25.272  27.700  1.00  0.00     0.039 C 
ATOM      8  C   UNL     1      15.178  27.102  29.304  1.00  0.00    -0.023 CG0
ATOM      9  G   UNL     1      15.782  27.923  30.424  1.00  0.00     0.000 G0
ENDBRANCH   5   6
ENDBRANCH   4   5
ENDBRANCH   2   4
BRANCH   1  10
ATOM     10  C   UNL     1      18.853  28.516  28.429  1.00  0.00     0.111 C 
BRANCH  10  11
ATOM     11  C   UNL     1      18.202  28.705  29.779  1.00  0.00     0.163 C 
ATOM     12  O   UNL     1      18.947  28.583  30.789  1.00  0.00    -0.294 OA
BRANCH  11  13
ATOM     13  C   UNL     1      16.745  29.040  29.971  1.00  0.00    -0.002 C 
ATOM     14  C   UNL     1      16.270  30.303  29.730  1.00  0.00    -0.069 C 
ATOM     15  C   UNL     1      14.796  30.632  29.849  1.00  0.00     0.039 C 
ATOM     16  C   UNL     1      17.189  31.455  29.385  1.00  0.00     0.039 C 
BRANCH  13  17
ATOM     17  C   UNL     1      15.784  27.945  30.430  1.00  0.00     0.066 CG0
ATOM     18  G   UNL     1      15.196  27.114  29.309  1.00  0.00     0.000 G0
ENDBRANCH  13  17
ENDBRANCH  11  13
ENDBRANCH  10  11
ENDBRANCH   1  10
TORSDOF 0
ENDMDL
MODEL 5
REMARK VINA RESULT:    -3.773      2.332      4.336
REMARK INTER + INTRA:          -5.166
REMARK INTER:                  -5.318
REMARK INTRA:                   0.152
REMARK UNBOUND:                 0.151
REMARK SMILES CC1=CCC(=C(C)C)C(=O)CC(C)=CCC1
REMARK SMILES IDX 12 1 14 2 13 3 15 4 16 5 2 6 1 7 3 8 11 10 9 11 10 12 5 13
REMARK SMILES IDX 6 14 7 15 8 16 4 17
REMARK H PARENT
REMARK Flexibility Score: 60.00
ROOT
ATOM      1  C   UNL     1      16.890  27.138  29.103  1.00  0.00    -0.070 C 
ATOM      2  C   UNL     1      18.075  27.101  28.446  1.00  0.00    -0.027 C 
ATOM      3  C   UNL     1      15.809  26.184  28.659  1.00  0.00     0.039 C 
ENDROOT
BRANCH   2   4
ATOM      4  C   UNL     1      19.271  27.962  28.766  1.00  0.00     0.032 C 
BRANCH   4   5
ATOM      5  C   UNL     1      19.091  29.387  28.216  1.00  0.00     0.034 C 
BRANCH   5   6
ATOM      6  C   UNL     1      19.458  30.468  29.216  1.00  0.00    -0.077 C 
ATOM      7  C   UNL     1      20.882  30.540  29.709  1.00  0.00     0.039 C 
ATOM      8  C   UNL     1      18.561  31.327  29.761  1.00  0.00    -0.023 CG0
ATOM      9  G   UNL     1      17.114  31.511  29.352  1.00  0.00     0.000 G0
ENDBRANCH   5   6
ENDBRANCH   4   5
ENDBRANCH   2   4
BRANCH   1  10
ATOM     10  C   UNL     1      16.600  28.095  30.251  1.00  0.00     0.111 C 
BRANCH  10  11
ATOM     11  C   UNL     1      15.794  29.287  29.789  1.00  0.00     0.163 C 
ATOM     12  O   UNL     1      14.811  29.048  29.037  1.00  0.00    -0.294 OA
BRANCH  11  13
ATOM     13  C   UNL     1      16.092  30.710  30.188  1.00  0.00    -0.002 C 
ATOM     14  C   UNL     1      15.488  31.282  31.278  1.00  0.00    -0.069 C 
ATOM     15  C   UNL     1      15.835  32.685  31.730  1.00  0.00     0.039 C 
ATOM     16  C   UNL     1      14.404  30.573  32.060  1.00  0.00     0.039 C 
BRANCH  13  17
ATOM     17  C   UNL     1      17.094  31.518  29.367  1.00  0.00     0.066 CG0
ATOM     18  G   UNL     1      18.541  31.313  29.761  1.00  0.00     0.000 G0
ENDBRANCH  13  17
ENDBRANCH  11  13
ENDBRANCH  10  11
ENDBRANCH   1  10
TORSDOF 0
ENDMDL
MODEL 6
REMARK VINA RESULT:    -3.727      2.605      4.891
REMARK INTER + INTRA:          -5.101
REMARK INTER:                  -5.175
REMARK INTRA:                   0.074
REMARK UNBOUND:                 0.151
REMARK SMILES CC1=CCC(=C(C)C)C(=O)CC(C)=CCC1
REMARK SMILES IDX 12 1 14 2 13 3 15 4 16 5 2 6 1 7 3 8 11 10 9 11 10 12 5 13
REMARK SMILES IDX 6 14 7 15 8 16 4 17
REMARK H PARENT
REMARK Flexibility Score: 60.00
ROOT
ATOM      1  C   UNL     1      20.520  25.585  28.049  1.00  0.00    -0.070 C 
ATOM      2  C   UNL     1      21.809  25.924  28.290  1.00  0.00    -0.027 C 
ATOM      3  C   UNL     1      20.252  24.549  26.986  1.00  0.00     0.039 C 
ENDROOT
BRANCH   2   4
ATOM      4  C   UNL     1      22.264  26.920  29.328  1.00  0.00     0.032 C 
BRANCH   4   5
ATOM      5  C   UNL     1      22.199  28.356  28.782  1.00  0.00     0.034 C 
BRANCH   5   6
ATOM      6  C   UNL     1      21.709  29.366  29.803  1.00  0.00    -0.077 C 
ATOM      7  C   UNL     1      22.591  29.681  30.986  1.00  0.00     0.039 C 
ATOM      8  C   UNL     1      20.483  29.944  29.763  1.00  0.00    -0.023 CG0
ATOM      9  G   UNL     1      19.476  29.864  28.635  1.00  0.00     0.000 G0
ENDBRANCH   5   6
ENDBRANCH   4   5
ENDBRANCH   2   4
BRANCH   1  10
ATOM     10  C   UNL     1      19.340  26.202  28.788  1.00  0.00     0.111 C 
BRANCH  10  11
ATOM     11  C   UNL     1      18.792  27.403  28.053  1.00  0.00     0.163 C 
ATOM     12  O   UNL     1      18.592  27.266  26.815  1.00  0.00    -0.294 OA
BRANCH  11  13
ATOM     13  C   UNL     1      18.466  28.717  28.714  1.00  0.00    -0.002 C 
ATOM     14  C   UNL     1      17.294  28.893  29.403  1.00  0.00    -0.069 C 
ATOM     15  C   UNL     1      16.990  30.185  30.133  1.00  0.00     0.039 C 
ATOM     16  C   UNL     1      16.213  27.835  29.433  1.00  0.00     0.039 C 
BRANCH  13  17
ATOM     17  C   UNL     1      19.469  29.866  28.622  1.00  0.00     0.066 CG0
ATOM     18  G   UNL     1      20.461  29.928  29.764  1.00  0.00     0.000 G0
ENDBRANCH  13  17
ENDBRANCH  11  13
ENDBRANCH  10  11
ENDBRANCH   1  10
TORSDOF 0
ENDMDL
MODEL 7
REMARK VINA RESULT:    -3.687     11.777     13.706
REMARK INTER + INTRA:          -5.045
REMARK INTER:                  -5.135
REMARK INTRA:                   0.090
REMARK UNBOUND:                 0.151
REMARK SMILES CC1=CCC(=C(C)C)C(=O)CC(C)=CCC1
REMARK SMILES IDX 12 1 14 2 13 3 15 4 16 5 2 6 1 7 3 8 11 10 9 11 10 12 5 13
REMARK SMILES IDX 6 14 7 15 8 16 4 17
REMARK H PARENT
REMARK Flexibility Score: 60.00
ROOT
ATOM      1  C   UNL     1      30.509  33.251  31.693  1.00  0.00    -0.070 C 
ATOM      2  C   UNL     1      31.110  33.880  30.653  1.00  0.00    -0.027 C 
ATOM      3  C   UNL     1      29.510  34.035  32.507  1.00  0.00     0.039 C 
ENDROOT
BRANCH   2   4
ATOM      4  C   UNL     1      32.113  33.249  29.721  1.00  0.00     0.032 C 
BRANCH   4   5
ATOM      5  C   UNL     1      31.505  33.021  28.326  1.00  0.00     0.034 C 
BRANCH   5   6
ATOM      6  C   UNL     1      31.173  31.568  28.045  1.00  0.00    -0.077 C 
ATOM      7  C   UNL     1      32.212  30.709  27.366  1.00  0.00     0.039 C 
ATOM      8  C   UNL     1      29.962  31.010  28.292  1.00  0.00    -0.023 CG0
ATOM      9  G   UNL     1      28.810  31.635  29.052  1.00  0.00     0.000 G0
ENDBRANCH   5   6
ENDBRANCH   4   5
ENDBRANCH   2   4
BRANCH   1  10
ATOM     10  C   UNL     1      30.800  31.807  32.077  1.00  0.00     0.111 C 
BRANCH  10  11
ATOM     11  C   UNL     1      29.971  30.839  31.264  1.00  0.00     0.163 C 
ATOM     12  O   UNL     1      30.372  29.645  31.226  1.00  0.00    -0.294 OA
BRANCH  11  13
ATOM     13  C   UNL     1      28.712  31.222  30.529  1.00  0.00    -0.002 C 
ATOM     14  C   UNL     1      27.494  31.217  31.160  1.00  0.00    -0.069 C 
ATOM     15  C   UNL     1      26.234  31.670  30.452  1.00  0.00     0.039 C 
ATOM     16  C   UNL     1      27.325  30.711  32.576  1.00  0.00     0.039 C 
BRANCH  13  17
ATOM     17  C   UNL     1      28.802  31.633  29.061  1.00  0.00     0.066 CG0
ATOM     18  G   UNL     1      29.950  31.002  28.301  1.00  0.00     0.000 G0
ENDBRANCH  13  17
ENDBRANCH  11  13
ENDBRANCH  10  11
ENDBRANCH   1  10
TORSDOF 0
ENDMDL
MODEL 8
REMARK VINA RESULT:    -3.683      2.713      5.129
REMARK INTER + INTRA:          -5.039
REMARK INTER:                  -5.220
REMARK INTRA:                   0.181
REMARK UNBOUND:                 0.151
REMARK SMILES CC1=CCC(=C(C)C)C(=O)CC(C)=CCC1
REMARK SMILES IDX 12 1 14 2 13 3 15 4 16 5 2 6 1 7 3 8 11 10 9 11 10 12 5 13
REMARK SMILES IDX 6 14 7 15 8 16 4 17
REMARK H PARENT
REMARK Flexibility Score: 60.00
ROOT
ATOM      1  C   UNL     1      18.148  26.599  28.067  1.00  0.00    -0.070 C 
ATOM      2  C   UNL     1      19.097  25.649  27.886  1.00  0.00    -0.027 C 
ATOM      3  C   UNL     1      16.735  26.140  28.332  1.00  0.00     0.039 C 
ENDROOT
BRANCH   2   4
ATOM      4  C   UNL     1      20.559  25.921  27.635  1.00  0.00     0.032 C 
BRANCH   4   5
ATOM      5  C   UNL     1      21.280  26.314  28.936  1.00  0.00     0.034 C 
BRANCH   5   6
ATOM      6  C   UNL     1      22.190  27.519  28.779  1.00  0.00    -0.077 C 
ATOM      7  C   UNL     1      23.351  27.426  27.819  1.00  0.00     0.039 C 
ATOM      8  C   UNL     1      22.072  28.652  29.513  1.00  0.00    -0.023 CG0
ATOM      9  G   UNL     1      20.941  29.014  30.453  1.00  0.00     0.000 G0
ENDBRANCH   5   6
ENDBRANCH   4   5
ENDBRANCH   2   4
BRANCH   1  10
ATOM     10  C   UNL     1      18.437  28.093  28.009  1.00  0.00     0.111 C 
BRANCH  10  11
ATOM     11  C   UNL     1      18.580  28.684  29.392  1.00  0.00     0.163 C 
ATOM     12  O   UNL     1      17.702  28.363  30.238  1.00  0.00    -0.294 OA
BRANCH  11  13
ATOM     13  C   UNL     1      19.702  29.604  29.801  1.00  0.00    -0.002 C 
ATOM     14  C   UNL     1      19.617  30.958  29.602  1.00  0.00    -0.069 C 
ATOM     15  C   UNL     1      20.707  31.898  30.076  1.00  0.00     0.039 C 
ATOM     16  C   UNL     1      18.464  31.589  28.853  1.00  0.00     0.039 C 
BRANCH  13  17
ATOM     17  C   UNL     1      20.946  29.012  30.459  1.00  0.00     0.066 CG0
ATOM     18  G   UNL     1      22.060  28.659  29.496  1.00  0.00     0.000 G0
ENDBRANCH  13  17
ENDBRANCH  11  13
ENDBRANCH  10  11
ENDBRANCH   1  10
TORSDOF 0
ENDMDL
MODEL 9
REMARK VINA RESULT:    -3.519      3.247      5.142
REMARK INTER + INTRA:          -4.808
REMARK INTER:                  -5.255
REMARK INTRA:                   0.446
REMARK UNBOUND:                 0.151
REMARK SMILES CC1=CCC(=C(C)C)C(=O)CC(C)=CCC1
REMARK SMILES IDX 12 1 14 2 13 3 15 4 16 5 2 6 1 7 3 8 11 10 9 11 10 12 5 13
REMARK SMILES IDX 6 14 7 15 8 16 4 17
REMARK H PARENT
REMARK Flexibility Score: 60.00
ROOT
ATOM      1  C   UNL     1      18.952  27.880  28.769  1.00  0.00    -0.070 C 
ATOM      2  C   UNL     1      20.298  27.877  28.617  1.00  0.00    -0.027 C 
ATOM      3  C   UNL     1      18.102  27.799  27.525  1.00  0.00     0.039 C 
ENDROOT
BRANCH   2   4
ATOM      4  C   UNL     1      21.299  27.929  29.743  1.00  0.00     0.032 C 
BRANCH   4   5
ATOM      5  C   UNL     1      22.191  29.177  29.634  1.00  0.00     0.034 C 
BRANCH   5   6
ATOM      6  C   UNL     1      22.002  30.154  30.780  1.00  0.00    -0.077 C 
ATOM      7  C   UNL     1      22.982  30.119  31.927  1.00  0.00     0.039 C 
ATOM      8  C   UNL     1      20.952  31.006  30.878  1.00  0.00    -0.023 CG0
ATOM      9  G   UNL     1      19.910  31.292  29.817  1.00  0.00     0.000 G0
ENDBRANCH   5   6
ENDBRANCH   4   5
ENDBRANCH   2   4
BRANCH   1  10
ATOM     10  C   UNL     1      18.264  27.970  30.125  1.00  0.00     0.111 C 
BRANCH  10  11
ATOM     11  C   UNL     1      18.509  29.308  30.783  1.00  0.00     0.163 C 
ATOM     12  O   UNL     1      18.693  29.299  32.031  1.00  0.00    -0.294 OA
BRANCH  11  13
ATOM     13  C   UNL     1      18.559  30.616  30.037  1.00  0.00    -0.002 C 
ATOM     14  C   UNL     1      17.414  31.207  29.567  1.00  0.00    -0.069 C 
ATOM     15  C   UNL     1      17.445  32.557  28.880  1.00  0.00     0.039 C 
ATOM     16  C   UNL     1      16.065  30.530  29.656  1.00  0.00     0.039 C 
BRANCH  13  17
ATOM     17  C   UNL     1      19.908  31.295  29.813  1.00  0.00     0.066 CG0
ATOM     18  G   UNL     1      20.943  31.005  30.879  1.00  0.00     0.000 G0
ENDBRANCH  13  17
ENDBRANCH  11  13
ENDBRANCH  10  11
ENDBRANCH   1  10
TORSDOF 0
ENDMDL
