MODEL 1
REMARK VINA RESULT:    -0.652      0.000      0.000
REMARK INTER + INTRA:          -2.552
REMARK INTER:                  -0.956
REMARK INTRA:                  -1.596
REMARK UNBOUND:                -1.596
REMARK SMILES Cc1cc2c(C(C)C)c(O)c(O)c(C=O)c2c(O)c1-c1c(C)cc2c(C(C)C)c(O)c(O)c(C=O)c2c1O
REMARK SMILES IDX 1 1 2 2 3 3 4 4 16 5 13 6 11 7 9 8 5 9 17 10 19 11 20 12
REMARK SMILES IDX 37 13 21 14 36 15 23 16 22 17 24 18 33 19 25 20 31 21 29 22
REMARK SMILES IDX 38 23 34 25 35 26 26 27 27 28 28 29 32 30 30 32 18 34 6 36
REMARK SMILES IDX 7 37 8 38 14 39 15 40 10 41 12 43
REMARK H PARENT 38 24 32 31 30 33 18 35 10 42 12 44
REMARK Flexibility Score: inf
ROOT
ATOM      1  C   UNL     1     120.383 129.609 135.025  1.00  0.00     0.045 C 
ATOM      2  C   UNL     1     119.064 130.276 134.720  1.00  0.00    -0.039 A 
ATOM      3  C   UNL     1     118.391 130.963 135.731  1.00  0.00     0.013 A 
ATOM      4  C   UNL     1     117.150 131.597 135.502  1.00  0.00    -0.006 A 
ATOM      5  C   UNL     1     116.648 131.657 134.166  1.00  0.00     0.039 A 
ATOM      6  C   UNL     1     115.513 132.479 133.894  1.00  0.00     0.072 A 
ATOM      7  C   UNL     1     114.912 133.213 134.939  1.00  0.00     0.169 A 
ATOM      8  C   UNL     1     115.355 133.066 136.258  1.00  0.00     0.162 A 
ATOM      9  C   UNL     1     116.418 132.193 136.572  1.00  0.00     0.008 A 
ATOM     10  C   UNL     1     117.294 130.884 133.156  1.00  0.00     0.132 A 
ATOM     11  C   UNL     1     118.496 130.200 133.438  1.00  0.00     0.031 A 
ENDROOT
BRANCH  11  12
ATOM     12  C   UNL     1     119.177 129.409 132.380  1.00  0.00     0.031 A 
ATOM     13  C   UNL     1     120.104 130.044 131.540  1.00  0.00     0.132 A 
ATOM     14  C   UNL     1     118.837 128.065 132.162  1.00  0.00    -0.039 A 
ATOM     15  C   UNL     1     120.832 129.290 130.576  1.00  0.00     0.039 A 
ATOM     16  C   UNL     1     119.402 127.383 131.081  1.00  0.00     0.013 A 
ATOM     17  C   UNL     1     117.782 127.384 132.998  1.00  0.00     0.045 C 
ATOM     18  C   UNL     1     120.416 127.955 130.285  1.00  0.00    -0.006 A 
ATOM     19  C   UNL     1     121.946 129.828 129.878  1.00  0.00     0.072 A 
ATOM     20  C   UNL     1     121.014 127.245 129.194  1.00  0.00     0.008 A 
ATOM     21  C   UNL     1     122.389 129.206 128.705  1.00  0.00     0.169 A 
ATOM     22  C   UNL     1     121.877 127.960 128.323  1.00  0.00     0.162 A 
BRANCH  13  23
ATOM     23  O   UNL     1     120.207 131.436 131.634  1.00  0.00    -0.507 OA
ATOM     24  H   UNL     1     120.973 131.899 132.105  1.00  0.00     0.293 HD
ENDBRANCH  13  23
BRANCH  19  25
ATOM     25  C   UNL     1     122.765 130.946 130.406  1.00  0.00     0.264 C 
ATOM     26  O   UNL     1     122.668 132.105 129.920  1.00  0.00    -0.298 OA
ENDBRANCH  19  25
BRANCH  20  27
ATOM     27  C   UNL     1     120.818 125.736 128.945  1.00  0.00     0.017 C 
ATOM     28  C   UNL     1     122.143 124.964 128.995  1.00  0.00     0.012 C 
ATOM     29  C   UNL     1     119.973 125.400 127.698  1.00  0.00     0.012 C 
ENDBRANCH  20  27
BRANCH  21  30
ATOM     30  O   UNL     1     123.369 129.829 127.923  1.00  0.00    -0.504 OA
ATOM     31  H   UNL     1     123.153 130.333 127.072  1.00  0.00     0.293 HD
ENDBRANCH  21  30
BRANCH  22  32
ATOM     32  O   UNL     1     122.260 127.457 127.076  1.00  0.00    -0.504 OA
ATOM     33  H   UNL     1     121.822 126.657 126.634  1.00  0.00     0.293 HD
ENDBRANCH  22  32
ENDBRANCH  11  12
BRANCH  10  34
ATOM     34  O   UNL     1     116.731 130.776 131.878  1.00  0.00    -0.507 OA
ATOM     35  H   UNL     1     117.268 130.614 131.035  1.00  0.00     0.293 HD
ENDBRANCH  10  34
BRANCH   9  36
ATOM     36  C   UNL     1     116.770 131.918 138.045  1.00  0.00     0.017 C 
ATOM     37  C   UNL     1     117.390 133.156 138.700  1.00  0.00     0.012 C 
ATOM     38  C   UNL     1     115.591 131.376 138.874  1.00  0.00     0.012 C 
ENDBRANCH   9  36
BRANCH   6  39
ATOM     39  C   UNL     1     114.994 132.666 132.523  1.00  0.00     0.264 C 
ATOM     40  O   UNL     1     113.891 132.162 132.182  1.00  0.00    -0.298 OA
ENDBRANCH   6  39
BRANCH   8  41
ATOM     41  O   UNL     1     114.749 133.817 137.269  1.00  0.00    -0.504 OA
ATOM     42  H   UNL     1     115.185 134.626 137.693  1.00  0.00     0.293 HD
ENDBRANCH   8  41
BRANCH   7  43
ATOM     43  O   UNL     1     113.875 134.122 134.694  1.00  0.00    -0.504 OA
ATOM     44  H   UNL     1     113.180 134.387 135.381  1.00  0.00     0.293 HD
ENDBRANCH   7  43
TORSDOF 11
ENDMDL
MODEL 2
REMARK VINA RESULT:    -0.638      2.055      8.971
REMARK INTER + INTRA:          -2.532
REMARK INTER:                  -0.938
REMARK INTRA:                  -1.594
REMARK UNBOUND:                -1.596
REMARK SMILES Cc1cc2c(C(C)C)c(O)c(O)c(C=O)c2c(O)c1-c1c(C)cc2c(C(C)C)c(O)c(O)c(C=O)c2c1O
REMARK SMILES IDX 1 1 2 2 3 3 4 4 16 5 13 6 11 7 9 8 5 9 17 10 19 11 20 12
REMARK SMILES IDX 37 13 21 14 36 15 23 16 22 17 24 18 33 19 25 20 31 21 29 22
REMARK SMILES IDX 38 23 34 25 35 26 26 27 27 28 28 29 32 30 30 32 18 34 6 36
REMARK SMILES IDX 7 37 8 38 14 39 15 40 10 41 12 43
REMARK H PARENT 38 24 32 31 30 33 18 35 10 42 12 44
REMARK Flexibility Score: inf
ROOT
ATOM      1  C   UNL     1     117.254 127.128 132.191  1.00  0.00     0.045 C 
ATOM      2  C   UNL     1     118.693 127.569 132.300  1.00  0.00    -0.039 A 
ATOM      3  C   UNL     1     119.691 126.821 131.673  1.00  0.00     0.013 A 
ATOM      4  C   UNL     1     121.053 127.183 131.751  1.00  0.00    -0.006 A 
ATOM      5  C   UNL     1     121.397 128.426 132.363  1.00  0.00     0.039 A 
ATOM      6  C   UNL     1     122.739 128.900 132.253  1.00  0.00     0.072 A 
ATOM      7  C   UNL     1     123.695 128.141 131.544  1.00  0.00     0.169 A 
ATOM      8  C   UNL     1     123.366 126.880 131.034  1.00  0.00     0.162 A 
ATOM      9  C   UNL     1     122.071 126.345 131.205  1.00  0.00     0.008 A 
ATOM     10  C   UNL     1     120.388 129.142 133.075  1.00  0.00     0.132 A 
ATOM     11  C   UNL     1     119.045 128.710 133.037  1.00  0.00     0.031 A 
ENDROOT
BRANCH  11  12
ATOM     12  C   UNL     1     117.992 129.467 133.764  1.00  0.00     0.031 A 
ATOM     13  C   UNL     1     117.354 130.539 133.124  1.00  0.00     0.132 A 
ATOM     14  C   UNL     1     117.697 129.174 135.105  1.00  0.00    -0.039 A 
ATOM     15  C   UNL     1     116.284 131.225 133.767  1.00  0.00     0.039 A 
ATOM     16  C   UNL     1     116.793 129.981 135.799  1.00  0.00     0.013 A 
ATOM     17  C   UNL     1     118.430 128.079 135.841  1.00  0.00     0.045 C 
ATOM     18  C   UNL     1     116.054 130.997 135.157  1.00  0.00    -0.006 A 
ATOM     19  C   UNL     1     115.449 132.143 133.075  1.00  0.00     0.072 A 
ATOM     20  C   UNL     1     115.107 131.807 135.864  1.00  0.00     0.008 A 
ATOM     21  C   UNL     1     114.672 133.050 133.806  1.00  0.00     0.169 A 
ATOM     22  C   UNL     1     114.558 132.932 135.195  1.00  0.00     0.162 A 
BRANCH  13  23
ATOM     23  O   UNL     1     117.870 130.949 131.890  1.00  0.00    -0.507 OA
ATOM     24  H   UNL     1     118.428 131.785 131.778  1.00  0.00     0.293 HD
ENDBRANCH  13  23
BRANCH  19  25
ATOM     25  C   UNL     1     115.247 132.102 131.607  1.00  0.00     0.264 C 
ATOM     26  O   UNL     1     115.766 132.972 130.858  1.00  0.00    -0.298 OA
ENDBRANCH  19  25
BRANCH  20  27
ATOM     27  C   UNL     1     114.609 131.495 137.289  1.00  0.00     0.017 C 
ATOM     28  C   UNL     1     115.681 131.769 138.351  1.00  0.00     0.012 C 
ATOM     29  C   UNL     1     113.950 130.108 137.445  1.00  0.00     0.012 C 
ENDBRANCH  20  27
BRANCH  21  30
ATOM     30  O   UNL     1     113.987 134.068 133.131  1.00  0.00    -0.504 OA
ATOM     31  H   UNL     1     114.429 134.662 132.441  1.00  0.00     0.293 HD
ENDBRANCH  21  30
BRANCH  22  32
ATOM     32  O   UNL     1     113.878 133.945 135.879  1.00  0.00    -0.504 OA
ATOM     33  H   UNL     1     112.879 133.942 136.040  1.00  0.00     0.293 HD
ENDBRANCH  22  32
ENDBRANCH  11  12
BRANCH  10  34
ATOM     34  O   UNL     1     120.722 130.269 133.836  1.00  0.00    -0.507 OA
ATOM     35  H   UNL     1     120.042 130.903 134.237  1.00  0.00     0.293 HD
ENDBRANCH  10  34
BRANCH   9  36
ATOM     36  C   UNL     1     121.786 124.891 130.790  1.00  0.00     0.017 C 
ATOM     37  C   UNL     1     121.817 124.740 129.266  1.00  0.00     0.012 C 
ATOM     38  C   UNL     1     122.701 123.859 131.475  1.00  0.00     0.012 C 
ENDBRANCH   9  36
BRANCH   6  39
ATOM     39  C   UNL     1     123.148 130.218 132.779  1.00  0.00     0.264 C 
ATOM     40  O   UNL     1     123.875 130.301 133.805  1.00  0.00    -0.298 OA
ENDBRANCH   6  39
BRANCH   8  41
ATOM     41  O   UNL     1     124.329 126.158 130.325  1.00  0.00    -0.504 OA
ATOM     42  H   UNL     1     125.279 126.033 130.654  1.00  0.00     0.293 HD
ENDBRANCH   8  41
BRANCH   7  43
ATOM     43  O   UNL     1     124.988 128.625 131.308  1.00  0.00    -0.504 OA
ATOM     44  H   UNL     1     125.283 129.054 130.441  1.00  0.00     0.293 HD
ENDBRANCH   7  43
TORSDOF 11
ENDMDL
MODEL 3
REMARK VINA RESULT:    -0.625      2.729      9.152
REMARK INTER + INTRA:          -2.513
REMARK INTER:                  -0.972
REMARK INTRA:                  -1.541
REMARK UNBOUND:                -1.596
REMARK SMILES Cc1cc2c(C(C)C)c(O)c(O)c(C=O)c2c(O)c1-c1c(C)cc2c(C(C)C)c(O)c(O)c(C=O)c2c1O
REMARK SMILES IDX 1 1 2 2 3 3 4 4 16 5 13 6 11 7 9 8 5 9 17 10 19 11 20 12
REMARK SMILES IDX 37 13 21 14 36 15 23 16 22 17 24 18 33 19 25 20 31 21 29 22
REMARK SMILES IDX 38 23 34 25 35 26 26 27 27 28 28 29 32 30 30 32 18 34 6 36
REMARK SMILES IDX 7 37 8 38 14 39 15 40 10 41 12 43
REMARK H PARENT 38 24 32 31 30 33 18 35 10 42 12 44
REMARK Flexibility Score: inf
ROOT
ATOM      1  C   UNL     1     119.695 128.979 133.225  1.00  0.00     0.045 C 
ATOM      2  C   UNL     1     118.890 127.878 132.578  1.00  0.00    -0.039 A 
ATOM      3  C   UNL     1     119.520 126.982 131.714  1.00  0.00     0.013 A 
ATOM      4  C   UNL     1     118.812 125.941 131.075  1.00  0.00    -0.006 A 
ATOM      5  C   UNL     1     117.450 125.715 131.440  1.00  0.00     0.039 A 
ATOM      6  C   UNL     1     116.797 124.537 130.965  1.00  0.00     0.072 A 
ATOM      7  C   UNL     1     117.501 123.623 130.153  1.00  0.00     0.169 A 
ATOM      8  C   UNL     1     118.802 123.908 129.725  1.00  0.00     0.162 A 
ATOM      9  C   UNL     1     119.444 125.107 130.105  1.00  0.00     0.008 A 
ATOM     10  C   UNL     1     116.789 126.682 132.255  1.00  0.00     0.132 A 
ATOM     11  C   UNL     1     117.512 127.755 132.819  1.00  0.00     0.031 A 
ENDROOT
BRANCH  11  12
ATOM     12  C   UNL     1     116.826 128.751 133.683  1.00  0.00     0.031 A 
ATOM     13  C   UNL     1     116.316 129.923 133.105  1.00  0.00     0.132 A 
ATOM     14  C   UNL     1     116.765 128.570 135.073  1.00  0.00    -0.039 A 
ATOM     15  C   UNL     1     115.581 130.851 133.895  1.00  0.00     0.039 A 
ATOM     16  C   UNL     1     116.224 129.581 135.872  1.00  0.00     0.013 A 
ATOM     17  C   UNL     1     117.380 127.358 135.728  1.00  0.00     0.045 C 
ATOM     18  C   UNL     1     115.605 130.721 135.316  1.00  0.00    -0.006 A 
ATOM     19  C   UNL     1     114.839 131.917 133.318  1.00  0.00     0.072 A 
ATOM     20  C   UNL     1     115.028 131.744 136.136  1.00  0.00     0.008 A 
ATOM     21  C   UNL     1     114.450 132.997 134.119  1.00  0.00     0.169 A 
ATOM     22  C   UNL     1     114.608 132.946 135.508  1.00  0.00     0.162 A 
BRANCH  13  23
ATOM     23  O   UNL     1     116.637 130.170 131.765  1.00  0.00    -0.507 OA
ATOM     24  H   UNL     1     117.524 129.910 131.356  1.00  0.00     0.293 HD
ENDBRANCH  13  23
BRANCH  19  25
ATOM     25  C   UNL     1     114.328 131.882 131.926  1.00  0.00     0.264 C 
ATOM     26  O   UNL     1     114.912 132.515 131.006  1.00  0.00    -0.298 OA
ENDBRANCH  19  25
BRANCH  20  27
ATOM     27  C   UNL     1     114.786 131.593 137.651  1.00  0.00     0.017 C 
ATOM     28  C   UNL     1     116.080 131.741 138.462  1.00  0.00     0.012 C 
ATOM     29  C   UNL     1     113.969 130.344 138.045  1.00  0.00     0.012 C 
ENDBRANCH  20  27
BRANCH  21  30
ATOM     30  O   UNL     1     113.875 134.125 133.521  1.00  0.00    -0.504 OA
ATOM     31  H   UNL     1     114.324 135.032 133.519  1.00  0.00     0.293 HD
ENDBRANCH  21  30
BRANCH  22  32
ATOM     32  O   UNL     1     114.325 134.106 136.236  1.00  0.00    -0.504 OA
ATOM     33  H   UNL     1     114.046 134.105 137.210  1.00  0.00     0.293 HD
ENDBRANCH  22  32
ENDBRANCH  11  12
BRANCH  10  34
ATOM     34  O   UNL     1     115.411 126.590 132.488  1.00  0.00    -0.507 OA
ATOM     35  H   UNL     1     114.724 127.201 132.065  1.00  0.00     0.293 HD
ENDBRANCH  10  34
BRANCH   9  36
ATOM     36  C   UNL     1     120.802 125.476 129.482  1.00  0.00     0.017 C 
ATOM     37  C   UNL     1     121.907 124.542 129.985  1.00  0.00     0.012 C 
ATOM     38  C   UNL     1     120.781 125.543 127.944  1.00  0.00     0.012 C 
ENDBRANCH   9  36
BRANCH   6  39
ATOM     39  C   UNL     1     115.421 124.189 131.375  1.00  0.00     0.264 C 
ATOM     40  O   UNL     1     114.482 124.190 130.534  1.00  0.00    -0.298 OA
ENDBRANCH   6  39
BRANCH   8  41
ATOM     41  O   UNL     1     119.479 122.977 128.933  1.00  0.00    -0.504 OA
ATOM     42  H   UNL     1     119.297 121.982 128.971  1.00  0.00     0.293 HD
ENDBRANCH   8  41
BRANCH   7  43
ATOM     43  O   UNL     1     116.938 122.400 129.767  1.00  0.00    -0.504 OA
ATOM     44  H   UNL     1     116.999 122.019 128.831  1.00  0.00     0.293 HD
ENDBRANCH   7  43
TORSDOF 11
ENDMDL
MODEL 4
REMARK VINA RESULT:    -0.618      0.639      9.137
REMARK INTER + INTRA:          -2.503
REMARK INTER:                  -0.938
REMARK INTRA:                  -1.565
REMARK UNBOUND:                -1.596
REMARK SMILES Cc1cc2c(C(C)C)c(O)c(O)c(C=O)c2c(O)c1-c1c(C)cc2c(C(C)C)c(O)c(O)c(C=O)c2c1O
REMARK SMILES IDX 1 1 2 2 3 3 4 4 16 5 13 6 11 7 9 8 5 9 17 10 19 11 20 12
REMARK SMILES IDX 37 13 21 14 36 15 23 16 22 17 24 18 33 19 25 20 31 21 29 22
REMARK SMILES IDX 38 23 34 25 35 26 26 27 27 28 28 29 32 30 30 32 18 34 6 36
REMARK SMILES IDX 7 37 8 38 14 39 15 40 10 41 12 43
REMARK H PARENT 38 24 32 31 30 33 18 35 10 42 12 44
REMARK Flexibility Score: inf
ROOT
ATOM      1  C   UNL     1     117.202 127.561 131.881  1.00  0.00     0.045 C 
ATOM      2  C   UNL     1     118.490 128.153 131.363  1.00  0.00    -0.039 A 
ATOM      3  C   UNL     1     119.199 127.488 130.361  1.00  0.00     0.013 A 
ATOM      4  C   UNL     1     120.413 127.993 129.848  1.00  0.00    -0.006 A 
ATOM      5  C   UNL     1     120.846 129.288 130.263  1.00  0.00     0.039 A 
ATOM      6  C   UNL     1     121.949 129.894 129.589  1.00  0.00     0.072 A 
ATOM      7  C   UNL     1     122.586 129.210 128.531  1.00  0.00     0.169 A 
ATOM      8  C   UNL     1     122.212 127.903 128.202  1.00  0.00     0.162 A 
ATOM      9  C   UNL     1     121.184 127.244 128.909  1.00  0.00     0.008 A 
ATOM     10  C   UNL     1     120.167 129.924 131.346  1.00  0.00     0.132 A 
ATOM     11  C   UNL     1     118.995 129.353 131.887  1.00  0.00     0.031 A 
ENDROOT
BRANCH  11  12
ATOM     12  C   UNL     1     118.279 130.025 133.003  1.00  0.00     0.031 A 
ATOM     13  C   UNL     1     117.304 130.989 132.709  1.00  0.00     0.132 A 
ATOM     14  C   UNL     1     118.632 129.766 134.337  1.00  0.00    -0.039 A 
ATOM     15  C   UNL     1     116.544 131.583 133.757  1.00  0.00     0.039 A 
ATOM     16  C   UNL     1     118.028 130.503 135.359  1.00  0.00     0.013 A 
ATOM     17  C   UNL     1     119.735 128.796 134.676  1.00  0.00     0.045 C 
ATOM     18  C   UNL     1     116.968 131.400 135.107  1.00  0.00    -0.006 A 
ATOM     19  C   UNL     1     115.390 132.371 133.502  1.00  0.00     0.072 A 
ATOM     20  C   UNL     1     116.332 132.135 136.160  1.00  0.00     0.008 A 
ATOM     21  C   UNL     1     114.904 133.222 134.501  1.00  0.00     0.169 A 
ATOM     22  C   UNL     1     115.417 133.160 135.801  1.00  0.00     0.162 A 
BRANCH  13  23
ATOM     23  O   UNL     1     117.181 131.392 131.375  1.00  0.00    -0.507 OA
ATOM     24  H   UNL     1     117.432 132.318 131.055  1.00  0.00     0.293 HD
ENDBRANCH  13  23
BRANCH  19  25
ATOM     25  C   UNL     1     114.578 132.236 132.268  1.00  0.00     0.264 C 
ATOM     26  O   UNL     1     114.628 133.111 131.362  1.00  0.00    -0.298 OA
ENDBRANCH  19  25
BRANCH  20  27
ATOM     27  C   UNL     1     116.542 131.840 137.658  1.00  0.00     0.017 C 
ATOM     28  C   UNL     1     115.241 131.419 138.353  1.00  0.00     0.012 C 
ATOM     29  C   UNL     1     117.304 132.941 138.425  1.00  0.00     0.012 C 
ENDBRANCH  20  27
BRANCH  21  30
ATOM     30  O   UNL     1     113.878 134.125 134.197  1.00  0.00    -0.504 OA
ATOM     31  H   UNL     1     113.659 134.406 133.249  1.00  0.00     0.293 HD
ENDBRANCH  21  30
BRANCH  22  32
ATOM     32  O   UNL     1     114.986 134.125 136.716  1.00  0.00    -0.504 OA
ATOM     33  H   UNL     1     114.196 133.997 137.338  1.00  0.00     0.293 HD
ENDBRANCH  22  32
ENDBRANCH  11  12
BRANCH  10  34
ATOM     34  O   UNL     1     120.669 131.109 131.898  1.00  0.00    -0.507 OA
ATOM     35  H   UNL     1     120.794 131.967 131.376  1.00  0.00     0.293 HD
ENDBRANCH  10  34
BRANCH   9  36
ATOM     36  C   UNL     1     120.912 125.752 128.645  1.00  0.00     0.017 C 
ATOM     37  C   UNL     1     120.302 125.545 127.256  1.00  0.00     0.012 C 
ATOM     38  C   UNL     1     122.141 124.849 128.858  1.00  0.00     0.012 C 
ENDBRANCH   9  36
BRANCH   6  39
ATOM     39  C   UNL     1     122.396 131.268 129.899  1.00  0.00     0.264 C 
ATOM     40  O   UNL     1     122.000 132.242 129.205  1.00  0.00    -0.298 OA
ENDBRANCH   6  39
BRANCH   8  41
ATOM     41  O   UNL     1     122.852 127.257 127.141  1.00  0.00    -0.504 OA
ATOM     42  H   UNL     1     123.557 127.703 126.567  1.00  0.00     0.293 HD
ENDBRANCH   8  41
BRANCH   7  43
ATOM     43  O   UNL     1     123.591 129.816 127.766  1.00  0.00    -0.504 OA
ATOM     44  H   UNL     1     124.181 129.320 127.110  1.00  0.00     0.293 HD
ENDBRANCH   7  43
TORSDOF 11
ENDMDL
MODEL 5
REMARK VINA RESULT:    -0.585      3.320      5.727
REMARK INTER + INTRA:          -2.454
REMARK INTER:                  -0.894
REMARK INTRA:                  -1.560
REMARK UNBOUND:                -1.596
REMARK SMILES Cc1cc2c(C(C)C)c(O)c(O)c(C=O)c2c(O)c1-c1c(C)cc2c(C(C)C)c(O)c(O)c(C=O)c2c1O
REMARK SMILES IDX 1 1 2 2 3 3 4 4 16 5 13 6 11 7 9 8 5 9 17 10 19 11 20 12
REMARK SMILES IDX 37 13 21 14 36 15 23 16 22 17 24 18 33 19 25 20 31 21 29 22
REMARK SMILES IDX 38 23 34 25 35 26 26 27 27 28 28 29 32 30 30 32 18 34 6 36
REMARK SMILES IDX 7 37 8 38 14 39 15 40 10 41 12 43
REMARK H PARENT 38 24 32 31 30 33 18 35 10 42 12 44
REMARK Flexibility Score: inf
ROOT
ATOM      1  C   UNL     1     119.165 128.838 132.308  1.00  0.00     0.045 C 
ATOM      2  C   UNL     1     118.444 129.894 133.111  1.00  0.00    -0.039 A 
ATOM      3  C   UNL     1     117.449 130.660 132.502  1.00  0.00     0.013 A 
ATOM      4  C   UNL     1     116.751 131.666 133.204  1.00  0.00    -0.006 A 
ATOM      5  C   UNL     1     116.969 131.799 134.609  1.00  0.00     0.039 A 
ATOM      6  C   UNL     1     116.113 132.660 135.360  1.00  0.00     0.072 A 
ATOM      7  C   UNL     1     115.073 133.357 134.710  1.00  0.00     0.169 A 
ATOM      8  C   UNL     1     114.934 133.292 133.319  1.00  0.00     0.162 A 
ATOM      9  C   UNL     1     115.821 132.519 132.538  1.00  0.00     0.008 A 
ATOM     10  C   UNL     1     118.044 131.075 135.207  1.00  0.00     0.132 A 
ATOM     11  C   UNL     1     118.773 130.128 134.455  1.00  0.00     0.031 A 
ENDROOT
BRANCH  11  12
ATOM     12  C   UNL     1     119.880 129.362 135.084  1.00  0.00     0.031 A 
ATOM     13  C   UNL     1     121.190 129.858 135.000  1.00  0.00     0.132 A 
ATOM     14  C   UNL     1     119.639 128.114 135.679  1.00  0.00    -0.039 A 
ATOM     15  C   UNL     1     122.255 129.187 135.667  1.00  0.00     0.039 A 
ATOM     16  C   UNL     1     120.717 127.360 136.151  1.00  0.00     0.013 A 
ATOM     17  C   UNL     1     118.252 127.521 135.707  1.00  0.00     0.045 C 
ATOM     18  C   UNL     1     122.031 127.874 136.181  1.00  0.00    -0.006 A 
ATOM     19  C   UNL     1     123.540 129.773 135.820  1.00  0.00     0.072 A 
ATOM     20  C   UNL     1     123.131 127.111 136.690  1.00  0.00     0.008 A 
ATOM     21  C   UNL     1     124.633 128.958 136.139  1.00  0.00     0.169 A 
ATOM     22  C   UNL     1     124.442 127.620 136.500  1.00  0.00     0.162 A 
BRANCH  13  23
ATOM     23  O   UNL     1     121.405 130.966 134.174  1.00  0.00    -0.507 OA
ATOM     24  H   UNL     1     121.252 131.917 134.479  1.00  0.00     0.293 HD
ENDBRANCH  13  23
BRANCH  19  25
ATOM     25  C   UNL     1     123.766 131.238 135.798  1.00  0.00     0.264 C 
ATOM     26  O   UNL     1     124.296 131.796 134.800  1.00  0.00    -0.298 OA
ENDBRANCH  19  25
BRANCH  20  27
ATOM     27  C   UNL     1     122.969 125.797 137.480  1.00  0.00     0.017 C 
ATOM     28  C   UNL     1     122.540 124.630 136.582  1.00  0.00     0.012 C 
ATOM     29  C   UNL     1     122.108 125.922 138.755  1.00  0.00     0.012 C 
ENDBRANCH  20  27
BRANCH  21  30
ATOM     30  O   UNL     1     125.924 129.500 136.118  1.00  0.00    -0.504 OA
ATOM     31  H   UNL     1     126.739 128.987 136.431  1.00  0.00     0.293 HD
ENDBRANCH  21  30
BRANCH  22  32
ATOM     32  O   UNL     1     125.580 126.827 136.675  1.00  0.00    -0.504 OA
ATOM     33  H   UNL     1     125.919 126.169 135.984  1.00  0.00     0.293 HD
ENDBRANCH  22  32
ENDBRANCH  11  12
BRANCH  10  34
ATOM     34  O   UNL     1     118.403 131.312 136.540  1.00  0.00    -0.507 OA
ATOM     35  H   UNL     1     118.940 132.114 136.847  1.00  0.00     0.293 HD
ENDBRANCH  10  34
BRANCH   9  36
ATOM     36  C   UNL     1     115.755 132.602 131.003  1.00  0.00     0.017 C 
ATOM     37  C   UNL     1     114.464 131.969 130.475  1.00  0.00     0.012 C 
ATOM     38  C   UNL     1     115.948 134.026 130.449  1.00  0.00     0.012 C 
ENDBRANCH   9  36
BRANCH   6  39
ATOM     39  C   UNL     1     116.218 132.777 136.829  1.00  0.00     0.264 C 
ATOM     40  O   UNL     1     116.656 133.833 137.358  1.00  0.00    -0.298 OA
ENDBRANCH   6  39
BRANCH   8  41
ATOM     41  O   UNL     1     113.886 133.982 132.705  1.00  0.00    -0.504 OA
ATOM     42  H   UNL     1     112.927 133.927 133.023  1.00  0.00     0.293 HD
ENDBRANCH   8  41
BRANCH   7  43
ATOM     43  O   UNL     1     114.138 134.115 135.426  1.00  0.00    -0.504 OA
ATOM     44  H   UNL     1     114.316 135.046 135.782  1.00  0.00     0.293 HD
ENDBRANCH   7  43
TORSDOF 11
ENDMDL
MODEL 6
REMARK VINA RESULT:    -0.445      1.721      3.139
REMARK INTER + INTRA:          -2.250
REMARK INTER:                  -0.699
REMARK INTRA:                  -1.551
REMARK UNBOUND:                -1.596
REMARK SMILES Cc1cc2c(C(C)C)c(O)c(O)c(C=O)c2c(O)c1-c1c(C)cc2c(C(C)C)c(O)c(O)c(C=O)c2c1O
REMARK SMILES IDX 1 1 2 2 3 3 4 4 16 5 13 6 11 7 9 8 5 9 17 10 19 11 20 12
REMARK SMILES IDX 37 13 21 14 36 15 23 16 22 17 24 18 33 19 25 20 31 21 29 22
REMARK SMILES IDX 38 23 34 25 35 26 26 27 27 28 28 29 32 30 30 32 18 34 6 36
REMARK SMILES IDX 7 37 8 38 14 39 15 40 10 41 12 43
REMARK H PARENT 38 24 32 31 30 33 18 35 10 42 12 44
REMARK Flexibility Score: inf
ROOT
ATOM      1  C   UNL     1     120.082 129.188 134.856  1.00  0.00     0.045 C 
ATOM      2  C   UNL     1     118.821 129.967 134.569  1.00  0.00    -0.039 A 
ATOM      3  C   UNL     1     118.144 130.589 135.618  1.00  0.00     0.013 A 
ATOM      4  C   UNL     1     116.956 131.322 135.407  1.00  0.00    -0.006 A 
ATOM      5  C   UNL     1     116.523 131.552 134.066  1.00  0.00     0.039 A 
ATOM      6  C   UNL     1     115.453 132.470 133.836  1.00  0.00     0.072 A 
ATOM      7  C   UNL     1     114.849 133.130 134.926  1.00  0.00     0.169 A 
ATOM      8  C   UNL     1     115.219 132.820 136.240  1.00  0.00     0.162 A 
ATOM      9  C   UNL     1     116.212 131.852 136.503  1.00  0.00     0.008 A 
ATOM     10  C   UNL     1     117.167 130.846 133.006  1.00  0.00     0.132 A 
ATOM     11  C   UNL     1     118.311 130.060 133.264  1.00  0.00     0.031 A 
ENDROOT
BRANCH  11  12
ATOM     12  C   UNL     1     118.993 129.340 132.157  1.00  0.00     0.031 A 
ATOM     13  C   UNL     1     118.627 128.015 131.875  1.00  0.00     0.132 A 
ATOM     14  C   UNL     1     120.050 129.941 131.457  1.00  0.00    -0.039 A 
ATOM     15  C   UNL     1     119.204 127.333 130.766  1.00  0.00     0.039 A 
ATOM     16  C   UNL     1     120.753 129.195 130.506  1.00  0.00     0.013 A 
ATOM     17  C   UNL     1     120.517 131.334 131.798  1.00  0.00     0.045 C 
ATOM     18  C   UNL     1     120.344 127.901 130.121  1.00  0.00    -0.006 A 
ATOM     19  C   UNL     1     118.695 126.094 130.292  1.00  0.00     0.072 A 
ATOM     20  C   UNL     1     121.050 127.148 129.127  1.00  0.00     0.008 A 
ATOM     21  C   UNL     1     119.493 125.294 129.465  1.00  0.00     0.169 A 
ATOM     22  C   UNL     1     120.695 125.786 128.945  1.00  0.00     0.162 A 
BRANCH  13  23
ATOM     23  O   UNL     1     117.757 127.385 132.771  1.00  0.00    -0.507 OA
ATOM     24  H   UNL     1     116.908 127.817 133.108  1.00  0.00     0.293 HD
ENDBRANCH  13  23
BRANCH  19  25
ATOM     25  C   UNL     1     117.294 125.660 130.513  1.00  0.00     0.264 C 
ATOM     26  O   UNL     1     117.020 124.767 131.359  1.00  0.00    -0.298 OA
ENDBRANCH  19  25
BRANCH  20  27
ATOM     27  C   UNL     1     122.131 127.748 128.207  1.00  0.00     0.017 C 
ATOM     28  C   UNL     1     121.761 127.627 126.723  1.00  0.00     0.012 C 
ATOM     29  C   UNL     1     123.566 127.266 128.511  1.00  0.00     0.012 C 
ENDBRANCH  20  27
BRANCH  21  30
ATOM     30  O   UNL     1     119.067 124.001 129.141  1.00  0.00    -0.504 OA
ATOM     31  H   UNL     1     119.361 123.181 129.657  1.00  0.00     0.293 HD
ENDBRANCH  21  30
BRANCH  22  32
ATOM     32  O   UNL     1     121.509 124.894 128.239  1.00  0.00    -0.504 OA
ATOM     33  H   UNL     1     121.438 124.738 127.241  1.00  0.00     0.293 HD
ENDBRANCH  22  32
ENDBRANCH  11  12
BRANCH  10  34
ATOM     34  O   UNL     1     116.660 130.907 131.702  1.00  0.00    -0.507 OA
ATOM     35  H   UNL     1     116.093 130.181 131.283  1.00  0.00     0.293 HD
ENDBRANCH  10  34
BRANCH   9  36
ATOM     36  C   UNL     1     116.476 131.405 137.952  1.00  0.00     0.017 C 
ATOM     37  C   UNL     1     117.146 132.523 138.756  1.00  0.00     0.012 C 
ATOM     38  C   UNL     1     115.227 130.866 138.673  1.00  0.00     0.012 C 
ENDBRANCH   9  36
BRANCH   6  39
ATOM     39  C   UNL     1     115.012 132.829 132.472  1.00  0.00     0.264 C 
ATOM     40  O   UNL     1     113.904 132.424 132.030  1.00  0.00    -0.298 OA
ENDBRANCH   6  39
BRANCH   8  41
ATOM     41  O   UNL     1     114.612 133.501 137.298  1.00  0.00    -0.504 OA
ATOM     42  H   UNL     1     113.660 133.842 137.262  1.00  0.00     0.293 HD
ENDBRANCH   8  41
BRANCH   7  43
ATOM     43  O   UNL     1     113.882 134.125 134.737  1.00  0.00    -0.504 OA
ATOM     44  H   UNL     1     113.787 134.943 135.326  1.00  0.00     0.293 HD
ENDBRANCH   7  43
TORSDOF 11
ENDMDL
MODEL 7
REMARK VINA RESULT:     0.656      4.325      8.739
REMARK INTER + INTRA:          -0.633
REMARK INTER:                   0.871
REMARK INTRA:                  -1.505
REMARK UNBOUND:                -1.596
REMARK SMILES Cc1cc2c(C(C)C)c(O)c(O)c(C=O)c2c(O)c1-c1c(C)cc2c(C(C)C)c(O)c(O)c(C=O)c2c1O
REMARK SMILES IDX 1 1 2 2 3 3 4 4 16 5 13 6 11 7 9 8 5 9 17 10 19 11 20 12
REMARK SMILES IDX 37 13 21 14 36 15 23 16 22 17 24 18 33 19 25 20 31 21 29 22
REMARK SMILES IDX 38 23 34 25 35 26 26 27 27 28 28 29 32 30 30 32 18 34 6 36
REMARK SMILES IDX 7 37 8 38 14 39 15 40 10 41 12 43
REMARK H PARENT 38 24 32 31 30 33 18 35 10 42 12 44
REMARK Flexibility Score: inf
ROOT
ATOM      1  C   UNL     1     120.663 129.173 135.428  1.00  0.00     0.045 C 
ATOM      2  C   UNL     1     119.903 127.886 135.637  1.00  0.00    -0.039 A 
ATOM      3  C   UNL     1     120.593 126.734 136.018  1.00  0.00     0.013 A 
ATOM      4  C   UNL     1     119.933 125.502 136.217  1.00  0.00    -0.006 A 
ATOM      5  C   UNL     1     118.506 125.474 136.169  1.00  0.00     0.039 A 
ATOM      6  C   UNL     1     117.827 124.289 136.583  1.00  0.00     0.072 A 
ATOM      7  C   UNL     1     118.568 123.175 137.031  1.00  0.00     0.169 A 
ATOM      8  C   UNL     1     119.967 123.184 136.979  1.00  0.00     0.162 A 
ATOM      9  C   UNL     1     120.666 124.309 136.491  1.00  0.00     0.008 A 
ATOM     10  C   UNL     1     117.814 126.630 135.697  1.00  0.00     0.132 A 
ATOM     11  C   UNL     1     118.515 127.826 135.436  1.00  0.00     0.031 A 
ENDROOT
BRANCH  11  12
ATOM     12  C   UNL     1     117.790 129.034 134.961  1.00  0.00     0.031 A 
ATOM     13  C   UNL     1     117.238 129.915 135.902  1.00  0.00     0.132 A 
ATOM     14  C   UNL     1     117.581 129.249 133.590  1.00  0.00    -0.039 A 
ATOM     15  C   UNL     1     116.614 131.122 135.475  1.00  0.00     0.039 A 
ATOM     16  C   UNL     1     116.791 130.326 133.179  1.00  0.00     0.013 A 
ATOM     17  C   UNL     1     118.094 128.271 132.562  1.00  0.00     0.045 C 
ATOM     18  C   UNL     1     116.312 131.291 134.090  1.00  0.00    -0.006 A 
ATOM     19  C   UNL     1     116.263 132.155 136.384  1.00  0.00     0.072 A 
ATOM     20  C   UNL     1     115.523 132.409 133.664  1.00  0.00     0.008 A 
ATOM     21  C   UNL     1     115.340 133.133 135.991  1.00  0.00     0.169 A 
ATOM     22  C   UNL     1     114.916 133.216 134.661  1.00  0.00     0.162 A 
BRANCH  13  23
ATOM     23  O   UNL     1     117.251 129.513 137.242  1.00  0.00    -0.507 OA
ATOM     24  H   UNL     1     116.430 129.168 137.720  1.00  0.00     0.293 HD
ENDBRANCH  13  23
BRANCH  19  25
ATOM     25  C   UNL     1     116.933 132.339 137.694  1.00  0.00     0.264 C 
ATOM     26  O   UNL     1     116.313 132.134 138.772  1.00  0.00    -0.298 OA
ENDBRANCH  19  25
BRANCH  20  27
ATOM     27  C   UNL     1     115.344 132.816 132.188  1.00  0.00     0.017 C 
ATOM     28  C   UNL     1     116.139 134.080 131.836  1.00  0.00     0.012 C 
ATOM     29  C   UNL     1     113.875 132.880 131.718  1.00  0.00     0.012 C 
ENDBRANCH  20  27
BRANCH  21  30
ATOM     30  O   UNL     1     114.861 134.046 136.938  1.00  0.00    -0.504 OA
ATOM     31  H   UNL     1     115.091 135.032 136.913  1.00  0.00     0.293 HD
ENDBRANCH  21  30
BRANCH  22  32
ATOM     32  O   UNL     1     113.896 134.125 134.361  1.00  0.00    -0.504 OA
ATOM     33  H   UNL     1     114.061 135.059 134.007  1.00  0.00     0.293 HD
ENDBRANCH  22  32
ENDBRANCH  11  12
BRANCH  10  34
ATOM     34  O   UNL     1     116.433 126.583 135.467  1.00  0.00    -0.507 OA
ATOM     35  H   UNL     1     115.962 125.814 135.007  1.00  0.00     0.293 HD
ENDBRANCH  10  34
BRANCH   9  36
ATOM     36  C   UNL     1     122.189 124.229 136.282  1.00  0.00     0.017 C 
ATOM     37  C   UNL     1     122.921 124.130 137.623  1.00  0.00     0.012 C 
ATOM     38  C   UNL     1     122.625 123.107 135.321  1.00  0.00     0.012 C 
ENDBRANCH   9  36
BRANCH   6  39
ATOM     39  C   UNL     1     116.352 124.217 136.649  1.00  0.00     0.264 C 
ATOM     40  O   UNL     1     115.702 123.584 135.775  1.00  0.00    -0.298 OA
ENDBRANCH   6  39
BRANCH   8  41
ATOM     41  O   UNL     1     120.674 122.072 137.442  1.00  0.00    -0.504 OA
ATOM     42  H   UNL     1     120.410 121.119 137.223  1.00  0.00     0.293 HD
ENDBRANCH   8  41
BRANCH   7  43
ATOM     43  O   UNL     1     117.941 122.040 137.558  1.00  0.00    -0.504 OA
ATOM     44  H   UNL     1     118.324 121.475 138.305  1.00  0.00     0.293 HD
ENDBRANCH   7  43
TORSDOF 11
ENDMDL
MODEL 8
REMARK VINA RESULT:     1.529      4.103      6.818
REMARK INTER + INTRA:           0.649
REMARK INTER:                   2.194
REMARK INTRA:                  -1.545
REMARK UNBOUND:                -1.596
REMARK SMILES Cc1cc2c(C(C)C)c(O)c(O)c(C=O)c2c(O)c1-c1c(C)cc2c(C(C)C)c(O)c(O)c(C=O)c2c1O
REMARK SMILES IDX 1 1 2 2 3 3 4 4 16 5 13 6 11 7 9 8 5 9 17 10 19 11 20 12
REMARK SMILES IDX 37 13 21 14 36 15 23 16 22 17 24 18 33 19 25 20 31 21 29 22
REMARK SMILES IDX 38 23 34 25 35 26 26 27 27 28 28 29 32 30 30 32 18 34 6 36
REMARK SMILES IDX 7 37 8 38 14 39 15 40 10 41 12 43
REMARK H PARENT 38 24 32 31 30 33 18 35 10 42 12 44
REMARK Flexibility Score: inf
ROOT
ATOM      1  C   UNL     1     118.364 128.302 132.560  1.00  0.00     0.045 C 
ATOM      2  C   UNL     1     117.777 129.393 133.423  1.00  0.00    -0.039 A 
ATOM      3  C   UNL     1     116.924 130.338 132.851  1.00  0.00     0.013 A 
ATOM      4  C   UNL     1     116.356 131.384 133.611  1.00  0.00    -0.006 A 
ATOM      5  C   UNL     1     116.546 131.384 135.026  1.00  0.00     0.039 A 
ATOM      6  C   UNL     1     115.799 132.306 135.820  1.00  0.00     0.072 A 
ATOM      7  C   UNL     1     114.893 133.193 135.200  1.00  0.00     0.169 A 
ATOM      8  C   UNL     1     114.792 133.246 133.806  1.00  0.00     0.162 A 
ATOM      9  C   UNL     1     115.583 132.409 132.990  1.00  0.00     0.008 A 
ATOM     10  C   UNL     1     117.484 130.469 135.592  1.00  0.00     0.132 A 
ATOM     11  C   UNL     1     118.092 129.481 134.788  1.00  0.00     0.031 A 
ENDROOT
BRANCH  11  12
ATOM     12  C   UNL     1     119.055 128.517 135.383  1.00  0.00     0.031 A 
ATOM     13  C   UNL     1     118.575 127.321 135.936  1.00  0.00     0.132 A 
ATOM     14  C   UNL     1     120.420 128.835 135.472  1.00  0.00    -0.039 A 
ATOM     15  C   UNL     1     119.485 126.345 136.433  1.00  0.00     0.039 A 
ATOM     16  C   UNL     1     121.282 127.965 136.147  1.00  0.00     0.013 A 
ATOM     17  C   UNL     1     120.947 130.152 134.960  1.00  0.00     0.045 C 
ATOM     18  C   UNL     1     120.853 126.706 136.618  1.00  0.00    -0.006 A 
ATOM     19  C   UNL     1     119.072 125.029 136.772  1.00  0.00     0.072 A 
ATOM     20  C   UNL     1     121.745 125.805 137.286  1.00  0.00     0.008 A 
ATOM     21  C   UNL     1     119.893 124.239 137.587  1.00  0.00     0.169 A 
ATOM     22  C   UNL     1     121.191 124.653 137.903  1.00  0.00     0.162 A 
BRANCH  13  23
ATOM     23  O   UNL     1     117.188 127.180 136.053  1.00  0.00    -0.507 OA
ATOM     24  H   UNL     1     116.646 127.651 136.764  1.00  0.00     0.293 HD
ENDBRANCH  13  23
BRANCH  19  25
ATOM     25  C   UNL     1     117.869 124.386 136.190  1.00  0.00     0.264 C 
ATOM     26  O   UNL     1     116.819 124.242 136.871  1.00  0.00    -0.298 OA
ENDBRANCH  19  25
BRANCH  20  27
ATOM     27  C   UNL     1     123.275 125.985 137.324  1.00  0.00     0.017 C 
ATOM     28  C   UNL     1     123.700 127.133 138.249  1.00  0.00     0.012 C 
ATOM     29  C   UNL     1     123.944 126.053 135.934  1.00  0.00     0.012 C 
ENDBRANCH  20  27
BRANCH  21  30
ATOM     30  O   UNL     1     119.412 123.014 138.064  1.00  0.00    -0.504 OA
ATOM     31  H   UNL     1     118.425 122.812 138.161  1.00  0.00     0.293 HD
ENDBRANCH  21  30
BRANCH  22  32
ATOM     32  O   UNL     1     121.909 123.887 138.827  1.00  0.00    -0.504 OA
ATOM     33  H   UNL     1     121.596 122.990 139.177  1.00  0.00     0.293 HD
ENDBRANCH  22  32
ENDBRANCH  11  12
BRANCH  10  34
ATOM     34  O   UNL     1     117.829 130.556 136.947  1.00  0.00    -0.507 OA
ATOM     35  H   UNL     1     117.155 130.642 137.697  1.00  0.00     0.293 HD
ENDBRANCH  10  34
BRANCH   9  36
ATOM     36  C   UNL     1     115.581 132.609 131.463  1.00  0.00     0.017 C 
ATOM     37  C   UNL     1     114.278 132.093 130.845  1.00  0.00     0.012 C 
ATOM     38  C   UNL     1     115.874 134.056 131.027  1.00  0.00     0.012 C 
ENDBRANCH   9  36
BRANCH   6  39
ATOM     39  C   UNL     1     115.871 132.302 137.296  1.00  0.00     0.264 C 
ATOM     40  O   UNL     1     114.975 131.739 137.980  1.00  0.00    -0.298 OA
ENDBRANCH   6  39
BRANCH   8  41
ATOM     41  O   UNL     1     113.877 134.125 133.221  1.00  0.00    -0.504 OA
ATOM     42  H   UNL     1     114.135 134.803 132.515  1.00  0.00     0.293 HD
ENDBRANCH   8  41
BRANCH   7  43
ATOM     43  O   UNL     1     114.055 134.027 135.950  1.00  0.00    -0.504 OA
ATOM     44  H   UNL     1     113.851 133.892 136.932  1.00  0.00     0.293 HD
ENDBRANCH   7  43
TORSDOF 11
ENDMDL
