MODEL 1
REMARK VINA RESULT:    -4.669      0.000      0.000
REMARK INTER + INTRA:          -6.637
REMARK INTER:                  -6.306
REMARK INTRA:                  -0.331
REMARK UNBOUND:                -0.331
REMARK SMILES CCCCCCC=CC(=O)[O-]
REMARK SMILES IDX 5 1 6 2 7 3 8 4 9 5 10 6 11 7 4 8 3 9 2 10 1 11
REMARK H PARENT
REMARK Flexibility Score: inf
ROOT
ATOM      1  C   UNL     1      47.168  48.649  34.651  1.00  0.00     0.004 C 
ENDROOT
BRANCH   1   2
ATOM      2  C   UNL     1      47.452  50.159  34.603  1.00  0.00     0.027 C 
BRANCH   2   3
ATOM      3  C   UNL     1      48.903  50.446  34.862  1.00  0.00    -0.025 C 
ATOM      4  C   UNL     1      49.614  49.721  35.731  1.00  0.00     0.020 C 
BRANCH   4   5
ATOM      5  C   UNL     1      51.033  49.992  36.011  1.00  0.00     0.064 C 
ATOM      6  O   UNL     1      51.375  50.875  36.842  1.00  0.00    -0.545 OA
ATOM      7  O   UNL     1      52.012  49.264  35.346  1.00  0.00    -0.545 OA
ENDBRANCH   4   5
ENDBRANCH   2   3
ENDBRANCH   1   2
BRANCH   1   8
ATOM      8  C   UNL     1      45.946  48.304  35.516  1.00  0.00     0.000 C 
BRANCH   8   9
ATOM      9  C   UNL     1      45.505  46.841  35.360  1.00  0.00    -0.000 C 
BRANCH   9  10
ATOM     10  C   UNL     1      46.653  45.976  34.828  1.00  0.00    -0.003 C 
ATOM     11  C   UNL     1      46.134  44.878  33.902  1.00  0.00     0.004 C 
ENDBRANCH   9  10
ENDBRANCH   8   9
ENDBRANCH   1   8
TORSDOF 6
ENDMDL
MODEL 2
REMARK VINA RESULT:    -4.650      3.494      5.823
REMARK INTER + INTRA:          -6.612
REMARK INTER:                  -6.296
REMARK INTRA:                  -0.316
REMARK UNBOUND:                -0.331
REMARK SMILES CCCCCCC=CC(=O)[O-]
REMARK SMILES IDX 5 1 6 2 7 3 8 4 9 5 10 6 11 7 4 8 3 9 2 10 1 11
REMARK H PARENT
REMARK Flexibility Score: inf
ROOT
ATOM      1  C   UNL     1      47.273  48.649  34.679  1.00  0.00     0.004 C 
ENDROOT
BRANCH   1   2
ATOM      2  C   UNL     1      46.070  48.145  35.492  1.00  0.00     0.027 C 
BRANCH   2   3
ATOM      3  C   UNL     1      45.821  46.685  35.242  1.00  0.00    -0.025 C 
ATOM      4  C   UNL     1      46.566  45.987  34.378  1.00  0.00     0.020 C 
BRANCH   4   5
ATOM      5  C   UNL     1      46.331  44.561  34.107  1.00  0.00     0.064 C 
ATOM      6  O   UNL     1      46.942  43.666  34.750  1.00  0.00    -0.545 OA
ATOM      7  O   UNL     1      45.421  44.193  33.124  1.00  0.00    -0.545 OA
ENDBRANCH   4   5
ENDBRANCH   2   3
ENDBRANCH   1   2
BRANCH   1   8
ATOM      8  C   UNL     1      47.353  50.182  34.631  1.00  0.00     0.000 C 
BRANCH   8   9
ATOM      9  C   UNL     1      48.785  50.706  34.819  1.00  0.00    -0.000 C 
BRANCH   9  10
ATOM     10  C   UNL     1      49.676  49.644  35.472  1.00  0.00    -0.003 C 
ATOM     11  C   UNL     1      50.862  50.284  36.189  1.00  0.00     0.004 C 
ENDBRANCH   9  10
ENDBRANCH   8   9
ENDBRANCH   1   8
TORSDOF 6
ENDMDL
MODEL 3
REMARK VINA RESULT:    -4.588      3.057      5.781
REMARK INTER + INTRA:          -6.529
REMARK INTER:                  -6.283
REMARK INTRA:                  -0.245
REMARK UNBOUND:                -0.331
REMARK SMILES CCCCCCC=CC(=O)[O-]
REMARK SMILES IDX 5 1 6 2 7 3 8 4 9 5 10 6 11 7 4 8 3 9 2 10 1 11
REMARK H PARENT
REMARK Flexibility Score: inf
ROOT
ATOM      1  C   UNL     1      49.161  50.875  34.898  1.00  0.00     0.004 C 
ENDROOT
BRANCH   1   2
ATOM      2  C   UNL     1      47.742  50.397  34.551  1.00  0.00     0.027 C 
BRANCH   2   3
ATOM      3  C   UNL     1      47.522  48.981  34.998  1.00  0.00    -0.025 C 
ATOM      4  C   UNL     1      46.296  48.507  35.242  1.00  0.00     0.020 C 
BRANCH   4   5
ATOM      5  C   UNL     1      46.058  47.128  35.695  1.00  0.00     0.064 C 
ATOM      6  O   UNL     1      45.302  46.352  35.052  1.00  0.00    -0.545 OA
ATOM      7  O   UNL     1      46.678  46.672  36.852  1.00  0.00    -0.545 OA
ENDBRANCH   4   5
ENDBRANCH   2   3
ENDBRANCH   1   2
BRANCH   1   8
ATOM      8  C   UNL     1      49.988  49.798  35.615  1.00  0.00     0.000 C 
BRANCH   8   9
ATOM      9  C   UNL     1      51.188  50.381  36.375  1.00  0.00    -0.000 C 
BRANCH   9  10
ATOM     10  C   UNL     1      52.506  49.804  35.847  1.00  0.00    -0.003 C 
ATOM     11  C   UNL     1      53.670  50.758  36.104  1.00  0.00     0.004 C 
ENDBRANCH   9  10
ENDBRANCH   8   9
ENDBRANCH   1   8
TORSDOF 6
ENDMDL
MODEL 4
REMARK VINA RESULT:    -4.568      1.684      2.690
REMARK INTER + INTRA:          -6.502
REMARK INTER:                  -6.146
REMARK INTRA:                  -0.356
REMARK UNBOUND:                -0.331
REMARK SMILES CCCCCCC=CC(=O)[O-]
REMARK SMILES IDX 5 1 6 2 7 3 8 4 9 5 10 6 11 7 4 8 3 9 2 10 1 11
REMARK H PARENT
REMARK Flexibility Score: inf
ROOT
ATOM      1  C   UNL     1      45.365  46.706  35.156  1.00  0.00     0.004 C 
ENDROOT
BRANCH   1   2
ATOM      2  C   UNL     1      45.618  48.117  35.709  1.00  0.00     0.027 C 
BRANCH   2   3
ATOM      3  C   UNL     1      47.036  48.548  35.465  1.00  0.00    -0.025 C 
ATOM      4  C   UNL     1      47.323  49.596  34.684  1.00  0.00     0.020 C 
BRANCH   4   5
ATOM      5  C   UNL     1      48.704  50.027  34.420  1.00  0.00     0.064 C 
ATOM      6  O   UNL     1      49.219  50.987  35.053  1.00  0.00    -0.545 OA
ATOM      7  O   UNL     1      49.453  49.366  33.454  1.00  0.00    -0.545 OA
ENDBRANCH   4   5
ENDBRANCH   2   3
ENDBRANCH   1   2
BRANCH   1   8
ATOM      8  C   UNL     1      46.622  45.824  35.186  1.00  0.00     0.000 C 
BRANCH   8   9
ATOM      9  C   UNL     1      46.930  45.187  33.823  1.00  0.00    -0.000 C 
BRANCH   9  10
ATOM     10  C   UNL     1      45.768  44.303  33.355  1.00  0.00    -0.003 C 
ATOM     11  C   UNL     1      45.993  42.844  33.743  1.00  0.00     0.004 C 
ENDBRANCH   9  10
ENDBRANCH   8   9
ENDBRANCH   1   8
TORSDOF 6
ENDMDL
MODEL 5
REMARK VINA RESULT:    -4.523      2.939      4.875
REMARK INTER + INTRA:          -6.440
REMARK INTER:                  -5.964
REMARK INTRA:                  -0.477
REMARK UNBOUND:                -0.331
REMARK SMILES CCCCCCC=CC(=O)[O-]
REMARK SMILES IDX 5 1 6 2 7 3 8 4 9 5 10 6 11 7 4 8 3 9 2 10 1 11
REMARK H PARENT
REMARK Flexibility Score: inf
ROOT
ATOM      1  C   UNL     1      47.496  48.913  34.563  1.00  0.00     0.004 C 
ENDROOT
BRANCH   1   2
ATOM      2  C   UNL     1      46.218  48.504  35.313  1.00  0.00     0.027 C 
BRANCH   2   3
ATOM      3  C   UNL     1      46.472  47.333  36.218  1.00  0.00    -0.025 C 
ATOM      4  C   UNL     1      47.654  47.156  36.816  1.00  0.00     0.020 C 
BRANCH   4   5
ATOM      5  C   UNL     1      47.930  46.009  37.695  1.00  0.00     0.064 C 
ATOM      6  O   UNL     1      47.135  45.690  38.618  1.00  0.00    -0.545 OA
ATOM      7  O   UNL     1      49.088  45.266  37.505  1.00  0.00    -0.545 OA
ENDBRANCH   4   5
ENDBRANCH   2   3
ENDBRANCH   1   2
BRANCH   1   8
ATOM      8  C   UNL     1      47.656  50.437  34.456  1.00  0.00     0.000 C 
BRANCH   8   9
ATOM      9  C   UNL     1      49.035  50.922  34.927  1.00  0.00    -0.000 C 
BRANCH   9  10
ATOM     10  C   UNL     1      49.862  49.760  35.491  1.00  0.00    -0.003 C 
ATOM     11  C   UNL     1      51.032  50.271  36.328  1.00  0.00     0.004 C 
ENDBRANCH   9  10
ENDBRANCH   8   9
ENDBRANCH   1   8
TORSDOF 6
ENDMDL
MODEL 6
REMARK VINA RESULT:    -4.475      9.011      9.998
REMARK INTER + INTRA:          -6.375
REMARK INTER:                  -6.064
REMARK INTRA:                  -0.311
REMARK UNBOUND:                -0.331
REMARK SMILES CCCCCCC=CC(=O)[O-]
REMARK SMILES IDX 5 1 6 2 7 3 8 4 9 5 10 6 11 7 4 8 3 9 2 10 1 11
REMARK H PARENT
REMARK Flexibility Score: inf
ROOT
ATOM      1  C   UNL     1      38.687  48.891  31.581  1.00  0.00     0.004 C 
ENDROOT
BRANCH   1   2
ATOM      2  C   UNL     1      39.697  49.996  31.230  1.00  0.00     0.027 C 
BRANCH   2   3
ATOM      3  C   UNL     1      40.589  50.306  32.397  1.00  0.00    -0.025 C 
ATOM      4  C   UNL     1      40.640  51.530  32.933  1.00  0.00     0.020 C 
BRANCH   4   5
ATOM      5  C   UNL     1      41.516  51.860  34.067  1.00  0.00     0.064 C 
ATOM      6  O   UNL     1      41.119  51.733  35.256  1.00  0.00    -0.545 OA
ATOM      7  O   UNL     1      42.804  52.320  33.823  1.00  0.00    -0.545 OA
ENDBRANCH   4   5
ENDBRANCH   2   3
ENDBRANCH   1   2
BRANCH   1   8
ATOM      8  C   UNL     1      37.652  48.661  30.470  1.00  0.00     0.000 C 
BRANCH   8   9
ATOM      9  C   UNL     1      37.346  49.937  29.673  1.00  0.00    -0.000 C 
BRANCH   9  10
ATOM     10  C   UNL     1      37.354  49.657  28.166  1.00  0.00    -0.003 C 
ATOM     11  C   UNL     1      37.057  48.188  27.875  1.00  0.00     0.004 C 
ENDBRANCH   9  10
ENDBRANCH   8   9
ENDBRANCH   1   8
TORSDOF 6
ENDMDL
MODEL 7
REMARK VINA RESULT:    -4.471      8.008      9.051
REMARK INTER + INTRA:          -6.370
REMARK INTER:                  -5.945
REMARK INTRA:                  -0.425
REMARK UNBOUND:                -0.331
REMARK SMILES CCCCCCC=CC(=O)[O-]
REMARK SMILES IDX 5 1 6 2 7 3 8 4 9 5 10 6 11 7 4 8 3 9 2 10 1 11
REMARK H PARENT
REMARK Flexibility Score: inf
ROOT
ATOM      1  C   UNL     1      40.425  49.309  32.006  1.00  0.00     0.004 C 
ENDROOT
BRANCH   1   2
ATOM      2  C   UNL     1      40.294  50.834  32.140  1.00  0.00     0.027 C 
BRANCH   2   3
ATOM      3  C   UNL     1      40.464  51.270  33.567  1.00  0.00    -0.025 C 
ATOM      4  C   UNL     1      41.676  51.475  34.095  1.00  0.00     0.020 C 
BRANCH   4   5
ATOM      5  C   UNL     1      41.867  51.888  35.493  1.00  0.00     0.064 C 
ATOM      6  O   UNL     1      40.926  51.819  36.328  1.00  0.00    -0.545 OA
ATOM      7  O   UNL     1      43.107  52.364  35.902  1.00  0.00    -0.545 OA
ENDBRANCH   4   5
ENDBRANCH   2   3
ENDBRANCH   1   2
BRANCH   1   8
ATOM      8  C   UNL     1      39.123  48.571  32.352  1.00  0.00     0.000 C 
BRANCH   8   9
ATOM      9  C   UNL     1      37.883  49.239  31.739  1.00  0.00    -0.000 C 
BRANCH   9  10
ATOM     10  C   UNL     1      37.620  48.713  30.323  1.00  0.00    -0.003 C 
ATOM     11  C   UNL     1      37.652  49.844  29.299  1.00  0.00     0.004 C 
ENDBRANCH   9  10
ENDBRANCH   8   9
ENDBRANCH   1   8
TORSDOF 6
ENDMDL
MODEL 8
REMARK VINA RESULT:    -4.435      1.469      2.776
REMARK INTER + INTRA:          -6.321
REMARK INTER:                  -6.051
REMARK INTRA:                  -0.271
REMARK UNBOUND:                -0.331
REMARK SMILES CCCCCCC=CC(=O)[O-]
REMARK SMILES IDX 5 1 6 2 7 3 8 4 9 5 10 6 11 7 4 8 3 9 2 10 1 11
REMARK H PARENT
REMARK Flexibility Score: inf
ROOT
ATOM      1  C   UNL     1      49.139  50.537  34.989  1.00  0.00     0.004 C 
ENDROOT
BRANCH   1   2
ATOM      2  C   UNL     1      49.801  49.331  35.675  1.00  0.00     0.027 C 
BRANCH   2   3
ATOM      3  C   UNL     1      51.258  49.588  35.935  1.00  0.00    -0.025 C 
ATOM      4  C   UNL     1      51.658  50.456  36.870  1.00  0.00     0.020 C 
BRANCH   4   5
ATOM      5  C   UNL     1      53.079  50.733  37.132  1.00  0.00     0.064 C 
ATOM      6  O   UNL     1      53.893  50.911  36.187  1.00  0.00    -0.545 OA
ATOM      7  O   UNL     1      53.531  50.799  38.444  1.00  0.00    -0.545 OA
ENDBRANCH   4   5
ENDBRANCH   2   3
ENDBRANCH   1   2
BRANCH   1   8
ATOM      8  C   UNL     1      47.679  50.266  34.597  1.00  0.00     0.000 C 
BRANCH   8   9
ATOM      9  C   UNL     1      47.335  48.770  34.593  1.00  0.00    -0.000 C 
BRANCH   9  10
ATOM     10  C   UNL     1      46.084  48.491  35.434  1.00  0.00    -0.003 C 
ATOM     11  C   UNL     1      45.722  47.009  35.411  1.00  0.00     0.004 C 
ENDBRANCH   9  10
ENDBRANCH   8   9
ENDBRANCH   1   8
TORSDOF 6
ENDMDL
MODEL 9
REMARK VINA RESULT:    -4.422      4.498      6.655
REMARK INTER + INTRA:          -6.304
REMARK INTER:                  -6.071
REMARK INTRA:                  -0.233
REMARK UNBOUND:                -0.331
REMARK SMILES CCCCCCC=CC(=O)[O-]
REMARK SMILES IDX 5 1 6 2 7 3 8 4 9 5 10 6 11 7 4 8 3 9 2 10 1 11
REMARK H PARENT
REMARK Flexibility Score: inf
ROOT
ATOM      1  C   UNL     1      45.806  46.957  35.484  1.00  0.00     0.004 C 
ENDROOT
BRANCH   1   2
ATOM      2  C   UNL     1      46.828  46.108  34.712  1.00  0.00     0.027 C 
BRANCH   2   3
ATOM      3  C   UNL     1      46.157  44.973  33.994  1.00  0.00    -0.025 C 
ATOM      4  C   UNL     1      46.589  43.713  34.120  1.00  0.00     0.020 C 
BRANCH   4   5
ATOM      5  C   UNL     1      45.957  42.588  33.416  1.00  0.00     0.064 C 
ATOM      6  O   UNL     1      45.535  41.580  34.043  1.00  0.00    -0.545 OA
ATOM      7  O   UNL     1      45.823  42.636  32.033  1.00  0.00    -0.545 OA
ENDBRANCH   4   5
ENDBRANCH   2   3
ENDBRANCH   1   2
BRANCH   1   8
ATOM      8  C   UNL     1      46.071  48.464  35.357  1.00  0.00     0.000 C 
BRANCH   8   9
ATOM      9  C   UNL     1      47.375  48.774  34.606  1.00  0.00    -0.000 C 
BRANCH   9  10
ATOM     10  C   UNL     1      47.639  50.283  34.564  1.00  0.00    -0.003 C 
ATOM     11  C   UNL     1      49.093  50.599  34.903  1.00  0.00     0.004 C 
ENDBRANCH   9  10
ENDBRANCH   8   9
ENDBRANCH   1   8
TORSDOF 6
ENDMDL
