MODEL 1
REMARK VINA RESULT:    -2.615      0.000      0.000
REMARK INTER + INTRA:          -6.010
REMARK INTER:                  -4.450
REMARK INTRA:                  -1.560
REMARK UNBOUND:                -1.560
REMARK SMILES CCCCCCCCCCCCCC(=O)[O-]
REMARK SMILES IDX 8 1 9 2 10 3 11 4 12 5 13 6 14 7 15 8 16 9 7 10 6 11 5 12
REMARK SMILES IDX 4 13 3 14 2 15 1 16
REMARK H PARENT
REMARK Flexibility Score: inf
ROOT
ATOM      1  C   UNL     1      14.190  27.947  20.539  1.00  0.00     0.000 C 
ENDROOT
BRANCH   1   2
ATOM      2  C   UNL     1      13.992  26.658  21.352  1.00  0.00     0.000 C 
BRANCH   2   3
ATOM      3  C   UNL     1      14.770  26.669  22.676  1.00  0.00     0.000 C 
BRANCH   3   4
ATOM      4  C   UNL     1      13.905  26.139  23.826  1.00  0.00     0.000 C 
BRANCH   4   5
ATOM      5  C   UNL     1      14.277  26.817  25.153  1.00  0.00     0.006 C 
BRANCH   5   6
ATOM      6  C   UNL     1      14.552  28.316  24.981  1.00  0.00     0.053 C 
BRANCH   6   7
ATOM      7  C   UNL     1      13.322  29.137  25.219  1.00  0.00     0.041 C 
ATOM      8  O   UNL     1      13.300  29.995  26.141  1.00  0.00    -0.550 OA
ATOM      9  O   UNL     1      12.211  28.977  24.401  1.00  0.00    -0.550 OA
ENDBRANCH   6   7
ENDBRANCH   5   6
ENDBRANCH   4   5
ENDBRANCH   3   4
ENDBRANCH   2   3
ENDBRANCH   1   2
BRANCH   1  10
ATOM     10  C   UNL     1      14.844  29.070  21.362  1.00  0.00     0.000 C 
BRANCH  10  11
ATOM     11  C   UNL     1      13.927  30.292  21.530  1.00  0.00    -0.000 C 
BRANCH  11  12
ATOM     12  C   UNL     1      12.517  30.055  20.963  1.00  0.00    -0.000 C 
BRANCH  12  13
ATOM     13  C   UNL     1      12.165  31.031  19.829  1.00  0.00    -0.000 C 
BRANCH  13  14
ATOM     14  C   UNL     1      12.138  30.351  18.448  1.00  0.00    -0.000 C 
BRANCH  14  15
ATOM     15  C   UNL     1      13.449  30.546  17.671  1.00  0.00    -0.003 C 
ATOM     16  C   UNL     1      14.019  29.233  17.134  1.00  0.00     0.004 C 
ENDBRANCH  14  15
ENDBRANCH  13  14
ENDBRANCH  12  13
ENDBRANCH  11  12
ENDBRANCH  10  11
ENDBRANCH   1  10
TORSDOF 12
ENDMDL
MODEL 2
REMARK VINA RESULT:    -2.276     23.187     24.828
REMARK INTER + INTRA:          -5.434
REMARK INTER:                  -4.520
REMARK INTRA:                  -0.914
REMARK UNBOUND:                -1.560
REMARK SMILES CCCCCCCCCCCCCC(=O)[O-]
REMARK SMILES IDX 8 1 9 2 10 3 11 4 12 5 13 6 14 7 15 8 16 9 7 10 6 11 5 12
REMARK SMILES IDX 4 13 3 14 2 15 1 16
REMARK H PARENT
REMARK Flexibility Score: inf
ROOT
ATOM      1  C   UNL     1      -3.646  15.825   9.197  1.00  0.00     0.000 C 
ENDROOT
BRANCH   1   2
ATOM      2  C   UNL     1      -4.329  16.855   8.283  1.00  0.00     0.000 C 
BRANCH   2   3
ATOM      3  C   UNL     1      -4.804  18.099   9.046  1.00  0.00     0.000 C 
BRANCH   3   4
ATOM      4  C   UNL     1      -4.439  18.005  10.533  1.00  0.00     0.000 C 
BRANCH   4   5
ATOM      5  C   UNL     1      -4.946  19.233  11.303  1.00  0.00     0.006 C 
BRANCH   5   6
ATOM      6  C   UNL     1      -4.949  19.006  12.820  1.00  0.00     0.053 C 
BRANCH   6   7
ATOM      7  C   UNL     1      -4.790  20.290  13.574  1.00  0.00     0.041 C 
ATOM      8  O   UNL     1      -4.380  21.325  12.984  1.00  0.00    -0.550 OA
ATOM      9  O   UNL     1      -5.125  20.353  14.920  1.00  0.00    -0.550 OA
ENDBRANCH   6   7
ENDBRANCH   5   6
ENDBRANCH   4   5
ENDBRANCH   3   4
ENDBRANCH   2   3
ENDBRANCH   1   2
BRANCH   1  10
ATOM     10  C   UNL     1      -4.596  14.692   9.625  1.00  0.00     0.000 C 
BRANCH  10  11
ATOM     11  C   UNL     1      -4.713  13.586   8.565  1.00  0.00    -0.000 C 
BRANCH  11  12
ATOM     12  C   UNL     1      -3.627  12.507   8.715  1.00  0.00    -0.000 C 
BRANCH  12  13
ATOM     13  C   UNL     1      -3.726  11.750  10.049  1.00  0.00    -0.000 C 
BRANCH  13  14
ATOM     14  C   UNL     1      -2.538  12.036  10.985  1.00  0.00    -0.000 C 
BRANCH  14  15
ATOM     15  C   UNL     1      -1.406  12.802  10.280  1.00  0.00    -0.003 C 
ATOM     16  C   UNL     1      -0.916  14.004  11.087  1.00  0.00     0.004 C 
ENDBRANCH  14  15
ENDBRANCH  13  14
ENDBRANCH  12  13
ENDBRANCH  11  12
ENDBRANCH  10  11
ENDBRANCH   1  10
TORSDOF 12
ENDMDL
MODEL 3
REMARK VINA RESULT:    -0.008     23.864     25.608
REMARK INTER + INTRA:          -1.575
REMARK INTER:                  -2.069
REMARK INTRA:                   0.495
REMARK UNBOUND:                -1.560
REMARK SMILES CCCCCCCCCCCCCC(=O)[O-]
REMARK SMILES IDX 8 1 9 2 10 3 11 4 12 5 13 6 14 7 15 8 16 9 7 10 6 11 5 12
REMARK SMILES IDX 4 13 3 14 2 15 1 16
REMARK H PARENT
REMARK Flexibility Score: inf
ROOT
ATOM      1  C   UNL     1      -4.346  13.976   9.704  1.00  0.00     0.000 C 
ENDROOT
BRANCH   1   2
ATOM      2  C   UNL     1      -5.125  15.297   9.599  1.00  0.00     0.000 C 
BRANCH   2   3
ATOM      3  C   UNL     1      -4.563  16.389  10.521  1.00  0.00     0.000 C 
BRANCH   3   4
ATOM      4  C   UNL     1      -5.055  17.777  10.092  1.00  0.00     0.000 C 
BRANCH   4   5
ATOM      5  C   UNL     1      -4.970  17.944   8.567  1.00  0.00     0.006 C 
BRANCH   5   6
ATOM      6  C   UNL     1      -4.016  16.930   7.924  1.00  0.00     0.053 C 
BRANCH   6   7
ATOM      7  C   UNL     1      -2.600  17.418   7.932  1.00  0.00     0.041 C 
ATOM      8  O   UNL     1      -1.646  16.595   7.944  1.00  0.00    -0.550 OA
ATOM      9  O   UNL     1      -2.334  18.780   7.892  1.00  0.00    -0.550 OA
ENDBRANCH   6   7
ENDBRANCH   5   6
ENDBRANCH   4   5
ENDBRANCH   3   4
ENDBRANCH   2   3
ENDBRANCH   1   2
BRANCH   1  10
ATOM     10  C   UNL     1      -4.827  13.097  10.872  1.00  0.00     0.000 C 
BRANCH  10  11
ATOM     11  C   UNL     1      -4.017  11.798  11.009  1.00  0.00    -0.000 C 
BRANCH  11  12
ATOM     12  C   UNL     1      -2.883  11.698   9.975  1.00  0.00    -0.000 C 
BRANCH  12  13
ATOM     13  C   UNL     1      -1.605  11.074  10.559  1.00  0.00    -0.000 C 
BRANCH  13  14
ATOM     14  C   UNL     1      -0.605  12.130  11.063  1.00  0.00    -0.000 C 
BRANCH  14  15
ATOM     15  C   UNL     1      -1.261  13.503  11.282  1.00  0.00    -0.003 C 
ATOM     16  C   UNL     1      -0.461  14.646  10.658  1.00  0.00     0.004 C 
ENDBRANCH  14  15
ENDBRANCH  13  14
ENDBRANCH  12  13
ENDBRANCH  11  12
ENDBRANCH  10  11
ENDBRANCH   1  10
TORSDOF 12
ENDMDL
