MODEL 1
REMARK VINA RESULT:    -4.226      0.000      0.000
REMARK INTER + INTRA:          -5.009
REMARK INTER:                  -4.967
REMARK INTRA:                  -0.042
REMARK UNBOUND:                -0.042
REMARK SMILES CCCCC(=O)[O-]
REMARK SMILES IDX 4 1 5 2 6 3 7 4 3 5 2 6 1 7
REMARK H PARENT
REMARK Flexibility Score: inf
ROOT
ATOM      1  C   UNL     1      26.977 -11.341  20.188  1.00  0.00     0.053 C 
ENDROOT
BRANCH   1   2
ATOM      2  C   UNL     1      27.801 -10.323  20.911  1.00  0.00     0.041 C 
ATOM      3  O   UNL     1      28.018  -9.197  20.389  1.00  0.00    -0.550 OA
ATOM      4  O   UNL     1      28.370 -10.633  22.138  1.00  0.00    -0.550 OA
ENDBRANCH   1   2
BRANCH   1   5
ATOM      5  C   UNL     1      27.770 -12.637  19.998  1.00  0.00     0.006 C 
BRANCH   5   6
ATOM      6  C   UNL     1      27.336 -13.364  18.721  1.00  0.00    -0.003 C 
ATOM      7  C   UNL     1      26.219 -12.608  18.007  1.00  0.00     0.004 C 
ENDBRANCH   5   6
ENDBRANCH   1   5
TORSDOF 3
ENDMDL
MODEL 2
REMARK VINA RESULT:    -4.220      1.199      1.798
REMARK INTER + INTRA:          -5.002
REMARK INTER:                  -4.938
REMARK INTRA:                  -0.064
REMARK UNBOUND:                -0.042
REMARK SMILES CCCCC(=O)[O-]
REMARK SMILES IDX 4 1 5 2 6 3 7 4 3 5 2 6 1 7
REMARK H PARENT
REMARK Flexibility Score: inf
ROOT
ATOM      1  C   UNL     1      26.388 -11.007  20.260  1.00  0.00     0.053 C 
ENDROOT
BRANCH   1   2
ATOM      2  C   UNL     1      26.768  -9.591  19.962  1.00  0.00     0.041 C 
ATOM      3  O   UNL     1      27.572  -8.979  20.714  1.00  0.00    -0.550 OA
ATOM      4  O   UNL     1      26.199  -8.931  18.881  1.00  0.00    -0.550 OA
ENDBRANCH   1   2
BRANCH   1   5
ATOM      5  C   UNL     1      27.614 -11.921  20.171  1.00  0.00     0.006 C 
BRANCH   5   6
ATOM      6  C   UNL     1      27.310 -13.167  19.332  1.00  0.00    -0.003 C 
ATOM      7  C   UNL     1      26.440 -12.822  18.126  1.00  0.00     0.004 C 
ENDBRANCH   5   6
ENDBRANCH   1   5
TORSDOF 3
ENDMDL
MODEL 3
REMARK VINA RESULT:    -3.918      2.770      3.987
REMARK INTER + INTRA:          -4.647
REMARK INTER:                  -4.627
REMARK INTRA:                  -0.019
REMARK UNBOUND:                -0.042
REMARK SMILES CCCCC(=O)[O-]
REMARK SMILES IDX 4 1 5 2 6 3 7 4 3 5 2 6 1 7
REMARK H PARENT
REMARK Flexibility Score: inf
ROOT
ATOM      1  C   UNL     1      27.836 -12.787  19.822  1.00  0.00     0.053 C 
ENDROOT
BRANCH   1   2
ATOM      2  C   UNL     1      26.926 -13.324  18.762  1.00  0.00     0.041 C 
ATOM      3  O   UNL     1      26.399 -12.544  17.925  1.00  0.00    -0.550 OA
ATOM      4  O   UNL     1      26.620 -14.677  18.728  1.00  0.00    -0.550 OA
ENDBRANCH   1   2
BRANCH   1   5
ATOM      5  C   UNL     1      27.366 -11.405  20.282  1.00  0.00     0.006 C 
BRANCH   5   6
ATOM      6  C   UNL     1      28.135 -10.949  21.527  1.00  0.00    -0.003 C 
ATOM      7  C   UNL     1      28.432  -9.453  21.476  1.00  0.00     0.004 C 
ENDBRANCH   5   6
ENDBRANCH   1   5
TORSDOF 3
ENDMDL
MODEL 4
REMARK VINA RESULT:    -3.778      2.384      2.873
REMARK INTER + INTRA:          -4.482
REMARK INTER:                  -4.467
REMARK INTRA:                  -0.016
REMARK UNBOUND:                -0.042
REMARK SMILES CCCCC(=O)[O-]
REMARK SMILES IDX 4 1 5 2 6 3 7 4 3 5 2 6 1 7
REMARK H PARENT
REMARK Flexibility Score: inf
ROOT
ATOM      1  C   UNL     1      26.879  -9.421  20.190  1.00  0.00     0.053 C 
ENDROOT
BRANCH   1   2
ATOM      2  C   UNL     1      25.946  -8.444  19.548  1.00  0.00     0.041 C 
ATOM      3  O   UNL     1      26.292  -7.829  18.504  1.00  0.00    -0.550 OA
ATOM      4  O   UNL     1      24.713  -8.175  20.127  1.00  0.00    -0.550 OA
ENDBRANCH   1   2
BRANCH   1   5
ATOM      5  C   UNL     1      26.473 -10.856  19.844  1.00  0.00     0.006 C 
BRANCH   5   6
ATOM      6  C   UNL     1      27.578 -11.847  20.229  1.00  0.00    -0.003 C 
ATOM      7  C   UNL     1      27.448 -13.150  19.444  1.00  0.00     0.004 C 
ENDBRANCH   5   6
ENDBRANCH   1   5
TORSDOF 3
ENDMDL
MODEL 5
REMARK VINA RESULT:    -3.733     10.408     11.112
REMARK INTER + INTRA:          -4.430
REMARK INTER:                  -4.406
REMARK INTRA:                  -0.024
REMARK UNBOUND:                -0.042
REMARK SMILES CCCCC(=O)[O-]
REMARK SMILES IDX 4 1 5 2 6 3 7 4 3 5 2 6 1 7
REMARK H PARENT
REMARK Flexibility Score: inf
ROOT
ATOM      1  C   UNL     1      38.279 -11.870  21.759  1.00  0.00     0.053 C 
ENDROOT
BRANCH   1   2
ATOM      2  C   UNL     1      39.369 -12.581  21.020  1.00  0.00     0.041 C 
ATOM      3  O   UNL     1      40.233 -11.924  20.379  1.00  0.00    -0.550 OA
ATOM      4  O   UNL     1      39.405 -13.968  20.999  1.00  0.00    -0.550 OA
ENDBRANCH   1   2
BRANCH   1   5
ATOM      5  C   UNL     1      37.380 -11.107  20.783  1.00  0.00     0.006 C 
BRANCH   5   6
ATOM      6  C   UNL     1      36.749  -9.885  21.459  1.00  0.00    -0.003 C 
ATOM      7  C   UNL     1      35.336  -9.634  20.938  1.00  0.00     0.004 C 
ENDBRANCH   5   6
ENDBRANCH   1   5
TORSDOF 3
ENDMDL
MODEL 6
REMARK VINA RESULT:    -3.658      7.961      8.716
REMARK INTER + INTRA:          -4.341
REMARK INTER:                  -4.300
REMARK INTRA:                  -0.041
REMARK UNBOUND:                -0.042
REMARK SMILES CCCCC(=O)[O-]
REMARK SMILES IDX 4 1 5 2 6 3 7 4 3 5 2 6 1 7
REMARK H PARENT
REMARK Flexibility Score: inf
ROOT
ATOM      1  C   UNL     1      35.615 -10.312  20.575  1.00  0.00     0.053 C 
ENDROOT
BRANCH   1   2
ATOM      2  C   UNL     1      36.999 -10.437  21.131  1.00  0.00     0.041 C 
ATOM      3  O   UNL     1      37.497  -9.499  21.808  1.00  0.00    -0.550 OA
ATOM      4  O   UNL     1      37.757 -11.569  20.862  1.00  0.00    -0.550 OA
ENDBRANCH   1   2
BRANCH   1   5
ATOM      5  C   UNL     1      34.937  -9.046  21.106  1.00  0.00     0.006 C 
BRANCH   5   6
ATOM      6  C   UNL     1      33.563  -8.847  20.458  1.00  0.00    -0.003 C 
ATOM      7  C   UNL     1      33.388  -9.755  19.243  1.00  0.00     0.004 C 
ENDBRANCH   5   6
ENDBRANCH   1   5
TORSDOF 3
ENDMDL
MODEL 7
REMARK VINA RESULT:    -3.570      3.266      4.104
REMARK INTER + INTRA:          -4.238
REMARK INTER:                  -4.196
REMARK INTRA:                  -0.042
REMARK UNBOUND:                -0.042
REMARK SMILES CCCCC(=O)[O-]
REMARK SMILES IDX 4 1 5 2 6 3 7 4 3 5 2 6 1 7
REMARK H PARENT
REMARK Flexibility Score: inf
ROOT
ATOM      1  C   UNL     1      26.259  -8.679  18.990  1.00  0.00     0.053 C 
ENDROOT
BRANCH   1   2
ATOM      2  C   UNL     1      25.167  -7.698  19.280  1.00  0.00     0.041 C 
ATOM      3  O   UNL     1      25.121  -6.601  18.664  1.00  0.00    -0.550 OA
ATOM      4  O   UNL     1      24.228  -7.974  20.265  1.00  0.00    -0.550 OA
ENDBRANCH   1   2
BRANCH   1   5
ATOM      5  C   UNL     1      27.080  -8.955  20.253  1.00  0.00     0.006 C 
BRANCH   5   6
ATOM      6  C   UNL     1      27.108 -10.454  20.573  1.00  0.00    -0.003 C 
ATOM      7  C   UNL     1      28.117 -10.764  21.676  1.00  0.00     0.004 C 
ENDBRANCH   5   6
ENDBRANCH   1   5
TORSDOF 3
ENDMDL
MODEL 8
REMARK VINA RESULT:    -3.553      2.577      3.647
REMARK INTER + INTRA:          -4.218
REMARK INTER:                  -4.190
REMARK INTRA:                  -0.027
REMARK UNBOUND:                -0.042
REMARK SMILES CCCCC(=O)[O-]
REMARK SMILES IDX 4 1 5 2 6 3 7 4 3 5 2 6 1 7
REMARK H PARENT
REMARK Flexibility Score: inf
ROOT
ATOM      1  C   UNL     1      26.257 -11.993  19.271  1.00  0.00     0.053 C 
ENDROOT
BRANCH   1   2
ATOM      2  C   UNL     1      27.374 -12.985  19.188  1.00  0.00     0.041 C 
ATOM      3  O   UNL     1      27.449 -13.775  18.209  1.00  0.00    -0.550 OA
ATOM      4  O   UNL     1      28.306 -13.070  20.213  1.00  0.00    -0.550 OA
ENDBRANCH   1   2
BRANCH   1   5
ATOM      5  C   UNL     1      26.599 -10.882  20.267  1.00  0.00     0.006 C 
BRANCH   5   6
ATOM      6  C   UNL     1      26.421  -9.500  19.631  1.00  0.00    -0.003 C 
ATOM      7  C   UNL     1      27.132  -8.422  20.445  1.00  0.00     0.004 C 
ENDBRANCH   5   6
ENDBRANCH   1   5
TORSDOF 3
ENDMDL
MODEL 9
REMARK VINA RESULT:    -3.520      2.913      3.697
REMARK INTER + INTRA:          -4.179
REMARK INTER:                  -4.143
REMARK INTRA:                  -0.036
REMARK UNBOUND:                -0.042
REMARK SMILES CCCCC(=O)[O-]
REMARK SMILES IDX 4 1 5 2 6 3 7 4 3 5 2 6 1 7
REMARK H PARENT
REMARK Flexibility Score: inf
ROOT
ATOM      1  C   UNL     1      27.301  -8.756  20.124  1.00  0.00     0.053 C 
ENDROOT
BRANCH   1   2
ATOM      2  C   UNL     1      26.728  -7.831  19.096  1.00  0.00     0.041 C 
ATOM      3  O   UNL     1      25.500  -7.875  18.819  1.00  0.00    -0.550 OA
ATOM      4  O   UNL     1      27.557  -6.955  18.409  1.00  0.00    -0.550 OA
ENDBRANCH   1   2
BRANCH   1   5
ATOM      5  C   UNL     1      26.665 -10.144  20.009  1.00  0.00     0.006 C 
BRANCH   5   6
ATOM      6  C   UNL     1      27.498 -11.193  20.755  1.00  0.00    -0.003 C 
ATOM      7  C   UNL     1      28.462 -10.534  21.738  1.00  0.00     0.004 C 
ENDBRANCH   5   6
ENDBRANCH   1   5
TORSDOF 3
ENDMDL
