MODEL 1
REMARK VINA RESULT:     0.000      0.000      0.000
REMARK INTER + INTRA:          -0.443
REMARK INTER:                   0.000
REMARK INTRA:                  -0.443
REMARK UNBOUND:                -0.443
REMARK SMILES CCCCCCC=O
REMARK SMILES IDX 4 1 3 2 2 3 1 4 5 5 6 6 7 7 8 8
REMARK H PARENT
REMARK Flexibility Score: inf
ROOT
ATOM      1  C   UNL     1     140.516 141.648 154.585  1.00  0.00     0.000 C 
ENDROOT
BRANCH   1   2
ATOM      2  C   UNL     1     141.964 141.695 154.074  1.00  0.00    -0.000 C 
BRANCH   2   3
ATOM      3  C   UNL     1     142.062 142.194 152.623  1.00  0.00    -0.003 C 
ATOM      4  C   UNL     1     140.773 141.969 151.832  1.00  0.00     0.004 C 
ENDBRANCH   2   3
ENDBRANCH   1   2
BRANCH   1   5
ATOM      5  C   UNL     1     140.198 142.876 155.445  1.00  0.00     0.008 C 
BRANCH   5   6
ATOM      6  C   UNL     1     139.146 143.764 154.769  1.00  0.00     0.072 C 
BRANCH   6   7
ATOM      7  C   UNL     1     139.793 144.897 154.032  1.00  0.00     0.224 C 
ATOM      8  O   UNL     1     140.960 145.188 154.245  1.00  0.00    -0.303 OA
ENDBRANCH   6   7
ENDBRANCH   5   6
ENDBRANCH   1   5
TORSDOF 5
ENDMDL
MODEL 2
REMARK VINA RESULT:     0.000      2.833      3.242
REMARK INTER + INTRA:          -0.443
REMARK INTER:                   0.000
REMARK INTRA:                  -0.443
REMARK UNBOUND:                -0.443
REMARK SMILES CCCCCCC=O
REMARK SMILES IDX 4 1 3 2 2 3 1 4 5 5 6 6 7 7 8 8
REMARK H PARENT
REMARK Flexibility Score: inf
ROOT
ATOM      1  C   UNL     1     141.991 143.459 152.310  1.00  0.00     0.000 C 
ENDROOT
BRANCH   1   2
ATOM      2  C   UNL     1     142.694 143.052 151.006  1.00  0.00    -0.000 C 
BRANCH   2   3
ATOM      3  C   UNL     1     142.078 141.794 150.372  1.00  0.00    -0.003 C 
ATOM      4  C   UNL     1     141.361 140.908 151.391  1.00  0.00     0.004 C 
ENDBRANCH   2   3
ENDBRANCH   1   2
BRANCH   1   5
ATOM      5  C   UNL     1     140.997 144.599 152.064  1.00  0.00     0.008 C 
BRANCH   5   6
ATOM      6  C   UNL     1     139.556 144.135 152.306  1.00  0.00     0.072 C 
BRANCH   6   7
ATOM      7  C   UNL     1     138.890 143.759 151.017  1.00  0.00     0.224 C 
ATOM      8  O   UNL     1     139.373 144.098 149.948  1.00  0.00    -0.303 OA
ENDBRANCH   6   7
ENDBRANCH   5   6
ENDBRANCH   1   5
TORSDOF 5
ENDMDL
MODEL 3
REMARK VINA RESULT:     0.000      6.954      8.412
REMARK INTER + INTRA:          -0.443
REMARK INTER:                   0.000
REMARK INTRA:                  -0.443
REMARK UNBOUND:                -0.443
REMARK SMILES CCCCCCC=O
REMARK SMILES IDX 4 1 3 2 2 3 1 4 5 5 6 6 7 7 8 8
REMARK H PARENT
REMARK Flexibility Score: inf
ROOT
ATOM      1  C   UNL     1     137.512 140.544 148.122  1.00  0.00     0.000 C 
ENDROOT
BRANCH   1   2
ATOM      2  C   UNL     1     136.689 139.246 148.111  1.00  0.00    -0.000 C 
BRANCH   2   3
ATOM      3  C   UNL     1     136.541 138.654 146.700  1.00  0.00    -0.003 C 
ATOM      4  C   UNL     1     136.689 139.704 145.599  1.00  0.00     0.004 C 
ENDBRANCH   2   3
ENDBRANCH   1   2
BRANCH   1   5
ATOM      5  C   UNL     1     138.956 140.274 148.557  1.00  0.00     0.008 C 
BRANCH   5   6
ATOM      6  C   UNL     1     139.936 140.542 147.408  1.00  0.00     0.072 C 
BRANCH   6   7
ATOM      7  C   UNL     1     140.291 139.271 146.699  1.00  0.00     0.224 C 
ATOM      8  O   UNL     1     140.053 138.188 147.211  1.00  0.00    -0.303 OA
ENDBRANCH   6   7
ENDBRANCH   5   6
ENDBRANCH   1   5
TORSDOF 5
ENDMDL
MODEL 4
REMARK VINA RESULT:     0.000      3.344      4.766
REMARK INTER + INTRA:          -0.443
REMARK INTER:                   0.000
REMARK INTRA:                  -0.443
REMARK UNBOUND:                -0.443
REMARK SMILES CCCCCCC=O
REMARK SMILES IDX 4 1 3 2 2 3 1 4 5 5 6 6 7 7 8 8
REMARK H PARENT
REMARK Flexibility Score: inf
ROOT
ATOM      1  C   UNL     1     138.926 141.200 151.593  1.00  0.00     0.000 C 
ENDROOT
BRANCH   1   2
ATOM      2  C   UNL     1     140.221 141.850 152.102  1.00  0.00    -0.000 C 
BRANCH   2   3
ATOM      3  C   UNL     1     140.204 143.381 151.969  1.00  0.00    -0.003 C 
ATOM      4  C   UNL     1     138.788 143.957 151.944  1.00  0.00     0.004 C 
ENDBRANCH   2   3
ENDBRANCH   1   2
BRANCH   1   5
ATOM      5  C   UNL     1     139.112 140.643 150.177  1.00  0.00     0.008 C 
BRANCH   5   6
ATOM      6  C   UNL     1     138.246 141.406 149.167  1.00  0.00     0.072 C 
BRANCH   6   7
ATOM      7  C   UNL     1     139.044 142.465 148.469  1.00  0.00     0.224 C 
ATOM      8  O   UNL     1     140.264 142.452 148.514  1.00  0.00    -0.303 OA
ENDBRANCH   6   7
ENDBRANCH   5   6
ENDBRANCH   1   5
TORSDOF 5
ENDMDL
MODEL 5
REMARK VINA RESULT:     0.000     11.257     12.358
REMARK INTER + INTRA:          -0.443
REMARK INTER:                   0.000
REMARK INTRA:                  -0.443
REMARK UNBOUND:                -0.443
REMARK SMILES CCCCCCC=O
REMARK SMILES IDX 4 1 3 2 2 3 1 4 5 5 6 6 7 7 8 8
REMARK H PARENT
REMARK Flexibility Score: inf
ROOT
ATOM      1  C   UNL     1     147.464 143.515 145.775  1.00  0.00     0.000 C 
ENDROOT
BRANCH   1   2
ATOM      2  C   UNL     1     148.945 143.924 145.788  1.00  0.00    -0.000 C 
BRANCH   2   3
ATOM      3  C   UNL     1     149.386 144.581 144.471  1.00  0.00    -0.003 C 
ATOM      4  C   UNL     1     148.223 145.213 143.706  1.00  0.00     0.004 C 
ENDBRANCH   2   3
ENDBRANCH   1   2
BRANCH   1   5
ATOM      5  C   UNL     1     147.312 142.017 145.486  1.00  0.00     0.008 C 
BRANCH   5   6
ATOM      6  C   UNL     1     146.619 141.785 144.138  1.00  0.00     0.072 C 
BRANCH   6   7
ATOM      7  C   UNL     1     147.623 141.527 143.056  1.00  0.00     0.224 C 
ATOM      8  O   UNL     1     148.777 141.241 143.337  1.00  0.00    -0.303 OA
ENDBRANCH   6   7
ENDBRANCH   5   6
ENDBRANCH   1   5
TORSDOF 5
ENDMDL
MODEL 6
REMARK VINA RESULT:     0.000      2.810      3.623
REMARK INTER + INTRA:          -0.443
REMARK INTER:                   0.000
REMARK INTRA:                  -0.443
REMARK UNBOUND:                -0.443
REMARK SMILES CCCCCCC=O
REMARK SMILES IDX 4 1 3 2 2 3 1 4 5 5 6 6 7 7 8 8
REMARK H PARENT
REMARK Flexibility Score: inf
ROOT
ATOM      1  C   UNL     1     142.856 145.049 156.077  1.00  0.00     0.000 C 
ENDROOT
BRANCH   1   2
ATOM      2  C   UNL     1     143.370 144.148 154.945  1.00  0.00    -0.000 C 
BRANCH   2   3
ATOM      3  C   UNL     1     143.518 142.681 155.379  1.00  0.00    -0.003 C 
ATOM      4  C   UNL     1     143.710 142.527 156.888  1.00  0.00     0.004 C 
ENDBRANCH   2   3
ENDBRANCH   1   2
BRANCH   1   5
ATOM      5  C   UNL     1     141.352 145.309 155.931  1.00  0.00     0.008 C 
BRANCH   5   6
ATOM      6  C   UNL     1     140.569 144.675 157.087  1.00  0.00     0.072 C 
BRANCH   6   7
ATOM      7  C   UNL     1     140.013 143.341 156.689  1.00  0.00     0.224 C 
ATOM      8  O   UNL     1     139.958 143.019 155.512  1.00  0.00    -0.303 OA
ENDBRANCH   6   7
ENDBRANCH   5   6
ENDBRANCH   1   5
TORSDOF 5
ENDMDL
MODEL 7
REMARK VINA RESULT:     0.000     12.362     13.715
REMARK INTER + INTRA:          -0.443
REMARK INTER:                   0.000
REMARK INTRA:                  -0.443
REMARK UNBOUND:                -0.443
REMARK SMILES CCCCCCC=O
REMARK SMILES IDX 4 1 3 2 2 3 1 4 5 5 6 6 7 7 8 8
REMARK H PARENT
REMARK Flexibility Score: inf
ROOT
ATOM      1  C   UNL     1     143.170 135.961 144.067  1.00  0.00     0.000 C 
ENDROOT
BRANCH   1   2
ATOM      2  C   UNL     1     142.138 135.107 143.315  1.00  0.00    -0.000 C 
BRANCH   2   3
ATOM      3  C   UNL     1     142.778 134.233 142.225  1.00  0.00    -0.003 C 
ATOM      4  C   UNL     1     144.107 134.795 141.720  1.00  0.00     0.004 C 
ENDBRANCH   2   3
ENDBRANCH   1   2
BRANCH   1   5
ATOM      5  C   UNL     1     143.539 135.320 145.409  1.00  0.00     0.008 C 
BRANCH   5   6
ATOM      6  C   UNL     1     145.005 134.873 145.421  1.00  0.00     0.072 C 
BRANCH   6   7
ATOM      7  C   UNL     1     145.123 133.413 145.101  1.00  0.00     0.224 C 
ATOM      8  O   UNL     1     144.142 132.687 145.151  1.00  0.00    -0.303 OA
ENDBRANCH   6   7
ENDBRANCH   5   6
ENDBRANCH   1   5
TORSDOF 5
ENDMDL
MODEL 8
REMARK VINA RESULT:     0.000      6.978      8.065
REMARK INTER + INTRA:          -0.443
REMARK INTER:                   0.000
REMARK INTRA:                  -0.443
REMARK UNBOUND:                -0.443
REMARK SMILES CCCCCCC=O
REMARK SMILES IDX 4 1 3 2 2 3 1 4 5 5 6 6 7 7 8 8
REMARK H PARENT
REMARK Flexibility Score: inf
ROOT
ATOM      1  C   UNL     1     139.710 147.795 150.072  1.00  0.00     0.000 C 
ENDROOT
BRANCH   1   2
ATOM      2  C   UNL     1     141.052 147.911 149.335  1.00  0.00    -0.000 C 
BRANCH   2   3
ATOM      3  C   UNL     1     141.506 149.370 149.163  1.00  0.00    -0.003 C 
ATOM      4  C   UNL     1     140.906 150.304 150.213  1.00  0.00     0.004 C 
ENDBRANCH   2   3
ENDBRANCH   1   2
BRANCH   1   5
ATOM      5  C   UNL     1     138.558 147.581 149.084  1.00  0.00     0.008 C 
BRANCH   5   6
ATOM      6  C   UNL     1     137.605 148.782 149.081  1.00  0.00     0.072 C 
BRANCH   6   7
ATOM      7  C   UNL     1     137.921 149.714 147.951  1.00  0.00     0.224 C 
ATOM      8  O   UNL     1     138.634 149.350 147.028  1.00  0.00    -0.303 OA
ENDBRANCH   6   7
ENDBRANCH   5   6
ENDBRANCH   1   5
TORSDOF 5
ENDMDL
MODEL 9
REMARK VINA RESULT:     0.000      5.872      7.405
REMARK INTER + INTRA:          -0.443
REMARK INTER:                   0.000
REMARK INTRA:                  -0.443
REMARK UNBOUND:                -0.443
REMARK SMILES CCCCCCC=O
REMARK SMILES IDX 4 1 3 2 2 3 1 4 5 5 6 6 7 7 8 8
REMARK H PARENT
REMARK Flexibility Score: inf
ROOT
ATOM      1  C   UNL     1     138.261 144.876 146.354  1.00  0.00     0.000 C 
ENDROOT
BRANCH   1   2
ATOM      2  C   UNL     1     138.989 143.912 145.406  1.00  0.00    -0.000 C 
BRANCH   2   3
ATOM      3  C   UNL     1     138.713 142.437 145.738  1.00  0.00    -0.003 C 
ATOM      4  C   UNL     1     137.393 142.235 146.481  1.00  0.00     0.004 C 
ENDBRANCH   2   3
ENDBRANCH   1   2
BRANCH   1   5
ATOM      5  C   UNL     1     139.209 145.396 147.441  1.00  0.00     0.008 C 
BRANCH   5   6
ATOM      6  C   UNL     1     138.785 144.896 148.827  1.00  0.00     0.072 C 
BRANCH   6   7
ATOM      7  C   UNL     1     139.572 143.684 149.223  1.00  0.00     0.224 C 
ATOM      8  O   UNL     1     140.597 143.389 148.628  1.00  0.00    -0.303 OA
ENDBRANCH   6   7
ENDBRANCH   5   6
ENDBRANCH   1   5
TORSDOF 5
ENDMDL
