MODEL 1
REMARK VINA RESULT:    -5.960      0.000      0.000
REMARK INTER + INTRA:          -9.970
REMARK INTER:                  -9.270
REMARK INTRA:                  -0.700
REMARK UNBOUND:                -0.700
REMARK SMILES COc1cc(CNC(=O)CCCCC=CC(C)C)ccc1O
REMARK SMILES IDX 11 1 12 2 13 3 14 4 15 5 16 6 17 7 18 8 10 9 8 10 9 11 7 12
REMARK SMILES IDX 6 14 5 15 4 16 19 17 3 18 20 19 21 20 2 21 1 22 22 23
REMARK H PARENT 7 13 22 24
REMARK Flexibility Score: inf
ROOT
ATOM      1  C   UNL     1     118.343 256.553 342.426  1.00  0.00     0.010 C 
ENDROOT
BRANCH   1   2
ATOM      2  C   UNL     1     117.732 255.880 343.665  1.00  0.00     0.005 C 
BRANCH   2   3
ATOM      3  C   UNL     1     116.311 256.380 343.967  1.00  0.00     0.027 C 
BRANCH   3   4
ATOM      4  C   UNL     1     115.416 255.244 344.396  1.00  0.00    -0.031 C 
ATOM      5  C   UNL     1     114.406 255.350 345.280  1.00  0.00    -0.028 C 
BRANCH   5   6
ATOM      6  C   UNL     1     113.984 256.624 345.981  1.00  0.00     0.005 C 
ATOM      7  C   UNL     1     114.656 256.705 347.355  1.00  0.00     0.012 C 
ATOM      8  C   UNL     1     112.462 256.656 346.125  1.00  0.00     0.012 C 
ENDBRANCH   5   6
ENDBRANCH   3   4
ENDBRANCH   2   3
ENDBRANCH   1   2
BRANCH   1   9
ATOM      9  C   UNL     1     117.483 256.364 341.170  1.00  0.00     0.100 C 
BRANCH   9  10
ATOM     10  C   UNL     1     117.092 257.698 340.609  1.00  0.00     0.220 C 
ATOM     11  O   UNL     1     117.869 258.679 340.744  1.00  0.00    -0.275 OA
ATOM     12  N   UNL     1     115.816 257.864 339.974  1.00  0.00    -0.352 N 
ATOM     13  H   UNL     1     115.209 257.025 339.830  1.00  0.00     0.163 HD
BRANCH  12  14
ATOM     14  C   UNL     1     115.267 259.177 339.651  1.00  0.00     0.151 C 
BRANCH  14  15
ATOM     15  C   UNL     1     114.593 259.130 338.308  1.00  0.00    -0.025 A 
ATOM     16  C   UNL     1     114.888 260.092 337.329  1.00  0.00     0.056 A 
ATOM     17  C   UNL     1     113.610 258.165 338.051  1.00  0.00     0.009 A 
ATOM     18  C   UNL     1     114.219 260.080 336.089  1.00  0.00     0.160 A 
ATOM     19  C   UNL     1     112.948 258.144 336.822  1.00  0.00     0.050 A 
ATOM     20  C   UNL     1     113.250 259.097 335.841  1.00  0.00     0.157 A 
BRANCH  18  21
ATOM     21  O   UNL     1     114.487 261.026 335.086  1.00  0.00    -0.493 OA
ATOM     22  C   UNL     1     115.720 261.125 334.381  1.00  0.00     0.278 C 
ENDBRANCH  18  21
BRANCH  20  23
ATOM     23  O   UNL     1     112.589 259.076 334.616  1.00  0.00    -0.504 OA
ATOM     24  H   UNL     1     112.134 259.903 334.244  1.00  0.00     0.293 HD
ENDBRANCH  20  23
ENDBRANCH  14  15
ENDBRANCH  12  14
ENDBRANCH   9  10
ENDBRANCH   1   9
TORSDOF 10
ENDMDL
MODEL 2
REMARK VINA RESULT:    -5.846      3.295      9.017
REMARK INTER + INTRA:          -9.793
REMARK INTER:                  -9.199
REMARK INTRA:                  -0.594
REMARK UNBOUND:                -0.700
REMARK SMILES COc1cc(CNC(=O)CCCCC=CC(C)C)ccc1O
REMARK SMILES IDX 11 1 12 2 13 3 14 4 15 5 16 6 17 7 18 8 10 9 8 10 9 11 7 12
REMARK SMILES IDX 6 14 5 15 4 16 19 17 3 18 20 19 21 20 2 21 1 22 22 23
REMARK H PARENT 7 13 22 24
REMARK Flexibility Score: inf
ROOT
ATOM      1  C   UNL     1     116.257 257.535 340.232  1.00  0.00     0.010 C 
ENDROOT
BRANCH   1   2
ATOM      2  C   UNL     1     115.546 258.820 339.781  1.00  0.00     0.005 C 
BRANCH   2   3
ATOM      3  C   UNL     1     114.506 258.564 338.678  1.00  0.00     0.027 C 
BRANCH   3   4
ATOM      4  C   UNL     1     114.250 259.813 337.874  1.00  0.00    -0.031 C 
ATOM      5  C   UNL     1     113.993 259.840 336.552  1.00  0.00    -0.028 C 
BRANCH   5   6
ATOM      6  C   UNL     1     113.901 258.625 335.652  1.00  0.00     0.005 C 
ATOM      7  C   UNL     1     115.254 258.374 334.982  1.00  0.00     0.012 C 
ATOM      8  C   UNL     1     112.812 258.844 334.600  1.00  0.00     0.012 C 
ENDBRANCH   5   6
ENDBRANCH   3   4
ENDBRANCH   2   3
ENDBRANCH   1   2
BRANCH   1   9
ATOM      9  C   UNL     1     117.709 257.786 340.660  1.00  0.00     0.100 C 
BRANCH   9  10
ATOM     10  C   UNL     1     117.991 257.092 341.958  1.00  0.00     0.220 C 
ATOM     11  O   UNL     1     119.169 256.736 342.228  1.00  0.00    -0.275 OA
ATOM     12  N   UNL     1     116.916 256.786 342.857  1.00  0.00    -0.352 N 
ATOM     13  H   UNL     1     115.956 257.133 342.635  1.00  0.00     0.163 HD
BRANCH  12  14
ATOM     14  C   UNL     1     117.079 255.886 343.995  1.00  0.00     0.151 C 
BRANCH  14  15
ATOM     15  C   UNL     1     115.862 255.954 344.876  1.00  0.00    -0.025 A 
ATOM     16  C   UNL     1     115.877 256.719 346.052  1.00  0.00     0.056 A 
ATOM     17  C   UNL     1     114.727 255.195 344.561  1.00  0.00     0.009 A 
ATOM     18  C   UNL     1     114.756 256.743 346.905  1.00  0.00     0.160 A 
ATOM     19  C   UNL     1     113.610 255.219 345.398  1.00  0.00     0.050 A 
ATOM     20  C   UNL     1     113.621 255.991 346.568  1.00  0.00     0.157 A 
BRANCH  18  21
ATOM     21  O   UNL     1     114.734 257.495 348.091  1.00  0.00    -0.493 OA
ATOM     22  C   UNL     1     115.728 258.443 348.461  1.00  0.00     0.278 C 
ENDBRANCH  18  21
BRANCH  20  23
ATOM     23  O   UNL     1     112.507 256.013 347.403  1.00  0.00    -0.504 OA
ATOM     24  H   UNL     1     111.564 256.034 347.031  1.00  0.00     0.293 HD
ENDBRANCH  20  23
ENDBRANCH  14  15
ENDBRANCH  12  14
ENDBRANCH   9  10
ENDBRANCH   1   9
TORSDOF 10
ENDMDL
MODEL 3
REMARK VINA RESULT:    -5.768      4.052      7.399
REMARK INTER + INTRA:          -9.672
REMARK INTER:                  -9.076
REMARK INTRA:                  -0.596
REMARK UNBOUND:                -0.700
REMARK SMILES COc1cc(CNC(=O)CCCCC=CC(C)C)ccc1O
REMARK SMILES IDX 11 1 12 2 13 3 14 4 15 5 16 6 17 7 18 8 10 9 8 10 9 11 7 12
REMARK SMILES IDX 6 14 5 15 4 16 19 17 3 18 20 19 21 20 2 21 1 22 22 23
REMARK H PARENT 7 13 22 24
REMARK Flexibility Score: inf
ROOT
ATOM      1  C   UNL     1     115.869 257.737 348.081  1.00  0.00     0.010 C 
ENDROOT
BRANCH   1   2
ATOM      2  C   UNL     1     115.993 259.212 348.491  1.00  0.00     0.005 C 
BRANCH   2   3
ATOM      3  C   UNL     1     117.020 259.430 349.614  1.00  0.00     0.027 C 
BRANCH   3   4
ATOM      4  C   UNL     1     116.661 260.632 350.451  1.00  0.00    -0.031 C 
ATOM      5  C   UNL     1     116.845 260.727 351.782  1.00  0.00    -0.028 C 
BRANCH   5   6
ATOM      6  C   UNL     1     117.457 259.656 352.661  1.00  0.00     0.005 C 
ATOM      7  C   UNL     1     116.350 258.891 353.390  1.00  0.00     0.012 C 
ATOM      8  C   UNL     1     118.418 260.298 353.664  1.00  0.00     0.012 C 
ENDBRANCH   5   6
ENDBRANCH   3   4
ENDBRANCH   2   3
ENDBRANCH   1   2
BRANCH   1   9
ATOM      9  C   UNL     1     114.441 257.360 347.666  1.00  0.00     0.100 C 
BRANCH   9  10
ATOM     10  C   UNL     1     114.472 256.487 346.448  1.00  0.00     0.220 C 
ATOM     11  O   UNL     1     113.610 255.579 346.314  1.00  0.00    -0.275 OA
ATOM     12  N   UNL     1     115.510 256.653 345.472  1.00  0.00    -0.352 N 
ATOM     13  H   UNL     1     116.185 257.444 345.580  1.00  0.00     0.163 HD
BRANCH  12  14
ATOM     14  C   UNL     1     115.754 255.676 344.415  1.00  0.00     0.151 C 
BRANCH  14  15
ATOM     15  C   UNL     1     116.826 256.184 343.491  1.00  0.00    -0.025 A 
ATOM     16  C   UNL     1     116.490 256.963 342.372  1.00  0.00     0.056 A 
ATOM     17  C   UNL     1     118.162 255.822 343.703  1.00  0.00     0.009 A 
ATOM     18  C   UNL     1     117.489 257.396 341.477  1.00  0.00     0.160 A 
ATOM     19  C   UNL     1     119.157 256.253 342.823  1.00  0.00     0.050 A 
ATOM     20  C   UNL     1     118.824 257.039 341.712  1.00  0.00     0.157 A 
BRANCH  18  21
ATOM     21  O   UNL     1     117.192 258.175 340.347  1.00  0.00    -0.493 OA
ATOM     22  C   UNL     1     115.879 258.399 339.845  1.00  0.00     0.278 C 
ENDBRANCH  18  21
BRANCH  20  23
ATOM     23  O   UNL     1     119.817 257.468 340.834  1.00  0.00    -0.504 OA
ATOM     24  H   UNL     1     120.763 257.646 341.150  1.00  0.00     0.293 HD
ENDBRANCH  20  23
ENDBRANCH  14  15
ENDBRANCH  12  14
ENDBRANCH   9  10
ENDBRANCH   1   9
TORSDOF 10
ENDMDL
MODEL 4
REMARK VINA RESULT:    -5.462      0.955      1.831
REMARK INTER + INTRA:          -9.196
REMARK INTER:                  -8.594
REMARK INTRA:                  -0.601
REMARK UNBOUND:                -0.700
REMARK SMILES COc1cc(CNC(=O)CCCCC=CC(C)C)ccc1O
REMARK SMILES IDX 11 1 12 2 13 3 14 4 15 5 16 6 17 7 18 8 10 9 8 10 9 11 7 12
REMARK SMILES IDX 6 14 5 15 4 16 19 17 3 18 20 19 21 20 2 21 1 22 22 23
REMARK H PARENT 7 13 22 24
REMARK Flexibility Score: inf
ROOT
ATOM      1  C   UNL     1     117.165 256.271 341.647  1.00  0.00     0.010 C 
ENDROOT
BRANCH   1   2
ATOM      2  C   UNL     1     117.492 256.642 343.102  1.00  0.00     0.005 C 
BRANCH   2   3
ATOM      3  C   UNL     1     116.231 256.904 343.941  1.00  0.00     0.027 C 
BRANCH   3   4
ATOM      4  C   UNL     1     115.536 255.613 344.295  1.00  0.00    -0.031 C 
ATOM      5  C   UNL     1     114.601 255.478 345.255  1.00  0.00    -0.028 C 
BRANCH   5   6
ATOM      6  C   UNL     1     114.076 256.597 346.129  1.00  0.00     0.005 C 
ATOM      7  C   UNL     1     115.000 256.788 347.335  1.00  0.00     0.012 C 
ATOM      8  C   UNL     1     112.654 256.269 346.589  1.00  0.00     0.012 C 
ENDBRANCH   5   6
ENDBRANCH   3   4
ENDBRANCH   2   3
ENDBRANCH   1   2
BRANCH   1   9
ATOM      9  C   UNL     1     117.720 257.289 340.642  1.00  0.00     0.100 C 
BRANCH   9  10
ATOM     10  C   UNL     1     116.627 258.205 340.180  1.00  0.00     0.220 C 
ATOM     11  O   UNL     1     116.720 259.442 340.403  1.00  0.00    -0.275 OA
ATOM     12  N   UNL     1     115.462 257.668 339.541  1.00  0.00    -0.352 N 
ATOM     13  H   UNL     1     115.429 256.645 339.324  1.00  0.00     0.163 HD
BRANCH  12  14
ATOM     14  C   UNL     1     114.257 258.461 339.313  1.00  0.00     0.151 C 
BRANCH  14  15
ATOM     15  C   UNL     1     114.349 259.154 337.982  1.00  0.00    -0.025 A 
ATOM     16  C   UNL     1     113.999 258.480 336.802  1.00  0.00     0.056 A 
ATOM     17  C   UNL     1     114.853 260.460 337.907  1.00  0.00     0.009 A 
ATOM     18  C   UNL     1     114.134 259.112 335.550  1.00  0.00     0.160 A 
ATOM     19  C   UNL     1     114.983 261.094 336.670  1.00  0.00     0.050 A 
ATOM     20  C   UNL     1     114.624 260.425 335.493  1.00  0.00     0.157 A 
BRANCH  18  21
ATOM     21  O   UNL     1     113.795 258.470 334.348  1.00  0.00    -0.493 OA
ATOM     22  C   UNL     1     112.462 258.271 333.889  1.00  0.00     0.278 C 
ENDBRANCH  18  21
BRANCH  20  23
ATOM     23  O   UNL     1     114.755 261.057 334.259  1.00  0.00    -0.504 OA
ATOM     24  H   UNL     1     115.620 261.510 333.984  1.00  0.00     0.293 HD
ENDBRANCH  20  23
ENDBRANCH  14  15
ENDBRANCH  12  14
ENDBRANCH   9  10
ENDBRANCH   1   9
TORSDOF 10
ENDMDL
MODEL 5
REMARK VINA RESULT:    -4.427      1.788      2.687
REMARK INTER + INTRA:          -7.585
REMARK INTER:                  -6.893
REMARK INTRA:                  -0.692
REMARK UNBOUND:                -0.700
REMARK SMILES COc1cc(CNC(=O)CCCCC=CC(C)C)ccc1O
REMARK SMILES IDX 11 1 12 2 13 3 14 4 15 5 16 6 17 7 18 8 10 9 8 10 9 11 7 12
REMARK SMILES IDX 6 14 5 15 4 16 19 17 3 18 20 19 21 20 2 21 1 22 22 23
REMARK H PARENT 7 13 22 24
REMARK Flexibility Score: inf
ROOT
ATOM      1  C   UNL     1     117.364 255.889 343.474  1.00  0.00     0.010 C 
ENDROOT
BRANCH   1   2
ATOM      2  C   UNL     1     116.152 256.528 344.167  1.00  0.00     0.005 C 
BRANCH   2   3
ATOM      3  C   UNL     1     115.335 255.514 344.983  1.00  0.00     0.027 C 
BRANCH   3   4
ATOM      4  C   UNL     1     115.139 255.990 346.400  1.00  0.00    -0.031 C 
ATOM      5  C   UNL     1     113.944 256.184 346.991  1.00  0.00    -0.028 C 
BRANCH   5   6
ATOM      6  C   UNL     1     112.597 255.944 346.342  1.00  0.00     0.005 C 
ATOM      7  C   UNL     1     112.158 257.198 345.581  1.00  0.00     0.012 C 
ATOM      8  C   UNL     1     111.567 255.576 347.412  1.00  0.00     0.012 C 
ENDBRANCH   5   6
ENDBRANCH   3   4
ENDBRANCH   2   3
ENDBRANCH   1   2
BRANCH   1   9
ATOM      9  C   UNL     1     118.423 256.924 343.068  1.00  0.00     0.100 C 
BRANCH   9  10
ATOM     10  C   UNL     1     118.359 257.174 341.592  1.00  0.00     0.220 C 
ATOM     11  O   UNL     1     119.424 257.377 340.951  1.00  0.00    -0.275 OA
ATOM     12  N   UNL     1     117.089 257.238 340.928  1.00  0.00    -0.352 N 
ATOM     13  H   UNL     1     116.223 257.019 341.471  1.00  0.00     0.163 HD
BRANCH  12  14
ATOM     14  C   UNL     1     116.942 257.739 339.565  1.00  0.00     0.151 C 
BRANCH  14  15
ATOM     15  C   UNL     1     115.608 258.414 339.412  1.00  0.00    -0.025 A 
ATOM     16  C   UNL     1     114.704 257.991 338.425  1.00  0.00     0.056 A 
ATOM     17  C   UNL     1     115.288 259.520 340.212  1.00  0.00     0.009 A 
ATOM     18  C   UNL     1     113.475 258.657 338.248  1.00  0.00     0.160 A 
ATOM     19  C   UNL     1     114.069 260.180 340.045  1.00  0.00     0.050 A 
ATOM     20  C   UNL     1     113.162 259.751 339.067  1.00  0.00     0.157 A 
BRANCH  18  21
ATOM     21  O   UNL     1     112.546 258.264 337.270  1.00  0.00    -0.493 OA
ATOM     22  C   UNL     1     112.684 258.524 335.878  1.00  0.00     0.278 C 
ENDBRANCH  18  21
BRANCH  20  23
ATOM     23  O   UNL     1     111.947 260.411 338.900  1.00  0.00    -0.504 OA
ATOM     24  H   UNL     1     111.393 260.711 339.694  1.00  0.00     0.293 HD
ENDBRANCH  20  23
ENDBRANCH  14  15
ENDBRANCH  12  14
ENDBRANCH   9  10
ENDBRANCH   1   9
TORSDOF 10
ENDMDL
MODEL 6
REMARK VINA RESULT:    -4.254      2.150      8.821
REMARK INTER + INTRA:          -7.317
REMARK INTER:                  -7.336
REMARK INTRA:                   0.019
REMARK UNBOUND:                -0.700
REMARK SMILES COc1cc(CNC(=O)CCCCC=CC(C)C)ccc1O
REMARK SMILES IDX 11 1 12 2 13 3 14 4 15 5 16 6 17 7 18 8 10 9 8 10 9 11 7 12
REMARK SMILES IDX 6 14 5 15 4 16 19 17 3 18 20 19 21 20 2 21 1 22 22 23
REMARK H PARENT 7 13 22 24
REMARK Flexibility Score: inf
ROOT
ATOM      1  C   UNL     1     113.086 258.100 338.374  1.00  0.00     0.010 C 
ENDROOT
BRANCH   1   2
ATOM      2  C   UNL     1     112.859 258.308 336.870  1.00  0.00     0.005 C 
BRANCH   2   3
ATOM      3  C   UNL     1     113.432 259.642 336.364  1.00  0.00     0.027 C 
BRANCH   3   4
ATOM      4  C   UNL     1     113.032 259.897 334.933  1.00  0.00    -0.031 C 
ATOM      5  C   UNL     1     113.863 259.824 333.875  1.00  0.00    -0.028 C 
BRANCH   5   6
ATOM      6  C   UNL     1     115.331 259.459 333.938  1.00  0.00     0.005 C 
ATOM      7  C   UNL     1     115.504 258.143 334.701  1.00  0.00     0.012 C 
ATOM      8  C   UNL     1     116.114 260.583 334.618  1.00  0.00     0.012 C 
ENDBRANCH   5   6
ENDBRANCH   3   4
ENDBRANCH   2   3
ENDBRANCH   1   2
BRANCH   1   9
ATOM      9  C   UNL     1     113.301 259.421 339.125  1.00  0.00     0.100 C 
BRANCH   9  10
ATOM     10  C   UNL     1     114.756 259.607 339.435  1.00  0.00     0.220 C 
ATOM     11  O   UNL     1     115.281 260.742 339.285  1.00  0.00    -0.275 OA
ATOM     12  N   UNL     1     115.552 258.487 339.844  1.00  0.00    -0.352 N 
ATOM     13  H   UNL     1     115.085 257.566 340.008  1.00  0.00     0.163 HD
BRANCH  12  14
ATOM     14  C   UNL     1     117.010 258.540 339.899  1.00  0.00     0.151 C 
BRANCH  14  15
ATOM     15  C   UNL     1     117.508 257.683 341.029  1.00  0.00    -0.025 A 
ATOM     16  C   UNL     1     116.617 257.193 341.997  1.00  0.00     0.056 A 
ATOM     17  C   UNL     1     118.879 257.426 341.161  1.00  0.00     0.009 A 
ATOM     18  C   UNL     1     117.090 256.433 343.085  1.00  0.00     0.160 A 
ATOM     19  C   UNL     1     119.353 256.668 342.233  1.00  0.00     0.050 A 
ATOM     20  C   UNL     1     118.463 256.170 343.194  1.00  0.00     0.157 A 
BRANCH  18  21
ATOM     21  O   UNL     1     116.230 255.927 344.074  1.00  0.00    -0.493 OA
ATOM     22  C   UNL     1     115.361 256.725 344.869  1.00  0.00     0.278 C 
ENDBRANCH  18  21
BRANCH  20  23
ATOM     23  O   UNL     1     118.937 255.415 344.264  1.00  0.00    -0.504 OA
ATOM     24  H   UNL     1     119.856 255.575 344.661  1.00  0.00     0.293 HD
ENDBRANCH  20  23
ENDBRANCH  14  15
ENDBRANCH  12  14
ENDBRANCH   9  10
ENDBRANCH   1   9
TORSDOF 10
ENDMDL
MODEL 7
REMARK VINA RESULT:    -4.069      3.327      6.433
REMARK INTER + INTRA:          -7.029
REMARK INTER:                  -6.507
REMARK INTRA:                  -0.522
REMARK UNBOUND:                -0.700
REMARK SMILES COc1cc(CNC(=O)CCCCC=CC(C)C)ccc1O
REMARK SMILES IDX 11 1 12 2 13 3 14 4 15 5 16 6 17 7 18 8 10 9 8 10 9 11 7 12
REMARK SMILES IDX 6 14 5 15 4 16 19 17 3 18 20 19 21 20 2 21 1 22 22 23
REMARK H PARENT 7 13 22 24
REMARK Flexibility Score: inf
ROOT
ATOM      1  C   UNL     1     113.086 257.142 346.315  1.00  0.00     0.010 C 
ENDROOT
BRANCH   1   2
ATOM      2  C   UNL     1     114.064 257.002 347.490  1.00  0.00     0.005 C 
BRANCH   2   3
ATOM      3  C   UNL     1     114.977 258.228 347.648  1.00  0.00     0.027 C 
BRANCH   3   4
ATOM      4  C   UNL     1     116.024 257.992 348.709  1.00  0.00    -0.031 C 
ATOM      5  C   UNL     1     116.777 258.954 349.276  1.00  0.00    -0.028 C 
BRANCH   5   6
ATOM      6  C   UNL     1     116.691 260.433 348.963  1.00  0.00     0.005 C 
ATOM      7  C   UNL     1     118.014 261.114 349.324  1.00  0.00     0.012 C 
ATOM      8  C   UNL     1     115.533 261.060 349.742  1.00  0.00     0.012 C 
ENDBRANCH   5   6
ENDBRANCH   3   4
ENDBRANCH   2   3
ENDBRANCH   1   2
BRANCH   1   9
ATOM      9  C   UNL     1     113.009 255.871 345.459  1.00  0.00     0.100 C 
BRANCH   9  10
ATOM     10  C   UNL     1     114.388 255.367 345.159  1.00  0.00     0.220 C 
ATOM     11  O   UNL     1     114.641 254.140 345.286  1.00  0.00    -0.275 OA
ATOM     12  N   UNL     1     115.423 256.286 344.785  1.00  0.00    -0.352 N 
ATOM     13  H   UNL     1     115.178 257.292 344.639  1.00  0.00     0.163 HD
BRANCH  12  14
ATOM     14  C   UNL     1     116.831 255.905 344.742  1.00  0.00     0.151 C 
BRANCH  14  15
ATOM     15  C   UNL     1     117.445 256.367 343.450  1.00  0.00    -0.025 A 
ATOM     16  C   UNL     1     116.631 256.765 342.378  1.00  0.00     0.056 A 
ATOM     17  C   UNL     1     118.836 256.336 343.285  1.00  0.00     0.009 A 
ATOM     18  C   UNL     1     117.204 257.149 341.149  1.00  0.00     0.160 A 
ATOM     19  C   UNL     1     119.410 256.721 342.072  1.00  0.00     0.050 A 
ATOM     20  C   UNL     1     118.598 257.128 341.005  1.00  0.00     0.157 A 
BRANCH  18  21
ATOM     21  O   UNL     1     116.422 257.551 340.053  1.00  0.00    -0.493 OA
ATOM     22  C   UNL     1     115.844 258.844 339.908  1.00  0.00     0.278 C 
ENDBRANCH  18  21
BRANCH  20  23
ATOM     23  O   UNL     1     119.171 257.511 339.794  1.00  0.00    -0.504 OA
ATOM     24  H   UNL     1     119.190 256.887 338.995  1.00  0.00     0.293 HD
ENDBRANCH  20  23
ENDBRANCH  14  15
ENDBRANCH  12  14
ENDBRANCH   9  10
ENDBRANCH   1   9
TORSDOF 10
ENDMDL
