MODEL 1
REMARK VINA RESULT:    -4.676      0.000      0.000
REMARK INTER + INTRA:          -5.673
REMARK INTER:                  -5.632
REMARK INTRA:                  -0.040
REMARK UNBOUND:                -0.040
REMARK SMILES NC(=O)C[C@@H]([NH3+])C(=O)[O-]
REMARK SMILES IDX 4 1 5 2 6 3 7 7 8 8 9 9 2 10 3 11 1 12
REMARK H PARENT 6 4 6 5 6 6 1 13 1 14
REMARK Flexibility Score: inf
ROOT
ATOM      1  C   UNL     1     -14.898 -27.154 -13.117  1.00  0.00     0.171 C 
ENDROOT
BRANCH   1   2
ATOM      2  C   UNL     1     -13.667 -26.665 -13.909  1.00  0.00     0.237 C 
BRANCH   2   3
ATOM      3  N   UNL     1     -13.627 -27.233 -15.264  1.00  0.00    -0.350 N 
ATOM      4  H   UNL     1     -14.567 -27.620 -15.514  1.00  0.00     0.345 HD
ATOM      5  H   UNL     1     -12.933 -28.015 -15.297  1.00  0.00     0.345 HD
ATOM      6  H   UNL     1     -13.356 -26.511 -15.971  1.00  0.00     0.345 HD
ENDBRANCH   2   3
BRANCH   2   7
ATOM      7  C   UNL     1     -13.595 -25.159 -13.943  1.00  0.00     0.100 C 
ATOM      8  O   UNL     1     -12.506 -24.570 -14.174  1.00  0.00    -0.544 OA
ATOM      9  O   UNL     1     -14.752 -24.410 -13.769  1.00  0.00    -0.544 OA
ENDBRANCH   2   7
ENDBRANCH   1   2
BRANCH   1  10
ATOM     10  C   UNL     1     -14.667 -28.458 -12.402  1.00  0.00     0.223 C 
ATOM     11  O   UNL     1     -14.478 -28.463 -11.157  1.00  0.00    -0.275 OA
ATOM     12  N   UNL     1     -14.679 -29.691 -13.121  1.00  0.00    -0.369 N 
ATOM     13  H   UNL     1     -14.842 -29.705 -14.152  1.00  0.00     0.159 HD
ATOM     14  H   UNL     1     -14.528 -30.594 -12.619  1.00  0.00     0.159 HD
ENDBRANCH   1  10
TORSDOF 4
ENDMDL
MODEL 2
REMARK VINA RESULT:    -4.564      1.507      1.680
REMARK INTER + INTRA:          -5.538
REMARK INTER:                  -5.068
REMARK INTRA:                  -0.470
REMARK UNBOUND:                -0.040
REMARK SMILES NC(=O)C[C@@H]([NH3+])C(=O)[O-]
REMARK SMILES IDX 4 1 5 2 6 3 7 7 8 8 9 9 2 10 3 11 1 12
REMARK H PARENT 6 4 6 5 6 6 1 13 1 14
REMARK Flexibility Score: inf
ROOT
ATOM      1  C   UNL     1     -12.942 -27.551 -12.926  1.00  0.00     0.171 C 
ENDROOT
BRANCH   1   2
ATOM      2  C   UNL     1     -13.222 -26.459 -13.980  1.00  0.00     0.237 C 
BRANCH   2   3
ATOM      3  N   UNL     1     -13.612 -27.034 -15.275  1.00  0.00    -0.350 N 
ATOM      4  H   UNL     1     -13.076 -27.916 -15.446  1.00  0.00     0.345 HD
ATOM      5  H   UNL     1     -13.384 -26.359 -16.041  1.00  0.00     0.345 HD
ATOM      6  H   UNL     1     -14.635 -27.245 -15.304  1.00  0.00     0.345 HD
ENDBRANCH   2   3
BRANCH   2   7
ATOM      7  C   UNL     1     -14.248 -25.468 -13.489  1.00  0.00     0.100 C 
ATOM      8  O   UNL     1     -14.547 -24.454 -14.175  1.00  0.00    -0.544 OA
ATOM      9  O   UNL     1     -14.912 -25.701 -12.291  1.00  0.00    -0.544 OA
ENDBRANCH   2   7
ENDBRANCH   1   2
BRANCH   1  10
ATOM     10  C   UNL     1     -13.752 -28.801 -13.135  1.00  0.00     0.223 C 
ATOM     11  O   UNL     1     -13.225 -29.802 -13.689  1.00  0.00    -0.275 OA
ATOM     12  N   UNL     1     -15.107 -28.870 -12.692  1.00  0.00    -0.369 N 
ATOM     13  H   UNL     1     -15.557 -28.053 -12.222  1.00  0.00     0.159 HD
ATOM     14  H   UNL     1     -15.662 -29.744 -12.829  1.00  0.00     0.159 HD
ENDBRANCH   1  10
TORSDOF 4
ENDMDL
MODEL 3
REMARK VINA RESULT:    -4.549      1.683      3.845
REMARK INTER + INTRA:          -5.520
REMARK INTER:                  -5.023
REMARK INTRA:                  -0.497
REMARK UNBOUND:                -0.040
REMARK SMILES NC(=O)C[C@@H]([NH3+])C(=O)[O-]
REMARK SMILES IDX 4 1 5 2 6 3 7 7 8 8 9 9 2 10 3 11 1 12
REMARK H PARENT 6 4 6 5 6 6 1 13 1 14
REMARK Flexibility Score: inf
ROOT
ATOM      1  C   UNL     1     -12.586 -26.743 -12.881  1.00  0.00     0.171 C 
ENDROOT
BRANCH   1   2
ATOM      2  C   UNL     1     -13.750 -26.639 -11.872  1.00  0.00     0.237 C 
BRANCH   2   3
ATOM      3  N   UNL     1     -14.580 -25.451 -12.114  1.00  0.00    -0.350 N 
ATOM      4  H   UNL     1     -14.895 -25.048 -11.202  1.00  0.00     0.345 HD
ATOM      5  H   UNL     1     -15.429 -25.723 -12.661  1.00  0.00     0.345 HD
ATOM      6  H   UNL     1     -14.054 -24.722 -12.647  1.00  0.00     0.345 HD
ENDBRANCH   2   3
BRANCH   2   7
ATOM      7  C   UNL     1     -14.582 -27.897 -11.858  1.00  0.00     0.100 C 
ATOM      8  O   UNL     1     -14.418 -28.769 -10.962  1.00  0.00    -0.544 OA
ATOM      9  O   UNL     1     -15.576 -28.076 -12.810  1.00  0.00    -0.544 OA
ENDBRANCH   2   7
ENDBRANCH   1   2
BRANCH   1  10
ATOM     10  C   UNL     1     -12.946 -26.256 -14.257  1.00  0.00     0.223 C 
ATOM     11  O   UNL     1     -12.700 -25.064 -14.583  1.00  0.00    -0.275 OA
ATOM     12  N   UNL     1     -13.548 -27.138 -15.204  1.00  0.00    -0.369 N 
ATOM     13  H   UNL     1     -13.751 -28.131 -14.954  1.00  0.00     0.159 HD
ATOM     14  H   UNL     1     -13.787 -26.798 -16.162  1.00  0.00     0.159 HD
ENDBRANCH   1  10
TORSDOF 4
ENDMDL
MODEL 4
REMARK VINA RESULT:    -4.521      2.036      2.838
REMARK INTER + INTRA:          -5.487
REMARK INTER:                  -5.402
REMARK INTRA:                  -0.084
REMARK UNBOUND:                -0.040
REMARK SMILES NC(=O)C[C@@H]([NH3+])C(=O)[O-]
REMARK SMILES IDX 4 1 5 2 6 3 7 7 8 8 9 9 2 10 3 11 1 12
REMARK H PARENT 6 4 6 5 6 6 1 13 1 14
REMARK Flexibility Score: inf
ROOT
ATOM      1  C   UNL     1     -14.856 -27.030 -13.087  1.00  0.00     0.171 C 
ENDROOT
BRANCH   1   2
ATOM      2  C   UNL     1     -13.564 -27.480 -13.802  1.00  0.00     0.237 C 
BRANCH   2   3
ATOM      3  N   UNL     1     -13.610 -27.202 -15.244  1.00  0.00    -0.350 N 
ATOM      4  H   UNL     1     -14.537 -27.495 -15.631  1.00  0.00     0.345 HD
ATOM      5  H   UNL     1     -12.865 -27.751 -15.731  1.00  0.00     0.345 HD
ATOM      6  H   UNL     1     -13.463 -26.186 -15.440  1.00  0.00     0.345 HD
ENDBRANCH   2   3
BRANCH   2   7
ATOM      7  C   UNL     1     -12.340 -26.871 -13.164  1.00  0.00     0.100 C 
ATOM      8  O   UNL     1     -11.781 -27.427 -12.180  1.00  0.00    -0.544 OA
ATOM      9  O   UNL     1     -11.789 -25.714 -13.698  1.00  0.00    -0.544 OA
ENDBRANCH   2   7
ENDBRANCH   1   2
BRANCH   1  10
ATOM     10  C   UNL     1     -14.755 -25.656 -12.483  1.00  0.00     0.223 C 
ATOM     11  O   UNL     1     -14.686 -25.526 -11.232  1.00  0.00    -0.275 OA
ATOM     12  N   UNL     1     -14.716 -24.499 -13.317  1.00  0.00    -0.369 N 
ATOM     13  H   UNL     1     -14.763 -24.589 -14.356  1.00  0.00     0.159 HD
ATOM     14  H   UNL     1     -14.634 -23.547 -12.895  1.00  0.00     0.159 HD
ENDBRANCH   1  10
TORSDOF 4
ENDMDL
MODEL 5
REMARK VINA RESULT:    -4.415      1.424      4.059
REMARK INTER + INTRA:          -5.358
REMARK INTER:                  -4.965
REMARK INTRA:                  -0.394
REMARK UNBOUND:                -0.040
REMARK SMILES NC(=O)C[C@@H]([NH3+])C(=O)[O-]
REMARK SMILES IDX 4 1 5 2 6 3 7 7 8 8 9 9 2 10 3 11 1 12
REMARK H PARENT 6 4 6 5 6 6 1 13 1 14
REMARK Flexibility Score: inf
ROOT
ATOM      1  C   UNL     1     -13.484 -26.707 -12.733  1.00  0.00     0.171 C 
ENDROOT
BRANCH   1   2
ATOM      2  C   UNL     1     -14.601 -27.600 -12.152  1.00  0.00     0.237 C 
BRANCH   2   3
ATOM      3  N   UNL     1     -15.838 -27.512 -12.940  1.00  0.00    -0.350 N 
ATOM      4  H   UNL     1     -16.311 -26.598 -12.755  1.00  0.00     0.345 HD
ATOM      5  H   UNL     1     -16.489 -28.280 -12.656  1.00  0.00     0.345 HD
ATOM      6  H   UNL     1     -15.643 -27.596 -13.964  1.00  0.00     0.345 HD
ENDBRANCH   2   3
BRANCH   2   7
ATOM      7  C   UNL     1     -14.143 -29.030 -12.005  1.00  0.00     0.100 C 
ATOM      8  O   UNL     1     -14.300 -29.649 -10.918  1.00  0.00    -0.544 OA
ATOM      9  O   UNL     1     -13.592 -29.692 -13.094  1.00  0.00    -0.544 OA
ENDBRANCH   2   7
ENDBRANCH   1   2
BRANCH   1  10
ATOM     10  C   UNL     1     -13.722 -26.311 -14.164  1.00  0.00     0.223 C 
ATOM     11  O   UNL     1     -14.128 -25.149 -14.433  1.00  0.00    -0.275 OA
ATOM     12  N   UNL     1     -13.474 -27.235 -15.223  1.00  0.00    -0.369 N 
ATOM     13  H   UNL     1     -13.130 -28.200 -15.020  1.00  0.00     0.159 HD
ATOM     14  H   UNL     1     -13.631 -26.953 -16.217  1.00  0.00     0.159 HD
ENDBRANCH   1  10
TORSDOF 4
ENDMDL
MODEL 6
REMARK VINA RESULT:    -4.380      1.855      3.887
REMARK INTER + INTRA:          -5.316
REMARK INTER:                  -4.821
REMARK INTRA:                  -0.495
REMARK UNBOUND:                -0.040
REMARK SMILES NC(=O)C[C@@H]([NH3+])C(=O)[O-]
REMARK SMILES IDX 4 1 5 2 6 3 7 7 8 8 9 9 2 10 3 11 1 12
REMARK H PARENT 6 4 6 5 6 6 1 13 1 14
REMARK Flexibility Score: inf
ROOT
ATOM      1  C   UNL     1     -13.631 -26.579 -14.442  1.00  0.00     0.171 C 
ENDROOT
BRANCH   1   2
ATOM      2  C   UNL     1     -13.335 -27.549 -13.278  1.00  0.00     0.237 C 
BRANCH   2   3
ATOM      3  N   UNL     1     -12.287 -27.034 -12.388  1.00  0.00    -0.350 N 
ATOM      4  H   UNL     1     -11.804 -27.830 -11.911  1.00  0.00     0.345 HD
ATOM      5  H   UNL     1     -12.718 -26.427 -11.653  1.00  0.00     0.345 HD
ATOM      6  H   UNL     1     -11.580 -26.473 -12.917  1.00  0.00     0.345 HD
ENDBRANCH   2   3
BRANCH   2   7
ATOM      7  C   UNL     1     -14.589 -27.889 -12.512  1.00  0.00     0.100 C 
ATOM      8  O   UNL     1     -14.543 -28.633 -11.495  1.00  0.00    -0.544 OA
ATOM      9  O   UNL     1     -15.803 -27.334 -12.896  1.00  0.00    -0.544 OA
ENDBRANCH   2   7
ENDBRANCH   1   2
BRANCH   1  10
ATOM     10  C   UNL     1     -13.502 -25.130 -14.056  1.00  0.00     0.223 C 
ATOM     11  O   UNL     1     -12.399 -24.540 -14.200  1.00  0.00    -0.275 OA
ATOM     12  N   UNL     1     -14.626 -24.414 -13.545  1.00  0.00    -0.369 N 
ATOM     13  H   UNL     1     -15.551 -24.885 -13.427  1.00  0.00     0.159 HD
ATOM     14  H   UNL     1     -14.536 -23.406 -13.289  1.00  0.00     0.159 HD
ENDBRANCH   1  10
TORSDOF 4
ENDMDL
MODEL 7
REMARK VINA RESULT:    -4.323      1.821      2.022
REMARK INTER + INTRA:          -5.248
REMARK INTER:                  -5.037
REMARK INTRA:                  -0.211
REMARK UNBOUND:                -0.040
REMARK SMILES NC(=O)C[C@@H]([NH3+])C(=O)[O-]
REMARK SMILES IDX 4 1 5 2 6 3 7 7 8 8 9 9 2 10 3 11 1 12
REMARK H PARENT 6 4 6 5 6 6 1 13 1 14
REMARK Flexibility Score: inf
ROOT
ATOM      1  C   UNL     1     -14.339 -26.587 -11.833  1.00  0.00     0.171 C 
ENDROOT
BRANCH   1   2
ATOM      2  C   UNL     1     -14.571 -25.880 -13.185  1.00  0.00     0.237 C 
BRANCH   2   3
ATOM      3  N   UNL     1     -14.814 -24.441 -13.016  1.00  0.00    -0.350 N 
ATOM      4  H   UNL     1     -14.108 -24.037 -12.359  1.00  0.00     0.345 HD
ATOM      5  H   UNL     1     -15.765 -24.292 -12.606  1.00  0.00     0.345 HD
ATOM      6  H   UNL     1     -14.758 -23.936 -13.930  1.00  0.00     0.345 HD
ENDBRANCH   2   3
BRANCH   2   7
ATOM      7  C   UNL     1     -13.434 -26.135 -14.143  1.00  0.00     0.100 C 
ATOM      8  O   UNL     1     -13.463 -27.118 -14.933  1.00  0.00    -0.544 OA
ATOM      9  O   UNL     1     -12.365 -25.250 -14.196  1.00  0.00    -0.544 OA
ENDBRANCH   2   7
ENDBRANCH   1   2
BRANCH   1  10
ATOM     10  C   UNL     1     -14.733 -28.039 -11.846  1.00  0.00     0.223 C 
ATOM     11  O   UNL     1     -14.367 -28.795 -10.907  1.00  0.00    -0.275 OA
ATOM     12  N   UNL     1     -15.536 -28.563 -12.903  1.00  0.00    -0.369 N 
ATOM     13  H   UNL     1     -15.856 -27.949 -13.684  1.00  0.00     0.159 HD
ATOM     14  H   UNL     1     -15.817 -29.569 -12.902  1.00  0.00     0.159 HD
ENDBRANCH   1  10
TORSDOF 4
ENDMDL
MODEL 8
REMARK VINA RESULT:    -4.196      1.289      1.691
REMARK INTER + INTRA:          -5.095
REMARK INTER:                  -4.812
REMARK INTRA:                  -0.283
REMARK UNBOUND:                -0.040
REMARK SMILES NC(=O)C[C@@H]([NH3+])C(=O)[O-]
REMARK SMILES IDX 4 1 5 2 6 3 7 7 8 8 9 9 2 10 3 11 1 12
REMARK H PARENT 6 4 6 5 6 6 1 13 1 14
REMARK Flexibility Score: inf
ROOT
ATOM      1  C   UNL     1     -15.094 -27.222 -12.686  1.00  0.00     0.171 C 
ENDROOT
BRANCH   1   2
ATOM      2  C   UNL     1     -14.035 -26.150 -12.353  1.00  0.00     0.237 C 
BRANCH   2   3
ATOM      3  N   UNL     1     -12.736 -26.748 -12.017  1.00  0.00    -0.350 N 
ATOM      4  H   UNL     1     -11.989 -26.335 -12.621  1.00  0.00     0.345 HD
ATOM      5  H   UNL     1     -12.767 -27.778 -12.197  1.00  0.00     0.345 HD
ATOM      6  H   UNL     1     -12.492 -26.588 -11.013  1.00  0.00     0.345 HD
ENDBRANCH   2   3
BRANCH   2   7
ATOM      7  C   UNL     1     -13.903 -25.141 -13.467  1.00  0.00     0.100 C 
ATOM      8  O   UNL     1     -14.879 -24.415 -13.799  1.00  0.00    -0.544 OA
ATOM      9  O   UNL     1     -12.679 -24.970 -14.100  1.00  0.00    -0.544 OA
ENDBRANCH   2   7
ENDBRANCH   1   2
BRANCH   1  10
ATOM     10  C   UNL     1     -14.699 -28.605 -12.245  1.00  0.00     0.223 C 
ATOM     11  O   UNL     1     -14.565 -28.857 -11.018  1.00  0.00    -0.275 OA
ATOM     12  N   UNL     1     -14.495 -29.641 -13.205  1.00  0.00    -0.369 N 
ATOM     13  H   UNL     1     -14.611 -29.453 -14.226  1.00  0.00     0.159 HD
ATOM     14  H   UNL     1     -14.231 -30.603 -12.895  1.00  0.00     0.159 HD
ENDBRANCH   1  10
TORSDOF 4
ENDMDL
MODEL 9
REMARK VINA RESULT:    -4.094      1.610      3.951
REMARK INTER + INTRA:          -4.972
REMARK INTER:                  -4.631
REMARK INTRA:                  -0.341
REMARK UNBOUND:                -0.040
REMARK SMILES NC(=O)C[C@@H]([NH3+])C(=O)[O-]
REMARK SMILES IDX 4 1 5 2 6 3 7 7 8 8 9 9 2 10 3 11 1 12
REMARK H PARENT 6 4 6 5 6 6 1 13 1 14
REMARK Flexibility Score: inf
ROOT
ATOM      1  C   UNL     1     -14.183 -26.278 -13.242  1.00  0.00     0.171 C 
ENDROOT
BRANCH   1   2
ATOM      2  C   UNL     1     -14.165 -27.817 -13.365  1.00  0.00     0.237 C 
BRANCH   2   3
ATOM      3  N   UNL     1     -13.384 -28.264 -14.527  1.00  0.00    -0.350 N 
ATOM      4  H   UNL     1     -14.025 -28.663 -15.251  1.00  0.00     0.345 HD
ATOM      5  H   UNL     1     -12.716 -29.014 -14.233  1.00  0.00     0.345 HD
ATOM      6  H   UNL     1     -12.843 -27.475 -14.947  1.00  0.00     0.345 HD
ENDBRANCH   2   3
BRANCH   2   7
ATOM      7  C   UNL     1     -13.677 -28.466 -12.093  1.00  0.00     0.100 C 
ATOM      8  O   UNL     1     -14.403 -28.492 -11.063  1.00  0.00    -0.544 OA
ATOM      9  O   UNL     1     -12.437 -29.090 -12.070  1.00  0.00    -0.544 OA
ENDBRANCH   2   7
ENDBRANCH   1   2
BRANCH   1  10
ATOM     10  C   UNL     1     -13.034 -25.611 -13.947  1.00  0.00     0.223 C 
ATOM     11  O   UNL     1     -11.863 -25.750 -13.505  1.00  0.00    -0.275 OA
ATOM     12  N   UNL     1     -13.257 -24.836 -15.124  1.00  0.00    -0.369 N 
ATOM     13  H   UNL     1     -14.221 -24.718 -15.510  1.00  0.00     0.159 HD
ATOM     14  H   UNL     1     -12.456 -24.384 -15.617  1.00  0.00     0.159 HD
ENDBRANCH   1  10
TORSDOF 4
ENDMDL
