MODEL 1
REMARK VINA RESULT:    -5.497      0.000      0.000
REMARK INTER + INTRA:          -7.682
REMARK INTER:                  -7.426
REMARK INTRA:                  -0.257
REMARK UNBOUND:                -0.257
REMARK SMILES CCCCCCCC(=O)[O-]
REMARK SMILES IDX 5 1 6 2 7 3 8 4 9 5 10 6 4 7 3 8 2 9 1 10
REMARK H PARENT
REMARK Flexibility Score: inf
ROOT
ATOM      1  C   UNL     1     -22.800 -22.668  31.860  1.00  0.00     0.000 C 
ENDROOT
BRANCH   1   2
ATOM      2  C   UNL     1     -21.737 -21.622  31.482  1.00  0.00     0.006 C 
BRANCH   2   3
ATOM      3  C   UNL     1     -22.308 -20.513  30.589  1.00  0.00     0.053 C 
BRANCH   3   4
ATOM      4  C   UNL     1     -21.758 -20.582  29.196  1.00  0.00     0.041 C 
ATOM      5  O   UNL     1     -21.830 -21.653  28.539  1.00  0.00    -0.550 OA
ATOM      6  O   UNL     1     -21.139 -19.471  28.638  1.00  0.00    -0.550 OA
ENDBRANCH   3   4
ENDBRANCH   2   3
ENDBRANCH   1   2
BRANCH   1   7
ATOM      7  C   UNL     1     -22.707 -23.941  31.005  1.00  0.00     0.000 C 
BRANCH   7   8
ATOM      8  C   UNL     1     -23.708 -25.023  31.440  1.00  0.00    -0.000 C 
BRANCH   8   9
ATOM      9  C   UNL     1     -24.185 -25.844  30.236  1.00  0.00    -0.003 C 
ATOM     10  C   UNL     1     -23.422 -25.462  28.970  1.00  0.00     0.004 C 
ENDBRANCH   8   9
ENDBRANCH   7   8
ENDBRANCH   1   7
TORSDOF 6
ENDMDL
MODEL 2
REMARK VINA RESULT:    -5.444      1.216      1.675
REMARK INTER + INTRA:          -7.610
REMARK INTER:                  -7.420
REMARK INTRA:                  -0.190
REMARK UNBOUND:                -0.257
REMARK SMILES CCCCCCCC(=O)[O-]
REMARK SMILES IDX 5 1 6 2 7 3 8 4 9 5 10 6 4 7 3 8 2 9 1 10
REMARK H PARENT
REMARK Flexibility Score: inf
ROOT
ATOM      1  C   UNL     1     -22.367 -22.027  31.525  1.00  0.00     0.000 C 
ENDROOT
BRANCH   1   2
ATOM      2  C   UNL     1     -22.213 -20.873  30.520  1.00  0.00     0.006 C 
BRANCH   2   3
ATOM      3  C   UNL     1     -21.314 -19.753  31.058  1.00  0.00     0.053 C 
BRANCH   3   4
ATOM      4  C   UNL     1     -20.544 -19.082  29.961  1.00  0.00     0.041 C 
ATOM      5  O   UNL     1     -19.379 -18.657  30.173  1.00  0.00    -0.550 OA
ATOM      6  O   UNL     1     -21.127 -18.900  28.714  1.00  0.00    -0.550 OA
ENDBRANCH   3   4
ENDBRANCH   2   3
ENDBRANCH   1   2
BRANCH   1   7
ATOM      7  C   UNL     1     -22.338 -23.408  30.850  1.00  0.00     0.000 C 
BRANCH   7   8
ATOM      8  C   UNL     1     -23.370 -24.380  31.440  1.00  0.00    -0.000 C 
BRANCH   8   9
ATOM      9  C   UNL     1     -23.808 -25.414  30.397  1.00  0.00    -0.003 C 
ATOM     10  C   UNL     1     -23.349 -25.016  28.997  1.00  0.00     0.004 C 
ENDBRANCH   8   9
ENDBRANCH   7   8
ENDBRANCH   1   7
TORSDOF 6
ENDMDL
MODEL 3
REMARK VINA RESULT:    -5.403      2.480      5.294
REMARK INTER + INTRA:          -7.554
REMARK INTER:                  -7.381
REMARK INTRA:                  -0.173
REMARK UNBOUND:                -0.257
REMARK SMILES CCCCCCCC(=O)[O-]
REMARK SMILES IDX 5 1 6 2 7 3 8 4 9 5 10 6 4 7 3 8 2 9 1 10
REMARK H PARENT
REMARK Flexibility Score: inf
ROOT
ATOM      1  C   UNL     1     -22.235 -21.961  31.549  1.00  0.00     0.000 C 
ENDROOT
BRANCH   1   2
ATOM      2  C   UNL     1     -22.268 -23.204  30.643  1.00  0.00     0.006 C 
BRANCH   2   3
ATOM      3  C   UNL     1     -23.093 -24.344  31.255  1.00  0.00     0.053 C 
BRANCH   3   4
ATOM      4  C   UNL     1     -23.840 -25.114  30.208  1.00  0.00     0.041 C 
ATOM      5  O   UNL     1     -23.473 -25.067  29.004  1.00  0.00    -0.550 OA
ATOM      6  O   UNL     1     -24.958 -25.859  30.558  1.00  0.00    -0.550 OA
ENDBRANCH   3   4
ENDBRANCH   2   3
ENDBRANCH   1   2
BRANCH   1   7
ATOM      7  C   UNL     1     -22.025 -20.660  30.759  1.00  0.00     0.000 C 
BRANCH   7   8
ATOM      8  C   UNL     1     -20.978 -19.738  31.402  1.00  0.00    -0.000 C 
BRANCH   8   9
ATOM      9  C   UNL     1     -20.579 -18.610  30.444  1.00  0.00    -0.003 C 
ATOM     10  C   UNL     1     -20.981 -18.937  29.008  1.00  0.00     0.004 C 
ENDBRANCH   8   9
ENDBRANCH   7   8
ENDBRANCH   1   7
TORSDOF 6
ENDMDL
MODEL 4
REMARK VINA RESULT:    -5.380      3.292      5.261
REMARK INTER + INTRA:          -7.524
REMARK INTER:                  -7.304
REMARK INTRA:                  -0.220
REMARK UNBOUND:                -0.257
REMARK SMILES CCCCCCCC(=O)[O-]
REMARK SMILES IDX 5 1 6 2 7 3 8 4 9 5 10 6 4 7 3 8 2 9 1 10
REMARK H PARENT
REMARK Flexibility Score: inf
ROOT
ATOM      1  C   UNL     1     -22.269 -23.351  30.564  1.00  0.00     0.000 C 
ENDROOT
BRANCH   1   2
ATOM      2  C   UNL     1     -23.075 -24.590  30.988  1.00  0.00     0.006 C 
BRANCH   2   3
ATOM      3  C   UNL     1     -23.656 -25.343  29.784  1.00  0.00     0.053 C 
BRANCH   3   4
ATOM      4  C   UNL     1     -25.019 -25.894  30.077  1.00  0.00     0.041 C 
ATOM      5  O   UNL     1     -25.804 -26.176  29.135  1.00  0.00    -0.550 OA
ATOM      6  O   UNL     1     -25.430 -26.067  31.392  1.00  0.00    -0.550 OA
ENDBRANCH   3   4
ENDBRANCH   2   3
ENDBRANCH   1   2
BRANCH   1   7
ATOM      7  C   UNL     1     -22.258 -22.255  31.641  1.00  0.00     0.000 C 
BRANCH   7   8
ATOM      8  C   UNL     1     -21.919 -20.868  31.074  1.00  0.00    -0.000 C 
BRANCH   8   9
ATOM      9  C   UNL     1     -22.081 -20.844  29.550  1.00  0.00    -0.003 C 
ATOM     10  C   UNL     1     -21.353 -19.649  28.937  1.00  0.00     0.004 C 
ENDBRANCH   8   9
ENDBRANCH   7   8
ENDBRANCH   1   7
TORSDOF 6
ENDMDL
MODEL 5
REMARK VINA RESULT:    -5.361      2.020      4.936
REMARK INTER + INTRA:          -7.497
REMARK INTER:                  -7.239
REMARK INTRA:                  -0.258
REMARK UNBOUND:                -0.257
REMARK SMILES CCCCCCCC(=O)[O-]
REMARK SMILES IDX 5 1 6 2 7 3 8 4 9 5 10 6 4 7 3 8 2 9 1 10
REMARK H PARENT
REMARK Flexibility Score: inf
ROOT
ATOM      1  C   UNL     1     -21.255 -21.181  31.717  1.00  0.00     0.000 C 
ENDROOT
BRANCH   1   2
ATOM      2  C   UNL     1     -22.470 -22.067  31.395  1.00  0.00     0.006 C 
BRANCH   2   3
ATOM      3  C   UNL     1     -22.072 -23.344  30.644  1.00  0.00     0.053 C 
BRANCH   3   4
ATOM      4  C   UNL     1     -22.494 -23.299  29.207  1.00  0.00     0.041 C 
ATOM      5  O   UNL     1     -23.057 -24.293  28.680  1.00  0.00    -0.550 OA
ATOM      6  O   UNL     1     -22.237 -22.168  28.442  1.00  0.00    -0.550 OA
ENDBRANCH   3   4
ENDBRANCH   2   3
ENDBRANCH   1   2
BRANCH   1   7
ATOM      7  C   UNL     1     -21.386 -19.764  31.137  1.00  0.00     0.000 C 
BRANCH   7   8
ATOM      8  C   UNL     1     -20.106 -18.932  31.306  1.00  0.00    -0.000 C 
BRANCH   8   9
ATOM      9  C   UNL     1     -19.627 -18.382  29.957  1.00  0.00    -0.003 C 
ATOM     10  C   UNL     1     -20.792 -18.218  28.984  1.00  0.00     0.004 C 
ENDBRANCH   8   9
ENDBRANCH   7   8
ENDBRANCH   1   7
TORSDOF 6
ENDMDL
MODEL 6
REMARK VINA RESULT:    -5.337      2.102      3.000
REMARK INTER + INTRA:          -7.465
REMARK INTER:                  -7.264
REMARK INTRA:                  -0.201
REMARK UNBOUND:                -0.257
REMARK SMILES CCCCCCCC(=O)[O-]
REMARK SMILES IDX 5 1 6 2 7 3 8 4 9 5 10 6 4 7 3 8 2 9 1 10
REMARK H PARENT
REMARK Flexibility Score: inf
ROOT
ATOM      1  C   UNL     1     -22.327 -20.916  30.281  1.00  0.00     0.000 C 
ENDROOT
BRANCH   1   2
ATOM      2  C   UNL     1     -21.323 -19.820  29.884  1.00  0.00     0.006 C 
BRANCH   2   3
ATOM      3  C   UNL     1     -20.740 -19.099  31.106  1.00  0.00     0.053 C 
BRANCH   3   4
ATOM      4  C   UNL     1     -19.443 -18.421  30.785  1.00  0.00     0.041 C 
ATOM      5  O   UNL     1     -18.908 -18.577  29.656  1.00  0.00    -0.550 OA
ATOM      6  O   UNL     1     -18.810 -17.641  31.744  1.00  0.00    -0.550 OA
ENDBRANCH   3   4
ENDBRANCH   2   3
ENDBRANCH   1   2
BRANCH   1   7
ATOM      7  C   UNL     1     -21.918 -21.654  31.565  1.00  0.00     0.000 C 
BRANCH   7   8
ATOM      8  C   UNL     1     -22.858 -22.821  31.905  1.00  0.00    -0.000 C 
BRANCH   8   9
ATOM      9  C   UNL     1     -22.615 -24.011  30.970  1.00  0.00    -0.003 C 
ATOM     10  C   UNL     1     -23.685 -25.085  31.154  1.00  0.00     0.004 C 
ENDBRANCH   8   9
ENDBRANCH   7   8
ENDBRANCH   1   7
TORSDOF 6
ENDMDL
MODEL 7
REMARK VINA RESULT:    -5.293      3.629      5.847
REMARK INTER + INTRA:          -7.406
REMARK INTER:                  -7.121
REMARK INTRA:                  -0.285
REMARK UNBOUND:                -0.257
REMARK SMILES CCCCCCCC(=O)[O-]
REMARK SMILES IDX 5 1 6 2 7 3 8 4 9 5 10 6 4 7 3 8 2 9 1 10
REMARK H PARENT
REMARK Flexibility Score: inf
ROOT
ATOM      1  C   UNL     1     -23.169 -24.695  29.053  1.00  0.00     0.000 C 
ENDROOT
BRANCH   1   2
ATOM      2  C   UNL     1     -23.708 -26.135  29.045  1.00  0.00     0.006 C 
BRANCH   2   3
ATOM      3  C   UNL     1     -25.206 -26.194  29.373  1.00  0.00     0.053 C 
BRANCH   3   4
ATOM      4  C   UNL     1     -25.471 -26.966  30.629  1.00  0.00     0.041 C 
ATOM      5  O   UNL     1     -25.021 -26.557  31.731  1.00  0.00    -0.550 OA
ATOM      6  O   UNL     1     -26.190 -28.153  30.577  1.00  0.00    -0.550 OA
ENDBRANCH   3   4
ENDBRANCH   2   3
ENDBRANCH   1   2
BRANCH   1   7
ATOM      7  C   UNL     1     -22.812 -24.205  30.465  1.00  0.00     0.000 C 
BRANCH   7   8
ATOM      8  C   UNL     1     -22.152 -22.818  30.464  1.00  0.00    -0.000 C 
BRANCH   8   9
ATOM      9  C   UNL     1     -22.184 -22.196  29.064  1.00  0.00    -0.003 C 
ATOM     10  C   UNL     1     -22.190 -20.672  29.137  1.00  0.00     0.004 C 
ENDBRANCH   8   9
ENDBRANCH   7   8
ENDBRANCH   1   7
TORSDOF 6
ENDMDL
MODEL 8
REMARK VINA RESULT:    -5.289      2.618      3.753
REMARK INTER + INTRA:          -7.401
REMARK INTER:                  -7.155
REMARK INTRA:                  -0.246
REMARK UNBOUND:                -0.257
REMARK SMILES CCCCCCCC(=O)[O-]
REMARK SMILES IDX 5 1 6 2 7 3 8 4 9 5 10 6 4 7 3 8 2 9 1 10
REMARK H PARENT
REMARK Flexibility Score: inf
ROOT
ATOM      1  C   UNL     1     -21.387 -19.679  30.725  1.00  0.00     0.000 C 
ENDROOT
BRANCH   1   2
ATOM      2  C   UNL     1     -20.819 -19.193  29.381  1.00  0.00     0.006 C 
BRANCH   2   3
ATOM      3  C   UNL     1     -20.613 -17.673  29.354  1.00  0.00     0.053 C 
BRANCH   3   4
ATOM      4  C   UNL     1     -19.199 -17.298  29.680  1.00  0.00     0.041 C 
ATOM      5  O   UNL     1     -18.917 -16.804  30.803  1.00  0.00    -0.550 OA
ATOM      6  O   UNL     1     -18.199 -17.466  28.731  1.00  0.00    -0.550 OA
ENDBRANCH   3   4
ENDBRANCH   2   3
ENDBRANCH   1   2
BRANCH   1   7
ATOM      7  C   UNL     1     -22.371 -20.848  30.564  1.00  0.00     0.000 C 
BRANCH   7   8
ATOM      8  C   UNL     1     -22.046 -22.030  31.490  1.00  0.00    -0.000 C 
BRANCH   8   9
ATOM      9  C   UNL     1     -22.410 -23.363  30.828  1.00  0.00    -0.003 C 
ATOM     10  C   UNL     1     -22.109 -23.336  29.331  1.00  0.00     0.004 C 
ENDBRANCH   8   9
ENDBRANCH   7   8
ENDBRANCH   1   7
TORSDOF 6
ENDMDL
MODEL 9
REMARK VINA RESULT:    -5.191      4.380      6.415
REMARK INTER + INTRA:          -7.268
REMARK INTER:                  -7.038
REMARK INTRA:                  -0.230
REMARK UNBOUND:                -0.257
REMARK SMILES CCCCCCCC(=O)[O-]
REMARK SMILES IDX 5 1 6 2 7 3 8 4 9 5 10 6 4 7 3 8 2 9 1 10
REMARK H PARENT
REMARK Flexibility Score: inf
ROOT
ATOM      1  C   UNL     1     -24.184 -25.352  30.133  1.00  0.00     0.000 C 
ENDROOT
BRANCH   1   2
ATOM      2  C   UNL     1     -25.429 -26.124  29.665  1.00  0.00     0.006 C 
BRANCH   2   3
ATOM      3  C   UNL     1     -25.099 -27.146  28.569  1.00  0.00     0.053 C 
BRANCH   3   4
ATOM      4  C   UNL     1     -26.244 -28.079  28.314  1.00  0.00     0.041 C 
ATOM      5  O   UNL     1     -26.680 -28.242  27.145  1.00  0.00    -0.550 OA
ATOM      6  O   UNL     1     -26.847 -28.744  29.374  1.00  0.00    -0.550 OA
ENDBRANCH   3   4
ENDBRANCH   2   3
ENDBRANCH   1   2
BRANCH   1   7
ATOM      7  C   UNL     1     -23.283 -24.920  28.965  1.00  0.00     0.000 C 
BRANCH   7   8
ATOM      8  C   UNL     1     -22.448 -23.672  29.288  1.00  0.00    -0.000 C 
BRANCH   8   9
ATOM      9  C   UNL     1     -22.361 -23.447  30.802  1.00  0.00    -0.003 C 
ATOM     10  C   UNL     1     -22.224 -21.963  31.132  1.00  0.00     0.004 C 
ENDBRANCH   8   9
ENDBRANCH   7   8
ENDBRANCH   1   7
TORSDOF 6
ENDMDL
