MODEL 1
REMARK VINA RESULT:    -2.758      0.000      0.000
REMARK INTER + INTRA:          -3.689
REMARK INTER:                  -3.887
REMARK INTRA:                   0.198
REMARK UNBOUND:                 0.198
REMARK SMILES CC1=CCC(=C(C)C)C(=O)CC(C)=CCC1
REMARK SMILES IDX 12 1 14 2 13 3 15 4 16 5 2 6 1 7 3 8 11 10 9 11 10 12 5 13
REMARK SMILES IDX 6 14 7 15 8 16 4 17
REMARK H PARENT
REMARK Flexibility Score: 60.00
ROOT
ATOM      1  C   UNL     1      63.492  15.722  -2.320  1.00  0.00    -0.070 C 
ATOM      2  C   UNL     1      64.622  16.236  -1.767  1.00  0.00    -0.027 C 
ATOM      3  C   UNL     1      63.496  15.534  -3.819  1.00  0.00     0.039 C 
ENDROOT
BRANCH   2   4
ATOM      4  C   UNL     1      64.838  16.630  -0.324  1.00  0.00     0.032 C 
BRANCH   4   5
ATOM      5  C   UNL     1      64.934  15.451   0.657  1.00  0.00     0.034 C 
BRANCH   5   6
ATOM      6  C   UNL     1      64.005  15.516   1.856  1.00  0.00    -0.077 C 
ATOM      7  C   UNL     1      64.106  16.697   2.790  1.00  0.00     0.039 C 
ATOM      8  C   UNL     1      63.022  14.613   2.088  1.00  0.00    -0.023 CG0
ATOM      9  G   UNL     1      62.851  13.303   1.367  1.00  0.00     0.000 G0
ENDBRANCH   5   6
ENDBRANCH   4   5
ENDBRANCH   2   4
BRANCH   1  10
ATOM     10  C   UNL     1      62.279  15.210  -1.550  1.00  0.00     0.111 C 
BRANCH  10  11
ATOM     11  C   UNL     1      62.353  13.781  -1.090  1.00  0.00     0.163 C 
ATOM     12  O   UNL     1      62.940  12.924  -1.805  1.00  0.00    -0.294 OA
BRANCH  11  13
ATOM     13  C   UNL     1      61.844  13.394   0.250  1.00  0.00    -0.002 C 
ATOM     14  C   UNL     1      60.525  13.094   0.415  1.00  0.00    -0.069 C 
ATOM     15  C   UNL     1      59.972  12.654   1.748  1.00  0.00     0.039 C 
ATOM     16  C   UNL     1      59.568  13.170  -0.754  1.00  0.00     0.039 C 
BRANCH  13  17
ATOM     17  C   UNL     1      62.858  13.291   1.380  1.00  0.00     0.066 CG0
ATOM     18  G   UNL     1      63.004  14.624   2.065  1.00  0.00     0.000 G0
ENDBRANCH  13  17
ENDBRANCH  11  13
ENDBRANCH  10  11
ENDBRANCH   1  10
TORSDOF 0
ENDMDL
MODEL 2
REMARK VINA RESULT:    -2.685     11.512     12.755
REMARK INTER + INTRA:          -3.586
REMARK INTER:                  -3.721
REMARK INTRA:                   0.135
REMARK UNBOUND:                 0.198
REMARK SMILES CC1=CCC(=C(C)C)C(=O)CC(C)=CCC1
REMARK SMILES IDX 12 1 14 2 13 3 15 4 16 5 2 6 1 7 3 8 11 10 9 11 10 12 5 13
REMARK SMILES IDX 6 14 7 15 8 16 4 17
REMARK H PARENT
REMARK Flexibility Score: 60.00
ROOT
ATOM      1  C   UNL     1      54.874   7.807   5.341  1.00  0.00    -0.070 C 
ATOM      2  C   UNL     1      55.671   8.534   6.167  1.00  0.00    -0.027 C 
ATOM      3  C   UNL     1      54.207   8.554   4.211  1.00  0.00     0.039 C 
ENDROOT
BRANCH   2   4
ATOM      4  C   UNL     1      56.356   8.064   7.429  1.00  0.00     0.032 C 
BRANCH   4   5
ATOM      5  C   UNL     1      57.613   7.210   7.198  1.00  0.00     0.034 C 
BRANCH   5   6
ATOM      6  C   UNL     1      57.605   5.839   7.851  1.00  0.00    -0.077 C 
ATOM      7  C   UNL     1      57.597   5.752   9.357  1.00  0.00     0.039 C 
ATOM      8  C   UNL     1      57.515   4.681   7.153  1.00  0.00    -0.023 CG0
ATOM      9  G   UNL     1      57.657   4.547   5.660  1.00  0.00     0.000 G0
ENDBRANCH   5   6
ENDBRANCH   4   5
ENDBRANCH   2   4
BRANCH   1  10
ATOM     10  C   UNL     1      54.695   6.293   5.385  1.00  0.00     0.111 C 
BRANCH  10  11
ATOM     11  C   UNL     1      55.598   5.502   4.479  1.00  0.00     0.163 C 
ATOM     12  O   UNL     1      55.827   5.915   3.310  1.00  0.00    -0.294 OA
BRANCH  11  13
ATOM     13  C   UNL     1      56.312   4.304   4.987  1.00  0.00    -0.002 C 
ATOM     14  C   UNL     1      55.773   3.066   4.809  1.00  0.00    -0.069 C 
ATOM     15  C   UNL     1      56.484   1.816   5.270  1.00  0.00     0.039 C 
ATOM     16  C   UNL     1      54.441   2.900   4.112  1.00  0.00     0.039 C 
BRANCH  13  17
ATOM     17  C   UNL     1      57.669   4.524   5.642  1.00  0.00     0.066 CG0
ATOM     18  G   UNL     1      57.507   4.661   7.133  1.00  0.00     0.000 G0
ENDBRANCH  13  17
ENDBRANCH  11  13
ENDBRANCH  10  11
ENDBRANCH   1  10
TORSDOF 0
ENDMDL
MODEL 3
REMARK VINA RESULT:    -2.476      2.309      3.736
REMARK INTER + INTRA:          -3.292
REMARK INTER:                  -3.912
REMARK INTRA:                   0.619
REMARK UNBOUND:                 0.198
REMARK SMILES CC1=CCC(=C(C)C)C(=O)CC(C)=CCC1
REMARK SMILES IDX 12 1 14 2 13 3 15 4 16 5 2 6 1 7 3 8 11 10 9 11 10 12 5 13
REMARK SMILES IDX 6 14 7 15 8 16 4 17
REMARK H PARENT
REMARK Flexibility Score: 60.00
ROOT
ATOM      1  C   UNL     1      62.533  14.912  -2.208  1.00  0.00    -0.070 C 
ATOM      2  C   UNL     1      62.348  13.566  -2.205  1.00  0.00    -0.027 C 
ATOM      3  C   UNL     1      63.507  15.461  -3.224  1.00  0.00     0.039 C 
ENDROOT
BRANCH   2   4
ATOM      4  C   UNL     1      61.529  12.755  -1.228  1.00  0.00     0.032 C 
BRANCH   4   5
ATOM      5  C   UNL     1      61.874  12.994   0.251  1.00  0.00     0.034 C 
BRANCH   5   6
ATOM      6  C   UNL     1      60.701  13.340   1.152  1.00  0.00    -0.077 C 
ATOM      7  C   UNL     1      59.462  12.482   1.092  1.00  0.00     0.039 C 
ATOM      8  C   UNL     1      60.737  14.329   2.077  1.00  0.00    -0.023 CG0
ATOM      9  G   UNL     1      61.812  15.378   2.193  1.00  0.00     0.000 G0
ENDBRANCH   5   6
ENDBRANCH   4   5
ENDBRANCH   2   4
BRANCH   1  10
ATOM     10  C   UNL     1      61.756  15.917  -1.365  1.00  0.00     0.111 C 
BRANCH  10  11
ATOM     11  C   UNL     1      62.425  16.358  -0.093  1.00  0.00     0.163 C 
ATOM     12  O   UNL     1      63.633  16.721  -0.115  1.00  0.00    -0.294 OA
BRANCH  11  13
ATOM     13  C   UNL     1      61.646  16.480   1.165  1.00  0.00    -0.002 C 
ATOM     14  C   UNL     1      60.767  17.508   1.323  1.00  0.00    -0.069 C 
ATOM     15  C   UNL     1      59.923  17.647   2.566  1.00  0.00     0.039 C 
ATOM     16  C   UNL     1      60.589  18.541   0.232  1.00  0.00     0.039 C 
BRANCH  13  17
ATOM     17  C   UNL     1      61.832  15.389   2.211  1.00  0.00     0.066 CG0
ATOM     18  G   UNL     1      60.757  14.345   2.066  1.00  0.00     0.000 G0
ENDBRANCH  13  17
ENDBRANCH  11  13
ENDBRANCH  10  11
ENDBRANCH   1  10
TORSDOF 0
ENDMDL
MODEL 4
REMARK VINA RESULT:    -2.427      2.554      3.497
REMARK INTER + INTRA:          -3.223
REMARK INTER:                  -3.880
REMARK INTRA:                   0.657
REMARK UNBOUND:                 0.198
REMARK SMILES CC1=CCC(=C(C)C)C(=O)CC(C)=CCC1
REMARK SMILES IDX 12 1 14 2 13 3 15 4 16 5 2 6 1 7 3 8 11 10 9 11 10 12 5 13
REMARK SMILES IDX 6 14 7 15 8 16 4 17
REMARK H PARENT
REMARK Flexibility Score: 60.00
ROOT
ATOM      1  C   UNL     1      61.676  13.060  -1.441  1.00  0.00    -0.070 C 
ATOM      2  C   UNL     1      62.811  13.617  -1.937  1.00  0.00    -0.027 C 
ATOM      3  C   UNL     1      61.693  11.566  -1.218  1.00  0.00     0.039 C 
ENDROOT
BRANCH   2   4
ATOM      4  C   UNL     1      63.020  15.053  -2.359  1.00  0.00     0.032 C 
BRANCH   4   5
ATOM      5  C   UNL     1      64.165  15.776  -1.631  1.00  0.00     0.034 C 
BRANCH   5   6
ATOM      6  C   UNL     1      63.948  16.025  -0.149  1.00  0.00    -0.077 C 
ATOM      7  C   UNL     1      65.045  15.652   0.818  1.00  0.00     0.039 C 
ATOM      8  C   UNL     1      62.855  16.648   0.351  1.00  0.00    -0.023 CG0
ATOM      9  G   UNL     1      61.599  16.963  -0.419  1.00  0.00     0.000 G0
ENDBRANCH   5   6
ENDBRANCH   4   5
ENDBRANCH   2   4
BRANCH   1  10
ATOM     10  C   UNL     1      60.440  13.826  -0.977  1.00  0.00     0.111 C 
BRANCH  10  11
ATOM     11  C   UNL     1      60.623  14.681   0.246  1.00  0.00     0.163 C 
ATOM     12  O   UNL     1      61.036  14.160   1.317  1.00  0.00    -0.294 OA
BRANCH  11  13
ATOM     13  C   UNL     1      60.432  16.152   0.171  1.00  0.00    -0.002 C 
ATOM     14  C   UNL     1      59.284  16.712   0.641  1.00  0.00    -0.069 C 
ATOM     15  C   UNL     1      59.065  18.206   0.625  1.00  0.00     0.039 C 
ATOM     16  C   UNL     1      58.188  15.847   1.224  1.00  0.00     0.039 C 
BRANCH  13  17
ATOM     17  C   UNL     1      61.584  16.978  -0.385  1.00  0.00     0.066 CG0
ATOM     18  G   UNL     1      62.860  16.636   0.338  1.00  0.00     0.000 G0
ENDBRANCH  13  17
ENDBRANCH  11  13
ENDBRANCH  10  11
ENDBRANCH   1  10
TORSDOF 0
ENDMDL
MODEL 5
REMARK VINA RESULT:    -2.399     12.062     14.041
REMARK INTER + INTRA:          -3.184
REMARK INTER:                  -3.405
REMARK INTRA:                   0.222
REMARK UNBOUND:                 0.198
REMARK SMILES CC1=CCC(=C(C)C)C(=O)CC(C)=CCC1
REMARK SMILES IDX 12 1 14 2 13 3 15 4 16 5 2 6 1 7 3 8 11 10 9 11 10 12 5 13
REMARK SMILES IDX 6 14 7 15 8 16 4 17
REMARK H PARENT
REMARK Flexibility Score: 60.00
ROOT
ATOM      1  C   UNL     1      54.647   1.665   3.463  1.00  0.00    -0.070 C 
ATOM      2  C   UNL     1      55.696   0.967   3.972  1.00  0.00    -0.027 C 
ATOM      3  C   UNL     1      53.390   0.882   3.167  1.00  0.00     0.039 C 
ENDROOT
BRANCH   2   4
ATOM      4  C   UNL     1      57.092   1.477   4.244  1.00  0.00     0.032 C 
BRANCH   4   5
ATOM      5  C   UNL     1      57.186   2.523   5.367  1.00  0.00     0.034 C 
BRANCH   5   6
ATOM      6  C   UNL     1      57.831   3.843   4.983  1.00  0.00    -0.077 C 
ATOM      7  C   UNL     1      59.213   3.827   4.378  1.00  0.00     0.039 C 
ATOM      8  C   UNL     1      57.197   5.037   5.071  1.00  0.00    -0.023 CG0
ATOM      9  G   UNL     1      55.888   5.281   5.773  1.00  0.00     0.000 G0
ENDBRANCH   5   6
ENDBRANCH   4   5
ENDBRANCH   2   4
BRANCH   1  10
ATOM     10  C   UNL     1      54.591   3.179   3.283  1.00  0.00     0.111 C 
BRANCH  10  11
ATOM     11  C   UNL     1      54.115   3.961   4.475  1.00  0.00     0.163 C 
ATOM     12  O   UNL     1      53.272   3.450   5.262  1.00  0.00    -0.294 OA
BRANCH  11  13
ATOM     13  C   UNL     1      54.713   5.282   4.798  1.00  0.00    -0.002 C 
ATOM     14  C   UNL     1      54.185   6.416   4.259  1.00  0.00    -0.069 C 
ATOM     15  C   UNL     1      54.733   7.782   4.592  1.00  0.00     0.039 C 
ATOM     16  C   UNL     1      53.004   6.342   3.317  1.00  0.00     0.039 C 
BRANCH  13  17
ATOM     17  C   UNL     1      55.872   5.301   5.785  1.00  0.00     0.066 CG0
ATOM     18  G   UNL     1      57.168   5.040   5.064  1.00  0.00     0.000 G0
ENDBRANCH  13  17
ENDBRANCH  11  13
ENDBRANCH  10  11
ENDBRANCH   1  10
TORSDOF 0
ENDMDL
MODEL 6
REMARK VINA RESULT:    -2.357      1.571      3.864
REMARK INTER + INTRA:          -3.124
REMARK INTER:                  -3.961
REMARK INTRA:                   0.837
REMARK UNBOUND:                 0.198
REMARK SMILES CC1=CCC(=C(C)C)C(=O)CC(C)=CCC1
REMARK SMILES IDX 12 1 14 2 13 3 15 4 16 5 2 6 1 7 3 8 11 10 9 11 10 12 5 13
REMARK SMILES IDX 6 14 7 15 8 16 4 17
REMARK H PARENT
REMARK Flexibility Score: 60.00
ROOT
ATOM      1  C   UNL     1      63.250  14.662  -2.270  1.00  0.00    -0.070 C 
ATOM      2  C   UNL     1      62.338  13.656  -2.243  1.00  0.00    -0.027 C 
ATOM      3  C   UNL     1      63.376  15.429  -3.565  1.00  0.00     0.039 C 
ENDROOT
BRANCH   2   4
ATOM      4  C   UNL     1      62.096  12.668  -1.125  1.00  0.00     0.032 C 
BRANCH   4   5
ATOM      5  C   UNL     1      60.642  12.601  -0.631  1.00  0.00     0.034 C 
BRANCH   5   6
ATOM      6  C   UNL     1      60.208  13.728   0.291  1.00  0.00    -0.077 C 
ATOM      7  C   UNL     1      58.832  14.320   0.116  1.00  0.00     0.039 C 
ATOM      8  C   UNL     1      60.958  14.175   1.327  1.00  0.00    -0.023 CG0
ATOM      9  G   UNL     1      62.400  13.821   1.579  1.00  0.00     0.000 G0
ENDBRANCH   5   6
ENDBRANCH   4   5
ENDBRANCH   2   4
BRANCH   1  10
ATOM     10  C   UNL     1      64.061  15.159  -1.077  1.00  0.00     0.111 C 
BRANCH  10  11
ATOM     11  C   UNL     1      63.262  15.705   0.074  1.00  0.00     0.163 C 
ATOM     12  O   UNL     1      62.482  16.678  -0.113  1.00  0.00    -0.294 OA
BRANCH  11  13
ATOM     13  C   UNL     1      63.297  15.036   1.399  1.00  0.00    -0.002 C 
ATOM     14  C   UNL     1      64.072  15.547   2.397  1.00  0.00    -0.069 C 
ATOM     15  C   UNL     1      64.105  14.925   3.772  1.00  0.00     0.039 C 
ATOM     16  C   UNL     1      64.913  16.782   2.162  1.00  0.00     0.039 C 
BRANCH  13  17
ATOM     17  C   UNL     1      62.398  13.823   1.594  1.00  0.00     0.066 CG0
ATOM     18  G   UNL     1      60.966  14.192   1.313  1.00  0.00     0.000 G0
ENDBRANCH  13  17
ENDBRANCH  11  13
ENDBRANCH  10  11
ENDBRANCH   1  10
TORSDOF 0
ENDMDL
MODEL 7
REMARK VINA RESULT:    -2.324      1.759      2.301
REMARK INTER + INTRA:          -3.078
REMARK INTER:                  -3.629
REMARK INTRA:                   0.551
REMARK UNBOUND:                 0.198
REMARK SMILES CC1=CCC(=C(C)C)C(=O)CC(C)=CCC1
REMARK SMILES IDX 12 1 14 2 13 3 15 4 16 5 2 6 1 7 3 8 11 10 9 11 10 12 5 13
REMARK SMILES IDX 6 14 7 15 8 16 4 17
REMARK H PARENT
REMARK Flexibility Score: 60.00
ROOT
ATOM      1  C   UNL     1      63.295  14.747  -1.673  1.00  0.00    -0.070 C 
ATOM      2  C   UNL     1      63.802  15.567  -0.715  1.00  0.00    -0.027 C 
ATOM      3  C   UNL     1      63.233  15.299  -3.077  1.00  0.00     0.039 C 
ENDROOT
BRANCH   2   4
ATOM      4  C   UNL     1      63.867  15.310   0.772  1.00  0.00     0.032 C 
BRANCH   4   5
ATOM      5  C   UNL     1      62.932  16.190   1.618  1.00  0.00     0.034 C 
BRANCH   5   6
ATOM      6  C   UNL     1      61.743  15.477   2.238  1.00  0.00    -0.077 C 
ATOM      7  C   UNL     1      61.749  15.215   3.724  1.00  0.00     0.039 C 
ATOM      8  C   UNL     1      60.629  15.140   1.544  1.00  0.00    -0.023 CG0
ATOM      9  G   UNL     1      60.487  15.183   0.046  1.00  0.00     0.000 G0
ENDBRANCH   5   6
ENDBRANCH   4   5
ENDBRANCH   2   4
BRANCH   1  10
ATOM     10  C   UNL     1      62.903  13.286  -1.474  1.00  0.00     0.111 C 
BRANCH  10  11
ATOM     11  C   UNL     1      61.832  13.031  -0.449  1.00  0.00     0.163 C 
ATOM     12  O   UNL     1      62.077  12.284   0.537  1.00  0.00    -0.294 OA
BRANCH  11  13
ATOM     13  C   UNL     1      60.531  13.741  -0.527  1.00  0.00    -0.002 C 
ATOM     14  C   UNL     1      59.440  13.105  -1.037  1.00  0.00    -0.069 C 
ATOM     15  C   UNL     1      58.087  13.773  -1.095  1.00  0.00     0.039 C 
ATOM     16  C   UNL     1      59.545  11.683  -1.543  1.00  0.00     0.039 C 
BRANCH  13  17
ATOM     17  C   UNL     1      60.471  15.154   0.036  1.00  0.00     0.066 CG0
ATOM     18  G   UNL     1      60.623  15.120   1.534  1.00  0.00     0.000 G0
ENDBRANCH  13  17
ENDBRANCH  11  13
ENDBRANCH  10  11
ENDBRANCH   1  10
TORSDOF 0
ENDMDL
MODEL 8
REMARK VINA RESULT:    -2.219      9.928     11.757
REMARK INTER + INTRA:          -2.929
REMARK INTER:                  -3.161
REMARK INTRA:                   0.232
REMARK UNBOUND:                 0.198
REMARK SMILES CC1=CCC(=C(C)C)C(=O)CC(C)=CCC1
REMARK SMILES IDX 12 1 14 2 13 3 15 4 16 5 2 6 1 7 3 8 11 10 9 11 10 12 5 13
REMARK SMILES IDX 6 14 7 15 8 16 4 17
REMARK H PARENT
REMARK Flexibility Score: 60.00
ROOT
ATOM      1  C   UNL     1      55.337   9.800   5.039  1.00  0.00    -0.070 C 
ATOM      2  C   UNL     1      54.996  11.028   5.510  1.00  0.00    -0.027 C 
ATOM      3  C   UNL     1      55.682   9.708   3.571  1.00  0.00     0.039 C 
ENDROOT
BRANCH   2   4
ATOM      4  C   UNL     1      54.500  11.373   6.895  1.00  0.00     0.032 C 
BRANCH   4   5
ATOM      5  C   UNL     1      55.550  11.229   8.009  1.00  0.00     0.034 C 
BRANCH   5   6
ATOM      6  C   UNL     1      55.163  10.322   9.164  1.00  0.00    -0.077 C 
ATOM      7  C   UNL     1      53.894  10.617   9.924  1.00  0.00     0.039 C 
ATOM      8  C   UNL     1      55.850   9.203   9.497  1.00  0.00    -0.023 CG0
ATOM      9  G   UNL     1      57.204   8.818   8.963  1.00  0.00     0.000 G0
ENDBRANCH   5   6
ENDBRANCH   4   5
ENDBRANCH   2   4
BRANCH   1  10
ATOM     10  C   UNL     1      55.521   8.543   5.884  1.00  0.00     0.111 C 
BRANCH  10  11
ATOM     11  C   UNL     1      56.896   8.332   6.451  1.00  0.00     0.163 C 
ATOM     12  O   UNL     1      57.907   8.698   5.792  1.00  0.00    -0.294 OA
BRANCH  11  13
ATOM     13  C   UNL     1      57.071   7.804   7.828  1.00  0.00    -0.002 C 
ATOM     14  C   UNL     1      57.146   6.460   8.035  1.00  0.00    -0.069 C 
ATOM     15  C   UNL     1      57.365   5.881   9.412  1.00  0.00     0.039 C 
ATOM     16  C   UNL     1      57.035   5.496   6.875  1.00  0.00     0.039 C 
BRANCH  13  17
ATOM     17  C   UNL     1      57.220   8.820   8.952  1.00  0.00     0.066 CG0
ATOM     18  G   UNL     1      55.867   9.181   9.505  1.00  0.00     0.000 G0
ENDBRANCH  13  17
ENDBRANCH  11  13
ENDBRANCH  10  11
ENDBRANCH   1  10
TORSDOF 0
ENDMDL
MODEL 9
REMARK VINA RESULT:    -2.207     10.167     13.086
REMARK INTER + INTRA:          -2.913
REMARK INTER:                  -3.442
REMARK INTRA:                   0.530
REMARK UNBOUND:                 0.198
REMARK SMILES CC1=CCC(=C(C)C)C(=O)CC(C)=CCC1
REMARK SMILES IDX 12 1 14 2 13 3 15 4 16 5 2 6 1 7 3 8 11 10 9 11 10 12 5 13
REMARK SMILES IDX 6 14 7 15 8 16 4 17
REMARK H PARENT
REMARK Flexibility Score: 60.00
ROOT
ATOM      1  C   UNL     1      53.645   6.269   4.333  1.00  0.00    -0.070 C 
ATOM      2  C   UNL     1      54.423   7.169   4.987  1.00  0.00    -0.027 C 
ATOM      3  C   UNL     1      52.707   6.818   3.284  1.00  0.00     0.039 C 
ENDROOT
BRANCH   2   4
ATOM      4  C   UNL     1      55.352   6.905   6.150  1.00  0.00     0.032 C 
BRANCH   4   5
ATOM      5  C   UNL     1      56.845   7.086   5.834  1.00  0.00     0.034 C 
BRANCH   5   6
ATOM      6  C   UNL     1      57.312   6.505   4.511  1.00  0.00    -0.077 C 
ATOM      7  C   UNL     1      57.717   7.449   3.406  1.00  0.00     0.039 C 
ATOM      8  C   UNL     1      57.473   5.177   4.294  1.00  0.00    -0.023 CG0
ATOM      9  G   UNL     1      56.993   4.079   5.206  1.00  0.00     0.000 G0
ENDBRANCH   5   6
ENDBRANCH   4   5
ENDBRANCH   2   4
BRANCH   1  10
ATOM     10  C   UNL     1      53.726   4.752   4.478  1.00  0.00     0.111 C 
BRANCH  10  11
ATOM     11  C   UNL     1      54.866   4.087   3.759  1.00  0.00     0.163 C 
ATOM     12  O   UNL     1      55.025   4.283   2.524  1.00  0.00    -0.294 OA
BRANCH  11  13
ATOM     13  C   UNL     1      55.873   3.297   4.512  1.00  0.00    -0.002 C 
ATOM     14  C   UNL     1      55.796   1.937   4.527  1.00  0.00    -0.069 C 
ATOM     15  C   UNL     1      56.821   1.092   5.243  1.00  0.00     0.039 C 
ATOM     16  C   UNL     1      54.680   1.222   3.796  1.00  0.00     0.039 C 
BRANCH  13  17
ATOM     17  C   UNL     1      56.998   4.064   5.193  1.00  0.00     0.066 CG0
ATOM     18  G   UNL     1      57.483   5.173   4.296  1.00  0.00     0.000 G0
ENDBRANCH  13  17
ENDBRANCH  11  13
ENDBRANCH  10  11
ENDBRANCH   1  10
TORSDOF 0
ENDMDL
