MODEL 1
REMARK VINA RESULT:    -4.853      0.000      0.000
REMARK INTER + INTRA:          -4.995
REMARK INTER:                  -4.995
REMARK INTRA:                   0.000
REMARK UNBOUND:                 0.000
REMARK SMILES Nc1ncnc2nc[nH]c12
REMARK SMILES IDX 8 1 7 2 6 3 5 4 4 5 3 6 2 7 10 8 9 9 1 11
REMARK H PARENT 9 10 1 12 1 13
REMARK Flexibility Score: inf
ROOT
ATOM      1  C   UNL     1       1.106   6.410  34.969  1.00  0.00     0.199 A 
ATOM      2  N   UNL     1       1.735   5.973  33.844  1.00  0.00    -0.217 NA
ATOM      3  C   UNL     1       2.891   6.656  33.879  1.00  0.00     0.182 A 
ATOM      4  N   UNL     1       3.897   6.588  32.975  1.00  0.00    -0.215 NA
ATOM      5  C   UNL     1       5.004   7.364  33.181  1.00  0.00     0.226 A 
ATOM      6  N   UNL     1       5.084   8.185  34.279  1.00  0.00    -0.217 NA
ATOM      7  C   UNL     1       4.071   8.253  35.192  1.00  0.00     0.152 A 
ATOM      8  C   UNL     1       2.951   7.457  34.967  1.00  0.00     0.127 A 
ATOM      9  N   UNL     1       1.824   7.319  35.677  1.00  0.00    -0.340 N 
ATOM     10  H   UNL     1       1.551   7.791  36.567  1.00  0.00     0.168 HD
ENDROOT
BRANCH   7  11
ATOM     11  N   UNL     1       4.176   9.115  36.326  1.00  0.00    -0.382 N 
ATOM     12  H   UNL     1       4.113   8.743  37.300  1.00  0.00     0.158 HD
ATOM     13  H   UNL     1       4.321  10.139  36.192  1.00  0.00     0.158 HD
ENDBRANCH   7  11
TORSDOF 1
ENDMDL
MODEL 2
REMARK VINA RESULT:    -4.777     14.685     16.359
REMARK INTER + INTRA:          -4.916
REMARK INTER:                  -4.916
REMARK INTRA:                   0.000
REMARK UNBOUND:                 0.000
REMARK SMILES Nc1ncnc2nc[nH]c12
REMARK SMILES IDX 8 1 7 2 6 3 5 4 4 5 3 6 2 7 10 8 9 9 1 11
REMARK H PARENT 9 10 1 12 1 13
REMARK Flexibility Score: inf
ROOT
ATOM      1  C   UNL     1       0.751  -5.404  27.237  1.00  0.00     0.199 A 
ATOM      2  N   UNL     1       0.065  -4.973  28.330  1.00  0.00    -0.217 NA
ATOM      3  C   UNL     1      -0.310  -6.127  28.905  1.00  0.00     0.182 A 
ATOM      4  N   UNL     1      -1.030  -6.267  30.045  1.00  0.00    -0.215 NA
ATOM      5  C   UNL     1      -1.316  -7.532  30.477  1.00  0.00     0.226 A 
ATOM      6  N   UNL     1      -0.879  -8.625  29.770  1.00  0.00    -0.217 NA
ATOM      7  C   UNL     1      -0.153  -8.486  28.622  1.00  0.00     0.152 A 
ATOM      8  C   UNL     1       0.129  -7.191  28.195  1.00  0.00     0.127 A 
ATOM      9  N   UNL     1       0.808  -6.755  27.126  1.00  0.00    -0.340 N 
ATOM     10  H   UNL     1       1.276  -7.312  26.378  1.00  0.00     0.168 HD
ENDROOT
BRANCH   7  11
ATOM     11  N   UNL     1       0.290  -9.638  27.903  1.00  0.00    -0.382 N 
ATOM     12  H   UNL     1       1.279  -9.969  27.962  1.00  0.00     0.158 HD
ATOM     13  H   UNL     1      -0.379 -10.168  27.303  1.00  0.00     0.158 HD
ENDBRANCH   7  11
TORSDOF 1
ENDMDL
MODEL 3
REMARK VINA RESULT:    -4.757      6.357      7.665
REMARK INTER + INTRA:          -4.896
REMARK INTER:                  -4.896
REMARK INTRA:                   0.000
REMARK UNBOUND:                 0.000
REMARK SMILES Nc1ncnc2nc[nH]c12
REMARK SMILES IDX 8 1 7 2 6 3 5 4 4 5 3 6 2 7 10 8 9 9 1 11
REMARK H PARENT 9 10 1 12 1 13
REMARK Flexibility Score: inf
ROOT
ATOM      1  C   UNL     1       9.117   1.377  34.645  1.00  0.00     0.199 A 
ATOM      2  N   UNL     1       7.994   2.129  34.480  1.00  0.00    -0.217 NA
ATOM      3  C   UNL     1       8.467   3.211  33.840  1.00  0.00     0.182 A 
ATOM      4  N   UNL     1       7.751   4.286  33.432  1.00  0.00    -0.215 NA
ATOM      5  C   UNL     1       8.412   5.297  32.792  1.00  0.00     0.226 A 
ATOM      6  N   UNL     1       9.764   5.215  32.571  1.00  0.00    -0.217 NA
ATOM      7  C   UNL     1      10.487   4.131  32.981  1.00  0.00     0.152 A 
ATOM      8  C   UNL     1       9.800   3.111  33.633  1.00  0.00     0.127 A 
ATOM      9  N   UNL     1      10.237   1.950  34.137  1.00  0.00    -0.340 N 
ATOM     10  H   UNL     1      11.207   1.566  34.144  1.00  0.00     0.168 HD
ENDROOT
BRANCH   7  11
ATOM     11  N   UNL     1      11.894   4.068  32.741  1.00  0.00    -0.382 N 
ATOM     12  H   UNL     1      12.297   3.406  32.042  1.00  0.00     0.158 HD
ATOM     13  H   UNL     1      12.542   4.693  33.269  1.00  0.00     0.158 HD
ENDBRANCH   7  11
TORSDOF 1
ENDMDL
MODEL 4
REMARK VINA RESULT:    -4.738      6.130      7.559
REMARK INTER + INTRA:          -4.876
REMARK INTER:                  -4.876
REMARK INTRA:                   0.000
REMARK UNBOUND:                 0.000
REMARK SMILES Nc1ncnc2nc[nH]c12
REMARK SMILES IDX 8 1 7 2 6 3 5 4 4 5 3 6 2 7 10 8 9 9 1 11
REMARK H PARENT 9 10 1 12 1 13
REMARK Flexibility Score: inf
ROOT
ATOM      1  C   UNL     1       4.924   3.813  26.645  1.00  0.00     0.199 A 
ATOM      2  N   UNL     1       5.375   3.600  27.912  1.00  0.00    -0.217 NA
ATOM      3  C   UNL     1       5.604   4.850  28.347  1.00  0.00     0.182 A 
ATOM      4  N   UNL     1       6.069   5.208  29.568  1.00  0.00    -0.215 NA
ATOM      5  C   UNL     1       6.239   6.539  29.830  1.00  0.00     0.226 A 
ATOM      6  N   UNL     1       5.942   7.479  28.875  1.00  0.00    -0.217 NA
ATOM      7  C   UNL     1       5.472   7.120  27.644  1.00  0.00     0.152 A 
ATOM      8  C   UNL     1       5.306   5.761  27.393  1.00  0.00     0.127 A 
ATOM      9  N   UNL     1       4.870   5.124  26.299  1.00  0.00    -0.340 N 
ATOM     10  H   UNL     1       4.559   5.528  25.389  1.00  0.00     0.168 HD
ENDROOT
BRANCH   7  11
ATOM     11  N   UNL     1       5.170   8.117  26.666  1.00  0.00    -0.382 N 
ATOM     12  H   UNL     1       5.246   9.135  26.885  1.00  0.00     0.158 HD
ATOM     13  H   UNL     1       4.866   7.833  25.709  1.00  0.00     0.158 HD
ENDBRANCH   7  11
TORSDOF 1
ENDMDL
MODEL 5
REMARK VINA RESULT:    -4.658      7.947      9.330
REMARK INTER + INTRA:          -4.795
REMARK INTER:                  -4.795
REMARK INTRA:                   0.000
REMARK UNBOUND:                 0.000
REMARK SMILES Nc1ncnc2nc[nH]c12
REMARK SMILES IDX 8 1 7 2 6 3 5 4 4 5 3 6 2 7 10 8 9 9 1 11
REMARK H PARENT 9 10 1 12 1 13
REMARK Flexibility Score: inf
ROOT
ATOM      1  C   UNL     1       2.920   0.794  31.669  1.00  0.00     0.199 A 
ATOM      2  N   UNL     1       2.489  -0.485  31.500  1.00  0.00    -0.217 NA
ATOM      3  C   UNL     1       2.538  -0.628  30.165  1.00  0.00     0.182 A 
ATOM      4  N   UNL     1       2.207  -1.736  29.458  1.00  0.00    -0.215 NA
ATOM      5  C   UNL     1       2.323  -1.691  28.096  1.00  0.00     0.226 A 
ATOM      6  N   UNL     1       2.764  -0.551  27.473  1.00  0.00    -0.217 NA
ATOM      7  C   UNL     1       3.099   0.566  28.184  1.00  0.00     0.152 A 
ATOM      8  C   UNL     1       2.975   0.504  29.569  1.00  0.00     0.127 A 
ATOM      9  N   UNL     1       3.225   1.426  30.508  1.00  0.00    -0.340 N 
ATOM     10  H   UNL     1       3.573   2.402  30.387  1.00  0.00     0.168 HD
ENDROOT
BRANCH   7  11
ATOM     11  N   UNL     1       3.556   1.741  27.512  1.00  0.00    -0.382 N 
ATOM     12  H   UNL     1       4.527   1.808  27.134  1.00  0.00     0.158 HD
ATOM     13  H   UNL     1       2.915   2.555  27.391  1.00  0.00     0.158 HD
ENDBRANCH   7  11
TORSDOF 1
ENDMDL
MODEL 6
REMARK VINA RESULT:    -4.632      5.428      7.075
REMARK INTER + INTRA:          -4.768
REMARK INTER:                  -4.768
REMARK INTRA:                   0.000
REMARK UNBOUND:                 0.000
REMARK SMILES Nc1ncnc2nc[nH]c12
REMARK SMILES IDX 8 1 7 2 6 3 5 4 4 5 3 6 2 7 10 8 9 9 1 11
REMARK H PARENT 9 10 1 12 1 13
REMARK Flexibility Score: inf
ROOT
ATOM      1  C   UNL     1       2.609   1.016  32.412  1.00  0.00     0.199 A 
ATOM      2  N   UNL     1       1.588   0.150  32.172  1.00  0.00    -0.217 NA
ATOM      3  C   UNL     1       0.552   0.755  32.777  1.00  0.00     0.182 A 
ATOM      4  N   UNL     1      -0.724   0.305  32.838  1.00  0.00    -0.215 NA
ATOM      5  C   UNL     1      -1.646   1.065  33.503  1.00  0.00     0.226 A 
ATOM      6  N   UNL     1      -1.278   2.251  34.088  1.00  0.00    -0.217 NA
ATOM      7  C   UNL     1       0.008   2.707  34.026  1.00  0.00     0.152 A 
ATOM      8  C   UNL     1       0.934   1.920  33.347  1.00  0.00     0.127 A 
ATOM      9  N   UNL     1       2.242   2.109  33.128  1.00  0.00    -0.340 N 
ATOM     10  H   UNL     1       2.846   2.904  33.429  1.00  0.00     0.168 HD
ENDROOT
BRANCH   7  11
ATOM     11  N   UNL     1       0.367   3.944  34.643  1.00  0.00    -0.382 N 
ATOM     12  H   UNL     1      -0.306   4.465  35.248  1.00  0.00     0.158 HD
ATOM     13  H   UNL     1       1.318   4.345  34.494  1.00  0.00     0.158 HD
ENDBRANCH   7  11
TORSDOF 1
ENDMDL
MODEL 7
REMARK VINA RESULT:    -4.616      8.796     10.226
REMARK INTER + INTRA:          -4.751
REMARK INTER:                  -4.751
REMARK INTRA:                   0.000
REMARK UNBOUND:                 0.000
REMARK SMILES Nc1ncnc2nc[nH]c12
REMARK SMILES IDX 8 1 7 2 6 3 5 4 4 5 3 6 2 7 10 8 9 9 1 11
REMARK H PARENT 9 10 1 12 1 13
REMARK Flexibility Score: inf
ROOT
ATOM      1  C   UNL     1       1.724  -1.417  31.772  1.00  0.00     0.199 A 
ATOM      2  N   UNL     1       2.132  -0.161  31.442  1.00  0.00    -0.217 NA
ATOM      3  C   UNL     1       2.386  -0.280  30.128  1.00  0.00     0.182 A 
ATOM      4  N   UNL     1       2.827   0.697  29.299  1.00  0.00    -0.215 NA
ATOM      5  C   UNL     1       3.030   0.384  27.983  1.00  0.00     0.226 A 
ATOM      6  N   UNL     1       2.789  -0.887  27.525  1.00  0.00    -0.217 NA
ATOM      7  C   UNL     1       2.343  -1.872  28.359  1.00  0.00     0.152 A 
ATOM      8  C   UNL     1       2.143  -1.538  29.696  1.00  0.00     0.127 A 
ATOM      9  N   UNL     1       1.720  -2.282  30.726  1.00  0.00    -0.340 N 
ATOM     10  H   UNL     1       1.447  -3.289  30.735  1.00  0.00     0.168 HD
ENDROOT
BRANCH   7  11
ATOM     11  N   UNL     1       2.099  -3.188  27.860  1.00  0.00    -0.382 N 
ATOM     12  H   UNL     1       2.577  -4.022  28.268  1.00  0.00     0.158 HD
ATOM     13  H   UNL     1       1.431  -3.331  27.071  1.00  0.00     0.158 HD
ENDBRANCH   7  11
TORSDOF 1
ENDMDL
MODEL 8
REMARK VINA RESULT:    -4.587      7.513      8.865
REMARK INTER + INTRA:          -4.722
REMARK INTER:                  -4.722
REMARK INTRA:                   0.000
REMARK UNBOUND:                 0.000
REMARK SMILES Nc1ncnc2nc[nH]c12
REMARK SMILES IDX 8 1 7 2 6 3 5 4 4 5 3 6 2 7 10 8 9 9 1 11
REMARK H PARENT 9 10 1 12 1 13
REMARK Flexibility Score: inf
ROOT
ATOM      1  C   UNL     1       3.300   0.746  27.894  1.00  0.00     0.199 A 
ATOM      2  N   UNL     1       2.645  -0.437  28.051  1.00  0.00    -0.217 NA
ATOM      3  C   UNL     1       2.517  -0.516  29.386  1.00  0.00     0.182 A 
ATOM      4  N   UNL     1       1.926  -1.517  30.083  1.00  0.00    -0.215 NA
ATOM      5  C   UNL     1       1.892  -1.421  31.447  1.00  0.00     0.226 A 
ATOM      6  N   UNL     1       2.443  -0.336  32.082  1.00  0.00    -0.217 NA
ATOM      7  C   UNL     1       3.038   0.674  31.381  1.00  0.00     0.152 A 
ATOM      8  C   UNL     1       3.065   0.560  29.993  1.00  0.00     0.127 A 
ATOM      9  N   UNL     1       3.571   1.380  29.063  1.00  0.00    -0.340 N 
ATOM     10  H   UNL     1       4.059   2.292  29.192  1.00  0.00     0.168 HD
ENDROOT
BRANCH   7  11
ATOM     11  N   UNL     1       3.604   1.793  32.064  1.00  0.00    -0.382 N 
ATOM     12  H   UNL     1       4.047   2.582  31.542  1.00  0.00     0.158 HD
ATOM     13  H   UNL     1       3.581   1.835  33.106  1.00  0.00     0.158 HD
ENDBRANCH   7  11
TORSDOF 1
ENDMDL
MODEL 9
REMARK VINA RESULT:    -4.565      7.815      8.775
REMARK INTER + INTRA:          -4.698
REMARK INTER:                  -4.698
REMARK INTRA:                   0.000
REMARK UNBOUND:                 0.000
REMARK SMILES Nc1ncnc2nc[nH]c12
REMARK SMILES IDX 8 1 7 2 6 3 5 4 4 5 3 6 2 7 10 8 9 9 1 11
REMARK H PARENT 9 10 1 12 1 13
REMARK Flexibility Score: inf
ROOT
ATOM      1  C   UNL     1       3.269   0.514  32.329  1.00  0.00     0.199 A 
ATOM      2  N   UNL     1       2.568  -0.550  32.806  1.00  0.00    -0.217 NA
ATOM      3  C   UNL     1       3.483  -1.177  33.565  1.00  0.00     0.182 A 
ATOM      4  N   UNL     1       3.299  -2.313  34.279  1.00  0.00    -0.215 NA
ATOM      5  C   UNL     1       4.355  -2.803  34.996  1.00  0.00     0.226 A 
ATOM      6  N   UNL     1       5.564  -2.153  34.987  1.00  0.00    -0.217 NA
ATOM      7  C   UNL     1       5.751  -1.007  34.268  1.00  0.00     0.152 A 
ATOM      8  C   UNL     1       4.666  -0.522  33.543  1.00  0.00     0.127 A 
ATOM      9  N   UNL     1       4.555   0.560  32.761  1.00  0.00    -0.340 N 
ATOM     10  H   UNL     1       5.277   1.276  32.531  1.00  0.00     0.168 HD
ENDROOT
BRANCH   7  11
ATOM     11  N   UNL     1       7.018  -0.348  34.274  1.00  0.00    -0.382 N 
ATOM     12  H   UNL     1       7.816  -0.708  34.844  1.00  0.00     0.158 HD
ATOM     13  H   UNL     1       7.162   0.511  33.699  1.00  0.00     0.158 HD
ENDBRANCH   7  11
TORSDOF 1
ENDMDL
