MODEL 1
REMARK VINA RESULT:    11.262      0.000      0.000
REMARK INTER + INTRA:          22.920
REMARK INTER:                  24.430
REMARK INTRA:                  -1.510
REMARK UNBOUND:                -1.510
REMARK SMILES CCCCCCCCCCCCCCCCCCCCCC(=O)[O-]
REMARK SMILES IDX 12 1 11 2 10 3 9 4 8 5 7 6 6 7 5 8 4 9 3 10 2 11 1 12 13 13
REMARK SMILES IDX 14 14 15 15 16 16 17 17 18 18 19 19 20 20 21 21 22 22 23 23
REMARK SMILES IDX 24 24
REMARK H PARENT
REMARK Flexibility Score: inf
ROOT
ATOM      1  C   UNL     1     -33.985  11.295  20.851  1.00  0.00     0.000 C 
ENDROOT
BRANCH   1   2
ATOM      2  C   UNL     1     -34.018  12.688  21.508  1.00  0.00     0.000 C 
BRANCH   2   3
ATOM      3  C   UNL     1     -34.485  12.632  22.979  1.00  0.00     0.000 C 
BRANCH   3   4
ATOM      4  C   UNL     1     -33.651  11.682  23.864  1.00  0.00    -0.000 C 
BRANCH   4   5
ATOM      5  C   UNL     1     -34.262  11.373  25.241  1.00  0.00    -0.000 C 
BRANCH   5   6
ATOM      6  C   UNL     1     -33.204  11.006  26.294  1.00  0.00    -0.000 C 
BRANCH   6   7
ATOM      7  C   UNL     1     -33.393   9.560  26.779  1.00  0.00    -0.000 C 
BRANCH   7   8
ATOM      8  C   UNL     1     -34.510   8.819  26.025  1.00  0.00    -0.000 C 
BRANCH   8   9
ATOM      9  C   UNL     1     -33.975   7.672  25.150  1.00  0.00    -0.000 C 
BRANCH   9  10
ATOM     10  C   UNL     1     -35.073   7.005  24.301  1.00  0.00    -0.000 C 
BRANCH  10  11
ATOM     11  C   UNL     1     -34.820   7.025  22.782  1.00  0.00    -0.003 C 
ATOM     12  C   UNL     1     -33.826   8.104  22.354  1.00  0.00     0.004 C 
ENDBRANCH  10  11
ENDBRANCH   9  10
ENDBRANCH   8   9
ENDBRANCH   7   8
ENDBRANCH   6   7
ENDBRANCH   5   6
ENDBRANCH   4   5
ENDBRANCH   3   4
ENDBRANCH   2   3
ENDBRANCH   1   2
BRANCH   1  13
ATOM     13  C   UNL     1     -33.294  11.302  19.479  1.00  0.00     0.000 C 
BRANCH  13  14
ATOM     14  C   UNL     1     -32.841  12.709  19.052  1.00  0.00     0.000 C 
BRANCH  14  15
ATOM     15  C   UNL     1     -32.640  12.820  17.531  1.00  0.00     0.000 C 
BRANCH  15  16
ATOM     16  C   UNL     1     -33.800  13.565  16.842  1.00  0.00     0.000 C 
BRANCH  16  17
ATOM     17  C   UNL     1     -34.041  14.960  17.439  1.00  0.00     0.000 C 
BRANCH  17  18
ATOM     18  C   UNL     1     -34.979  15.822  16.576  1.00  0.00     0.000 C 
BRANCH  18  19
ATOM     19  C   UNL     1     -35.214  17.218  17.175  1.00  0.00     0.000 C 
BRANCH  19  20
ATOM     20  C   UNL     1     -36.591  17.345  17.851  1.00  0.00     0.006 C 
BRANCH  20  21
ATOM     21  C   UNL     1     -37.485  16.128  17.579  1.00  0.00     0.053 C 
BRANCH  21  22
ATOM     22  C   UNL     1     -38.842  16.287  18.192  1.00  0.00     0.041 C 
ATOM     23  O   UNL     1     -39.703  17.027  17.647  1.00  0.00    -0.550 OA
ATOM     24  O   UNL     1     -39.162  15.605  19.362  1.00  0.00    -0.550 OA
ENDBRANCH  21  22
ENDBRANCH  20  21
ENDBRANCH  19  20
ENDBRANCH  18  19
ENDBRANCH  17  18
ENDBRANCH  16  17
ENDBRANCH  15  16
ENDBRANCH  14  15
ENDBRANCH  13  14
ENDBRANCH   1  13
TORSDOF 20
ENDMDL
MODEL 2
REMARK VINA RESULT:    11.317      3.160      9.855
REMARK INTER + INTRA:          23.038
REMARK INTER:                  23.969
REMARK INTRA:                  -0.931
REMARK UNBOUND:                -1.510
REMARK SMILES CCCCCCCCCCCCCCCCCCCCCC(=O)[O-]
REMARK SMILES IDX 12 1 11 2 10 3 9 4 8 5 7 6 6 7 5 8 4 9 3 10 2 11 1 12 13 13
REMARK SMILES IDX 14 14 15 15 16 16 17 17 18 18 19 19 20 20 21 21 22 22 23 23
REMARK SMILES IDX 24 24
REMARK H PARENT
REMARK Flexibility Score: inf
ROOT
ATOM      1  C   UNL     1     -32.796  12.598  19.386  1.00  0.00     0.000 C 
ENDROOT
BRANCH   1   2
ATOM      2  C   UNL     1     -33.222  12.156  17.973  1.00  0.00     0.000 C 
BRANCH   2   3
ATOM      3  C   UNL     1     -32.774  13.158  16.886  1.00  0.00     0.000 C 
BRANCH   3   4
ATOM      4  C   UNL     1     -33.907  14.067  16.368  1.00  0.00    -0.000 C 
BRANCH   4   5
ATOM      5  C   UNL     1     -34.377  15.149  17.356  1.00  0.00    -0.000 C 
BRANCH   5   6
ATOM      6  C   UNL     1     -34.820  16.443  16.656  1.00  0.00    -0.000 C 
BRANCH   6   7
ATOM      7  C   UNL     1     -35.247  17.502  17.685  1.00  0.00    -0.000 C 
BRANCH   7   8
ATOM      8  C   UNL     1     -36.772  17.678  17.764  1.00  0.00    -0.000 C 
BRANCH   8   9
ATOM      9  C   UNL     1     -37.538  16.411  17.347  1.00  0.00    -0.000 C 
BRANCH   9  10
ATOM     10  C   UNL     1     -38.519  15.922  18.429  1.00  0.00    -0.000 C 
BRANCH  10  11
ATOM     11  C   UNL     1     -39.912  16.579  18.387  1.00  0.00    -0.003 C 
ATOM     12  C   UNL     1     -40.230  17.223  17.038  1.00  0.00     0.004 C 
ENDBRANCH  10  11
ENDBRANCH   9  10
ENDBRANCH   8   9
ENDBRANCH   7   8
ENDBRANCH   6   7
ENDBRANCH   5   6
ENDBRANCH   4   5
ENDBRANCH   3   4
ENDBRANCH   2   3
ENDBRANCH   1   2
BRANCH   1  13
ATOM     13  C   UNL     1     -33.734  12.068  20.482  1.00  0.00     0.000 C 
BRANCH  13  14
ATOM     14  C   UNL     1     -33.828  10.532  20.488  1.00  0.00     0.000 C 
BRANCH  14  15
ATOM     15  C   UNL     1     -33.574   9.937  21.883  1.00  0.00     0.000 C 
BRANCH  15  16
ATOM     16  C   UNL     1     -33.652   8.399  21.886  1.00  0.00     0.000 C 
BRANCH  16  17
ATOM     17  C   UNL     1     -34.896   7.875  22.621  1.00  0.00     0.000 C 
BRANCH  17  18
ATOM     18  C   UNL     1     -34.591   6.654  23.507  1.00  0.00     0.000 C 
BRANCH  18  19
ATOM     19  C   UNL     1     -34.238   7.047  24.951  1.00  0.00     0.000 C 
BRANCH  19  20
ATOM     20  C   UNL     1     -34.547   8.524  25.252  1.00  0.00     0.006 C 
BRANCH  20  21
ATOM     21  C   UNL     1     -33.875   9.005  26.545  1.00  0.00     0.053 C 
BRANCH  21  22
ATOM     22  C   UNL     1     -33.387  10.416  26.427  1.00  0.00     0.041 C 
ATOM     23  O   UNL     1     -32.527  10.861  27.233  1.00  0.00    -0.550 OA
ATOM     24  O   UNL     1     -33.873  11.239  25.416  1.00  0.00    -0.550 OA
ENDBRANCH  21  22
ENDBRANCH  20  21
ENDBRANCH  19  20
ENDBRANCH  18  19
ENDBRANCH  17  18
ENDBRANCH  16  17
ENDBRANCH  15  16
ENDBRANCH  14  15
ENDBRANCH  13  14
ENDBRANCH   1  13
TORSDOF 20
ENDMDL
MODEL 3
REMARK VINA RESULT:    11.653      0.847      2.557
REMARK INTER + INTRA:          23.767
REMARK INTER:                  25.138
REMARK INTRA:                  -1.371
REMARK UNBOUND:                -1.510
REMARK SMILES CCCCCCCCCCCCCCCCCCCCCC(=O)[O-]
REMARK SMILES IDX 12 1 11 2 10 3 9 4 8 5 7 6 6 7 5 8 4 9 3 10 2 11 1 12 13 13
REMARK SMILES IDX 14 14 15 15 16 16 17 17 18 18 19 19 20 20 21 21 22 22 23 23
REMARK SMILES IDX 24 24
REMARK H PARENT
REMARK Flexibility Score: inf
ROOT
ATOM      1  C   UNL     1     -33.663  12.364  20.240  1.00  0.00     0.000 C 
ENDROOT
BRANCH   1   2
ATOM      2  C   UNL     1     -34.032  11.096  21.035  1.00  0.00     0.000 C 
BRANCH   2   3
ATOM      3  C   UNL     1     -33.122   9.899  20.684  1.00  0.00     0.000 C 
BRANCH   3   4
ATOM      4  C   UNL     1     -33.103   8.792  21.758  1.00  0.00    -0.000 C 
BRANCH   4   5
ATOM      5  C   UNL     1     -34.483   8.401  22.313  1.00  0.00    -0.000 C 
BRANCH   5   6
ATOM      6  C   UNL     1     -34.467   7.059  23.062  1.00  0.00    -0.000 C 
BRANCH   6   7
ATOM      7  C   UNL     1     -34.739   7.265  24.560  1.00  0.00    -0.000 C 
BRANCH   7   8
ATOM      8  C   UNL     1     -33.537   6.892  25.443  1.00  0.00    -0.000 C 
BRANCH   8   9
ATOM      9  C   UNL     1     -33.163   8.005  26.437  1.00  0.00    -0.000 C 
BRANCH   9  10
ATOM     10  C   UNL     1     -34.123   9.208  26.378  1.00  0.00    -0.000 C 
BRANCH  10  11
ATOM     11  C   UNL     1     -33.437  10.579  26.225  1.00  0.00    -0.003 C 
ATOM     12  C   UNL     1     -33.971  11.386  25.042  1.00  0.00     0.004 C 
ENDBRANCH  10  11
ENDBRANCH   9  10
ENDBRANCH   8   9
ENDBRANCH   7   8
ENDBRANCH   6   7
ENDBRANCH   5   6
ENDBRANCH   4   5
ENDBRANCH   3   4
ENDBRANCH   2   3
ENDBRANCH   1   2
BRANCH   1  13
ATOM     13  C   UNL     1     -32.534  12.123  19.227  1.00  0.00     0.000 C 
BRANCH  13  14
ATOM     14  C   UNL     1     -32.564  13.125  18.059  1.00  0.00     0.000 C 
BRANCH  14  15
ATOM     15  C   UNL     1     -33.648  12.782  17.023  1.00  0.00     0.000 C 
BRANCH  15  16
ATOM     16  C   UNL     1     -34.215  14.037  16.334  1.00  0.00     0.000 C 
BRANCH  16  17
ATOM     17  C   UNL     1     -34.403  15.210  17.309  1.00  0.00     0.000 C 
BRANCH  17  18
ATOM     18  C   UNL     1     -34.781  16.521  16.597  1.00  0.00     0.000 C 
BRANCH  18  19
ATOM     19  C   UNL     1     -35.153  17.641  17.583  1.00  0.00     0.000 C 
BRANCH  19  20
ATOM     20  C   UNL     1     -36.666  17.708  17.855  1.00  0.00     0.006 C 
BRANCH  20  21
ATOM     21  C   UNL     1     -37.371  16.380  17.545  1.00  0.00     0.053 C 
BRANCH  21  22
ATOM     22  C   UNL     1     -38.738  16.321  18.152  1.00  0.00     0.041 C 
ATOM     23  O   UNL     1     -39.676  17.013  17.673  1.00  0.00    -0.550 OA
ATOM     24  O   UNL     1     -38.982  15.490  19.240  1.00  0.00    -0.550 OA
ENDBRANCH  21  22
ENDBRANCH  20  21
ENDBRANCH  19  20
ENDBRANCH  18  19
ENDBRANCH  17  18
ENDBRANCH  16  17
ENDBRANCH  15  16
ENDBRANCH  14  15
ENDBRANCH  13  14
ENDBRANCH   1  13
TORSDOF 20
ENDMDL
MODEL 4
REMARK VINA RESULT:    11.685      3.355      9.733
REMARK INTER + INTRA:          23.837
REMARK INTER:                  24.759
REMARK INTRA:                  -0.922
REMARK UNBOUND:                -1.510
REMARK SMILES CCCCCCCCCCCCCCCCCCCCCC(=O)[O-]
REMARK SMILES IDX 12 1 11 2 10 3 9 4 8 5 7 6 6 7 5 8 4 9 3 10 2 11 1 12 13 13
REMARK SMILES IDX 14 14 15 15 16 16 17 17 18 18 19 19 20 20 21 21 22 22 23 23
REMARK SMILES IDX 24 24
REMARK H PARENT
REMARK Flexibility Score: inf
ROOT
ATOM      1  C   UNL     1     -32.986  11.365  19.625  1.00  0.00     0.000 C 
ENDROOT
BRANCH   1   2
ATOM      2  C   UNL     1     -32.862  12.734  18.930  1.00  0.00     0.000 C 
BRANCH   2   3
ATOM      3  C   UNL     1     -33.252  12.670  17.437  1.00  0.00     0.000 C 
BRANCH   3   4
ATOM      4  C   UNL     1     -33.446  14.053  16.782  1.00  0.00    -0.000 C 
BRANCH   4   5
ATOM      5  C   UNL     1     -34.413  14.994  17.521  1.00  0.00    -0.000 C 
BRANCH   5   6
ATOM      6  C   UNL     1     -34.794  16.230  16.692  1.00  0.00    -0.000 C 
BRANCH   6   7
ATOM      7  C   UNL     1     -35.192  17.400  17.606  1.00  0.00    -0.000 C 
BRANCH   7   8
ATOM      8  C   UNL     1     -36.714  17.528  17.783  1.00  0.00    -0.000 C 
BRANCH   8   9
ATOM      9  C   UNL     1     -37.463  16.229  17.441  1.00  0.00    -0.000 C 
BRANCH   9  10
ATOM     10  C   UNL     1     -38.551  15.876  18.472  1.00  0.00    -0.000 C 
BRANCH  10  11
ATOM     11  C   UNL     1     -39.818  16.750  18.404  1.00  0.00    -0.003 C 
ATOM     12  C   UNL     1     -40.153  17.208  16.985  1.00  0.00     0.004 C 
ENDBRANCH  10  11
ENDBRANCH   9  10
ENDBRANCH   8   9
ENDBRANCH   7   8
ENDBRANCH   6   7
ENDBRANCH   5   6
ENDBRANCH   4   5
ENDBRANCH   3   4
ENDBRANCH   2   3
ENDBRANCH   1   2
BRANCH   1  13
ATOM     13  C   UNL     1     -33.998  11.374  20.781  1.00  0.00     0.000 C 
BRANCH  13  14
ATOM     14  C   UNL     1     -34.008  12.708  21.548  1.00  0.00     0.000 C 
BRANCH  14  15
ATOM     15  C   UNL     1     -34.534  12.552  22.984  1.00  0.00     0.000 C 
BRANCH  15  16
ATOM     16  C   UNL     1     -33.660  11.605  23.827  1.00  0.00     0.000 C 
BRANCH  16  17
ATOM     17  C   UNL     1     -34.076  11.580  25.306  1.00  0.00     0.000 C 
BRANCH  17  18
ATOM     18  C   UNL     1     -33.044  10.872  26.203  1.00  0.00     0.000 C 
BRANCH  18  19
ATOM     19  C   UNL     1     -33.594   9.579  26.826  1.00  0.00     0.000 C 
BRANCH  19  20
ATOM     20  C   UNL     1     -34.620   8.878  25.919  1.00  0.00     0.006 C 
BRANCH  20  21
ATOM     21  C   UNL     1     -34.018   7.670  25.187  1.00  0.00     0.053 C 
BRANCH  21  22
ATOM     22  C   UNL     1     -34.879   7.226  24.045  1.00  0.00     0.041 C 
ATOM     23  O   UNL     1     -36.109   7.015  24.221  1.00  0.00    -0.550 OA
ATOM     24  O   UNL     1     -34.326   7.057  22.781  1.00  0.00    -0.550 OA
ENDBRANCH  21  22
ENDBRANCH  20  21
ENDBRANCH  19  20
ENDBRANCH  18  19
ENDBRANCH  17  18
ENDBRANCH  16  17
ENDBRANCH  15  16
ENDBRANCH  14  15
ENDBRANCH  13  14
ENDBRANCH   1  13
TORSDOF 20
ENDMDL
