MODEL 1
REMARK VINA RESULT:    -1.190      0.000      0.000
REMARK INTER + INTRA:          -2.443
REMARK INTER:                  -1.676
REMARK INTRA:                  -0.767
REMARK UNBOUND:                -0.767
REMARK SMILES COc1c(O[C@@H]2O[C@@H](C(=O)[O-])[C@H](O)[C@H](O)[C@H]2O)cc(O)c2c(=O)cc(-c3ccccc3)oc12
REMARK SMILES IDX 5 1 6 2 8 3 12 4 7 5 14 6 16 7 9 8 10 9 11 10 13 11 15 13
REMARK SMILES IDX 17 15 4 17 3 18 18 19 33 20 19 21 21 22 32 23 22 24 25 25
REMARK SMILES IDX 24 26 23 27 2 28 1 29 20 30 26 32 27 33 31 34 28 35 30 36
REMARK SMILES IDX 29 37
REMARK H PARENT 13 12 15 14 17 16 20 31
REMARK Flexibility Score: inf
ROOT
ATOM      1  O   UNL     1      87.125   0.463   2.900  1.00  0.00    -0.458 OA
ENDROOT
BRANCH   1   2
ATOM      2  C   UNL     1      86.656  -0.441   1.886  1.00  0.00     0.339 C 
ATOM      3  C   UNL     1      86.387   1.232   0.247  1.00  0.00     0.199 C 
ATOM      4  C   UNL     1      84.851   1.067   0.191  1.00  0.00     0.180 C 
ATOM      5  O   UNL     1      87.024   0.015   0.593  1.00  0.00    -0.328 OA
ATOM      6  C   UNL     1      84.308   0.513   1.523  1.00  0.00     0.181 C 
ATOM      7  C   UNL     1      85.133  -0.704   1.986  1.00  0.00     0.214 C 
BRANCH   3   8
ATOM      8  C   UNL     1      86.906   1.667  -1.094  1.00  0.00     0.073 C 
ATOM      9  O   UNL     1      87.116   0.819  -1.999  1.00  0.00    -0.547 OA
ATOM     10  O   UNL     1      87.107   3.014  -1.361  1.00  0.00    -0.547 OA
ENDBRANCH   3   8
BRANCH   4  11
ATOM     11  O   UNL     1      84.231   2.298  -0.080  1.00  0.00    -0.387 OA
ATOM     12  H   UNL     1      84.955   2.963  -0.223  1.00  0.00     0.211 HD
ENDBRANCH   4  11
BRANCH   6  13
ATOM     13  O   UNL     1      84.239   1.501   2.530  1.00  0.00    -0.387 OA
ATOM     14  H   UNL     1      84.246   2.393   2.097  1.00  0.00     0.211 HD
ENDBRANCH   6  13
BRANCH   7  15
ATOM     15  O   UNL     1      84.820  -1.819   1.188  1.00  0.00    -0.384 OA
ATOM     16  H   UNL     1      85.666  -2.329   1.062  1.00  0.00     0.211 HD
ENDBRANCH   7  15
ENDBRANCH   1   2
BRANCH   1  17
ATOM     17  C   UNL     1      86.701   0.482   4.246  1.00  0.00     0.172 A 
ATOM     18  C   UNL     1      86.118   1.656   4.781  1.00  0.00     0.205 A 
ATOM     19  C   UNL     1      86.824  -0.653   5.073  1.00  0.00     0.097 A 
ATOM     20  C   UNL     1      85.610   1.651   6.088  1.00  0.00     0.188 A 
ATOM     21  C   UNL     1      86.335  -0.655   6.384  1.00  0.00     0.134 A 
ATOM     22  C   UNL     1      85.713   0.499   6.901  1.00  0.00     0.111 A 
ATOM     23  O   UNL     1      85.046   2.759   6.563  1.00  0.00    -0.452 OA
ATOM     24  C   UNL     1      85.191   0.571   8.211  1.00  0.00     0.197 A 
ATOM     25  C   UNL     1      84.559   2.864   7.796  1.00  0.00     0.138 A 
ATOM     26  C   UNL     1      84.611   1.758   8.658  1.00  0.00     0.100 A 
ATOM     27  O   UNL     1      85.236  -0.419   8.991  1.00  0.00    -0.289 OA
BRANCH  18  28
ATOM     28  O   UNL     1      86.014   2.861   4.064  1.00  0.00    -0.490 OA
ATOM     29  C   UNL     1      87.058   3.461   3.303  1.00  0.00     0.278 C 
ENDBRANCH  18  28
BRANCH  21  30
ATOM     30  O   UNL     1      86.475  -1.805   7.165  1.00  0.00    -0.507 OA
ATOM     31  H   UNL     1      85.814  -2.571   7.111  1.00  0.00     0.293 HD
ENDBRANCH  21  30
BRANCH  25  32
ATOM     32  C   UNL     1      83.964   4.154   8.223  1.00  0.00     0.017 A 
ATOM     33  C   UNL     1      83.808   5.192   7.284  1.00  0.00     0.012 A 
ATOM     34  C   UNL     1      83.587   4.383   9.561  1.00  0.00     0.012 A 
ATOM     35  C   UNL     1      83.268   6.423   7.671  1.00  0.00     0.001 A 
ATOM     36  C   UNL     1      83.048   5.617   9.941  1.00  0.00     0.001 A 
ATOM     37  C   UNL     1      82.886   6.634   8.997  1.00  0.00     0.000 A 
ENDBRANCH  25  32
ENDBRANCH   1  17
TORSDOF 9
ENDMDL
MODEL 2
REMARK VINA RESULT:     0.052      4.231      7.881
REMARK INTER + INTRA:          -0.693
REMARK INTER:                   0.133
REMARK INTRA:                  -0.827
REMARK UNBOUND:                -0.767
REMARK SMILES COc1c(O[C@@H]2O[C@@H](C(=O)[O-])[C@H](O)[C@H](O)[C@H]2O)cc(O)c2c(=O)cc(-c3ccccc3)oc12
REMARK SMILES IDX 5 1 6 2 8 3 12 4 7 5 14 6 16 7 9 8 10 9 11 10 13 11 15 13
REMARK SMILES IDX 17 15 4 17 3 18 18 19 33 20 19 21 21 22 32 23 22 24 25 25
REMARK SMILES IDX 24 26 23 27 2 28 1 29 20 30 26 32 27 33 31 34 28 35 30 36
REMARK SMILES IDX 29 37
REMARK H PARENT 13 12 15 14 17 16 20 31
REMARK Flexibility Score: inf
ROOT
ATOM      1  O   UNL     1      83.712   4.370   7.749  1.00  0.00    -0.458 OA
ENDROOT
BRANCH   1   2
ATOM      2  C   UNL     1      84.832   3.774   8.424  1.00  0.00     0.339 C 
ATOM      3  C   UNL     1      85.501   2.472   6.577  1.00  0.00     0.199 C 
ATOM      4  C   UNL     1      85.189   1.133   7.284  1.00  0.00     0.180 C 
ATOM      5  O   UNL     1      85.874   3.473   7.508  1.00  0.00    -0.328 OA
ATOM      6  C   UNL     1      84.105   1.320   8.364  1.00  0.00     0.181 C 
ATOM      7  C   UNL     1      84.428   2.533   9.259  1.00  0.00     0.214 C 
BRANCH   3   8
ATOM      8  C   UNL     1      86.635   2.289   5.609  1.00  0.00     0.073 C 
ATOM      9  O   UNL     1      87.125   1.147   5.414  1.00  0.00    -0.547 OA
ATOM     10  O   UNL     1      87.115   3.371   4.884  1.00  0.00    -0.547 OA
ENDBRANCH   3   8
BRANCH   4  11
ATOM     11  O   UNL     1      84.752   0.174   6.356  1.00  0.00    -0.387 OA
ATOM     12  H   UNL     1      84.016   0.590   5.834  1.00  0.00     0.211 HD
ENDBRANCH   4  11
BRANCH   6  13
ATOM     13  O   UNL     1      82.808   1.417   7.814  1.00  0.00    -0.387 OA
ATOM     14  H   UNL     1      82.881   1.381   6.826  1.00  0.00     0.211 HD
ENDBRANCH   6  13
BRANCH   7  15
ATOM     15  O   UNL     1      85.489   2.214  10.125  1.00  0.00    -0.384 OA
ATOM     16  H   UNL     1      85.967   3.065  10.320  1.00  0.00     0.211 HD
ENDBRANCH   7  15
ENDBRANCH   1   2
BRANCH   1  17
ATOM     17  C   UNL     1      83.473   5.754   7.614  1.00  0.00     0.172 A 
ATOM     18  C   UNL     1      84.156   6.490   6.617  1.00  0.00     0.205 A 
ATOM     19  C   UNL     1      82.548   6.424   8.441  1.00  0.00     0.097 A 
ATOM     20  C   UNL     1      83.852   7.845   6.417  1.00  0.00     0.188 A 
ATOM     21  C   UNL     1      82.257   7.781   8.257  1.00  0.00     0.134 A 
ATOM     22  C   UNL     1      82.902   8.503   7.233  1.00  0.00     0.111 A 
ATOM     23  O   UNL     1      84.489   8.513   5.459  1.00  0.00    -0.452 OA
ATOM     24  C   UNL     1      82.656   9.870   6.983  1.00  0.00     0.197 A 
ATOM     25  C   UNL     1      84.292   9.805   5.208  1.00  0.00     0.138 A 
ATOM     26  C   UNL     1      83.355  10.521   5.966  1.00  0.00     0.100 A 
ATOM     27  O   UNL     1      81.816  10.521   7.662  1.00  0.00    -0.289 OA
BRANCH  18  28
ATOM     28  O   UNL     1      85.147   5.934   5.791  1.00  0.00    -0.490 OA
ATOM     29  C   UNL     1      86.522   6.303   5.789  1.00  0.00     0.278 C 
ENDBRANCH  18  28
BRANCH  21  30
ATOM     30  O   UNL     1      81.329   8.401   9.096  1.00  0.00    -0.507 OA
ATOM     31  H   UNL     1      81.578   9.194   9.676  1.00  0.00     0.293 HD
ENDBRANCH  21  30
BRANCH  25  32
ATOM     32  C   UNL     1      85.071  10.449   4.123  1.00  0.00     0.017 A 
ATOM     33  C   UNL     1      84.911  10.006   2.796  1.00  0.00     0.012 A 
ATOM     34  C   UNL     1      86.001  11.471   4.393  1.00  0.00     0.012 A 
ATOM     35  C   UNL     1      85.649  10.588   1.760  1.00  0.00     0.001 A 
ATOM     36  C   UNL     1      86.738  12.048   3.352  1.00  0.00     0.001 A 
ATOM     37  C   UNL     1      86.560  11.609   2.038  1.00  0.00     0.000 A 
ENDBRANCH  25  32
ENDBRANCH   1  17
TORSDOF 9
ENDMDL
MODEL 3
REMARK VINA RESULT:     1.669      4.773      8.411
REMARK INTER + INTRA:           1.585
REMARK INTER:                   2.083
REMARK INTRA:                  -0.497
REMARK UNBOUND:                -0.767
REMARK SMILES COc1c(O[C@@H]2O[C@@H](C(=O)[O-])[C@H](O)[C@H](O)[C@H]2O)cc(O)c2c(=O)cc(-c3ccccc3)oc12
REMARK SMILES IDX 5 1 6 2 8 3 12 4 7 5 14 6 16 7 9 8 10 9 11 10 13 11 15 13
REMARK SMILES IDX 17 15 4 17 3 18 18 19 33 20 19 21 21 22 32 23 22 24 25 25
REMARK SMILES IDX 24 26 23 27 2 28 1 29 20 30 26 32 27 33 31 34 28 35 30 36
REMARK SMILES IDX 29 37
REMARK H PARENT 13 12 15 14 17 16 20 31
REMARK Flexibility Score: inf
ROOT
ATOM      1  O   UNL     1      84.246   0.267   0.943  1.00  0.00    -0.458 OA
ENDROOT
BRANCH   1   2
ATOM      2  C   UNL     1      85.627   0.644   1.068  1.00  0.00     0.339 C 
ATOM      3  C   UNL     1      85.988  -0.596   3.040  1.00  0.00     0.199 C 
ATOM      4  C   UNL     1      86.236   0.663   3.902  1.00  0.00     0.180 C 
ATOM      5  O   UNL     1      86.378  -0.385   1.694  1.00  0.00    -0.328 OA
ATOM      6  C   UNL     1      85.524   1.891   3.302  1.00  0.00     0.181 C 
ATOM      7  C   UNL     1      85.805   2.003   1.790  1.00  0.00     0.214 C 
BRANCH   3   8
ATOM      8  C   UNL     1      86.780  -1.752   3.580  1.00  0.00     0.073 C 
ATOM      9  O   UNL     1      87.094  -1.793   4.797  1.00  0.00    -0.547 OA
ATOM     10  O   UNL     1      87.125  -2.810   2.750  1.00  0.00    -0.547 OA
ENDBRANCH   3   8
BRANCH   4  11
ATOM     11  O   UNL     1      85.777   0.462   5.214  1.00  0.00    -0.387 OA
ATOM     12  H   UNL     1      84.869   0.066   5.146  1.00  0.00     0.211 HD
ENDBRANCH   4  11
BRANCH   6  13
ATOM     13  O   UNL     1      84.137   1.892   3.568  1.00  0.00    -0.387 OA
ATOM     14  H   UNL     1      84.003   2.011   4.543  1.00  0.00     0.211 HD
ENDBRANCH   6  13
BRANCH   7  15
ATOM     15  O   UNL     1      87.125   2.445   1.586  1.00  0.00    -0.384 OA
ATOM     16  H   UNL     1      87.381   2.968   2.394  1.00  0.00     0.211 HD
ENDBRANCH   7  15
ENDBRANCH   1   2
BRANCH   1  17
ATOM     17  C   UNL     1      83.205   1.094   0.472  1.00  0.00     0.172 A 
ATOM     18  C   UNL     1      81.868   0.631   0.511  1.00  0.00     0.205 A 
ATOM     19  C   UNL     1      83.461   2.390  -0.021  1.00  0.00     0.097 A 
ATOM     20  C   UNL     1      80.821   1.484   0.133  1.00  0.00     0.188 A 
ATOM     21  C   UNL     1      82.420   3.237  -0.418  1.00  0.00     0.134 A 
ATOM     22  C   UNL     1      81.085   2.793  -0.334  1.00  0.00     0.111 A 
ATOM     23  O   UNL     1      79.570   1.036   0.200  1.00  0.00    -0.452 OA
ATOM     24  C   UNL     1      79.983   3.591  -0.710  1.00  0.00     0.197 A 
ATOM     25  C   UNL     1      78.512   1.757  -0.162  1.00  0.00     0.138 A 
ATOM     26  C   UNL     1      78.693   3.069  -0.622  1.00  0.00     0.100 A 
ATOM     27  O   UNL     1      80.139   4.771  -1.126  1.00  0.00    -0.289 OA
BRANCH  18  28
ATOM     28  O   UNL     1      81.514  -0.667   0.917  1.00  0.00    -0.490 OA
ATOM     29  C   UNL     1      81.114  -1.723   0.048  1.00  0.00     0.278 C 
ENDBRANCH  18  28
BRANCH  21  30
ATOM     30  O   UNL     1      82.722   4.515  -0.894  1.00  0.00    -0.507 OA
ATOM     31  H   UNL     1      82.086   5.295  -0.776  1.00  0.00     0.293 HD
ENDBRANCH  21  30
BRANCH  25  32
ATOM     32  C   UNL     1      77.163   1.149  -0.058  1.00  0.00     0.017 A 
ATOM     33  C   UNL     1      77.025  -0.251  -0.118  1.00  0.00     0.012 A 
ATOM     34  C   UNL     1      76.006   1.943   0.058  1.00  0.00     0.012 A 
ATOM     35  C   UNL     1      75.761  -0.844  -0.042  1.00  0.00     0.001 A 
ATOM     36  C   UNL     1      74.743   1.344   0.132  1.00  0.00     0.001 A 
ATOM     37  C   UNL     1      74.621  -0.047   0.085  1.00  0.00     0.000 A 
ENDBRANCH  25  32
ENDBRANCH   1  17
TORSDOF 9
ENDMDL
MODEL 4
REMARK VINA RESULT:     1.704     11.256     13.462
REMARK INTER + INTRA:           1.634
REMARK INTER:                  -1.950
REMARK INTRA:                   3.585
REMARK UNBOUND:                -0.767
REMARK SMILES COc1c(O[C@@H]2O[C@@H](C(=O)[O-])[C@H](O)[C@H](O)[C@H]2O)cc(O)c2c(=O)cc(-c3ccccc3)oc12
REMARK SMILES IDX 5 1 6 2 8 3 12 4 7 5 14 6 16 7 9 8 10 9 11 10 13 11 15 13
REMARK SMILES IDX 17 15 4 17 3 18 18 19 33 20 19 21 21 22 32 23 22 24 25 25
REMARK SMILES IDX 24 26 23 27 2 28 1 29 20 30 26 32 27 33 31 34 28 35 30 36
REMARK SMILES IDX 29 37
REMARK H PARENT 13 12 15 14 17 16 20 31
REMARK Flexibility Score: inf
ROOT
ATOM      1  O   UNL     1      83.983  -3.806  -8.252  1.00  0.00    -0.458 OA
ENDROOT
BRANCH   1   2
ATOM      2  C   UNL     1      85.051  -4.269  -7.409  1.00  0.00     0.339 C 
ATOM      3  C   UNL     1      83.769  -5.960  -6.383  1.00  0.00     0.199 C 
ATOM      4  C   UNL     1      83.826  -5.292  -4.990  1.00  0.00     0.180 C 
ATOM      5  O   UNL     1      84.923  -5.658  -7.147  1.00  0.00    -0.328 OA
ATOM      6  C   UNL     1      84.028  -3.770  -5.116  1.00  0.00     0.181 C 
ATOM      7  C   UNL     1      85.170  -3.449  -6.100  1.00  0.00     0.214 C 
BRANCH   3   8
ATOM      8  C   UNL     1      83.683  -7.452  -6.235  1.00  0.00     0.073 C 
ATOM      9  O   UNL     1      84.684  -8.110  -5.849  1.00  0.00    -0.547 OA
ATOM     10  O   UNL     1      82.484  -8.109  -6.471  1.00  0.00    -0.547 OA
ENDBRANCH   3   8
BRANCH   4  11
ATOM     11  O   UNL     1      82.643  -5.540  -4.274  1.00  0.00    -0.387 OA
ATOM     12  H   UNL     1      82.203  -4.662  -4.127  1.00  0.00     0.211 HD
ENDBRANCH   4  11
BRANCH   6  13
ATOM     13  O   UNL     1      82.838  -3.096  -5.471  1.00  0.00    -0.387 OA
ATOM     14  H   UNL     1      82.088  -3.490  -4.957  1.00  0.00     0.211 HD
ENDBRANCH   6  13
BRANCH   7  15
ATOM     15  O   UNL     1      86.408  -3.744  -5.501  1.00  0.00    -0.384 OA
ATOM     16  H   UNL     1      86.351  -3.435  -4.556  1.00  0.00     0.211 HD
ENDBRANCH   7  15
ENDBRANCH   1   2
BRANCH   1  17
ATOM     17  C   UNL     1      83.525  -2.475  -8.345  1.00  0.00     0.172 A 
ATOM     18  C   UNL     1      84.325  -1.421  -7.841  1.00  0.00     0.205 A 
ATOM     19  C   UNL     1      82.290  -2.162  -8.948  1.00  0.00     0.097 A 
ATOM     20  C   UNL     1      83.918  -0.090  -8.015  1.00  0.00     0.188 A 
ATOM     21  C   UNL     1      81.872  -0.835  -9.105  1.00  0.00     0.134 A 
ATOM     22  C   UNL     1      82.691   0.216  -8.647  1.00  0.00     0.111 A 
ATOM     23  O   UNL     1      84.697   0.886  -7.555  1.00  0.00    -0.452 OA
ATOM     24  C   UNL     1      82.339   1.577  -8.776  1.00  0.00     0.197 A 
ATOM     25  C   UNL     1      84.387   2.177  -7.646  1.00  0.00     0.138 A 
ATOM     26  C   UNL     1      83.193   2.560  -8.273  1.00  0.00     0.100 A 
ATOM     27  O   UNL     1      81.266   1.928  -9.337  1.00  0.00    -0.289 OA
BRANCH  18  28
ATOM     28  O   UNL     1      85.536  -1.630  -7.160  1.00  0.00    -0.490 OA
ATOM     29  C   UNL     1      86.537  -0.642  -6.933  1.00  0.00     0.278 C 
ENDBRANCH  18  28
BRANCH  21  30
ATOM     30  O   UNL     1      80.643  -0.573  -9.715  1.00  0.00    -0.507 OA
ATOM     31  H   UNL     1      80.005  -1.317  -9.976  1.00  0.00     0.293 HD
ENDBRANCH  21  30
BRANCH  25  32
ATOM     32  C   UNL     1      85.326   3.179  -7.084  1.00  0.00     0.017 A 
ATOM     33  C   UNL     1      85.371   4.474  -7.635  1.00  0.00     0.012 A 
ATOM     34  C   UNL     1      86.207   2.853  -6.035  1.00  0.00     0.012 A 
ATOM     35  C   UNL     1      86.263   5.427  -7.133  1.00  0.00     0.001 A 
ATOM     36  C   UNL     1      87.097   3.811  -5.538  1.00  0.00     0.001 A 
ATOM     37  C   UNL     1      87.124   5.097  -6.084  1.00  0.00     0.000 A 
ENDBRANCH  25  32
ENDBRANCH   1  17
TORSDOF 9
ENDMDL
