MODEL 1
REMARK VINA RESULT:    -1.524      0.000      0.000
REMARK INTER + INTRA:          -2.970
REMARK INTER:                  -2.772
REMARK INTRA:                  -0.198
REMARK UNBOUND:                -0.198
REMARK SMILES CCCCCC=CCC=CCCCCCCCC(=O)[O-]
REMARK SMILES IDX 11 1 12 2 13 3 14 4 15 5 16 6 17 7 18 8 19 9 20 10 10 11
REMARK SMILES IDX 9 12 8 13 7 14 6 15 5 16 4 17 3 18 2 19 1 20
REMARK H PARENT
REMARK Flexibility Score: inf
ROOT
ATOM      1  C   UNL     1      -8.307  15.977 -14.525  1.00  0.00     0.027 C 
ENDROOT
BRANCH   1   2
ATOM      2  C   UNL     1      -7.098  16.762 -15.060  1.00  0.00     0.004 C 
BRANCH   2   3
ATOM      3  C   UNL     1      -5.818  16.578 -14.223  1.00  0.00     0.000 C 
BRANCH   3   4
ATOM      4  C   UNL     1      -5.156  17.920 -13.863  1.00  0.00     0.000 C 
BRANCH   4   5
ATOM      5  C   UNL     1      -4.889  18.808 -15.093  1.00  0.00     0.000 C 
BRANCH   5   6
ATOM      6  C   UNL     1      -5.671  20.134 -15.124  1.00  0.00     0.006 C 
BRANCH   6   7
ATOM      7  C   UNL     1      -5.973  20.686 -13.724  1.00  0.00     0.053 C 
BRANCH   7   8
ATOM      8  C   UNL     1      -7.243  20.102 -13.190  1.00  0.00     0.041 C 
ATOM      9  O   UNL     1      -7.349  19.831 -11.965  1.00  0.00    -0.550 OA
ATOM     10  O   UNL     1      -8.303  19.835 -14.049  1.00  0.00    -0.550 OA
ENDBRANCH   7   8
ENDBRANCH   6   7
ENDBRANCH   5   6
ENDBRANCH   4   5
ENDBRANCH   3   4
ENDBRANCH   2   3
ENDBRANCH   1   2
BRANCH   1  11
ATOM     11  C   UNL     1      -9.113  16.785 -13.537  1.00  0.00    -0.031 C 
ATOM     12  C   UNL     1      -8.920  16.776 -12.203  1.00  0.00    -0.027 C 
BRANCH  12  13
ATOM     13  C   UNL     1      -7.909  15.911 -11.492  1.00  0.00     0.054 C 
BRANCH  13  14
ATOM     14  C   UNL     1      -7.629  14.651 -12.265  1.00  0.00    -0.027 C 
ATOM     15  C   UNL     1      -6.647  13.810 -11.908  1.00  0.00    -0.031 C 
BRANCH  15  16
ATOM     16  C   UNL     1      -6.395  12.549 -12.688  1.00  0.00     0.027 C 
BRANCH  16  17
ATOM     17  C   UNL     1      -5.905  12.862 -14.109  1.00  0.00     0.004 C 
BRANCH  17  18
ATOM     18  C   UNL     1      -7.054  12.994 -15.124  1.00  0.00     0.000 C 
BRANCH  18  19
ATOM     19  C   UNL     1      -8.367  12.307 -14.708  1.00  0.00    -0.003 C 
ATOM     20  C   UNL     1      -9.596  13.192 -14.910  1.00  0.00     0.004 C 
ENDBRANCH  18  19
ENDBRANCH  17  18
ENDBRANCH  16  17
ENDBRANCH  15  16
ENDBRANCH  13  14
ENDBRANCH  12  13
ENDBRANCH   1  11
TORSDOF 14
ENDMDL
MODEL 2
REMARK VINA RESULT:     0.153      1.070      3.018
REMARK INTER + INTRA:           0.081
REMARK INTER:                  -2.082
REMARK INTRA:                   2.163
REMARK UNBOUND:                -0.198
REMARK SMILES CCCCCC=CCC=CCCCCCCCC(=O)[O-]
REMARK SMILES IDX 11 1 12 2 13 3 14 4 15 5 16 6 17 7 18 8 19 9 20 10 10 11
REMARK SMILES IDX 9 12 8 13 7 14 6 15 5 16 4 17 3 18 2 19 1 20
REMARK H PARENT
REMARK Flexibility Score: inf
ROOT
ATOM      1  C   UNL     1      -7.503  15.260 -14.834  1.00  0.00     0.027 C 
ENDROOT
BRANCH   1   2
ATOM      2  C   UNL     1      -5.980  15.205 -15.043  1.00  0.00     0.004 C 
BRANCH   2   3
ATOM      3  C   UNL     1      -5.262  16.531 -14.730  1.00  0.00     0.000 C 
BRANCH   3   4
ATOM      4  C   UNL     1      -6.151  17.757 -15.001  1.00  0.00     0.000 C 
BRANCH   4   5
ATOM      5  C   UNL     1      -5.428  19.093 -14.747  1.00  0.00     0.000 C 
BRANCH   5   6
ATOM      6  C   UNL     1      -6.229  20.353 -15.124  1.00  0.00     0.006 C 
BRANCH   6   7
ATOM      7  C   UNL     1      -7.159  20.832 -14.001  1.00  0.00     0.053 C 
BRANCH   7   8
ATOM      8  C   UNL     1      -6.675  20.345 -12.671  1.00  0.00     0.041 C 
ATOM      9  O   UNL     1      -7.234  19.363 -12.115  1.00  0.00    -0.550 OA
ATOM     10  O   UNL     1      -5.621  20.989 -12.034  1.00  0.00    -0.550 OA
ENDBRANCH   7   8
ENDBRANCH   6   7
ENDBRANCH   5   6
ENDBRANCH   4   5
ENDBRANCH   3   4
ENDBRANCH   2   3
ENDBRANCH   1   2
BRANCH   1  11
ATOM     11  C   UNL     1      -8.160  13.932 -15.123  1.00  0.00    -0.031 C 
ATOM     12  C   UNL     1      -7.774  12.756 -14.592  1.00  0.00    -0.027 C 
BRANCH  12  13
ATOM     13  C   UNL     1      -6.588  12.580 -13.676  1.00  0.00     0.054 C 
BRANCH  13  14
ATOM     14  C   UNL     1      -6.503  13.698 -12.673  1.00  0.00    -0.027 C 
ATOM     15  C   UNL     1      -7.444  13.874 -11.734  1.00  0.00    -0.031 C 
BRANCH  15  16
ATOM     16  C   UNL     1      -7.329  14.991 -10.733  1.00  0.00     0.027 C 
BRANCH  16  17
ATOM     17  C   UNL     1      -7.397  16.362 -11.419  1.00  0.00     0.004 C 
BRANCH  17  18
ATOM     18  C   UNL     1      -8.840  16.839 -11.664  1.00  0.00     0.000 C 
BRANCH  18  19
ATOM     19  C   UNL     1      -9.416  16.474 -13.043  1.00  0.00    -0.003 C 
ATOM     20  C   UNL     1      -9.098  17.513 -14.118  1.00  0.00     0.004 C 
ENDBRANCH  18  19
ENDBRANCH  17  18
ENDBRANCH  16  17
ENDBRANCH  15  16
ENDBRANCH  13  14
ENDBRANCH  12  13
ENDBRANCH   1  11
TORSDOF 14
ENDMDL
MODEL 3
REMARK VINA RESULT:     0.433      1.307      3.378
REMARK INTER + INTRA:           0.591
REMARK INTER:                  -0.181
REMARK INTRA:                   0.772
REMARK UNBOUND:                -0.198
REMARK SMILES CCCCCC=CCC=CCCCCCCCC(=O)[O-]
REMARK SMILES IDX 11 1 12 2 13 3 14 4 15 5 16 6 17 7 18 8 19 9 20 10 10 11
REMARK SMILES IDX 9 12 8 13 7 14 6 15 5 16 4 17 3 18 2 19 1 20
REMARK H PARENT
REMARK Flexibility Score: inf
ROOT
ATOM      1  C   UNL     1      -7.528  14.855 -15.117  1.00  0.00     0.027 C 
ENDROOT
BRANCH   1   2
ATOM      2  C   UNL     1      -6.029  14.521 -15.036  1.00  0.00     0.004 C 
BRANCH   2   3
ATOM      3  C   UNL     1      -5.112  15.755 -15.124  1.00  0.00     0.000 C 
BRANCH   3   4
ATOM      4  C   UNL     1      -4.944  16.458 -13.766  1.00  0.00     0.000 C 
BRANCH   4   5
ATOM      5  C   UNL     1      -5.477  17.904 -13.767  1.00  0.00     0.000 C 
BRANCH   5   6
ATOM      6  C   UNL     1      -5.000  18.775 -14.944  1.00  0.00     0.006 C 
BRANCH   6   7
ATOM      7  C   UNL     1      -5.056  20.279 -14.639  1.00  0.00     0.053 C 
BRANCH   7   8
ATOM      8  C   UNL     1      -5.642  20.521 -13.284  1.00  0.00     0.041 C 
ATOM      9  O   UNL     1      -4.912  20.464 -12.259  1.00  0.00    -0.550 OA
ATOM     10  O   UNL     1      -6.999  20.786 -13.149  1.00  0.00    -0.550 OA
ENDBRANCH   7   8
ENDBRANCH   6   7
ENDBRANCH   5   6
ENDBRANCH   4   5
ENDBRANCH   3   4
ENDBRANCH   2   3
ENDBRANCH   1   2
BRANCH   1  11
ATOM     11  C   UNL     1      -8.391  13.662 -14.783  1.00  0.00    -0.031 C 
ATOM     12  C   UNL     1      -8.264  12.914 -13.670  1.00  0.00    -0.027 C 
BRANCH  12  13
ATOM     13  C   UNL     1      -7.201  13.119 -12.619  1.00  0.00     0.054 C 
BRANCH  13  14
ATOM     14  C   UNL     1      -7.110  14.565 -12.210  1.00  0.00    -0.027 C 
ATOM     15  C   UNL     1      -8.027  15.129 -11.411  1.00  0.00    -0.031 C 
BRANCH  15  16
ATOM     16  C   UNL     1      -7.907  16.572 -11.005  1.00  0.00     0.027 C 
BRANCH  16  17
ATOM     17  C   UNL     1      -9.142  17.376 -11.435  1.00  0.00     0.004 C 
BRANCH  17  18
ATOM     18  C   UNL     1      -9.331  17.412 -12.962  1.00  0.00     0.000 C 
BRANCH  18  19
ATOM     19  C   UNL     1      -8.175  18.065 -13.741  1.00  0.00    -0.003 C 
ATOM     20  C   UNL     1      -8.599  18.588 -15.113  1.00  0.00     0.004 C 
ENDBRANCH  18  19
ENDBRANCH  17  18
ENDBRANCH  16  17
ENDBRANCH  15  16
ENDBRANCH  13  14
ENDBRANCH  12  13
ENDBRANCH   1  11
TORSDOF 14
ENDMDL
MODEL 4
REMARK VINA RESULT:     0.590      1.659      2.649
REMARK INTER + INTRA:           0.875
REMARK INTER:                  -1.131
REMARK INTRA:                   2.006
REMARK UNBOUND:                -0.198
REMARK SMILES CCCCCC=CCC=CCCCCCCCC(=O)[O-]
REMARK SMILES IDX 11 1 12 2 13 3 14 4 15 5 16 6 17 7 18 8 19 9 20 10 10 11
REMARK SMILES IDX 9 12 8 13 7 14 6 15 5 16 4 17 3 18 2 19 1 20
REMARK H PARENT
REMARK Flexibility Score: inf
ROOT
ATOM      1  C   UNL     1      -8.751  17.883 -11.721  1.00  0.00     0.027 C 
ENDROOT
BRANCH   1   2
ATOM      2  C   UNL     1      -8.569  18.763 -12.969  1.00  0.00     0.004 C 
BRANCH   2   3
ATOM      3  C   UNL     1      -7.875  20.108 -12.685  1.00  0.00     0.000 C 
BRANCH   3   4
ATOM      4  C   UNL     1      -8.070  21.121 -13.826  1.00  0.00     0.000 C 
BRANCH   4   5
ATOM      5  C   UNL     1      -7.315  20.733 -15.111  1.00  0.00     0.000 C 
BRANCH   5   6
ATOM      6  C   UNL     1      -5.815  21.081 -15.118  1.00  0.00     0.006 C 
BRANCH   6   7
ATOM      7  C   UNL     1      -4.911  19.846 -14.996  1.00  0.00     0.053 C 
BRANCH   7   8
ATOM      8  C   UNL     1      -5.016  19.248 -13.628  1.00  0.00     0.041 C 
ATOM      9  O   UNL     1      -5.247  18.017 -13.493  1.00  0.00    -0.550 OA
ATOM     10  O   UNL     1      -4.884  20.052 -12.503  1.00  0.00    -0.550 OA
ENDBRANCH   7   8
ENDBRANCH   6   7
ENDBRANCH   5   6
ENDBRANCH   4   5
ENDBRANCH   3   4
ENDBRANCH   2   3
ENDBRANCH   1   2
BRANCH   1  11
ATOM     11  C   UNL     1      -9.124  16.465 -12.079  1.00  0.00    -0.031 C 
ATOM     12  C   UNL     1      -8.248  15.518 -12.467  1.00  0.00    -0.027 C 
BRANCH  12  13
ATOM     13  C   UNL     1      -6.769  15.750 -12.659  1.00  0.00     0.054 C 
BRANCH  13  14
ATOM     14  C   UNL     1      -6.269  15.078 -13.908  1.00  0.00    -0.027 C 
ATOM     15  C   UNL     1      -5.350  14.102 -13.862  1.00  0.00    -0.031 C 
BRANCH  15  16
ATOM     16  C   UNL     1      -4.875  13.436 -15.125  1.00  0.00     0.027 C 
BRANCH  16  17
ATOM     17  C   UNL     1      -5.047  11.913 -15.048  1.00  0.00     0.004 C 
BRANCH  17  18
ATOM     18  C   UNL     1      -6.240  11.487 -14.173  1.00  0.00     0.000 C 
BRANCH  18  19
ATOM     19  C   UNL     1      -7.362  12.534 -14.057  1.00  0.00    -0.003 C 
ATOM     20  C   UNL     1      -8.623  12.146 -14.828  1.00  0.00     0.004 C 
ENDBRANCH  18  19
ENDBRANCH  17  18
ENDBRANCH  16  17
ENDBRANCH  15  16
ENDBRANCH  13  14
ENDBRANCH  12  13
ENDBRANCH   1  11
TORSDOF 14
ENDMDL
MODEL 5
REMARK VINA RESULT:     0.596      2.718      6.375
REMARK INTER + INTRA:           0.885
REMARK INTER:                  -0.452
REMARK INTRA:                   1.337
REMARK UNBOUND:                -0.198
REMARK SMILES CCCCCC=CCC=CCCCCCCCC(=O)[O-]
REMARK SMILES IDX 11 1 12 2 13 3 14 4 15 5 16 6 17 7 18 8 19 9 20 10 10 11
REMARK SMILES IDX 9 12 8 13 7 14 6 15 5 16 4 17 3 18 2 19 1 20
REMARK H PARENT
REMARK Flexibility Score: inf
ROOT
ATOM      1  C   UNL     1      -8.314  15.685 -11.928  1.00  0.00     0.027 C 
ENDROOT
BRANCH   1   2
ATOM      2  C   UNL     1      -8.240  14.353 -12.693  1.00  0.00     0.004 C 
BRANCH   2   3
ATOM      3  C   UNL     1      -7.452  13.255 -11.953  1.00  0.00     0.000 C 
BRANCH   3   4
ATOM      4  C   UNL     1      -6.053  13.032 -12.554  1.00  0.00     0.000 C 
BRANCH   4   5
ATOM      5  C   UNL     1      -6.009  13.261 -14.076  1.00  0.00     0.000 C 
BRANCH   5   6
ATOM      6  C   UNL     1      -7.069  12.491 -14.884  1.00  0.00     0.006 C 
BRANCH   6   7
ATOM      7  C   UNL     1      -8.364  13.289 -15.092  1.00  0.00     0.053 C 
BRANCH   7   8
ATOM      8  C   UNL     1      -9.550  12.376 -15.103  1.00  0.00     0.041 C 
ATOM      9  O   UNL     1      -9.388  11.128 -15.117  1.00  0.00    -0.550 OA
ATOM     10  O   UNL     1     -10.835  12.905 -15.121  1.00  0.00    -0.550 OA
ENDBRANCH   7   8
ENDBRANCH   6   7
ENDBRANCH   5   6
ENDBRANCH   4   5
ENDBRANCH   3   4
ENDBRANCH   2   3
ENDBRANCH   1   2
BRANCH   1  11
ATOM     11  C   UNL     1      -8.942  16.778 -12.759  1.00  0.00    -0.031 C 
ATOM     12  C   UNL     1      -8.608  17.059 -14.033  1.00  0.00    -0.027 C 
BRANCH  12  13
ATOM     13  C   UNL     1      -7.513  16.361 -14.803  1.00  0.00     0.054 C 
BRANCH  13  14
ATOM     14  C   UNL     1      -6.235  17.153 -14.773  1.00  0.00    -0.027 C 
ATOM     15  C   UNL     1      -6.169  18.361 -14.194  1.00  0.00    -0.031 C 
BRANCH  15  16
ATOM     16  C   UNL     1      -4.875  19.128 -14.165  1.00  0.00     0.027 C 
BRANCH  16  17
ATOM     17  C   UNL     1      -5.127  20.642 -14.134  1.00  0.00     0.004 C 
BRANCH  17  18
ATOM     18  C   UNL     1      -5.892  21.096 -12.878  1.00  0.00     0.000 C 
BRANCH  18  19
ATOM     19  C   UNL     1      -7.384  20.722 -12.860  1.00  0.00    -0.003 C 
ATOM     20  C   UNL     1      -8.117  21.124 -14.140  1.00  0.00     0.004 C 
ENDBRANCH  18  19
ENDBRANCH  17  18
ENDBRANCH  16  17
ENDBRANCH  15  16
ENDBRANCH  13  14
ENDBRANCH  12  13
ENDBRANCH   1  11
TORSDOF 14
ENDMDL
MODEL 6
REMARK VINA RESULT:     1.091      1.148      3.274
REMARK INTER + INTRA:           1.787
REMARK INTER:                   0.843
REMARK INTRA:                   0.943
REMARK UNBOUND:                -0.198
REMARK SMILES CCCCCC=CCC=CCCCCCCCC(=O)[O-]
REMARK SMILES IDX 11 1 12 2 13 3 14 4 15 5 16 6 17 7 18 8 19 9 20 10 10 11
REMARK SMILES IDX 9 12 8 13 7 14 6 15 5 16 4 17 3 18 2 19 1 20
REMARK H PARENT
REMARK Flexibility Score: inf
ROOT
ATOM      1  C   UNL     1      -6.254  15.490 -14.711  1.00  0.00     0.027 C 
ENDROOT
BRANCH   1   2
ATOM      2  C   UNL     1      -5.950  16.990 -14.863  1.00  0.00     0.004 C 
BRANCH   2   3
ATOM      3  C   UNL     1      -4.876  17.508 -13.888  1.00  0.00     0.000 C 
BRANCH   3   4
ATOM      4  C   UNL     1      -4.898  19.041 -13.752  1.00  0.00     0.000 C 
BRANCH   4   5
ATOM      5  C   UNL     1      -5.129  19.760 -15.094  1.00  0.00     0.000 C 
BRANCH   5   6
ATOM      6  C   UNL     1      -6.292  20.769 -15.103  1.00  0.00     0.006 C 
BRANCH   6   7
ATOM      7  C   UNL     1      -6.836  21.072 -13.700  1.00  0.00     0.053 C 
BRANCH   7   8
ATOM      8  C   UNL     1      -7.801  20.012 -13.269  1.00  0.00     0.041 C 
ATOM      9  O   UNL     1      -8.461  19.369 -14.127  1.00  0.00    -0.550 OA
ATOM     10  O   UNL     1      -7.989  19.750 -11.917  1.00  0.00    -0.550 OA
ENDBRANCH   7   8
ENDBRANCH   6   7
ENDBRANCH   5   6
ENDBRANCH   4   5
ENDBRANCH   3   4
ENDBRANCH   2   3
ENDBRANCH   1   2
BRANCH   1  11
ATOM     11  C   UNL     1      -5.238  14.794 -13.837  1.00  0.00    -0.031 C 
ATOM     12  C   UNL     1      -4.875  13.503 -13.966  1.00  0.00    -0.027 C 
BRANCH  12  13
ATOM     13  C   UNL     1      -5.473  12.543 -14.964  1.00  0.00     0.054 C 
BRANCH  13  14
ATOM     14  C   UNL     1      -6.966  12.448 -14.804  1.00  0.00    -0.027 C 
ATOM     15  C   UNL     1      -7.770  13.488 -15.068  1.00  0.00    -0.031 C 
BRANCH  15  16
ATOM     16  C   UNL     1      -9.260  13.364 -14.913  1.00  0.00     0.027 C 
BRANCH  16  17
ATOM     17  C   UNL     1      -9.802  14.382 -13.900  1.00  0.00     0.004 C 
BRANCH  17  18
ATOM     18  C   UNL     1      -8.985  15.687 -13.869  1.00  0.00     0.000 C 
BRANCH  18  19
ATOM     19  C   UNL     1      -9.208  16.559 -12.620  1.00  0.00    -0.003 C 
ATOM     20  C   UNL     1      -8.243  16.229 -11.482  1.00  0.00     0.004 C 
ENDBRANCH  18  19
ENDBRANCH  17  18
ENDBRANCH  16  17
ENDBRANCH  15  16
ENDBRANCH  13  14
ENDBRANCH  12  13
ENDBRANCH   1  11
TORSDOF 14
ENDMDL
