MODEL 1
REMARK VINA RESULT:    -3.767      0.000      0.000
REMARK INTER + INTRA:         -13.550
REMARK INTER:                  -9.822
REMARK INTRA:                  -3.728
REMARK UNBOUND:                -3.728
REMARK SMILES CCCCCCCCCCCCCCCCCCCCCCCCCCCCCO
REMARK SMILES IDX 16 1 15 2 14 3 13 4 12 5 11 6 10 7 9 8 8 9 7 10 6 11 5 12
REMARK SMILES IDX 4 13 3 14 2 15 1 16 17 17 18 18 19 19 20 20 21 21 22 22
REMARK SMILES IDX 23 23 24 24 25 25 26 26 27 27 28 28 29 29 30 30
REMARK H PARENT 30 31
REMARK Flexibility Score: inf
ROOT
ATOM      1  C   UNL     1     166.583 177.392 163.709  1.00  0.00     0.000 C 
ENDROOT
BRANCH   1   2
ATOM      2  C   UNL     1     167.182 176.572 162.551  1.00  0.00     0.000 C 
BRANCH   2   3
ATOM      3  C   UNL     1     166.202 175.613 161.847  1.00  0.00     0.000 C 
BRANCH   3   4
ATOM      4  C   UNL     1     166.615 174.129 161.856  1.00  0.00     0.000 C 
BRANCH   4   5
ATOM      5  C   UNL     1     167.200 173.680 163.204  1.00  0.00     0.000 C 
BRANCH   5   6
ATOM      6  C   UNL     1     168.329 172.643 163.053  1.00  0.00     0.000 C 
BRANCH   6   7
ATOM      7  C   UNL     1     168.357 171.542 164.129  1.00  0.00     0.000 C 
BRANCH   7   8
ATOM      8  C   UNL     1     167.142 170.605 164.061  1.00  0.00    -0.000 C 
BRANCH   8   9
ATOM      9  C   UNL     1     167.043 169.932 162.686  1.00  0.00    -0.000 C 
BRANCH   9  10
ATOM     10  C   UNL     1     166.875 168.412 162.828  1.00  0.00    -0.000 C 
BRANCH  10  11
ATOM     11  C   UNL     1     168.221 167.675 162.927  1.00  0.00    -0.000 C 
BRANCH  11  12
ATOM     12  C   UNL     1     169.049 167.781 161.636  1.00  0.00    -0.000 C 
BRANCH  12  13
ATOM     13  C   UNL     1     170.154 168.849 161.721  1.00  0.00    -0.000 C 
BRANCH  13  14
ATOM     14  C   UNL     1     170.830 168.928 163.106  1.00  0.00    -0.000 C 
BRANCH  14  15
ATOM     15  C   UNL     1     172.071 169.834 163.096  1.00  0.00    -0.003 C 
ATOM     16  C   UNL     1     171.915 170.993 164.077  1.00  0.00     0.004 C 
ENDBRANCH  14  15
ENDBRANCH  13  14
ENDBRANCH  12  13
ENDBRANCH  11  12
ENDBRANCH  10  11
ENDBRANCH   9  10
ENDBRANCH   8   9
ENDBRANCH   7   8
ENDBRANCH   6   7
ENDBRANCH   5   6
ENDBRANCH   4   5
ENDBRANCH   3   4
ENDBRANCH   2   3
ENDBRANCH   1   2
BRANCH   1  17
ATOM     17  C   UNL     1     165.528 176.626 164.536  1.00  0.00     0.000 C 
BRANCH  17  18
ATOM     18  C   UNL     1     166.012 176.300 165.960  1.00  0.00     0.000 C 
BRANCH  18  19
ATOM     19  C   UNL     1     164.895 176.408 167.015  1.00  0.00     0.000 C 
BRANCH  19  20
ATOM     20  C   UNL     1     164.873 177.723 167.817  1.00  0.00     0.000 C 
BRANCH  20  21
ATOM     21  C   UNL     1     166.000 178.692 167.415  1.00  0.00     0.000 C 
BRANCH  21  22
ATOM     22  C   UNL     1     165.477 179.978 166.749  1.00  0.00     0.000 C 
BRANCH  22  23
ATOM     23  C   UNL     1     164.000 180.307 167.027  1.00  0.00     0.000 C 
BRANCH  23  24
ATOM     24  C   UNL     1     163.176 180.517 165.743  1.00  0.00     0.000 C 
BRANCH  24  25
ATOM     25  C   UNL     1     163.247 179.297 164.798  1.00  0.00     0.000 C 
BRANCH  25  26
ATOM     26  C   UNL     1     161.947 178.470 164.747  1.00  0.00     0.000 C 
BRANCH  26  27
ATOM     27  C   UNL     1     161.632 177.672 166.023  1.00  0.00     0.002 C 
BRANCH  27  28
ATOM     28  C   UNL     1     160.447 178.252 166.813  1.00  0.00     0.028 C 
BRANCH  28  29
ATOM     29  C   UNL     1     160.813 178.518 168.276  1.00  0.00     0.156 C 
BRANCH  29  30
ATOM     30  O   UNL     1     161.498 177.423 168.823  1.00  0.00    -0.396 OA
ATOM     31  H   UNL     1     162.221 177.791 169.397  1.00  0.00     0.210 HD
ENDBRANCH  29  30
ENDBRANCH  28  29
ENDBRANCH  27  28
ENDBRANCH  26  27
ENDBRANCH  25  26
ENDBRANCH  24  25
ENDBRANCH  23  24
ENDBRANCH  22  23
ENDBRANCH  21  22
ENDBRANCH  20  21
ENDBRANCH  19  20
ENDBRANCH  18  19
ENDBRANCH  17  18
ENDBRANCH   1  17
TORSDOF 28
ENDMDL
MODEL 2
REMARK VINA RESULT:    -3.744      1.800      3.441
REMARK INTER + INTRA:         -13.491
REMARK INTER:                  -9.692
REMARK INTRA:                  -3.800
REMARK UNBOUND:                -3.728
REMARK SMILES CCCCCCCCCCCCCCCCCCCCCCCCCCCCCO
REMARK SMILES IDX 16 1 15 2 14 3 13 4 12 5 11 6 10 7 9 8 8 9 7 10 6 11 5 12
REMARK SMILES IDX 4 13 3 14 2 15 1 16 17 17 18 18 19 19 20 20 21 21 22 22
REMARK SMILES IDX 23 23 24 24 25 25 26 26 27 27 28 28 29 29 30 30
REMARK H PARENT 30 31
REMARK Flexibility Score: inf
ROOT
ATOM      1  C   UNL     1     165.905 176.727 165.952  1.00  0.00     0.000 C 
ENDROOT
BRANCH   1   2
ATOM      2  C   UNL     1     166.373 176.089 164.630  1.00  0.00     0.000 C 
BRANCH   2   3
ATOM      3  C   UNL     1     166.605 177.076 163.469  1.00  0.00     0.000 C 
BRANCH   3   4
ATOM      4  C   UNL     1     167.481 176.542 162.319  1.00  0.00     0.000 C 
BRANCH   4   5
ATOM      5  C   UNL     1     166.666 176.181 161.066  1.00  0.00     0.000 C 
BRANCH   5   6
ATOM      6  C   UNL     1     166.325 174.681 160.984  1.00  0.00     0.000 C 
BRANCH   6   7
ATOM      7  C   UNL     1     167.438 173.785 160.412  1.00  0.00     0.000 C 
BRANCH   7   8
ATOM      8  C   UNL     1     167.783 172.600 161.327  1.00  0.00    -0.000 C 
BRANCH   8   9
ATOM      9  C   UNL     1     167.345 172.875 162.771  1.00  0.00    -0.000 C 
BRANCH   9  10
ATOM     10  C   UNL     1     168.250 172.138 163.770  1.00  0.00    -0.000 C 
BRANCH  10  11
ATOM     11  C   UNL     1     167.635 170.819 164.265  1.00  0.00    -0.000 C 
BRANCH  11  12
ATOM     12  C   UNL     1     168.594 169.627 164.113  1.00  0.00    -0.000 C 
BRANCH  12  13
ATOM     13  C   UNL     1     169.601 169.813 162.963  1.00  0.00    -0.000 C 
BRANCH  13  14
ATOM     14  C   UNL     1     170.880 168.964 163.118  1.00  0.00    -0.000 C 
BRANCH  14  15
ATOM     15  C   UNL     1     172.153 169.823 163.112  1.00  0.00    -0.003 C 
ATOM     16  C   UNL     1     171.951 171.111 163.907  1.00  0.00     0.004 C 
ENDBRANCH  14  15
ENDBRANCH  13  14
ENDBRANCH  12  13
ENDBRANCH  11  12
ENDBRANCH  10  11
ENDBRANCH   9  10
ENDBRANCH   8   9
ENDBRANCH   7   8
ENDBRANCH   6   7
ENDBRANCH   5   6
ENDBRANCH   4   5
ENDBRANCH   3   4
ENDBRANCH   2   3
ENDBRANCH   1   2
BRANCH   1  17
ATOM     17  C   UNL     1     165.757 178.262 165.886  1.00  0.00     0.000 C 
BRANCH  17  18
ATOM     18  C   UNL     1     165.262 178.868 167.212  1.00  0.00     0.000 C 
BRANCH  18  19
ATOM     19  C   UNL     1     164.671 177.818 168.170  1.00  0.00     0.000 C 
BRANCH  19  20
ATOM     20  C   UNL     1     163.225 178.087 168.629  1.00  0.00     0.000 C 
BRANCH  20  21
ATOM     21  C   UNL     1     162.498 179.121 167.751  1.00  0.00     0.000 C 
BRANCH  21  22
ATOM     22  C   UNL     1     160.982 178.865 167.652  1.00  0.00     0.000 C 
BRANCH  22  23
ATOM     23  C   UNL     1     160.443 177.756 168.573  1.00  0.00     0.000 C 
BRANCH  23  24
ATOM     24  C   UNL     1     159.587 176.716 167.827  1.00  0.00     0.000 C 
BRANCH  24  25
ATOM     25  C   UNL     1     159.829 176.746 166.302  1.00  0.00     0.000 C 
BRANCH  25  26
ATOM     26  C   UNL     1     160.749 175.618 165.793  1.00  0.00     0.000 C 
BRANCH  26  27
ATOM     27  C   UNL     1     162.199 176.041 165.503  1.00  0.00     0.002 C 
BRANCH  27  28
ATOM     28  C   UNL     1     162.302 177.105 164.397  1.00  0.00     0.028 C 
BRANCH  28  29
ATOM     29  C   UNL     1     163.039 176.574 163.164  1.00  0.00     0.156 C 
BRANCH  29  30
ATOM     30  O   UNL     1     163.126 175.175 163.202  1.00  0.00    -0.396 OA
ATOM     31  H   UNL     1     162.198 174.829 163.262  1.00  0.00     0.210 HD
ENDBRANCH  29  30
ENDBRANCH  28  29
ENDBRANCH  27  28
ENDBRANCH  26  27
ENDBRANCH  25  26
ENDBRANCH  24  25
ENDBRANCH  23  24
ENDBRANCH  22  23
ENDBRANCH  21  22
ENDBRANCH  20  21
ENDBRANCH  19  20
ENDBRANCH  18  19
ENDBRANCH  17  18
ENDBRANCH   1  17
TORSDOF 28
ENDMDL
MODEL 3
REMARK VINA RESULT:    -3.661      1.087      2.154
REMARK INTER + INTRA:         -13.275
REMARK INTER:                  -9.746
REMARK INTRA:                  -3.528
REMARK UNBOUND:                -3.728
REMARK SMILES CCCCCCCCCCCCCCCCCCCCCCCCCCCCCO
REMARK SMILES IDX 16 1 15 2 14 3 13 4 12 5 11 6 10 7 9 8 8 9 7 10 6 11 5 12
REMARK SMILES IDX 4 13 3 14 2 15 1 16 17 17 18 18 19 19 20 20 21 21 22 22
REMARK SMILES IDX 23 23 24 24 25 25 26 26 27 27 28 28 29 29 30 30
REMARK H PARENT 30 31
REMARK Flexibility Score: inf
ROOT
ATOM      1  C   UNL     1     166.053 176.360 166.033  1.00  0.00     0.000 C 
ENDROOT
BRANCH   1   2
ATOM      2  C   UNL     1     165.831 176.611 164.529  1.00  0.00     0.000 C 
BRANCH   2   3
ATOM      3  C   UNL     1     166.659 175.718 163.584  1.00  0.00     0.000 C 
BRANCH   3   4
ATOM      4  C   UNL     1     167.284 174.472 164.239  1.00  0.00     0.000 C 
BRANCH   4   5
ATOM      5  C   UNL     1     167.750 173.427 163.212  1.00  0.00     0.000 C 
BRANCH   5   6
ATOM      6  C   UNL     1     168.325 172.157 163.867  1.00  0.00     0.000 C 
BRANCH   6   7
ATOM      7  C   UNL     1     168.629 170.999 162.898  1.00  0.00     0.000 C 
BRANCH   7   8
ATOM      8  C   UNL     1     167.995 169.670 163.336  1.00  0.00    -0.000 C 
BRANCH   8   9
ATOM      9  C   UNL     1     167.140 169.071 162.213  1.00  0.00    -0.000 C 
BRANCH   9  10
ATOM     10  C   UNL     1     166.535 167.725 162.639  1.00  0.00    -0.000 C 
BRANCH  10  11
ATOM     11  C   UNL     1     167.499 166.547 162.422  1.00  0.00    -0.000 C 
BRANCH  11  12
ATOM     12  C   UNL     1     167.812 166.305 160.937  1.00  0.00    -0.000 C 
BRANCH  12  13
ATOM     13  C   UNL     1     169.303 166.486 160.603  1.00  0.00    -0.000 C 
BRANCH  13  14
ATOM     14  C   UNL     1     170.145 166.995 161.792  1.00  0.00    -0.000 C 
BRANCH  14  15
ATOM     15  C   UNL     1     170.853 168.320 161.478  1.00  0.00    -0.003 C 
ATOM     16  C   UNL     1     171.789 168.728 162.613  1.00  0.00     0.004 C 
ENDBRANCH  14  15
ENDBRANCH  13  14
ENDBRANCH  12  13
ENDBRANCH  11  12
ENDBRANCH  10  11
ENDBRANCH   9  10
ENDBRANCH   8   9
ENDBRANCH   7   8
ENDBRANCH   6   7
ENDBRANCH   5   6
ENDBRANCH   4   5
ENDBRANCH   3   4
ENDBRANCH   2   3
ENDBRANCH   1   2
BRANCH   1  17
ATOM     17  C   UNL     1     164.785 176.552 166.891  1.00  0.00     0.000 C 
BRANCH  17  18
ATOM     18  C   UNL     1     164.883 177.765 167.833  1.00  0.00     0.000 C 
BRANCH  18  19
ATOM     19  C   UNL     1     166.012 178.738 167.446  1.00  0.00     0.000 C 
BRANCH  19  20
ATOM     20  C   UNL     1     165.556 180.025 166.735  1.00  0.00     0.000 C 
BRANCH  20  21
ATOM     21  C   UNL     1     164.090 180.391 167.033  1.00  0.00     0.000 C 
BRANCH  21  22
ATOM     22  C   UNL     1     163.219 180.460 165.766  1.00  0.00     0.000 C 
BRANCH  22  23
ATOM     23  C   UNL     1     163.510 179.379 164.709  1.00  0.00     0.000 C 
BRANCH  23  24
ATOM     24  C   UNL     1     162.287 178.499 164.393  1.00  0.00     0.000 C 
BRANCH  24  25
ATOM     25  C   UNL     1     161.745 177.779 165.648  1.00  0.00     0.000 C 
BRANCH  25  26
ATOM     26  C   UNL     1     160.321 178.210 166.052  1.00  0.00     0.000 C 
BRANCH  26  27
ATOM     27  C   UNL     1     160.174 178.695 167.503  1.00  0.00     0.002 C 
BRANCH  27  28
ATOM     28  C   UNL     1     161.368 178.302 168.389  1.00  0.00     0.028 C 
BRANCH  28  29
ATOM     29  C   UNL     1     160.915 177.665 169.706  1.00  0.00     0.156 C 
BRANCH  29  30
ATOM     30  O   UNL     1     162.010 177.134 170.403  1.00  0.00    -0.396 OA
ATOM     31  H   UNL     1     162.497 177.901 170.803  1.00  0.00     0.210 HD
ENDBRANCH  29  30
ENDBRANCH  28  29
ENDBRANCH  27  28
ENDBRANCH  26  27
ENDBRANCH  25  26
ENDBRANCH  24  25
ENDBRANCH  23  24
ENDBRANCH  22  23
ENDBRANCH  21  22
ENDBRANCH  20  21
ENDBRANCH  19  20
ENDBRANCH  18  19
ENDBRANCH  17  18
ENDBRANCH   1  17
TORSDOF 28
ENDMDL
MODEL 4
REMARK VINA RESULT:    -3.648      3.214      9.182
REMARK INTER + INTRA:         -13.240
REMARK INTER:                  -7.775
REMARK INTRA:                  -5.464
REMARK UNBOUND:                -3.728
REMARK SMILES CCCCCCCCCCCCCCCCCCCCCCCCCCCCCO
REMARK SMILES IDX 16 1 15 2 14 3 13 4 12 5 11 6 10 7 9 8 8 9 7 10 6 11 5 12
REMARK SMILES IDX 4 13 3 14 2 15 1 16 17 17 18 18 19 19 20 20 21 21 22 22
REMARK SMILES IDX 23 23 24 24 25 25 26 26 27 27 28 28 29 29 30 30
REMARK H PARENT 30 31
REMARK Flexibility Score: inf
ROOT
ATOM      1  C   UNL     1     165.758 176.429 164.535  1.00  0.00     0.000 C 
ENDROOT
BRANCH   1   2
ATOM      2  C   UNL     1     165.990 176.310 166.054  1.00  0.00     0.000 C 
BRANCH   2   3
ATOM      3  C   UNL     1     164.773 176.657 166.934  1.00  0.00     0.000 C 
BRANCH   3   4
ATOM      4  C   UNL     1     164.989 177.819 167.923  1.00  0.00     0.000 C 
BRANCH   4   5
ATOM      5  C   UNL     1     166.030 178.837 167.430  1.00  0.00     0.000 C 
BRANCH   5   6
ATOM      6  C   UNL     1     165.409 179.974 166.595  1.00  0.00     0.000 C 
BRANCH   6   7
ATOM      7  C   UNL     1     163.955 180.332 166.954  1.00  0.00     0.000 C 
BRANCH   7   8
ATOM      8  C   UNL     1     162.995 180.200 165.762  1.00  0.00    -0.000 C 
BRANCH   8   9
ATOM      9  C   UNL     1     161.945 179.112 166.019  1.00  0.00    -0.000 C 
BRANCH   9  10
ATOM     10  C   UNL     1     161.715 178.914 167.525  1.00  0.00    -0.000 C 
BRANCH  10  11
ATOM     11  C   UNL     1     160.241 178.643 167.868  1.00  0.00    -0.000 C 
BRANCH  11  12
ATOM     12  C   UNL     1     160.006 177.211 168.377  1.00  0.00    -0.000 C 
BRANCH  12  13
ATOM     13  C   UNL     1     158.959 176.447 167.547  1.00  0.00    -0.000 C 
BRANCH  13  14
ATOM     14  C   UNL     1     159.560 175.325 166.675  1.00  0.00    -0.000 C 
BRANCH  14  15
ATOM     15  C   UNL     1     160.132 175.860 165.353  1.00  0.00    -0.003 C 
ATOM     16  C   UNL     1     161.624 175.560 165.238  1.00  0.00     0.004 C 
ENDBRANCH  14  15
ENDBRANCH  13  14
ENDBRANCH  12  13
ENDBRANCH  11  12
ENDBRANCH  10  11
ENDBRANCH   9  10
ENDBRANCH   8   9
ENDBRANCH   7   8
ENDBRANCH   6   7
ENDBRANCH   5   6
ENDBRANCH   4   5
ENDBRANCH   3   4
ENDBRANCH   2   3
ENDBRANCH   1   2
BRANCH   1  17
ATOM     17  C   UNL     1     166.295 177.740 163.923  1.00  0.00     0.000 C 
BRANCH  17  18
ATOM     18  C   UNL     1     165.218 178.516 163.144  1.00  0.00     0.000 C 
BRANCH  18  19
ATOM     19  C   UNL     1     163.857 177.797 163.120  1.00  0.00     0.000 C 
BRANCH  19  20
ATOM     20  C   UNL     1     162.789 178.444 162.219  1.00  0.00     0.000 C 
BRANCH  20  21
ATOM     21  C   UNL     1     161.503 177.604 162.111  1.00  0.00     0.000 C 
BRANCH  21  22
ATOM     22  C   UNL     1     161.364 176.891 160.753  1.00  0.00     0.000 C 
BRANCH  22  23
ATOM     23  C   UNL     1     162.190 175.602 160.600  1.00  0.00     0.000 C 
BRANCH  23  24
ATOM     24  C   UNL     1     162.002 174.622 161.772  1.00  0.00     0.000 C 
BRANCH  24  25
ATOM     25  C   UNL     1     163.322 173.926 162.170  1.00  0.00     0.000 C 
BRANCH  25  26
ATOM     26  C   UNL     1     164.570 174.508 161.476  1.00  0.00     0.000 C 
BRANCH  26  27
ATOM     27  C   UNL     1     165.818 173.612 161.523  1.00  0.00     0.002 C 
BRANCH  27  28
ATOM     28  C   UNL     1     166.964 174.225 162.344  1.00  0.00     0.028 C 
BRANCH  28  29
ATOM     29  C   UNL     1     167.696 173.168 163.177  1.00  0.00     0.156 C 
BRANCH  29  30
ATOM     30  O   UNL     1     166.812 172.534 164.062  1.00  0.00    -0.396 OA
ATOM     31  H   UNL     1     165.906 172.599 163.662  1.00  0.00     0.210 HD
ENDBRANCH  29  30
ENDBRANCH  28  29
ENDBRANCH  27  28
ENDBRANCH  26  27
ENDBRANCH  25  26
ENDBRANCH  24  25
ENDBRANCH  23  24
ENDBRANCH  22  23
ENDBRANCH  21  22
ENDBRANCH  20  21
ENDBRANCH  19  20
ENDBRANCH  18  19
ENDBRANCH  17  18
ENDBRANCH   1  17
TORSDOF 28
ENDMDL
MODEL 5
REMARK VINA RESULT:    -3.645      3.048     10.854
REMARK INTER + INTRA:         -13.233
REMARK INTER:                  -9.717
REMARK INTRA:                  -3.516
REMARK UNBOUND:                -3.728
REMARK SMILES CCCCCCCCCCCCCCCCCCCCCCCCCCCCCO
REMARK SMILES IDX 16 1 15 2 14 3 13 4 12 5 11 6 10 7 9 8 8 9 7 10 6 11 5 12
REMARK SMILES IDX 4 13 3 14 2 15 1 16 17 17 18 18 19 19 20 20 21 21 22 22
REMARK SMILES IDX 23 23 24 24 25 25 26 26 27 27 28 28 29 29 30 30
REMARK H PARENT 30 31
REMARK Flexibility Score: inf
ROOT
ATOM      1  C   UNL     1     167.498 176.295 162.316  1.00  0.00     0.000 C 
ENDROOT
BRANCH   1   2
ATOM      2  C   UNL     1     167.136 177.694 162.850  1.00  0.00     0.000 C 
BRANCH   2   3
ATOM      3  C   UNL     1     165.766 177.797 163.549  1.00  0.00     0.000 C 
BRANCH   3   4
ATOM      4  C   UNL     1     165.817 177.850 165.089  1.00  0.00     0.000 C 
BRANCH   4   5
ATOM      5  C   UNL     1     165.541 176.486 165.743  1.00  0.00     0.000 C 
BRANCH   5   6
ATOM      6  C   UNL     1     164.933 176.609 167.152  1.00  0.00     0.000 C 
BRANCH   6   7
ATOM      7  C   UNL     1     165.013 178.013 167.781  1.00  0.00     0.000 C 
BRANCH   7   8
ATOM      8  C   UNL     1     163.640 178.561 168.199  1.00  0.00    -0.000 C 
BRANCH   8   9
ATOM      9  C   UNL     1     163.242 178.049 169.588  1.00  0.00    -0.000 C 
BRANCH   9  10
ATOM     10  C   UNL     1     161.752 177.677 169.632  1.00  0.00    -0.000 C 
BRANCH  10  11
ATOM     11  C   UNL     1     160.953 178.295 168.474  1.00  0.00    -0.000 C 
BRANCH  11  12
ATOM     12  C   UNL     1     159.966 177.301 167.840  1.00  0.00    -0.000 C 
BRANCH  12  13
ATOM     13  C   UNL     1     160.141 177.176 166.316  1.00  0.00    -0.000 C 
BRANCH  13  14
ATOM     14  C   UNL     1     161.511 176.605 165.895  1.00  0.00    -0.000 C 
BRANCH  14  15
ATOM     15  C   UNL     1     162.053 177.273 164.623  1.00  0.00    -0.003 C 
ATOM     16  C   UNL     1     162.195 178.781 164.810  1.00  0.00     0.004 C 
ENDBRANCH  14  15
ENDBRANCH  13  14
ENDBRANCH  12  13
ENDBRANCH  11  12
ENDBRANCH  10  11
ENDBRANCH   9  10
ENDBRANCH   8   9
ENDBRANCH   7   8
ENDBRANCH   6   7
ENDBRANCH   5   6
ENDBRANCH   4   5
ENDBRANCH   3   4
ENDBRANCH   2   3
ENDBRANCH   1   2
BRANCH   1  17
ATOM     17  C   UNL     1     166.273 175.411 162.000  1.00  0.00     0.000 C 
BRANCH  17  18
ATOM     18  C   UNL     1     166.347 174.030 162.674  1.00  0.00     0.000 C 
BRANCH  18  19
ATOM     19  C   UNL     1     167.476 173.928 163.716  1.00  0.00     0.000 C 
BRANCH  19  20
ATOM     20  C   UNL     1     168.172 172.557 163.800  1.00  0.00     0.000 C 
BRANCH  20  21
ATOM     21  C   UNL     1     167.194 171.402 164.088  1.00  0.00     0.000 C 
BRANCH  21  22
ATOM     22  C   UNL     1     167.858 170.016 163.996  1.00  0.00     0.000 C 
BRANCH  22  23
ATOM     23  C   UNL     1     169.199 169.979 163.242  1.00  0.00     0.000 C 
BRANCH  23  24
ATOM     24  C   UNL     1     169.605 168.562 162.800  1.00  0.00     0.000 C 
BRANCH  24  25
ATOM     25  C   UNL     1     171.138 168.392 162.715  1.00  0.00     0.000 C 
BRANCH  25  26
ATOM     26  C   UNL     1     171.931 169.575 163.304  1.00  0.00     0.000 C 
BRANCH  26  27
ATOM     27  C   UNL     1     173.039 170.133 162.395  1.00  0.00     0.002 C 
BRANCH  27  28
ATOM     28  C   UNL     1     172.504 170.655 161.052  1.00  0.00     0.028 C 
BRANCH  28  29
ATOM     29  C   UNL     1     173.520 171.557 160.346  1.00  0.00     0.156 C 
BRANCH  29  30
ATOM     30  O   UNL     1     173.455 172.865 160.847  1.00  0.00    -0.396 OA
ATOM     31  H   UNL     1     173.973 172.877 161.694  1.00  0.00     0.210 HD
ENDBRANCH  29  30
ENDBRANCH  28  29
ENDBRANCH  27  28
ENDBRANCH  26  27
ENDBRANCH  25  26
ENDBRANCH  24  25
ENDBRANCH  23  24
ENDBRANCH  22  23
ENDBRANCH  21  22
ENDBRANCH  20  21
ENDBRANCH  19  20
ENDBRANCH  18  19
ENDBRANCH  17  18
ENDBRANCH   1  17
TORSDOF 28
ENDMDL
MODEL 6
REMARK VINA RESULT:    -3.635      1.779      4.817
REMARK INTER + INTRA:         -13.207
REMARK INTER:                  -9.179
REMARK INTRA:                  -4.028
REMARK UNBOUND:                -3.728
REMARK SMILES CCCCCCCCCCCCCCCCCCCCCCCCCCCCCO
REMARK SMILES IDX 16 1 15 2 14 3 13 4 12 5 11 6 10 7 9 8 8 9 7 10 6 11 5 12
REMARK SMILES IDX 4 13 3 14 2 15 1 16 17 17 18 18 19 19 20 20 21 21 22 22
REMARK SMILES IDX 23 23 24 24 25 25 26 26 27 27 28 28 29 29 30 30
REMARK H PARENT 30 31
REMARK Flexibility Score: inf
ROOT
ATOM      1  C   UNL     1     164.941 170.320 160.782  1.00  0.00     0.000 C 
ENDROOT
BRANCH   1   2
ATOM      2  C   UNL     1     165.443 169.150 159.914  1.00  0.00     0.000 C 
BRANCH   2   3
ATOM      3  C   UNL     1     166.596 168.327 160.521  1.00  0.00     0.000 C 
BRANCH   3   4
ATOM      4  C   UNL     1     166.247 167.563 161.813  1.00  0.00     0.000 C 
BRANCH   4   5
ATOM      5  C   UNL     1     167.255 167.813 162.946  1.00  0.00     0.000 C 
BRANCH   5   6
ATOM      6  C   UNL     1     168.119 169.068 162.714  1.00  0.00     0.000 C 
BRANCH   6   7
ATOM      7  C   UNL     1     168.505 169.843 163.987  1.00  0.00     0.000 C 
BRANCH   7   8
ATOM      8  C   UNL     1     169.410 171.051 163.702  1.00  0.00    -0.000 C 
BRANCH   8   9
ATOM      9  C   UNL     1     169.483 171.340 162.197  1.00  0.00    -0.000 C 
BRANCH   9  10
ATOM     10  C   UNL     1     170.938 171.338 161.706  1.00  0.00    -0.000 C 
BRANCH  10  11
ATOM     11  C   UNL     1     171.940 171.009 162.825  1.00  0.00    -0.000 C 
BRANCH  11  12
ATOM     12  C   UNL     1     172.737 169.724 162.544  1.00  0.00    -0.000 C 
BRANCH  12  13
ATOM     13  C   UNL     1     171.974 168.731 161.650  1.00  0.00    -0.000 C 
BRANCH  13  14
ATOM     14  C   UNL     1     171.312 167.577 162.433  1.00  0.00    -0.000 C 
BRANCH  14  15
ATOM     15  C   UNL     1     170.603 166.578 161.507  1.00  0.00    -0.003 C 
ATOM     16  C   UNL     1     170.262 167.219 160.164  1.00  0.00     0.004 C 
ENDBRANCH  14  15
ENDBRANCH  13  14
ENDBRANCH  12  13
ENDBRANCH  11  12
ENDBRANCH  10  11
ENDBRANCH   9  10
ENDBRANCH   8   9
ENDBRANCH   7   8
ENDBRANCH   6   7
ENDBRANCH   5   6
ENDBRANCH   4   5
ENDBRANCH   3   4
ENDBRANCH   2   3
ENDBRANCH   1   2
BRANCH   1  17
ATOM     17  C   UNL     1     165.962 171.468 160.932  1.00  0.00     0.000 C 
BRANCH  17  18
ATOM     18  C   UNL     1     165.810 172.226 162.263  1.00  0.00     0.000 C 
BRANCH  18  19
ATOM     19  C   UNL     1     166.223 173.706 162.163  1.00  0.00     0.000 C 
BRANCH  19  20
ATOM     20  C   UNL     1     167.418 174.115 163.044  1.00  0.00     0.000 C 
BRANCH  20  21
ATOM     21  C   UNL     1     167.024 175.062 164.192  1.00  0.00     0.000 C 
BRANCH  21  22
ATOM     22  C   UNL     1     166.615 176.463 163.701  1.00  0.00     0.000 C 
BRANCH  22  23
ATOM     23  C   UNL     1     165.858 177.324 164.728  1.00  0.00     0.000 C 
BRANCH  23  24
ATOM     24  C   UNL     1     164.334 177.110 164.689  1.00  0.00     0.000 C 
BRANCH  24  25
ATOM     25  C   UNL     1     163.734 176.914 166.099  1.00  0.00     0.000 C 
BRANCH  25  26
ATOM     26  C   UNL     1     164.786 176.872 167.225  1.00  0.00     0.000 C 
BRANCH  26  27
ATOM     27  C   UNL     1     164.764 178.076 168.181  1.00  0.00     0.002 C 
BRANCH  27  28
ATOM     28  C   UNL     1     163.383 178.745 168.269  1.00  0.00     0.028 C 
BRANCH  28  29
ATOM     29  C   UNL     1     162.499 178.089 169.334  1.00  0.00     0.156 C 
BRANCH  29  30
ATOM     30  O   UNL     1     162.943 178.423 170.622  1.00  0.00    -0.396 OA
ATOM     31  H   UNL     1     163.859 178.053 170.718  1.00  0.00     0.210 HD
ENDBRANCH  29  30
ENDBRANCH  28  29
ENDBRANCH  27  28
ENDBRANCH  26  27
ENDBRANCH  25  26
ENDBRANCH  24  25
ENDBRANCH  23  24
ENDBRANCH  22  23
ENDBRANCH  21  22
ENDBRANCH  20  21
ENDBRANCH  19  20
ENDBRANCH  18  19
ENDBRANCH  17  18
ENDBRANCH   1  17
TORSDOF 28
ENDMDL
MODEL 7
REMARK VINA RESULT:    -3.615      3.372      9.246
REMARK INTER + INTRA:         -13.154
REMARK INTER:                  -8.108
REMARK INTRA:                  -5.047
REMARK UNBOUND:                -3.728
REMARK SMILES CCCCCCCCCCCCCCCCCCCCCCCCCCCCCO
REMARK SMILES IDX 16 1 15 2 14 3 13 4 12 5 11 6 10 7 9 8 8 9 7 10 6 11 5 12
REMARK SMILES IDX 4 13 3 14 2 15 1 16 17 17 18 18 19 19 20 20 21 21 22 22
REMARK SMILES IDX 23 23 24 24 25 25 26 26 27 27 28 28 29 29 30 30
REMARK H PARENT 30 31
REMARK Flexibility Score: inf
ROOT
ATOM      1  C   UNL     1     164.857 177.761 167.870  1.00  0.00     0.000 C 
ENDROOT
BRANCH   1   2
ATOM      2  C   UNL     1     165.867 178.816 167.381  1.00  0.00     0.000 C 
BRANCH   2   3
ATOM      3  C   UNL     1     165.259 179.999 166.603  1.00  0.00     0.000 C 
BRANCH   3   4
ATOM      4  C   UNL     1     165.558 180.014 165.091  1.00  0.00     0.000 C 
BRANCH   4   5
ATOM      5  C   UNL     1     164.303 179.788 164.232  1.00  0.00     0.000 C 
BRANCH   5   6
ATOM      6  C   UNL     1     163.116 179.229 165.038  1.00  0.00     0.000 C 
BRANCH   6   7
ATOM      7  C   UNL     1     162.357 178.068 164.369  1.00  0.00     0.000 C 
BRANCH   7   8
ATOM      8  C   UNL     1     161.822 177.041 165.379  1.00  0.00    -0.000 C 
BRANCH   8   9
ATOM      9  C   UNL     1     161.866 175.623 164.796  1.00  0.00    -0.000 C 
BRANCH   9  10
ATOM     10  C   UNL     1     161.840 175.657 163.261  1.00  0.00    -0.000 C 
BRANCH  10  11
ATOM     11  C   UNL     1     163.011 174.885 162.632  1.00  0.00    -0.000 C 
BRANCH  11  12
ATOM     12  C   UNL     1     163.559 175.568 161.368  1.00  0.00    -0.000 C 
BRANCH  12  13
ATOM     13  C   UNL     1     162.721 176.785 160.937  1.00  0.00    -0.000 C 
BRANCH  13  14
ATOM     14  C   UNL     1     163.514 178.108 160.927  1.00  0.00    -0.000 C 
BRANCH  14  15
ATOM     15  C   UNL     1     164.981 177.904 160.519  1.00  0.00    -0.003 C 
ATOM     16  C   UNL     1     165.819 179.139 160.839  1.00  0.00     0.004 C 
ENDBRANCH  14  15
ENDBRANCH  13  14
ENDBRANCH  12  13
ENDBRANCH  11  12
ENDBRANCH  10  11
ENDBRANCH   9  10
ENDBRANCH   8   9
ENDBRANCH   7   8
ENDBRANCH   6   7
ENDBRANCH   5   6
ENDBRANCH   4   5
ENDBRANCH   3   4
ENDBRANCH   2   3
ENDBRANCH   1   2
BRANCH   1  17
ATOM     17  C   UNL     1     164.873 176.454 167.049  1.00  0.00     0.000 C 
BRANCH  17  18
ATOM     18  C   UNL     1     166.080 176.364 166.098  1.00  0.00     0.000 C 
BRANCH  18  19
ATOM     19  C   UNL     1     165.674 176.314 164.614  1.00  0.00     0.000 C 
BRANCH  19  20
ATOM     20  C   UNL     1     166.734 176.836 163.626  1.00  0.00     0.000 C 
BRANCH  20  21
ATOM     21  C   UNL     1     167.238 175.752 162.655  1.00  0.00     0.000 C 
BRANCH  21  22
ATOM     22  C   UNL     1     166.717 174.346 163.003  1.00  0.00     0.000 C 
BRANCH  22  23
ATOM     23  C   UNL     1     167.765 173.385 163.594  1.00  0.00     0.000 C 
BRANCH  23  24
ATOM     24  C   UNL     1     167.261 171.935 163.701  1.00  0.00     0.000 C 
BRANCH  24  25
ATOM     25  C   UNL     1     168.174 170.942 162.948  1.00  0.00     0.000 C 
BRANCH  25  26
ATOM     26  C   UNL     1     167.851 169.461 163.226  1.00  0.00     0.000 C 
BRANCH  26  27
ATOM     27  C   UNL     1     169.060 168.592 163.611  1.00  0.00     0.002 C 
BRANCH  27  28
ATOM     28  C   UNL     1     170.233 168.729 162.625  1.00  0.00     0.028 C 
BRANCH  28  29
ATOM     29  C   UNL     1     171.312 167.671 162.874  1.00  0.00     0.156 C 
BRANCH  29  30
ATOM     30  O   UNL     1     172.578 168.266 162.969  1.00  0.00    -0.396 OA
ATOM     31  H   UNL     1     172.574 169.054 162.366  1.00  0.00     0.210 HD
ENDBRANCH  29  30
ENDBRANCH  28  29
ENDBRANCH  27  28
ENDBRANCH  26  27
ENDBRANCH  25  26
ENDBRANCH  24  25
ENDBRANCH  23  24
ENDBRANCH  22  23
ENDBRANCH  21  22
ENDBRANCH  20  21
ENDBRANCH  19  20
ENDBRANCH  18  19
ENDBRANCH  17  18
ENDBRANCH   1  17
TORSDOF 28
ENDMDL
MODEL 8
REMARK VINA RESULT:    -3.580      2.536      5.013
REMARK INTER + INTRA:         -13.062
REMARK INTER:                  -7.772
REMARK INTRA:                  -5.290
REMARK UNBOUND:                -3.728
REMARK SMILES CCCCCCCCCCCCCCCCCCCCCCCCCCCCCO
REMARK SMILES IDX 16 1 15 2 14 3 13 4 12 5 11 6 10 7 9 8 8 9 7 10 6 11 5 12
REMARK SMILES IDX 4 13 3 14 2 15 1 16 17 17 18 18 19 19 20 20 21 21 22 22
REMARK SMILES IDX 23 23 24 24 25 25 26 26 27 27 28 28 29 29 30 30
REMARK H PARENT 30 31
REMARK Flexibility Score: inf
ROOT
ATOM      1  C   UNL     1     165.377 171.113 159.999  1.00  0.00     0.000 C 
ENDROOT
BRANCH   1   2
ATOM      2  C   UNL     1     166.833 171.603 160.118  1.00  0.00     0.000 C 
BRANCH   2   3
ATOM      3  C   UNL     1     167.137 172.469 161.356  1.00  0.00     0.000 C 
BRANCH   3   4
ATOM      4  C   UNL     1     168.596 172.419 161.849  1.00  0.00     0.000 C 
BRANCH   4   5
ATOM      5  C   UNL     1     168.711 172.466 163.382  1.00  0.00     0.000 C 
BRANCH   5   6
ATOM      6  C   UNL     1     167.672 171.576 164.089  1.00  0.00     0.000 C 
BRANCH   6   7
ATOM      7  C   UNL     1     168.001 170.072 164.109  1.00  0.00     0.000 C 
BRANCH   7   8
ATOM      8  C   UNL     1     167.062 169.241 163.222  1.00  0.00    -0.000 C 
BRANCH   8   9
ATOM      9  C   UNL     1     167.856 168.272 162.336  1.00  0.00    -0.000 C 
BRANCH   9  10
ATOM     10  C   UNL     1     169.232 167.970 162.947  1.00  0.00    -0.000 C 
BRANCH  10  11
ATOM     11  C   UNL     1     170.356 167.957 161.898  1.00  0.00    -0.000 C 
BRANCH  11  12
ATOM     12  C   UNL     1     170.310 169.181 160.968  1.00  0.00    -0.000 C 
BRANCH  12  13
ATOM     13  C   UNL     1     171.710 169.695 160.588  1.00  0.00    -0.000 C 
BRANCH  13  14
ATOM     14  C   UNL     1     172.591 170.044 161.806  1.00  0.00    -0.000 C 
BRANCH  14  15
ATOM     15  C   UNL     1     172.026 171.221 162.615  1.00  0.00    -0.003 C 
ATOM     16  C   UNL     1     171.939 170.878 164.099  1.00  0.00     0.004 C 
ENDBRANCH  14  15
ENDBRANCH  13  14
ENDBRANCH  12  13
ENDBRANCH  11  12
ENDBRANCH  10  11
ENDBRANCH   9  10
ENDBRANCH   8   9
ENDBRANCH   7   8
ENDBRANCH   6   7
ENDBRANCH   5   6
ENDBRANCH   4   5
ENDBRANCH   3   4
ENDBRANCH   2   3
ENDBRANCH   1   2
BRANCH   1  17
ATOM     17  C   UNL     1     164.524 171.380 161.258  1.00  0.00     0.000 C 
BRANCH  17  18
ATOM     18  C   UNL     1     163.509 172.520 161.056  1.00  0.00     0.000 C 
BRANCH  18  19
ATOM     19  C   UNL     1     163.844 173.777 161.880  1.00  0.00     0.000 C 
BRANCH  19  20
ATOM     20  C   UNL     1     163.727 175.111 161.120  1.00  0.00     0.000 C 
BRANCH  20  21
ATOM     21  C   UNL     1     164.253 175.029 159.675  1.00  0.00     0.000 C 
BRANCH  21  22
ATOM     22  C   UNL     1     165.769 175.279 159.574  1.00  0.00     0.000 C 
BRANCH  22  23
ATOM     23  C   UNL     1     166.286 176.505 160.347  1.00  0.00     0.000 C 
BRANCH  23  24
ATOM     24  C   UNL     1     167.596 176.231 161.108  1.00  0.00     0.000 C 
BRANCH  24  25
ATOM     25  C   UNL     1     167.350 175.923 162.602  1.00  0.00     0.000 C 
BRANCH  25  26
ATOM     26  C   UNL     1     166.572 177.024 163.348  1.00  0.00     0.000 C 
BRANCH  26  27
ATOM     27  C   UNL     1     165.427 176.520 164.241  1.00  0.00     0.002 C 
BRANCH  27  28
ATOM     28  C   UNL     1     165.370 177.236 165.601  1.00  0.00     0.028 C 
BRANCH  28  29
ATOM     29  C   UNL     1     165.239 176.244 166.761  1.00  0.00     0.156 C 
BRANCH  29  30
ATOM     30  O   UNL     1     166.313 175.342 166.766  1.00  0.00    -0.396 OA
ATOM     31  H   UNL     1     166.924 175.623 167.496  1.00  0.00     0.210 HD
ENDBRANCH  29  30
ENDBRANCH  28  29
ENDBRANCH  27  28
ENDBRANCH  26  27
ENDBRANCH  25  26
ENDBRANCH  24  25
ENDBRANCH  23  24
ENDBRANCH  22  23
ENDBRANCH  21  22
ENDBRANCH  20  21
ENDBRANCH  19  20
ENDBRANCH  18  19
ENDBRANCH  17  18
ENDBRANCH   1  17
TORSDOF 28
ENDMDL
MODEL 9
REMARK VINA RESULT:    -3.564      2.807      9.324
REMARK INTER + INTRA:         -13.022
REMARK INTER:                  -7.677
REMARK INTRA:                  -5.345
REMARK UNBOUND:                -3.728
REMARK SMILES CCCCCCCCCCCCCCCCCCCCCCCCCCCCCO
REMARK SMILES IDX 16 1 15 2 14 3 13 4 12 5 11 6 10 7 9 8 8 9 7 10 6 11 5 12
REMARK SMILES IDX 4 13 3 14 2 15 1 16 17 17 18 18 19 19 20 20 21 21 22 22
REMARK SMILES IDX 23 23 24 24 25 25 26 26 27 27 28 28 29 29 30 30
REMARK H PARENT 30 31
REMARK Flexibility Score: inf
ROOT
ATOM      1  C   UNL     1     165.805 179.358 164.791  1.00  0.00     0.000 C 
ENDROOT
BRANCH   1   2
ATOM      2  C   UNL     1     164.915 180.333 165.585  1.00  0.00     0.000 C 
BRANCH   2   3
ATOM      3  C   UNL     1     164.751 180.004 167.082  1.00  0.00     0.000 C 
BRANCH   3   4
ATOM      4  C   UNL     1     165.281 178.622 167.512  1.00  0.00     0.000 C 
BRANCH   4   5
ATOM      5  C   UNL     1     164.255 177.814 168.322  1.00  0.00     0.000 C 
BRANCH   5   6
ATOM      6  C   UNL     1     163.010 178.637 168.705  1.00  0.00     0.000 C 
BRANCH   6   7
ATOM      7  C   UNL     1     161.863 177.833 169.343  1.00  0.00     0.000 C 
BRANCH   7   8
ATOM      8  C   UNL     1     160.516 178.047 168.636  1.00  0.00    -0.000 C 
BRANCH   8   9
ATOM      9  C   UNL     1     159.722 176.737 168.558  1.00  0.00    -0.000 C 
BRANCH   9  10
ATOM     10  C   UNL     1     159.178 176.506 167.140  1.00  0.00    -0.000 C 
BRANCH  10  11
ATOM     11  C   UNL     1     159.902 175.364 166.408  1.00  0.00    -0.000 C 
BRANCH  11  12
ATOM     12  C   UNL     1     160.745 175.864 165.223  1.00  0.00    -0.000 C 
BRANCH  12  13
ATOM     13  C   UNL     1     162.109 176.429 165.658  1.00  0.00    -0.000 C 
BRANCH  13  14
ATOM     14  C   UNL     1     162.399 177.839 165.102  1.00  0.00    -0.000 C 
BRANCH  14  15
ATOM     15  C   UNL     1     161.122 178.680 164.956  1.00  0.00    -0.003 C 
ATOM     16  C   UNL     1     161.262 180.022 165.669  1.00  0.00     0.004 C 
ENDBRANCH  14  15
ENDBRANCH  13  14
ENDBRANCH  12  13
ENDBRANCH  11  12
ENDBRANCH  10  11
ENDBRANCH   9  10
ENDBRANCH   8   9
ENDBRANCH   7   8
ENDBRANCH   6   7
ENDBRANCH   5   6
ENDBRANCH   4   5
ENDBRANCH   3   4
ENDBRANCH   2   3
ENDBRANCH   1   2
BRANCH   1  17
ATOM     17  C   UNL     1     165.645 179.473 163.260  1.00  0.00     0.000 C 
BRANCH  17  18
ATOM     18  C   UNL     1     164.260 180.001 162.846  1.00  0.00     0.000 C 
BRANCH  18  19
ATOM     19  C   UNL     1     163.501 179.035 161.917  1.00  0.00     0.000 C 
BRANCH  19  20
ATOM     20  C   UNL     1     164.273 177.764 161.518  1.00  0.00     0.000 C 
BRANCH  20  21
ATOM     21  C   UNL     1     163.575 176.468 161.970  1.00  0.00     0.000 C 
BRANCH  21  22
ATOM     22  C   UNL     1     164.551 175.437 162.566  1.00  0.00     0.000 C 
BRANCH  22  23
ATOM     23  C   UNL     1     165.306 175.898 163.825  1.00  0.00     0.000 C 
BRANCH  23  24
ATOM     24  C   UNL     1     166.821 175.637 163.749  1.00  0.00     0.000 C 
BRANCH  24  25
ATOM     25  C   UNL     1     167.168 174.480 162.787  1.00  0.00     0.000 C 
BRANCH  25  26
ATOM     26  C   UNL     1     167.908 173.307 163.460  1.00  0.00     0.000 C 
BRANCH  26  27
ATOM     27  C   UNL     1     167.084 172.018 163.610  1.00  0.00     0.002 C 
BRANCH  27  28
ATOM     28  C   UNL     1     167.821 170.926 164.402  1.00  0.00     0.028 C 
BRANCH  28  29
ATOM     29  C   UNL     1     168.146 169.710 163.530  1.00  0.00     0.156 C 
BRANCH  29  30
ATOM     30  O   UNL     1     166.983 169.203 162.931  1.00  0.00    -0.396 OA
ATOM     31  H   UNL     1     166.237 169.800 163.198  1.00  0.00     0.210 HD
ENDBRANCH  29  30
ENDBRANCH  28  29
ENDBRANCH  27  28
ENDBRANCH  26  27
ENDBRANCH  25  26
ENDBRANCH  24  25
ENDBRANCH  23  24
ENDBRANCH  22  23
ENDBRANCH  21  22
ENDBRANCH  20  21
ENDBRANCH  19  20
ENDBRANCH  18  19
ENDBRANCH  17  18
ENDBRANCH   1  17
TORSDOF 28
ENDMDL
