MODEL 1
REMARK VINA RESULT:    -6.432      0.000      0.000
REMARK INTER + INTRA:         -10.414
REMARK INTER:                  -9.627
REMARK INTRA:                  -0.787
REMARK UNBOUND:                -0.787
REMARK SMILES O=c1c(O[C@H]2O[C@@H](CO)[C@H](O)[C@H](O)[C@@H]2O)c(-c2cc(O)c(O)c(O)c2)oc2cc(O)cc(O)c12
REMARK SMILES IDX 4 1 3 2 16 3 26 4 2 5 27 6 1 7 34 8 28 9 32 10 29 11 31 12
REMARK SMILES IDX 17 13 18 14 19 15 25 16 21 17 23 18 20 19 22 21 24 23 33 25
REMARK SMILES IDX 30 27 5 29 14 30 6 31 12 32 7 33 10 34 15 35 13 37 8 39 9 40
REMARK SMILES IDX 11 42
REMARK H PARENT 20 20 22 22 24 24 33 26 30 28 15 36 13 38 9 41 11 43
REMARK Flexibility Score: inf
ROOT
ATOM      1  O   UNL     1      15.583   2.612   1.506  1.00  0.00    -0.454 OA
ENDROOT
BRANCH   1   2
ATOM      2  C   UNL     1      14.375   2.962   0.862  1.00  0.00     0.214 A 
ATOM      3  C   UNL     1      14.225   2.595  -0.490  1.00  0.00     0.181 A 
ATOM      4  O   UNL     1      13.086   2.835  -1.128  1.00  0.00    -0.452 OA
ATOM      5  C   UNL     1      13.293   3.614   1.497  1.00  0.00     0.239 A 
ATOM      6  C   UNL     1      12.059   3.465  -0.576  1.00  0.00     0.146 A 
ATOM      7  O   UNL     1      13.342   3.848   2.730  1.00  0.00    -0.285 OA
ATOM      8  C   UNL     1      12.130   3.938   0.758  1.00  0.00     0.111 A 
ATOM      9  C   UNL     1      10.900   3.647  -1.335  1.00  0.00     0.094 A 
ATOM     10  C   UNL     1      11.016   4.660   1.283  1.00  0.00     0.134 A 
ATOM     11  C   UNL     1       9.791   4.294  -0.788  1.00  0.00     0.123 A 
ATOM     12  C   UNL     1       9.854   4.794   0.513  1.00  0.00     0.093 A 
BRANCH   3  13
ATOM     13  C   UNL     1      15.307   1.917  -1.241  1.00  0.00     0.029 A 
ATOM     14  C   UNL     1      15.039   0.811  -2.066  1.00  0.00     0.062 A 
ATOM     15  C   UNL     1      16.073   0.170  -2.756  1.00  0.00     0.162 A 
ATOM     16  C   UNL     1      16.632   2.348  -1.085  1.00  0.00     0.062 A 
ATOM     17  C   UNL     1      17.397   0.623  -2.615  1.00  0.00     0.200 A 
ATOM     18  C   UNL     1      17.676   1.714  -1.773  1.00  0.00     0.162 A 
BRANCH  15  19
ATOM     19  O   UNL     1      15.767  -0.916  -3.575  1.00  0.00    -0.504 OA
ATOM     20  H   UNL     1      14.991  -0.899  -4.226  1.00  0.00     0.293 HD
ENDBRANCH  15  19
BRANCH  17  21
ATOM     21  O   UNL     1      18.423  -0.019  -3.311  1.00  0.00    -0.502 OA
ATOM     22  H   UNL     1      18.852   0.385  -4.135  1.00  0.00     0.293 HD
ENDBRANCH  17  21
BRANCH  18  23
ATOM     23  O   UNL     1      18.987   2.163  -1.622  1.00  0.00    -0.504 OA
ATOM     24  H   UNL     1      19.646   1.686  -1.018  1.00  0.00     0.293 HD
ENDBRANCH  18  23
ENDBRANCH   3  13
BRANCH  10  25
ATOM     25  O   UNL     1      11.018   5.291   2.531  1.00  0.00    -0.507 OA
ATOM     26  H   UNL     1      11.245   4.833   3.401  1.00  0.00     0.293 HD
ENDBRANCH  10  25
BRANCH  11  27
ATOM     27  O   UNL     1       8.625   4.458  -1.531  1.00  0.00    -0.508 OA
ATOM     28  H   UNL     1       7.793   3.911  -1.339  1.00  0.00     0.293 HD
ENDBRANCH  11  27
ENDBRANCH   1   2
BRANCH   1  29
ATOM     29  C   UNL     1      15.815   1.629   2.518  1.00  0.00     0.339 C 
ATOM     30  C   UNL     1      14.617   0.651   2.627  1.00  0.00     0.214 C 
ATOM     31  O   UNL     1      16.106   2.250   3.757  1.00  0.00    -0.332 OA
ATOM     32  C   UNL     1      14.410   0.190   4.090  1.00  0.00     0.180 C 
ATOM     33  C   UNL     1      16.654   1.310   4.670  1.00  0.00     0.179 C 
ATOM     34  C   UNL     1      15.747   0.043   4.847  1.00  0.00     0.177 C 
BRANCH  30  35
ATOM     35  O   UNL     1      14.832  -0.461   1.796  1.00  0.00    -0.384 OA
ATOM     36  H   UNL     1      15.161  -0.110   0.927  1.00  0.00     0.211 HD
ENDBRANCH  30  35
BRANCH  32  37
ATOM     37  O   UNL     1      13.696  -1.019   4.140  1.00  0.00    -0.387 OA
ATOM     38  H   UNL     1      14.311  -1.697   4.526  1.00  0.00     0.211 HD
ENDBRANCH  32  37
BRANCH  33  39
ATOM     39  C   UNL     1      16.869   2.018   6.013  1.00  0.00     0.191 C 
BRANCH  39  40
ATOM     40  O   UNL     1      17.451   3.274   5.799  1.00  0.00    -0.394 OA
ATOM     41  H   UNL     1      16.706   3.886   5.562  1.00  0.00     0.210 HD
ENDBRANCH  39  40
ENDBRANCH  33  39
BRANCH  34  42
ATOM     42  O   UNL     1      16.427  -1.125   4.456  1.00  0.00    -0.387 OA
ATOM     43  H   UNL     1      15.765  -1.861   4.396  1.00  0.00     0.211 HD
ENDBRANCH  34  42
ENDBRANCH   1  29
TORSDOF 13
ENDMDL
MODEL 2
REMARK VINA RESULT:    -6.332      2.237      3.669
REMARK INTER + INTRA:         -10.266
REMARK INTER:                  -8.837
REMARK INTRA:                  -1.429
REMARK UNBOUND:                -0.787
REMARK SMILES O=c1c(O[C@H]2O[C@@H](CO)[C@H](O)[C@H](O)[C@@H]2O)c(-c2cc(O)c(O)c(O)c2)oc2cc(O)cc(O)c12
REMARK SMILES IDX 4 1 3 2 16 3 26 4 2 5 27 6 1 7 34 8 28 9 32 10 29 11 31 12
REMARK SMILES IDX 17 13 18 14 19 15 25 16 21 17 23 18 20 19 22 21 24 23 33 25
REMARK SMILES IDX 30 27 5 29 14 30 6 31 12 32 7 33 10 34 15 35 13 37 8 39 9 40
REMARK SMILES IDX 11 42
REMARK H PARENT 20 20 22 22 24 24 33 26 30 28 15 36 13 38 9 41 11 43
REMARK Flexibility Score: inf
ROOT
ATOM      1  O   UNL     1      12.648   3.335   1.757  1.00  0.00    -0.454 OA
ENDROOT
BRANCH   1   2
ATOM      2  C   UNL     1      11.903   4.006   0.762  1.00  0.00     0.214 A 
ATOM      3  C   UNL     1      12.227   3.745  -0.585  1.00  0.00     0.181 A 
ATOM      4  O   UNL     1      11.517   4.293  -1.563  1.00  0.00    -0.452 OA
ATOM      5  C   UNL     1      10.828   4.886   1.028  1.00  0.00     0.239 A 
ATOM      6  C   UNL     1      10.519   5.140  -1.356  1.00  0.00     0.146 A 
ATOM      7  O   UNL     1      10.432   5.048   2.209  1.00  0.00    -0.285 OA
ATOM      8  C   UNL     1      10.155   5.524  -0.042  1.00  0.00     0.111 A 
ATOM      9  C   UNL     1       9.828   5.641  -2.462  1.00  0.00     0.094 A 
ATOM     10  C   UNL     1       9.111   6.484   0.121  1.00  0.00     0.134 A 
ATOM     11  C   UNL     1       8.763   6.527  -2.287  1.00  0.00     0.123 A 
ATOM     12  C   UNL     1       8.410   6.940  -1.003  1.00  0.00     0.093 A 
BRANCH   3  13
ATOM     13  C   UNL     1      13.342   2.845  -0.960  1.00  0.00     0.029 A 
ATOM     14  C   UNL     1      13.112   1.502  -1.302  1.00  0.00     0.062 A 
ATOM     15  C   UNL     1      14.176   0.660  -1.640  1.00  0.00     0.162 A 
ATOM     16  C   UNL     1      14.660   3.325  -0.921  1.00  0.00     0.062 A 
ATOM     17  C   UNL     1      15.493   1.153  -1.623  1.00  0.00     0.200 A 
ATOM     18  C   UNL     1      15.734   2.489  -1.258  1.00  0.00     0.162 A 
BRANCH  15  19
ATOM     19  O   UNL     1      13.906  -0.664  -1.985  1.00  0.00    -0.504 OA
ATOM     20  H   UNL     1      13.057  -1.134  -1.695  1.00  0.00     0.293 HD
ENDBRANCH  15  19
BRANCH  17  21
ATOM     21  O   UNL     1      16.549   0.307  -1.964  1.00  0.00    -0.502 OA
ATOM     22  H   UNL     1      16.433  -0.474  -2.599  1.00  0.00     0.293 HD
ENDBRANCH  17  21
BRANCH  18  23
ATOM     23  O   UNL     1      17.038   2.982  -1.231  1.00  0.00    -0.504 OA
ATOM     24  H   UNL     1      17.755   2.555  -0.657  1.00  0.00     0.293 HD
ENDBRANCH  18  23
ENDBRANCH   3  13
BRANCH  10  25
ATOM     25  O   UNL     1       8.754   7.042   1.352  1.00  0.00    -0.507 OA
ATOM     26  H   UNL     1       9.239   6.867   2.219  1.00  0.00     0.293 HD
ENDBRANCH  10  25
BRANCH  11  27
ATOM     27  O   UNL     1       8.055   7.012  -3.384  1.00  0.00    -0.508 OA
ATOM     28  H   UNL     1       7.809   6.412  -4.164  1.00  0.00     0.293 HD
ENDBRANCH  11  27
ENDBRANCH   1   2
BRANCH   1  29
ATOM     29  C   UNL     1      12.456   2.026   2.300  1.00  0.00     0.339 C 
ATOM     30  C   UNL     1      13.755   1.187   2.196  1.00  0.00     0.214 C 
ATOM     31  O   UNL     1      11.359   1.384   1.675  1.00  0.00    -0.332 OA
ATOM     32  C   UNL     1      13.431  -0.308   1.954  1.00  0.00     0.180 C 
ATOM     33  C   UNL     1      10.959   0.241   2.418  1.00  0.00     0.179 C 
ATOM     34  C   UNL     1      12.145  -0.749   2.685  1.00  0.00     0.177 C 
BRANCH  30  35
ATOM     35  O   UNL     1      14.512   1.332   3.371  1.00  0.00    -0.384 OA
ATOM     36  H   UNL     1      15.463   1.201   3.117  1.00  0.00     0.211 HD
ENDBRANCH  30  35
BRANCH  32  37
ATOM     37  O   UNL     1      14.506  -1.125   2.341  1.00  0.00    -0.387 OA
ATOM     38  H   UNL     1      14.578  -1.844   1.659  1.00  0.00     0.211 HD
ENDBRANCH  32  37
BRANCH  33  39
ATOM     39  C   UNL     1       9.829  -0.455   1.651  1.00  0.00     0.191 C 
BRANCH  39  40
ATOM     40  O   UNL     1       9.811  -0.008   0.324  1.00  0.00    -0.394 OA
ATOM     41  H   UNL     1       9.750   0.982   0.368  1.00  0.00     0.210 HD
ENDBRANCH  39  40
ENDBRANCH  33  39
BRANCH  34  42
ATOM     42  O   UNL     1      12.373  -0.906   4.064  1.00  0.00    -0.387 OA
ATOM     43  H   UNL     1      11.838  -1.680   4.378  1.00  0.00     0.211 HD
ENDBRANCH  34  42
ENDBRANCH   1  29
TORSDOF 13
ENDMDL
MODEL 3
REMARK VINA RESULT:    -6.065      3.049      7.641
REMARK INTER + INTRA:          -9.866
REMARK INTER:                  -8.865
REMARK INTRA:                  -1.001
REMARK UNBOUND:                -0.787
REMARK SMILES O=c1c(O[C@H]2O[C@@H](CO)[C@H](O)[C@H](O)[C@@H]2O)c(-c2cc(O)c(O)c(O)c2)oc2cc(O)cc(O)c12
REMARK SMILES IDX 4 1 3 2 16 3 26 4 2 5 27 6 1 7 34 8 28 9 32 10 29 11 31 12
REMARK SMILES IDX 17 13 18 14 19 15 25 16 21 17 23 18 20 19 22 21 24 23 33 25
REMARK SMILES IDX 30 27 5 29 14 30 6 31 12 32 7 33 10 34 15 35 13 37 8 39 9 40
REMARK SMILES IDX 11 42
REMARK H PARENT 20 20 22 22 24 24 33 26 30 28 15 36 13 38 9 41 11 43
REMARK Flexibility Score: inf
ROOT
ATOM      1  O   UNL     1      11.829   3.582   1.132  1.00  0.00    -0.454 OA
ENDROOT
BRANCH   1   2
ATOM      2  C   UNL     1      12.886   2.873   0.519  1.00  0.00     0.214 A 
ATOM      3  C   UNL     1      12.686   1.505   0.250  1.00  0.00     0.181 A 
ATOM      4  O   UNL     1      13.617   0.804  -0.386  1.00  0.00    -0.452 OA
ATOM      5  C   UNL     1      14.111   3.457   0.121  1.00  0.00     0.239 A 
ATOM      6  C   UNL     1      14.786   1.307  -0.755  1.00  0.00     0.146 A 
ATOM      7  O   UNL     1      14.278   4.697   0.234  1.00  0.00    -0.285 OA
ATOM      8  C   UNL     1      15.117   2.656  -0.470  1.00  0.00     0.111 A 
ATOM      9  C   UNL     1      15.684   0.482  -1.436  1.00  0.00     0.094 A 
ATOM     10  C   UNL     1      16.412   3.128  -0.838  1.00  0.00     0.134 A 
ATOM     11  C   UNL     1      16.921   0.976  -1.852  1.00  0.00     0.123 A 
ATOM     12  C   UNL     1      17.277   2.291  -1.554  1.00  0.00     0.093 A 
BRANCH   3  13
ATOM     13  C   UNL     1      11.439   0.805   0.638  1.00  0.00     0.029 A 
ATOM     14  C   UNL     1      10.547   0.313  -0.330  1.00  0.00     0.062 A 
ATOM     15  C   UNL     1       9.366  -0.331   0.052  1.00  0.00     0.162 A 
ATOM     16  C   UNL     1      11.113   0.679   1.996  1.00  0.00     0.062 A 
ATOM     17  C   UNL     1       9.056  -0.477   1.416  1.00  0.00     0.200 A 
ATOM     18  C   UNL     1       9.932   0.034   2.389  1.00  0.00     0.162 A 
BRANCH  15  19
ATOM     19  O   UNL     1       8.512  -0.817  -0.938  1.00  0.00    -0.504 OA
ATOM     20  H   UNL     1       8.631  -1.735  -1.350  1.00  0.00     0.293 HD
ENDBRANCH  15  19
BRANCH  17  21
ATOM     21  O   UNL     1       7.877  -1.125   1.788  1.00  0.00    -0.502 OA
ATOM     22  H   UNL     1       7.792  -1.632   2.661  1.00  0.00     0.293 HD
ENDBRANCH  17  21
BRANCH  18  23
ATOM     23  O   UNL     1       9.626  -0.100   3.743  1.00  0.00    -0.504 OA
ATOM     24  H   UNL     1      10.319  -0.401   4.417  1.00  0.00     0.293 HD
ENDBRANCH  18  23
ENDBRANCH   3  13
BRANCH  10  25
ATOM     25  O   UNL     1      16.905   4.391  -0.493  1.00  0.00    -0.507 OA
ATOM     26  H   UNL     1      16.609   5.255  -0.920  1.00  0.00     0.293 HD
ENDBRANCH  10  25
BRANCH  11  27
ATOM     27  O   UNL     1      17.811   0.166  -2.553  1.00  0.00    -0.508 OA
ATOM     28  H   UNL     1      18.077  -0.751  -2.209  1.00  0.00     0.293 HD
ENDBRANCH  11  27
ENDBRANCH   1   2
BRANCH   1  29
ATOM     29  C   UNL     1      10.700   4.221   0.529  1.00  0.00     0.339 C 
ATOM     30  C   UNL     1      10.885   4.337  -1.007  1.00  0.00     0.214 C 
ATOM     31  O   UNL     1      10.461   5.480   1.130  1.00  0.00    -0.332 OA
ATOM     32  C   UNL     1      10.235   5.635  -1.545  1.00  0.00     0.180 C 
ATOM     33  C   UNL     1       9.173   5.966   0.777  1.00  0.00     0.179 C 
ATOM     34  C   UNL     1       8.949   6.003  -0.774  1.00  0.00     0.177 C 
BRANCH  30  35
ATOM     35  O   UNL     1      10.321   3.216  -1.641  1.00  0.00    -0.384 OA
ATOM     36  H   UNL     1      11.058   2.763  -2.129  1.00  0.00     0.211 HD
ENDBRANCH  30  35
BRANCH  32  37
ATOM     37  O   UNL     1       9.955   5.526  -2.917  1.00  0.00    -0.387 OA
ATOM     38  H   UNL     1       9.171   4.922  -3.002  1.00  0.00     0.211 HD
ENDBRANCH  32  37
BRANCH  33  39
ATOM     39  C   UNL     1       9.006   7.362   1.386  1.00  0.00     0.191 C 
BRANCH  39  40
ATOM     40  O   UNL     1       8.644   8.275   0.388  1.00  0.00    -0.394 OA
ATOM     41  H   UNL     1       9.126   9.118   0.598  1.00  0.00     0.210 HD
ENDBRANCH  39  40
ENDBRANCH  33  39
BRANCH  34  42
ATOM     42  O   UNL     1       7.875   5.176  -1.151  1.00  0.00    -0.387 OA
ATOM     43  H   UNL     1       8.075   4.254  -0.846  1.00  0.00     0.211 HD
ENDBRANCH  34  42
ENDBRANCH   1  29
TORSDOF 13
ENDMDL
MODEL 4
REMARK VINA RESULT:    -5.787      2.459      4.474
REMARK INTER + INTRA:          -9.450
REMARK INTER:                  -8.878
REMARK INTRA:                  -0.572
REMARK UNBOUND:                -0.787
REMARK SMILES O=c1c(O[C@H]2O[C@@H](CO)[C@H](O)[C@H](O)[C@@H]2O)c(-c2cc(O)c(O)c(O)c2)oc2cc(O)cc(O)c12
REMARK SMILES IDX 4 1 3 2 16 3 26 4 2 5 27 6 1 7 34 8 28 9 32 10 29 11 31 12
REMARK SMILES IDX 17 13 18 14 19 15 25 16 21 17 23 18 20 19 22 21 24 23 33 25
REMARK SMILES IDX 30 27 5 29 14 30 6 31 12 32 7 33 10 34 15 35 13 37 8 39 9 40
REMARK SMILES IDX 11 42
REMARK H PARENT 20 20 22 22 24 24 33 26 30 28 15 36 13 38 9 41 11 43
REMARK Flexibility Score: inf
ROOT
ATOM      1  O   UNL     1      11.473   3.516   1.587  1.00  0.00    -0.454 OA
ENDROOT
BRANCH   1   2
ATOM      2  C   UNL     1      10.905   4.288   0.549  1.00  0.00     0.214 A 
ATOM      3  C   UNL     1      10.995   3.784  -0.764  1.00  0.00     0.181 A 
ATOM      4  O   UNL     1      10.421   4.431  -1.771  1.00  0.00    -0.452 OA
ATOM      5  C   UNL     1      10.217   5.508   0.747  1.00  0.00     0.239 A 
ATOM      6  C   UNL     1       9.788   5.587  -1.631  1.00  0.00     0.146 A 
ATOM      7  O   UNL     1      10.012   5.926   1.913  1.00  0.00    -0.285 OA
ATOM      8  C   UNL     1       9.699   6.216  -0.364  1.00  0.00     0.111 A 
ATOM      9  C   UNL     1       9.204   6.170  -2.758  1.00  0.00     0.094 A 
ATOM     10  C   UNL     1       9.057   7.488  -0.281  1.00  0.00     0.134 A 
ATOM     11  C   UNL     1       8.518   7.382  -2.651  1.00  0.00     0.123 A 
ATOM     12  C   UNL     1       8.447   8.030  -1.419  1.00  0.00     0.093 A 
BRANCH   3  13
ATOM     13  C   UNL     1      11.704   2.520  -1.070  1.00  0.00     0.029 A 
ATOM     14  C   UNL     1      13.002   2.523  -1.608  1.00  0.00     0.062 A 
ATOM     15  C   UNL     1      13.652   1.322  -1.907  1.00  0.00     0.162 A 
ATOM     16  C   UNL     1      11.049   1.296  -0.873  1.00  0.00     0.062 A 
ATOM     17  C   UNL     1      13.000   0.096  -1.683  1.00  0.00     0.200 A 
ATOM     18  C   UNL     1      11.692   0.086  -1.168  1.00  0.00     0.162 A 
BRANCH  15  19
ATOM     19  O   UNL     1      14.945   1.365  -2.428  1.00  0.00    -0.504 OA
ATOM     20  H   UNL     1      15.534   2.185  -2.340  1.00  0.00     0.293 HD
ENDBRANCH  15  19
BRANCH  17  21
ATOM     21  O   UNL     1      13.657  -1.098  -1.980  1.00  0.00    -0.502 OA
ATOM     22  H   UNL     1      13.773  -1.836  -1.296  1.00  0.00     0.293 HD
ENDBRANCH  17  21
BRANCH  18  23
ATOM     23  O   UNL     1      11.036  -1.125  -0.952  1.00  0.00    -0.504 OA
ATOM     24  H   UNL     1      10.580  -1.624  -1.707  1.00  0.00     0.293 HD
ENDBRANCH  18  23
ENDBRANCH   3  13
BRANCH  10  25
ATOM     25  O   UNL     1       9.025   8.267   0.880  1.00  0.00    -0.507 OA
ATOM     26  H   UNL     1       9.818   8.424   1.483  1.00  0.00     0.293 HD
ENDBRANCH  10  25
BRANCH  11  27
ATOM     27  O   UNL     1       7.913   7.957  -3.766  1.00  0.00    -0.508 OA
ATOM     28  H   UNL     1       6.909   7.917  -3.904  1.00  0.00     0.293 HD
ENDBRANCH  11  27
ENDBRANCH   1   2
BRANCH   1  29
ATOM     29  C   UNL     1      12.851   3.304   1.906  1.00  0.00     0.339 C 
ATOM     30  C   UNL     1      13.766   4.198   1.030  1.00  0.00     0.214 C 
ATOM     31  O   UNL     1      13.183   1.932   1.790  1.00  0.00    -0.332 OA
ATOM     32  C   UNL     1      15.099   3.480   0.709  1.00  0.00     0.180 C 
ATOM     33  C   UNL     1      14.432   1.667   2.412  1.00  0.00     0.179 C 
ATOM     34  C   UNL     1      15.578   2.596   1.880  1.00  0.00     0.177 C 
BRANCH  30  35
ATOM     35  O   UNL     1      14.020   5.413   1.690  1.00  0.00    -0.384 OA
ATOM     36  H   UNL     1      13.139   5.846   1.840  1.00  0.00     0.211 HD
ENDBRANCH  30  35
BRANCH  32  37
ATOM     37  O   UNL     1      16.099   4.403   0.366  1.00  0.00    -0.387 OA
ATOM     38  H   UNL     1      16.883   4.203   0.942  1.00  0.00     0.211 HD
ENDBRANCH  32  37
BRANCH  33  39
ATOM     39  C   UNL     1      14.775   0.191   2.181  1.00  0.00     0.191 C 
BRANCH  39  40
ATOM     40  O   UNL     1      15.365   0.032   0.921  1.00  0.00    -0.394 OA
ATOM     41  H   UNL     1      15.288   0.912   0.468  1.00  0.00     0.210 HD
ENDBRANCH  39  40
ENDBRANCH  33  39
BRANCH  34  42
ATOM     42  O   UNL     1      16.120   3.376   2.918  1.00  0.00    -0.387 OA
ATOM     43  H   UNL     1      15.388   3.923   3.305  1.00  0.00     0.211 HD
ENDBRANCH  34  42
ENDBRANCH   1  29
TORSDOF 13
ENDMDL
MODEL 5
REMARK VINA RESULT:    -5.570      2.939      7.437
REMARK INTER + INTRA:          -9.124
REMARK INTER:                  -7.887
REMARK INTRA:                  -1.237
REMARK UNBOUND:                -0.787
REMARK SMILES O=c1c(O[C@H]2O[C@@H](CO)[C@H](O)[C@H](O)[C@@H]2O)c(-c2cc(O)c(O)c(O)c2)oc2cc(O)cc(O)c12
REMARK SMILES IDX 4 1 3 2 16 3 26 4 2 5 27 6 1 7 34 8 28 9 32 10 29 11 31 12
REMARK SMILES IDX 17 13 18 14 19 15 25 16 21 17 23 18 20 19 22 21 24 23 33 25
REMARK SMILES IDX 30 27 5 29 14 30 6 31 12 32 7 33 10 34 15 35 13 37 8 39 9 40
REMARK SMILES IDX 11 42
REMARK H PARENT 20 20 22 22 24 24 33 26 30 28 15 36 13 38 9 41 11 43
REMARK Flexibility Score: inf
ROOT
ATOM      1  O   UNL     1      12.674   2.890   1.226  1.00  0.00    -0.454 OA
ENDROOT
BRANCH   1   2
ATOM      2  C   UNL     1      13.474   2.139   0.336  1.00  0.00     0.214 A 
ATOM      3  C   UNL     1      12.946   0.928  -0.154  1.00  0.00     0.181 A 
ATOM      4  O   UNL     1      13.623   0.215  -1.046  1.00  0.00    -0.452 OA
ATOM      5  C   UNL     1      14.747   2.546  -0.127  1.00  0.00     0.239 A 
ATOM      6  C   UNL     1      14.828   0.549  -1.487  1.00  0.00     0.146 A 
ATOM      7  O   UNL     1      15.197   3.674   0.193  1.00  0.00    -0.285 OA
ATOM      8  C   UNL     1      15.479   1.712  -1.005  1.00  0.00     0.111 A 
ATOM      9  C   UNL     1      15.440  -0.267  -2.441  1.00  0.00     0.094 A 
ATOM     10  C   UNL     1      16.799   1.992  -1.470  1.00  0.00     0.134 A 
ATOM     11  C   UNL     1      16.704   0.054  -2.940  1.00  0.00     0.123 A 
ATOM     12  C   UNL     1      17.373   1.178  -2.455  1.00  0.00     0.093 A 
BRANCH   3  13
ATOM     13  C   UNL     1      11.625   0.418   0.280  1.00  0.00     0.029 A 
ATOM     14  C   UNL     1      10.506   0.476  -0.569  1.00  0.00     0.062 A 
ATOM     15  C   UNL     1       9.262   0.005  -0.139  1.00  0.00     0.162 A 
ATOM     16  C   UNL     1      11.472  -0.083   1.581  1.00  0.00     0.062 A 
ATOM     17  C   UNL     1       9.119  -0.520   1.158  1.00  0.00     0.200 A 
ATOM     18  C   UNL     1      10.229  -0.559   2.021  1.00  0.00     0.162 A 
BRANCH  15  19
ATOM     19  O   UNL     1       8.178   0.068  -1.014  1.00  0.00    -0.504 OA
ATOM     20  H   UNL     1       7.809  -0.754  -1.476  1.00  0.00     0.293 HD
ENDBRANCH  15  19
BRANCH  17  21
ATOM     21  O   UNL     1       7.875  -0.992   1.577  1.00  0.00    -0.502 OA
ATOM     22  H   UNL     1       7.007  -0.563   1.280  1.00  0.00     0.293 HD
ENDBRANCH  17  21
BRANCH  18  23
ATOM     23  O   UNL     1      10.093  -1.069   3.311  1.00  0.00    -0.504 OA
ATOM     24  H   UNL     1       9.820  -0.481   4.089  1.00  0.00     0.293 HD
ENDBRANCH  18  23
ENDBRANCH   3  13
BRANCH  10  25
ATOM     25  O   UNL     1      17.595   3.027  -0.971  1.00  0.00    -0.507 OA
ATOM     26  H   UNL     1      18.597   3.078  -1.078  1.00  0.00     0.293 HD
ENDBRANCH  10  25
BRANCH  11  27
ATOM     27  O   UNL     1      17.310  -0.742  -3.909  1.00  0.00    -0.508 OA
ATOM     28  H   UNL     1      18.163  -0.453  -4.374  1.00  0.00     0.293 HD
ENDBRANCH  11  27
ENDBRANCH   1   2
BRANCH   1  29
ATOM     29  C   UNL     1      11.603   3.793   0.936  1.00  0.00     0.339 C 
ATOM     30  C   UNL     1      10.275   3.298   1.564  1.00  0.00     0.214 C 
ATOM     31  O   UNL     1      11.486   3.993  -0.461  1.00  0.00    -0.332 OA
ATOM     32  C   UNL     1       9.067   3.668   0.669  1.00  0.00     0.180 C 
ATOM     33  C   UNL     1      10.664   5.118  -0.738  1.00  0.00     0.179 C 
ATOM     34  C   UNL     1       9.264   5.026  -0.038  1.00  0.00     0.177 C 
BRANCH  30  35
ATOM     35  O   UNL     1      10.116   3.856   2.844  1.00  0.00    -0.384 OA
ATOM     36  H   UNL     1      10.925   3.612   3.365  1.00  0.00     0.211 HD
ENDBRANCH  30  35
BRANCH  32  37
ATOM     37  O   UNL     1       7.876   3.684   1.412  1.00  0.00    -0.387 OA
ATOM     38  H   UNL     1       7.217   4.207   0.885  1.00  0.00     0.211 HD
ENDBRANCH  32  37
BRANCH  33  39
ATOM     39  C   UNL     1      10.507   5.232  -2.258  1.00  0.00     0.191 C 
BRANCH  39  40
ATOM     40  O   UNL     1      10.117   6.533  -2.599  1.00  0.00    -0.394 OA
ATOM     41  H   UNL     1      10.352   7.104  -1.822  1.00  0.00     0.210 HD
ENDBRANCH  39  40
ENDBRANCH  33  39
BRANCH  34  42
ATOM     42  O   UNL     1       9.073   6.097   0.855  1.00  0.00    -0.387 OA
ATOM     43  H   UNL     1       9.038   5.727   1.775  1.00  0.00     0.211 HD
ENDBRANCH  34  42
ENDBRANCH   1  29
TORSDOF 13
ENDMDL
MODEL 6
REMARK VINA RESULT:    -5.223      2.784      7.491
REMARK INTER + INTRA:          -8.604
REMARK INTER:                  -7.195
REMARK INTRA:                  -1.409
REMARK UNBOUND:                -0.787
REMARK SMILES O=c1c(O[C@H]2O[C@@H](CO)[C@H](O)[C@H](O)[C@@H]2O)c(-c2cc(O)c(O)c(O)c2)oc2cc(O)cc(O)c12
REMARK SMILES IDX 4 1 3 2 16 3 26 4 2 5 27 6 1 7 34 8 28 9 32 10 29 11 31 12
REMARK SMILES IDX 17 13 18 14 19 15 25 16 21 17 23 18 20 19 22 21 24 23 33 25
REMARK SMILES IDX 30 27 5 29 14 30 6 31 12 32 7 33 10 34 15 35 13 37 8 39 9 40
REMARK SMILES IDX 11 42
REMARK H PARENT 20 20 22 22 24 24 33 26 30 28 15 36 13 38 9 41 11 43
REMARK Flexibility Score: inf
ROOT
ATOM      1  O   UNL     1      12.995   2.472   0.212  1.00  0.00    -0.454 OA
ENDROOT
BRANCH   1   2
ATOM      2  C   UNL     1      13.483   1.793   1.351  1.00  0.00     0.214 A 
ATOM      3  C   UNL     1      12.797   0.633   1.763  1.00  0.00     0.181 A 
ATOM      4  O   UNL     1      13.250  -0.086   2.783  1.00  0.00    -0.452 OA
ATOM      5  C   UNL     1      14.636   2.176   2.075  1.00  0.00     0.239 A 
ATOM      6  C   UNL     1      14.311   0.252   3.501  1.00  0.00     0.146 A 
ATOM      7  O   UNL     1      15.340   3.132   1.666  1.00  0.00    -0.285 OA
ATOM      8  C   UNL     1      15.033   1.438   3.215  1.00  0.00     0.111 A 
ATOM      9  C   UNL     1      14.709  -0.590   4.543  1.00  0.00     0.094 A 
ATOM     10  C   UNL     1      16.132   1.783   4.056  1.00  0.00     0.134 A 
ATOM     11  C   UNL     1      15.828  -0.277   5.316  1.00  0.00     0.123 A 
ATOM     12  C   UNL     1      16.532   0.901   5.069  1.00  0.00     0.093 A 
BRANCH   3  13
ATOM     13  C   UNL     1      11.576   0.159   1.072  1.00  0.00     0.029 A 
ATOM     14  C   UNL     1      11.606  -0.233  -0.277  1.00  0.00     0.062 A 
ATOM     15  C   UNL     1      10.441  -0.663  -0.920  1.00  0.00     0.162 A 
ATOM     16  C   UNL     1      10.353   0.153   1.759  1.00  0.00     0.062 A 
ATOM     17  C   UNL     1       9.222  -0.691  -0.219  1.00  0.00     0.200 A 
ATOM     18  C   UNL     1       9.179  -0.277   1.124  1.00  0.00     0.162 A 
BRANCH  15  19
ATOM     19  O   UNL     1      10.514  -1.056  -2.256  1.00  0.00    -0.504 OA
ATOM     20  H   UNL     1      10.730  -2.008  -2.527  1.00  0.00     0.293 HD
ENDBRANCH  15  19
BRANCH  17  21
ATOM     21  O   UNL     1       8.065  -1.125  -0.867  1.00  0.00    -0.502 OA
ATOM     22  H   UNL     1       7.863  -0.886  -1.831  1.00  0.00     0.293 HD
ENDBRANCH  17  21
BRANCH  18  23
ATOM     23  O   UNL     1       7.973  -0.293   1.821  1.00  0.00    -0.504 OA
ATOM     24  H   UNL     1       7.594   0.544   2.250  1.00  0.00     0.293 HD
ENDBRANCH  18  23
ENDBRANCH   3  13
BRANCH  10  25
ATOM     25  O   UNL     1      16.835   2.988   3.962  1.00  0.00    -0.507 OA
ATOM     26  H   UNL     1      17.293   3.443   4.737  1.00  0.00     0.293 HD
ENDBRANCH  10  25
BRANCH  11  27
ATOM     27  O   UNL     1      16.244  -1.124   6.341  1.00  0.00    -0.508 OA
ATOM     28  H   UNL     1      16.715  -0.767   7.165  1.00  0.00     0.293 HD
ENDBRANCH  11  27
ENDBRANCH   1   2
BRANCH   1  29
ATOM     29  C   UNL     1      12.107   3.591   0.140  1.00  0.00     0.339 C 
ATOM     30  C   UNL     1      11.962   4.275   1.524  1.00  0.00     0.214 C 
ATOM     31  O   UNL     1      10.854   3.198  -0.391  1.00  0.00    -0.332 OA
ATOM     32  C   UNL     1      10.534   4.840   1.716  1.00  0.00     0.180 C 
ATOM     33  C   UNL     1      10.093   4.336  -0.771  1.00  0.00     0.179 C 
ATOM     34  C   UNL     1       9.939   5.373   0.395  1.00  0.00     0.177 C 
BRANCH  30  35
ATOM     35  O   UNL     1      12.909   5.305   1.648  1.00  0.00    -0.384 OA
ATOM     36  H   UNL     1      13.556   5.190   0.903  1.00  0.00     0.211 HD
ENDBRANCH  30  35
BRANCH  32  37
ATOM     37  O   UNL     1      10.519   5.851   2.690  1.00  0.00    -0.387 OA
ATOM     38  H   UNL     1      11.373   6.348   2.598  1.00  0.00     0.211 HD
ENDBRANCH  32  37
BRANCH  33  39
ATOM     39  C   UNL     1       8.722   3.852  -1.256  1.00  0.00     0.191 C 
BRANCH  39  40
ATOM     40  O   UNL     1       8.525   2.520  -0.871  1.00  0.00    -0.394 OA
ATOM     41  H   UNL     1       9.395   2.206  -0.510  1.00  0.00     0.210 HD
ENDBRANCH  39  40
ENDBRANCH  33  39
BRANCH  34  42
ATOM     42  O   UNL     1      10.503   6.614   0.047  1.00  0.00    -0.387 OA
ATOM     43  H   UNL     1      10.230   7.278   0.731  1.00  0.00     0.211 HD
ENDBRANCH  34  42
ENDBRANCH   1  29
TORSDOF 13
ENDMDL
MODEL 7
REMARK VINA RESULT:    -4.990      2.781      6.844
REMARK INTER + INTRA:          -8.257
REMARK INTER:                  -7.175
REMARK INTRA:                  -1.082
REMARK UNBOUND:                -0.787
REMARK SMILES O=c1c(O[C@H]2O[C@@H](CO)[C@H](O)[C@H](O)[C@@H]2O)c(-c2cc(O)c(O)c(O)c2)oc2cc(O)cc(O)c12
REMARK SMILES IDX 4 1 3 2 16 3 26 4 2 5 27 6 1 7 34 8 28 9 32 10 29 11 31 12
REMARK SMILES IDX 17 13 18 14 19 15 25 16 21 17 23 18 20 19 22 21 24 23 33 25
REMARK SMILES IDX 30 27 5 29 14 30 6 31 12 32 7 33 10 34 15 35 13 37 8 39 9 40
REMARK SMILES IDX 11 42
REMARK H PARENT 20 20 22 22 24 24 33 26 30 28 15 36 13 38 9 41 11 43
REMARK Flexibility Score: inf
ROOT
ATOM      1  O   UNL     1      12.208  -0.539   1.247  1.00  0.00    -0.454 OA
ENDROOT
BRANCH   1   2
ATOM      2  C   UNL     1      13.280  -0.026   2.011  1.00  0.00     0.214 A 
ATOM      3  C   UNL     1      14.152   0.886   1.384  1.00  0.00     0.181 A 
ATOM      4  O   UNL     1      15.136   1.454   2.071  1.00  0.00    -0.452 OA
ATOM      5  C   UNL     1      13.507  -0.333   3.373  1.00  0.00     0.239 A 
ATOM      6  C   UNL     1      15.396   1.175   3.340  1.00  0.00     0.146 A 
ATOM      7  O   UNL     1      12.683  -1.046   3.998  1.00  0.00    -0.285 OA
ATOM      8  C   UNL     1      14.623   0.220   4.046  1.00  0.00     0.111 A 
ATOM      9  C   UNL     1      16.446   1.847   3.970  1.00  0.00     0.094 A 
ATOM     10  C   UNL     1      14.984  -0.085   5.393  1.00  0.00     0.134 A 
ATOM     11  C   UNL     1      16.746   1.591   5.309  1.00  0.00     0.123 A 
ATOM     12  C   UNL     1      16.016   0.633   6.011  1.00  0.00     0.093 A 
BRANCH   3  13
ATOM     13  C   UNL     1      13.999   1.262  -0.041  1.00  0.00     0.029 A 
ATOM     14  C   UNL     1      13.253   2.391  -0.421  1.00  0.00     0.062 A 
ATOM     15  C   UNL     1      13.103   2.724  -1.771  1.00  0.00     0.162 A 
ATOM     16  C   UNL     1      14.560   0.447  -1.034  1.00  0.00     0.062 A 
ATOM     17  C   UNL     1      13.690   1.917  -2.762  1.00  0.00     0.200 A 
ATOM     18  C   UNL     1      14.417   0.772  -2.390  1.00  0.00     0.162 A 
BRANCH  15  19
ATOM     19  O   UNL     1      12.366   3.859  -2.108  1.00  0.00    -0.504 OA
ATOM     20  H   UNL     1      12.777   4.642  -2.602  1.00  0.00     0.293 HD
ENDBRANCH  15  19
BRANCH  17  21
ATOM     21  O   UNL     1      13.539   2.259  -4.107  1.00  0.00    -0.502 OA
ATOM     22  H   UNL     1      13.093   3.120  -4.398  1.00  0.00     0.293 HD
ENDBRANCH  17  21
BRANCH  18  23
ATOM     23  O   UNL     1      14.993  -0.037  -3.368  1.00  0.00    -0.504 OA
ATOM     24  H   UNL     1      15.029  -1.044  -3.271  1.00  0.00     0.293 HD
ENDBRANCH  18  23
ENDBRANCH   3  13
BRANCH  10  25
ATOM     25  O   UNL     1      14.387  -1.100   6.146  1.00  0.00    -0.507 OA
ATOM     26  H   UNL     1      14.878  -1.680   6.811  1.00  0.00     0.293 HD
ENDBRANCH  10  25
BRANCH  11  27
ATOM     27  O   UNL     1      17.776   2.275   5.951  1.00  0.00    -0.508 OA
ATOM     28  H   UNL     1      17.950   3.259   5.773  1.00  0.00     0.293 HD
ENDBRANCH  11  27
ENDBRANCH   1   2
BRANCH   1  29
ATOM     29  C   UNL     1      10.995   0.105   0.846  1.00  0.00     0.339 C 
ATOM     30  C   UNL     1      10.202   0.609   2.079  1.00  0.00     0.214 C 
ATOM     31  O   UNL     1      10.220  -0.758   0.034  1.00  0.00    -0.332 OA
ATOM     32  C   UNL     1       8.677   0.514   1.833  1.00  0.00     0.180 C 
ATOM     33  C   UNL     1       9.195  -0.032  -0.630  1.00  0.00     0.179 C 
ATOM     34  C   UNL     1       8.308   0.798   0.361  1.00  0.00     0.177 C 
BRANCH  30  35
ATOM     35  O   UNL     1      10.562   1.937   2.366  1.00  0.00    -0.384 OA
ATOM     36  H   UNL     1      10.439   2.061   3.344  1.00  0.00     0.211 HD
ENDBRANCH  30  35
BRANCH  32  37
ATOM     37  O   UNL     1       7.974   1.386   2.680  1.00  0.00    -0.387 OA
ATOM     38  H   UNL     1       7.250   1.792   2.134  1.00  0.00     0.211 HD
ENDBRANCH  32  37
BRANCH  33  39
ATOM     39  C   UNL     1       8.342  -1.028  -1.423  1.00  0.00     0.191 C 
BRANCH  39  40
ATOM     40  O   UNL     1       8.720  -1.009  -2.771  1.00  0.00    -0.394 OA
ATOM     41  H   UNL     1       8.643  -0.064  -3.066  1.00  0.00     0.210 HD
ENDBRANCH  39  40
ENDBRANCH  33  39
BRANCH  34  42
ATOM     42  O   UNL     1       8.380   2.174   0.075  1.00  0.00    -0.387 OA
ATOM     43  H   UNL     1       8.093   2.308  -0.864  1.00  0.00     0.211 HD
ENDBRANCH  34  42
ENDBRANCH   1  29
TORSDOF 13
ENDMDL
MODEL 8
REMARK VINA RESULT:    -4.795      2.873      7.167
REMARK INTER + INTRA:          -7.964
REMARK INTER:                  -7.205
REMARK INTRA:                  -0.758
REMARK UNBOUND:                -0.787
REMARK SMILES O=c1c(O[C@H]2O[C@@H](CO)[C@H](O)[C@H](O)[C@@H]2O)c(-c2cc(O)c(O)c(O)c2)oc2cc(O)cc(O)c12
REMARK SMILES IDX 4 1 3 2 16 3 26 4 2 5 27 6 1 7 34 8 28 9 32 10 29 11 31 12
REMARK SMILES IDX 17 13 18 14 19 15 25 16 21 17 23 18 20 19 22 21 24 23 33 25
REMARK SMILES IDX 30 27 5 29 14 30 6 31 12 32 7 33 10 34 15 35 13 37 8 39 9 40
REMARK SMILES IDX 11 42
REMARK H PARENT 20 20 22 22 24 24 33 26 30 28 15 36 13 38 9 41 11 43
REMARK Flexibility Score: inf
ROOT
ATOM      1  O   UNL     1      11.905   1.872   1.846  1.00  0.00    -0.454 OA
ENDROOT
BRANCH   1   2
ATOM      2  C   UNL     1      13.021   1.902   0.979  1.00  0.00     0.214 A 
ATOM      3  C   UNL     1      13.083   2.940   0.029  1.00  0.00     0.181 A 
ATOM      4  O   UNL     1      14.140   3.060  -0.765  1.00  0.00    -0.452 OA
ATOM      5  C   UNL     1      14.097   0.984   1.033  1.00  0.00     0.239 A 
ATOM      6  C   UNL     1      15.156   2.209  -0.763  1.00  0.00     0.146 A 
ATOM      7  O   UNL     1      14.135   0.120   1.943  1.00  0.00    -0.285 OA
ATOM      8  C   UNL     1      15.161   1.089   0.106  1.00  0.00     0.111 A 
ATOM      9  C   UNL     1      16.226   2.443  -1.630  1.00  0.00     0.094 A 
ATOM     10  C   UNL     1      16.252   0.173   0.026  1.00  0.00     0.134 A 
ATOM     11  C   UNL     1      17.321   1.577  -1.650  1.00  0.00     0.123 A 
ATOM     12  C   UNL     1      17.330   0.453  -0.825  1.00  0.00     0.093 A 
BRANCH   3  13
ATOM     13  C   UNL     1      12.000   3.942  -0.107  1.00  0.00     0.029 A 
ATOM     14  C   UNL     1      11.537   4.671   1.002  1.00  0.00     0.062 A 
ATOM     15  C   UNL     1      10.503   5.602   0.861  1.00  0.00     0.162 A 
ATOM     16  C   UNL     1      11.385   4.129  -1.353  1.00  0.00     0.062 A 
ATOM     17  C   UNL     1       9.907   5.803  -0.396  1.00  0.00     0.200 A 
ATOM     18  C   UNL     1      10.348   5.060  -1.505  1.00  0.00     0.162 A 
BRANCH  15  19
ATOM     19  O   UNL     1      10.079   6.314   1.983  1.00  0.00    -0.504 OA
ATOM     20  H   UNL     1      10.187   7.319   2.055  1.00  0.00     0.293 HD
ENDBRANCH  15  19
BRANCH  17  21
ATOM     21  O   UNL     1       8.878   6.737  -0.529  1.00  0.00    -0.502 OA
ATOM     22  H   UNL     1       7.904   6.490  -0.398  1.00  0.00     0.293 HD
ENDBRANCH  17  21
BRANCH  18  23
ATOM     23  O   UNL     1       9.756   5.249  -2.753  1.00  0.00    -0.504 OA
ATOM     24  H   UNL     1       8.788   5.537  -2.844  1.00  0.00     0.293 HD
ENDBRANCH  18  23
ENDBRANCH   3  13
BRANCH  10  25
ATOM     25  O   UNL     1      16.307  -1.034   0.729  1.00  0.00    -0.507 OA
ATOM     26  H   UNL     1      17.138  -1.597   0.832  1.00  0.00     0.293 HD
ENDBRANCH  10  25
BRANCH  11  27
ATOM     27  O   UNL     1      18.401   1.817  -2.495  1.00  0.00    -0.508 OA
ATOM     28  H   UNL     1      19.334   1.490  -2.269  1.00  0.00     0.293 HD
ENDBRANCH  11  27
ENDBRANCH   1   2
BRANCH   1  29
ATOM     29  C   UNL     1      10.711   1.090   1.755  1.00  0.00     0.339 C 
ATOM     30  C   UNL     1      10.018   1.296   0.383  1.00  0.00     0.214 C 
ATOM     31  O   UNL     1       9.844   1.380   2.836  1.00  0.00    -0.332 OA
ATOM     32  C   UNL     1       8.478   1.218   0.524  1.00  0.00     0.180 C 
ATOM     33  C   UNL     1       8.827   0.393   2.938  1.00  0.00     0.179 C 
ATOM     34  C   UNL     1       8.045   0.193   1.594  1.00  0.00     0.177 C 
BRANCH  30  35
ATOM     35  O   UNL     1      10.468   0.326  -0.529  1.00  0.00    -0.384 OA
ATOM     36  H   UNL     1      11.455   0.428  -0.590  1.00  0.00     0.211 HD
ENDBRANCH  30  35
BRANCH  32  37
ATOM     37  O   UNL     1       7.875   0.909  -0.706  1.00  0.00    -0.387 OA
ATOM     38  H   UNL     1       7.402   0.045  -0.583  1.00  0.00     0.211 HD
ENDBRANCH  32  37
BRANCH  33  39
ATOM     39  C   UNL     1       7.875   0.804   4.067  1.00  0.00     0.191 C 
BRANCH  39  40
ATOM     40  O   UNL     1       8.609   1.101   5.222  1.00  0.00    -0.394 OA
ATOM     41  H   UNL     1       9.099   0.270   5.458  1.00  0.00     0.210 HD
ENDBRANCH  39  40
ENDBRANCH  33  39
BRANCH  34  42
ATOM     42  O   UNL     1       8.180  -1.125   1.121  1.00  0.00    -0.387 OA
ATOM     43  H   UNL     1       8.080  -1.740   1.892  1.00  0.00     0.211 HD
ENDBRANCH  34  42
ENDBRANCH   1  29
TORSDOF 13
ENDMDL
MODEL 9
REMARK VINA RESULT:    -3.862      2.730      6.467
REMARK INTER + INTRA:          -6.568
REMARK INTER:                  -5.554
REMARK INTRA:                  -1.015
REMARK UNBOUND:                -0.787
REMARK SMILES O=c1c(O[C@H]2O[C@@H](CO)[C@H](O)[C@H](O)[C@@H]2O)c(-c2cc(O)c(O)c(O)c2)oc2cc(O)cc(O)c12
REMARK SMILES IDX 4 1 3 2 16 3 26 4 2 5 27 6 1 7 34 8 28 9 32 10 29 11 31 12
REMARK SMILES IDX 17 13 18 14 19 15 25 16 21 17 23 18 20 19 22 21 24 23 33 25
REMARK SMILES IDX 30 27 5 29 14 30 6 31 12 32 7 33 10 34 15 35 13 37 8 39 9 40
REMARK SMILES IDX 11 42
REMARK H PARENT 20 20 22 22 24 24 33 26 30 28 15 36 13 38 9 41 11 43
REMARK Flexibility Score: inf
ROOT
ATOM      1  O   UNL     1      13.042   0.198   0.426  1.00  0.00    -0.454 OA
ENDROOT
BRANCH   1   2
ATOM      2  C   UNL     1      13.933   0.765   1.364  1.00  0.00     0.214 A 
ATOM      3  C   UNL     1      14.429   2.057   1.097  1.00  0.00     0.181 A 
ATOM      4  O   UNL     1      15.215   2.668   1.975  1.00  0.00    -0.452 OA
ATOM      5  C   UNL     1      14.324   0.140   2.571  1.00  0.00     0.239 A 
ATOM      6  C   UNL     1      15.623   2.107   3.105  1.00  0.00     0.146 A 
ATOM      7  O   UNL     1      13.810  -0.958   2.901  1.00  0.00    -0.285 OA
ATOM      8  C   UNL     1      15.239   0.784   3.438  1.00  0.00     0.111 A 
ATOM      9  C   UNL     1      16.435   2.851   3.965  1.00  0.00     0.094 A 
ATOM     10  C   UNL     1      15.754   0.210   4.638  1.00  0.00     0.134 A 
ATOM     11  C   UNL     1      16.877   2.302   5.170  1.00  0.00     0.123 A 
ATOM     12  C   UNL     1      16.535   0.992   5.500  1.00  0.00     0.093 A 
BRANCH   3  13
ATOM     13  C   UNL     1      14.082   2.787  -0.144  1.00  0.00     0.029 A 
ATOM     14  C   UNL     1      15.074   3.193  -1.053  1.00  0.00     0.062 A 
ATOM     15  C   UNL     1      14.733   3.896  -2.213  1.00  0.00     0.162 A 
ATOM     16  C   UNL     1      12.745   3.128  -0.393  1.00  0.00     0.062 A 
ATOM     17  C   UNL     1      13.388   4.214  -2.470  1.00  0.00     0.200 A 
ATOM     18  C   UNL     1      12.392   3.831  -1.554  1.00  0.00     0.162 A 
BRANCH  15  19
ATOM     19  O   UNL     1      15.744   4.272  -3.096  1.00  0.00    -0.504 OA
ATOM     20  H   UNL     1      15.623   4.235  -4.101  1.00  0.00     0.293 HD
ENDBRANCH  15  19
BRANCH  17  21
ATOM     21  O   UNL     1      13.055   4.911  -3.632  1.00  0.00    -0.502 OA
ATOM     22  H   UNL     1      12.644   5.837  -3.608  1.00  0.00     0.293 HD
ENDBRANCH  17  21
BRANCH  18  23
ATOM     23  O   UNL     1      11.058   4.151  -1.798  1.00  0.00    -0.504 OA
ATOM     24  H   UNL     1      10.783   4.709  -2.598  1.00  0.00     0.293 HD
ENDBRANCH  18  23
ENDBRANCH   3  13
BRANCH  10  25
ATOM     25  O   UNL     1      15.560  -1.125   5.006  1.00  0.00    -0.507 OA
ATOM     26  H   UNL     1      15.012  -1.424   5.799  1.00  0.00     0.293 HD
ENDBRANCH  10  25
BRANCH  11  27
ATOM     27  O   UNL     1      17.667   3.047   6.043  1.00  0.00    -0.508 OA
ATOM     28  H   UNL     1      18.149   2.613   6.822  1.00  0.00     0.293 HD
ENDBRANCH  11  27
ENDBRANCH   1   2
BRANCH   1  29
ATOM     29  C   UNL     1      11.637  -0.042   0.546  1.00  0.00     0.339 C 
ATOM     30  C   UNL     1      10.912   0.227  -0.798  1.00  0.00     0.214 C 
ATOM     31  O   UNL     1      11.090   0.723   1.605  1.00  0.00    -0.332 OA
ATOM     32  C   UNL     1       9.492   0.795  -0.557  1.00  0.00     0.180 C 
ATOM     33  C   UNL     1       9.793   0.253   1.942  1.00  0.00     0.179 C 
ATOM     34  C   UNL     1       8.834   0.195   0.703  1.00  0.00     0.177 C 
BRANCH  30  35
ATOM     35  O   UNL     1      10.836  -0.962  -1.544  1.00  0.00    -0.384 OA
ATOM     36  H   UNL     1       9.892  -1.054  -1.839  1.00  0.00     0.211 HD
ENDBRANCH  30  35
BRANCH  32  37
ATOM     37  O   UNL     1       8.669   0.582  -1.675  1.00  0.00    -0.387 OA
ATOM     38  H   UNL     1       9.073  -0.166  -2.189  1.00  0.00     0.211 HD
ENDBRANCH  32  37
BRANCH  33  39
ATOM     39  C   UNL     1       9.222   1.169   3.031  1.00  0.00     0.191 C 
BRANCH  39  40
ATOM     40  O   UNL     1      10.124   2.207   3.299  1.00  0.00    -0.394 OA
ATOM     41  H   UNL     1      10.949   1.773   3.641  1.00  0.00     0.210 HD
ENDBRANCH  39  40
ENDBRANCH  33  39
BRANCH  34  42
ATOM     42  O   UNL     1       8.389  -1.120   0.469  1.00  0.00    -0.387 OA
ATOM     43  H   UNL     1       7.420  -1.158   0.674  1.00  0.00     0.211 HD
ENDBRANCH  34  42
ENDBRANCH   1  29
TORSDOF 13
ENDMDL
