MODEL 1
REMARK VINA RESULT:    -5.015      0.000      0.000
REMARK INTER + INTRA:          -5.161
REMARK INTER:                  -5.161
REMARK INTRA:                   0.000
REMARK UNBOUND:                 0.000
REMARK SMILES Nc1ncnc2nc[nH]c12
REMARK SMILES IDX 8 1 7 2 6 3 5 4 4 5 3 6 2 7 10 8 9 9 1 11
REMARK H PARENT 9 10 1 12 1 13
REMARK Flexibility Score: inf
ROOT
ATOM      1  C   UNL     1      53.672  -8.165  76.612  1.00  0.00     0.199 A 
ATOM      2  N   UNL     1      52.951  -8.241  75.461  1.00  0.00    -0.217 NA
ATOM      3  C   UNL     1      53.905  -8.475  74.543  1.00  0.00     0.182 A 
ATOM      4  N   UNL     1      53.721  -8.637  73.211  1.00  0.00    -0.215 NA
ATOM      5  C   UNL     1      54.821  -8.868  72.430  1.00  0.00     0.226 A 
ATOM      6  N   UNL     1      56.071  -8.932  72.992  1.00  0.00    -0.217 NA
ATOM      7  C   UNL     1      56.258  -8.769  74.336  1.00  0.00     0.152 A 
ATOM      8  C   UNL     1      55.128  -8.535  75.116  1.00  0.00     0.127 A 
ATOM      9  N   UNL     1      55.007  -8.339  76.434  1.00  0.00    -0.340 N 
ATOM     10  H   UNL     1      55.752  -8.323  77.164  1.00  0.00     0.168 HD
ENDROOT
BRANCH   7  11
ATOM     11  N   UNL     1      57.568  -8.839  74.897  1.00  0.00    -0.382 N 
ATOM     12  H   UNL     1      57.795  -8.382  75.808  1.00  0.00     0.158 HD
ATOM     13  H   UNL     1      58.324  -9.356  74.397  1.00  0.00     0.158 HD
ENDBRANCH   7  11
TORSDOF 1
ENDMDL
MODEL 2
REMARK VINA RESULT:    -4.944      1.304      2.707
REMARK INTER + INTRA:          -5.088
REMARK INTER:                  -5.088
REMARK INTRA:                   0.000
REMARK UNBOUND:                 0.000
REMARK SMILES Nc1ncnc2nc[nH]c12
REMARK SMILES IDX 8 1 7 2 6 3 5 4 4 5 3 6 2 7 10 8 9 9 1 11
REMARK H PARENT 9 10 1 12 1 13
REMARK Flexibility Score: inf
ROOT
ATOM      1  C   UNL     1      52.365  -8.281  76.462  1.00  0.00     0.199 A 
ATOM      2  N   UNL     1      53.710  -8.172  76.636  1.00  0.00    -0.217 NA
ATOM      3  C   UNL     1      54.176  -8.393  75.395  1.00  0.00     0.182 A 
ATOM      4  N   UNL     1      55.474  -8.398  75.009  1.00  0.00    -0.215 NA
ATOM      5  C   UNL     1      55.757  -8.645  73.694  1.00  0.00     0.226 A 
ATOM      6  N   UNL     1      54.744  -8.881  72.798  1.00  0.00    -0.217 NA
ATOM      7  C   UNL     1      53.434  -8.876  73.185  1.00  0.00     0.152 A 
ATOM      8  C   UNL     1      53.164  -8.623  74.528  1.00  0.00     0.127 A 
ATOM      9  N   UNL     1      51.999  -8.558  75.183  1.00  0.00    -0.340 N 
ATOM     10  H   UNL     1      51.032  -8.686  74.813  1.00  0.00     0.168 HD
ENDROOT
BRANCH   7  11
ATOM     11  N   UNL     1      52.398  -9.125  72.235  1.00  0.00    -0.382 N 
ATOM     12  H   UNL     1      52.614  -9.446  71.265  1.00  0.00     0.158 HD
ATOM     13  H   UNL     1      51.399  -8.987  72.504  1.00  0.00     0.158 HD
ENDBRANCH   7  11
TORSDOF 1
ENDMDL
MODEL 3
REMARK VINA RESULT:    -4.770      0.874      2.987
REMARK INTER + INTRA:          -4.910
REMARK INTER:                  -4.910
REMARK INTRA:                   0.000
REMARK UNBOUND:                 0.000
REMARK SMILES Nc1ncnc2nc[nH]c12
REMARK SMILES IDX 8 1 7 2 6 3 5 4 4 5 3 6 2 7 10 8 9 9 1 11
REMARK H PARENT 9 10 1 12 1 13
REMARK Flexibility Score: inf
ROOT
ATOM      1  C   UNL     1      57.454  -9.124  73.803  1.00  0.00     0.199 A 
ATOM      2  N   UNL     1      56.570  -8.948  72.784  1.00  0.00    -0.217 NA
ATOM      3  C   UNL     1      55.438  -8.640  73.439  1.00  0.00     0.182 A 
ATOM      4  N   UNL     1      54.233  -8.364  72.885  1.00  0.00    -0.215 NA
ATOM      5  C   UNL     1      53.189  -8.072  73.719  1.00  0.00     0.226 A 
ATOM      6  N   UNL     1      53.369  -8.060  75.079  1.00  0.00    -0.217 NA
ATOM      7  C   UNL     1      54.584  -8.337  75.641  1.00  0.00     0.152 A 
ATOM      8  C   UNL     1      55.635  -8.633  74.777  1.00  0.00     0.127 A 
ATOM      9  N   UNL     1      56.912  -8.940  75.035  1.00  0.00    -0.340 N 
ATOM     10  H   UNL     1      57.392  -9.021  75.958  1.00  0.00     0.168 HD
ENDROOT
BRANCH   7  11
ATOM     11  N   UNL     1      54.746  -8.319  77.059  1.00  0.00    -0.382 N 
ATOM     12  H   UNL     1      54.680  -7.431  77.603  1.00  0.00     0.158 HD
ATOM     13  H   UNL     1      54.935  -9.207  77.574  1.00  0.00     0.158 HD
ENDBRANCH   7  11
TORSDOF 1
ENDMDL
MODEL 4
REMARK VINA RESULT:    -4.746      0.843      2.904
REMARK INTER + INTRA:          -4.885
REMARK INTER:                  -4.885
REMARK INTRA:                   0.000
REMARK UNBOUND:                 0.000
REMARK SMILES Nc1ncnc2nc[nH]c12
REMARK SMILES IDX 8 1 7 2 6 3 5 4 4 5 3 6 2 7 10 8 9 9 1 11
REMARK H PARENT 9 10 1 12 1 13
REMARK Flexibility Score: inf
ROOT
ATOM      1  C   UNL     1      54.175  -8.772  71.713  1.00  0.00     0.199 A 
ATOM      2  N   UNL     1      53.032  -8.616  72.435  1.00  0.00    -0.217 NA
ATOM      3  C   UNL     1      53.500  -8.515  73.690  1.00  0.00     0.182 A 
ATOM      4  N   UNL     1      52.765  -8.345  74.815  1.00  0.00    -0.215 NA
ATOM      5  C   UNL     1      53.424  -8.264  76.011  1.00  0.00     0.226 A 
ATOM      6  N   UNL     1      54.792  -8.354  76.059  1.00  0.00    -0.217 NA
ATOM      7  C   UNL     1      55.536  -8.526  74.925  1.00  0.00     0.152 A 
ATOM      8  C   UNL     1      54.849  -8.606  73.716  1.00  0.00     0.127 A 
ATOM      9  N   UNL     1      55.303  -8.771  72.468  1.00  0.00    -0.340 N 
ATOM     10  H   UNL     1      56.288  -8.875  72.138  1.00  0.00     0.168 HD
ENDROOT
BRANCH   7  11
ATOM     11  N   UNL     1      56.958  -8.617  75.000  1.00  0.00    -0.382 N 
ATOM     12  H   UNL     1      57.574  -7.957  74.475  1.00  0.00     0.158 HD
ATOM     13  H   UNL     1      57.404  -9.355  75.588  1.00  0.00     0.158 HD
ENDBRANCH   7  11
TORSDOF 1
ENDMDL
MODEL 5
REMARK VINA RESULT:    -4.743      0.971      3.770
REMARK INTER + INTRA:          -4.882
REMARK INTER:                  -4.882
REMARK INTRA:                   0.000
REMARK UNBOUND:                 0.000
REMARK SMILES Nc1ncnc2nc[nH]c12
REMARK SMILES IDX 8 1 7 2 6 3 5 4 4 5 3 6 2 7 10 8 9 9 1 11
REMARK H PARENT 9 10 1 12 1 13
REMARK Flexibility Score: inf
ROOT
ATOM      1  C   UNL     1      56.270  -9.099  73.379  1.00  0.00     0.199 A 
ATOM      2  N   UNL     1      56.369  -8.835  74.710  1.00  0.00    -0.217 NA
ATOM      3  C   UNL     1      55.090  -8.605  75.051  1.00  0.00     0.182 A 
ATOM      4  N   UNL     1      54.627  -8.292  76.285  1.00  0.00    -0.215 NA
ATOM      5  C   UNL     1      53.283  -8.092  76.438  1.00  0.00     0.226 A 
ATOM      6  N   UNL     1      52.435  -8.208  75.365  1.00  0.00    -0.217 NA
ATOM      7  C   UNL     1      52.900  -8.525  74.120  1.00  0.00     0.152 A 
ATOM      8  C   UNL     1      54.272  -8.725  73.981  1.00  0.00     0.127 A 
ATOM      9  N   UNL     1      55.000  -9.038  72.903  1.00  0.00    -0.340 N 
ATOM     10  H   UNL     1      54.681  -9.201  71.923  1.00  0.00     0.168 HD
ENDROOT
BRANCH   7  11
ATOM     11  N   UNL     1      52.000  -8.640  73.019  1.00  0.00    -0.382 N 
ATOM     12  H   UNL     1      52.298  -9.068  72.115  1.00  0.00     0.158 HD
ATOM     13  H   UNL     1      51.020  -8.292  73.108  1.00  0.00     0.158 HD
ENDBRANCH   7  11
TORSDOF 1
ENDMDL
MODEL 6
REMARK VINA RESULT:    -4.685      3.191      5.565
REMARK INTER + INTRA:          -4.822
REMARK INTER:                  -4.822
REMARK INTRA:                   0.000
REMARK UNBOUND:                 0.000
REMARK SMILES Nc1ncnc2nc[nH]c12
REMARK SMILES IDX 8 1 7 2 6 3 5 4 4 5 3 6 2 7 10 8 9 9 1 11
REMARK H PARENT 9 10 1 12 1 13
REMARK Flexibility Score: inf
ROOT
ATOM      1  C   UNL     1      53.113  -8.375  75.251  1.00  0.00     0.199 A 
ATOM      2  N   UNL     1      52.867  -7.720  76.418  1.00  0.00    -0.217 NA
ATOM      3  C   UNL     1      51.525  -7.651  76.428  1.00  0.00     0.182 A 
ATOM      4  N   UNL     1      50.752  -7.087  77.386  1.00  0.00    -0.215 NA
ATOM      5  C   UNL     1      49.395  -7.112  77.220  1.00  0.00     0.226 A 
ATOM      6  N   UNL     1      48.842  -7.697  76.109  1.00  0.00    -0.217 NA
ATOM      7  C   UNL     1      49.619  -8.267  75.141  1.00  0.00     0.152 A 
ATOM      8  C   UNL     1      50.999  -8.232  75.326  1.00  0.00     0.127 A 
ATOM      9  N   UNL     1      51.991  -8.700  74.559  1.00  0.00    -0.340 N 
ATOM     10  H   UNL     1      51.932  -9.200  73.645  1.00  0.00     0.168 HD
ENDROOT
BRANCH   7  11
ATOM     11  N   UNL     1      49.021  -8.869  73.993  1.00  0.00    -0.382 N 
ATOM     12  H   UNL     1      49.462  -9.685  73.514  1.00  0.00     0.158 HD
ATOM     13  H   UNL     1      48.123  -8.495  73.616  1.00  0.00     0.158 HD
ENDBRANCH   7  11
TORSDOF 1
ENDMDL
MODEL 7
REMARK VINA RESULT:    -4.653      1.236      3.631
REMARK INTER + INTRA:          -4.789
REMARK INTER:                  -4.789
REMARK INTRA:                   0.000
REMARK UNBOUND:                 0.000
REMARK SMILES Nc1ncnc2nc[nH]c12
REMARK SMILES IDX 8 1 7 2 6 3 5 4 4 5 3 6 2 7 10 8 9 9 1 11
REMARK H PARENT 9 10 1 12 1 13
REMARK Flexibility Score: inf
ROOT
ATOM      1  C   UNL     1      52.991  -8.938  71.667  1.00  0.00     0.199 A 
ATOM      2  N   UNL     1      54.335  -8.742  71.758  1.00  0.00    -0.217 NA
ATOM      3  C   UNL     1      54.520  -8.655  73.086  1.00  0.00     0.182 A 
ATOM      4  N   UNL     1      55.697  -8.457  73.726  1.00  0.00    -0.215 NA
ATOM      5  C   UNL     1      55.687  -8.395  75.092  1.00  0.00     0.226 A 
ATOM      6  N   UNL     1      54.511  -8.530  75.786  1.00  0.00    -0.217 NA
ATOM      7  C   UNL     1      53.323  -8.730  75.142  1.00  0.00     0.152 A 
ATOM      8  C   UNL     1      53.351  -8.790  73.751  1.00  0.00     0.127 A 
ATOM      9  N   UNL     1      52.361  -8.971  72.869  1.00  0.00    -0.340 N 
ATOM     10  H   UNL     1      51.342  -9.108  73.047  1.00  0.00     0.168 HD
ENDROOT
BRANCH   7  11
ATOM     11  N   UNL     1      52.112  -8.867  75.885  1.00  0.00    -0.382 N 
ATOM     12  H   UNL     1      51.809  -8.140  76.571  1.00  0.00     0.158 HD
ATOM     13  H   UNL     1      51.508  -9.707  75.749  1.00  0.00     0.158 HD
ENDBRANCH   7  11
TORSDOF 1
ENDMDL
MODEL 8
REMARK VINA RESULT:    -4.473      1.628      3.165
REMARK INTER + INTRA:          -4.604
REMARK INTER:                  -4.604
REMARK INTRA:                   0.000
REMARK UNBOUND:                 0.000
REMARK SMILES Nc1ncnc2nc[nH]c12
REMARK SMILES IDX 8 1 7 2 6 3 5 4 4 5 3 6 2 7 10 8 9 9 1 11
REMARK H PARENT 9 10 1 12 1 13
REMARK Flexibility Score: inf
ROOT
ATOM      1  C   UNL     1      51.044  -8.421  76.357  1.00  0.00     0.199 A 
ATOM      2  N   UNL     1      52.286  -8.399  76.913  1.00  0.00    -0.217 NA
ATOM      3  C   UNL     1      53.083  -8.427  75.830  1.00  0.00     0.182 A 
ATOM      4  N   UNL     1      54.437  -8.421  75.824  1.00  0.00    -0.215 NA
ATOM      5  C   UNL     1      55.078  -8.453  74.616  1.00  0.00     0.226 A 
ATOM      6  N   UNL     1      54.358  -8.491  73.449  1.00  0.00    -0.217 NA
ATOM      7  C   UNL     1      52.991  -8.497  73.453  1.00  0.00     0.152 A 
ATOM      8  C   UNL     1      52.355  -8.464  74.691  1.00  0.00     0.127 A 
ATOM      9  N   UNL     1      51.053  -8.462  75.000  1.00  0.00    -0.340 N 
ATOM     10  H   UNL     1      50.229  -8.484  74.360  1.00  0.00     0.168 HD
ENDROOT
BRANCH   7  11
ATOM     11  N   UNL     1      52.264  -8.537  72.225  1.00  0.00    -0.382 N 
ATOM     12  H   UNL     1      51.389  -9.098  72.129  1.00  0.00     0.158 HD
ATOM     13  H   UNL     1      52.605  -7.998  71.399  1.00  0.00     0.158 HD
ENDBRANCH   7  11
TORSDOF 1
ENDMDL
MODEL 9
REMARK VINA RESULT:    -4.431      1.729      2.425
REMARK INTER + INTRA:          -4.561
REMARK INTER:                  -4.561
REMARK INTRA:                   0.000
REMARK UNBOUND:                 0.000
REMARK SMILES Nc1ncnc2nc[nH]c12
REMARK SMILES IDX 8 1 7 2 6 3 5 4 4 5 3 6 2 7 10 8 9 9 1 11
REMARK H PARENT 9 10 1 12 1 13
REMARK Flexibility Score: inf
ROOT
ATOM      1  C   UNL     1      50.759  -8.373  76.494  1.00  0.00     0.199 A 
ATOM      2  N   UNL     1      50.747  -8.357  75.134  1.00  0.00    -0.217 NA
ATOM      3  C   UNL     1      52.058  -8.355  74.838  1.00  0.00     0.182 A 
ATOM      4  N   UNL     1      52.606  -8.341  73.599  1.00  0.00    -0.215 NA
ATOM      5  C   UNL     1      53.970  -8.340  73.496  1.00  0.00     0.226 A 
ATOM      6  N   UNL     1      54.752  -8.353  74.623  1.00  0.00    -0.217 NA
ATOM      7  C   UNL     1      54.202  -8.367  75.874  1.00  0.00     0.152 A 
ATOM      8  C   UNL     1      52.811  -8.368  75.960  1.00  0.00     0.127 A 
ATOM      9  N   UNL     1      52.007  -8.379  77.030  1.00  0.00    -0.340 N 
ATOM     10  H   UNL     1      52.263  -8.390  78.041  1.00  0.00     0.168 HD
ENDROOT
BRANCH   7  11
ATOM     11  N   UNL     1      55.036  -8.380  77.032  1.00  0.00    -0.382 N 
ATOM     12  H   UNL     1      56.074  -8.304  76.955  1.00  0.00     0.158 HD
ATOM     13  H   UNL     1      54.610  -8.467  77.981  1.00  0.00     0.158 HD
ENDBRANCH   7  11
TORSDOF 1
ENDMDL
