MODEL 1
REMARK VINA RESULT:    -3.494      0.000      0.000
REMARK INTER + INTRA:          -4.479
REMARK INTER:                  -4.311
REMARK INTRA:                  -0.169
REMARK UNBOUND:                -0.169
REMARK SMILES CCCCCC(=O)[O-]
REMARK SMILES IDX 4 1 5 2 6 3 7 4 8 5 3 6 2 7 1 8
REMARK H PARENT
REMARK Flexibility Score: inf
ROOT
ATOM      1  C   UNL     1      27.107   5.372  10.673  1.00  0.00     0.006 C 
ENDROOT
BRANCH   1   2
ATOM      2  C   UNL     1      27.063   6.360   9.499  1.00  0.00     0.053 C 
BRANCH   2   3
ATOM      3  C   UNL     1      26.562   5.712   8.244  1.00  0.00     0.041 C 
ATOM      4  O   UNL     1      25.762   6.326   7.490  1.00  0.00    -0.550 OA
ATOM      5  O   UNL     1      27.003   4.443   7.893  1.00  0.00    -0.550 OA
ENDBRANCH   2   3
ENDBRANCH   1   2
BRANCH   1   6
ATOM      6  C   UNL     1      28.389   5.516  11.506  1.00  0.00     0.000 C 
BRANCH   6   7
ATOM      7  C   UNL     1      29.100   4.167  11.655  1.00  0.00    -0.003 C 
ATOM      8  C   UNL     1      28.386   3.077  10.861  1.00  0.00     0.004 C 
ENDBRANCH   6   7
ENDBRANCH   1   6
TORSDOF 4
ENDMDL
MODEL 2
REMARK VINA RESULT:    -3.492      1.338      1.780
REMARK INTER + INTRA:          -4.477
REMARK INTER:                  -4.408
REMARK INTRA:                  -0.069
REMARK UNBOUND:                -0.169
REMARK SMILES CCCCCC(=O)[O-]
REMARK SMILES IDX 4 1 5 2 6 3 7 4 8 5 3 6 2 7 1 8
REMARK H PARENT
REMARK Flexibility Score: inf
ROOT
ATOM      1  C   UNL     1      27.188   6.390   9.520  1.00  0.00     0.006 C 
ENDROOT
BRANCH   1   2
ATOM      2  C   UNL     1      26.489   5.898   8.244  1.00  0.00     0.053 C 
BRANCH   2   3
ATOM      3  C   UNL     1      26.325   6.998   7.240  1.00  0.00     0.041 C 
ATOM      4  O   UNL     1      26.026   8.162   7.618  1.00  0.00    -0.550 OA
ATOM      5  O   UNL     1      26.537   6.745   5.891  1.00  0.00    -0.550 OA
ENDBRANCH   2   3
ENDBRANCH   1   2
BRANCH   1   6
ATOM      6  C   UNL     1      27.065   5.385  10.674  1.00  0.00     0.000 C 
BRANCH   6   7
ATOM      7  C   UNL     1      28.404   5.222  11.403  1.00  0.00    -0.003 C 
ATOM      8  C   UNL     1      28.823   3.756  11.465  1.00  0.00     0.004 C 
ENDBRANCH   6   7
ENDBRANCH   1   6
TORSDOF 4
ENDMDL
MODEL 3
REMARK VINA RESULT:    -3.431      2.581      4.416
REMARK INTER + INTRA:          -4.402
REMARK INTER:                  -4.332
REMARK INTRA:                  -0.070
REMARK UNBOUND:                -0.169
REMARK SMILES CCCCCC(=O)[O-]
REMARK SMILES IDX 4 1 5 2 6 3 7 4 8 5 3 6 2 7 1 8
REMARK H PARENT
REMARK Flexibility Score: inf
ROOT
ATOM      1  C   UNL     1      27.283   6.321   9.690  1.00  0.00     0.006 C 
ENDROOT
BRANCH   1   2
ATOM      2  C   UNL     1      27.878   4.910   9.800  1.00  0.00     0.053 C 
BRANCH   2   3
ATOM      3  C   UNL     1      28.490   4.668  11.147  1.00  0.00     0.041 C 
ATOM      4  O   UNL     1      28.693   5.631  11.932  1.00  0.00    -0.550 OA
ATOM      5  O   UNL     1      28.804   3.376  11.545  1.00  0.00    -0.550 OA
ENDBRANCH   2   3
ENDBRANCH   1   2
BRANCH   1   6
ATOM      6  C   UNL     1      26.211   6.416   8.594  1.00  0.00     0.000 C 
BRANCH   6   7
ATOM      7  C   UNL     1      26.432   7.654   7.717  1.00  0.00    -0.003 C 
ATOM      8  C   UNL     1      26.481   7.280   6.238  1.00  0.00     0.004 C 
ENDBRANCH   6   7
ENDBRANCH   1   6
TORSDOF 4
ENDMDL
MODEL 4
REMARK VINA RESULT:    -3.430      1.508      2.082
REMARK INTER + INTRA:          -4.401
REMARK INTER:                  -4.163
REMARK INTRA:                  -0.238
REMARK UNBOUND:                -0.169
REMARK SMILES CCCCCC(=O)[O-]
REMARK SMILES IDX 4 1 5 2 6 3 7 4 8 5 3 6 2 7 1 8
REMARK H PARENT
REMARK Flexibility Score: inf
ROOT
ATOM      1  C   UNL     1      28.231   4.076   9.185  1.00  0.00     0.006 C 
ENDROOT
BRANCH   1   2
ATOM      2  C   UNL     1      26.973   4.493   8.410  1.00  0.00     0.053 C 
BRANCH   2   3
ATOM      3  C   UNL     1      26.303   5.680   9.033  1.00  0.00     0.041 C 
ATOM      4  O   UNL     1      25.090   5.620   9.365  1.00  0.00    -0.550 OA
ATOM      5  O   UNL     1      27.028   6.838   9.278  1.00  0.00    -0.550 OA
ENDBRANCH   2   3
ENDBRANCH   1   2
BRANCH   1   6
ATOM      6  C   UNL     1      27.911   3.637  10.621  1.00  0.00     0.000 C 
BRANCH   6   7
ATOM      7  C   UNL     1      29.033   4.046  11.582  1.00  0.00    -0.003 C 
ATOM      8  C   UNL     1      28.887   5.503  12.012  1.00  0.00     0.004 C 
ENDBRANCH   6   7
ENDBRANCH   1   6
TORSDOF 4
ENDMDL
MODEL 5
REMARK VINA RESULT:    -3.416      3.103      3.946
REMARK INTER + INTRA:          -4.383
REMARK INTER:                  -4.259
REMARK INTRA:                  -0.124
REMARK UNBOUND:                -0.169
REMARK SMILES CCCCCC(=O)[O-]
REMARK SMILES IDX 4 1 5 2 6 3 7 4 8 5 3 6 2 7 1 8
REMARK H PARENT
REMARK Flexibility Score: inf
ROOT
ATOM      1  C   UNL     1      27.367   4.027   9.468  1.00  0.00     0.006 C 
ENDROOT
BRANCH   1   2
ATOM      2  C   UNL     1      28.422   5.000  10.013  1.00  0.00     0.053 C 
BRANCH   2   3
ATOM      3  C   UNL     1      28.860   4.627  11.397  1.00  0.00     0.041 C 
ATOM      4  O   UNL     1      29.062   5.521  12.260  1.00  0.00    -0.550 OA
ATOM      5  O   UNL     1      29.012   3.290  11.741  1.00  0.00    -0.550 OA
ENDBRANCH   2   3
ENDBRANCH   1   2
BRANCH   1   6
ATOM      6  C   UNL     1      27.898   3.192   8.294  1.00  0.00     0.000 C 
BRANCH   6   7
ATOM      7  C   UNL     1      27.230   1.813   8.255  1.00  0.00    -0.003 C 
ATOM      8  C   UNL     1      28.167   0.731   8.784  1.00  0.00     0.004 C 
ENDBRANCH   6   7
ENDBRANCH   1   6
TORSDOF 4
ENDMDL
MODEL 6
REMARK VINA RESULT:    -3.402      9.677     10.534
REMARK INTER + INTRA:          -4.366
REMARK INTER:                  -4.144
REMARK INTRA:                  -0.223
REMARK UNBOUND:                -0.169
REMARK SMILES CCCCCC(=O)[O-]
REMARK SMILES IDX 4 1 5 2 6 3 7 4 8 5 3 6 2 7 1 8
REMARK H PARENT
REMARK Flexibility Score: inf
ROOT
ATOM      1  C   UNL     1      24.267   2.425  17.403  1.00  0.00     0.006 C 
ENDROOT
BRANCH   1   2
ATOM      2  C   UNL     1      25.225   1.319  17.867  1.00  0.00     0.053 C 
BRANCH   2   3
ATOM      3  C   UNL     1      24.503   0.228  18.598  1.00  0.00     0.041 C 
ATOM      4  O   UNL     1      24.926  -0.957  18.546  1.00  0.00    -0.550 OA
ATOM      5  O   UNL     1      23.382   0.527  19.362  1.00  0.00    -0.550 OA
ENDBRANCH   2   3
ENDBRANCH   1   2
BRANCH   1   6
ATOM      6  C   UNL     1      24.651   3.801  17.966  1.00  0.00     0.000 C 
BRANCH   6   7
ATOM      7  C   UNL     1      23.998   4.036  19.333  1.00  0.00    -0.003 C 
ATOM      8  C   UNL     1      22.477   3.978  19.234  1.00  0.00     0.004 C 
ENDBRANCH   6   7
ENDBRANCH   1   6
TORSDOF 4
ENDMDL
MODEL 7
REMARK VINA RESULT:    -3.398      1.700      2.269
REMARK INTER + INTRA:          -4.361
REMARK INTER:                  -4.186
REMARK INTRA:                  -0.175
REMARK UNBOUND:                -0.169
REMARK SMILES CCCCCC(=O)[O-]
REMARK SMILES IDX 4 1 5 2 6 3 7 4 8 5 3 6 2 7 1 8
REMARK H PARENT
REMARK Flexibility Score: inf
ROOT
ATOM      1  C   UNL     1      26.950   4.589   9.820  1.00  0.00     0.006 C 
ENDROOT
BRANCH   1   2
ATOM      2  C   UNL     1      26.853   4.618   8.288  1.00  0.00     0.053 C 
BRANCH   2   3
ATOM      3  C   UNL     1      27.239   3.303   7.681  1.00  0.00     0.041 C 
ATOM      4  O   UNL     1      27.871   2.453   8.361  1.00  0.00    -0.550 OA
ATOM      5  O   UNL     1      26.870   3.005   6.376  1.00  0.00    -0.550 OA
ENDBRANCH   2   3
ENDBRANCH   1   2
BRANCH   1   6
ATOM      6  C   UNL     1      27.816   5.732  10.369  1.00  0.00     0.000 C 
BRANCH   6   7
ATOM      7  C   UNL     1      28.680   5.251  11.541  1.00  0.00    -0.003 C 
ATOM      8  C   UNL     1      28.840   3.734  11.522  1.00  0.00     0.004 C 
ENDBRANCH   6   7
ENDBRANCH   1   6
TORSDOF 4
ENDMDL
MODEL 8
REMARK VINA RESULT:    -3.369      1.609      2.161
REMARK INTER + INTRA:          -4.326
REMARK INTER:                  -4.232
REMARK INTRA:                  -0.094
REMARK UNBOUND:                -0.169
REMARK SMILES CCCCCC(=O)[O-]
REMARK SMILES IDX 4 1 5 2 6 3 7 4 8 5 3 6 2 7 1 8
REMARK H PARENT
REMARK Flexibility Score: inf
ROOT
ATOM      1  C   UNL     1      27.447   5.944   9.756  1.00  0.00     0.006 C 
ENDROOT
BRANCH   1   2
ATOM      2  C   UNL     1      26.086   6.320   9.152  1.00  0.00     0.053 C 
BRANCH   2   3
ATOM      3  C   UNL     1      26.125   7.662   8.486  1.00  0.00     0.041 C 
ATOM      4  O   UNL     1      25.510   8.638   8.991  1.00  0.00    -0.550 OA
ATOM      5  O   UNL     1      26.868   7.841   7.327  1.00  0.00    -0.550 OA
ENDBRANCH   2   3
ENDBRANCH   1   2
BRANCH   1   6
ATOM      6  C   UNL     1      27.645   4.423   9.840  1.00  0.00     0.000 C 
BRANCH   6   7
ATOM      7  C   UNL     1      28.435   4.042  11.096  1.00  0.00    -0.003 C 
ATOM      8  C   UNL     1      28.881   5.282  11.865  1.00  0.00     0.004 C 
ENDBRANCH   6   7
ENDBRANCH   1   6
TORSDOF 4
ENDMDL
MODEL 9
REMARK VINA RESULT:    -3.309      9.666     10.569
REMARK INTER + INTRA:          -4.252
REMARK INTER:                  -4.089
REMARK INTRA:                  -0.163
REMARK UNBOUND:                -0.169
REMARK SMILES CCCCCC(=O)[O-]
REMARK SMILES IDX 4 1 5 2 6 3 7 4 8 5 3 6 2 7 1 8
REMARK H PARENT
REMARK Flexibility Score: inf
ROOT
ATOM      1  C   UNL     1      25.256   1.569  17.593  1.00  0.00     0.006 C 
ENDROOT
BRANCH   1   2
ATOM      2  C   UNL     1      24.982   0.581  18.736  1.00  0.00     0.053 C 
BRANCH   2   3
ATOM      3  C   UNL     1      24.148  -0.578  18.281  1.00  0.00     0.041 C 
ATOM      4  O   UNL     1      22.898  -0.463  18.194  1.00  0.00    -0.550 OA
ATOM      5  O   UNL     1      24.757  -1.774  17.923  1.00  0.00    -0.550 OA
ENDBRANCH   2   3
ENDBRANCH   1   2
BRANCH   1   6
ATOM      6  C   UNL     1      24.385   2.830  17.694  1.00  0.00     0.000 C 
BRANCH   6   7
ATOM      7  C   UNL     1      23.820   2.995  19.109  1.00  0.00    -0.003 C 
ATOM      8  C   UNL     1      23.420   4.442  19.378  1.00  0.00     0.004 C 
ENDBRANCH   6   7
ENDBRANCH   1   6
TORSDOF 4
ENDMDL
