MODEL 1
REMARK VINA RESULT:    -6.929      0.000      0.000
REMARK INTER + INTRA:         -12.321
REMARK INTER:                 -10.575
REMARK INTRA:                  -1.746
REMARK UNBOUND:                -1.746
REMARK SMILES CC(=O)CCC=C(C)CCC=C(C)CCC=C(C)C
REMARK SMILES IDX 10 1 11 2 12 3 13 4 14 5 15 6 16 7 18 8 17 9 19 10 9 11 7 12
REMARK SMILES IDX 6 13 8 14 5 15 4 16 2 17 3 18 1 19
REMARK H PARENT
REMARK Flexibility Score: inf
ROOT
ATOM      1  C   UNL     1      -3.651 -10.221  28.948  1.00  0.00     0.032 C 
ENDROOT
BRANCH   1   2
ATOM      2  C   UNL     1      -3.954 -11.607  28.427  1.00  0.00    -0.028 C 
ATOM      3  C   UNL     1      -3.546 -12.042  27.215  1.00  0.00    -0.077 C 
ATOM      4  C   UNL     1      -2.733 -11.161  26.296  1.00  0.00     0.039 C 
BRANCH   3   5
ATOM      5  C   UNL     1      -3.901 -13.444  26.765  1.00  0.00     0.034 C 
BRANCH   5   6
ATOM      6  C   UNL     1      -4.359 -14.319  27.940  1.00  0.00     0.032 C 
BRANCH   6   7
ATOM      7  C   UNL     1      -5.828 -14.658  27.852  1.00  0.00    -0.028 C 
ATOM      8  C   UNL     1      -8.050 -15.321  28.674  1.00  0.00     0.039 C 
ATOM      9  C   UNL     1      -6.602 -14.976  28.913  1.00  0.00    -0.080 C 
ATOM     10  C   UNL     1      -6.064 -14.974  30.325  1.00  0.00     0.039 C 
ENDBRANCH   6   7
ENDBRANCH   5   6
ENDBRANCH   3   5
ENDBRANCH   1   2
BRANCH   1  11
ATOM     11  C   UNL     1      -2.865 -10.250  30.269  1.00  0.00     0.034 C 
BRANCH  11  12
ATOM     12  C   UNL     1      -3.694 -10.822  31.406  1.00  0.00    -0.077 C 
ATOM     13  C   UNL     1      -3.714 -12.141  31.711  1.00  0.00    -0.028 C 
ATOM     14  C   UNL     1      -4.538  -9.891  32.238  1.00  0.00     0.039 C 
BRANCH  13  15
ATOM     15  C   UNL     1      -2.841 -13.192  31.067  1.00  0.00     0.035 C 
BRANCH  15  16
ATOM     16  C   UNL     1      -1.477 -13.292  31.762  1.00  0.00     0.079 C 
BRANCH  16  17
ATOM     17  C   UNL     1      -0.355 -12.877  30.845  1.00  0.00     0.130 C 
ATOM     18  O   UNL     1       0.690 -12.460  31.322  1.00  0.00    -0.300 OA
ATOM     19  C   UNL     1      -0.492 -12.970  29.355  1.00  0.00     0.087 C 
ENDBRANCH  16  17
ENDBRANCH  15  16
ENDBRANCH  13  15
ENDBRANCH  11  12
ENDBRANCH   1  11
TORSDOF 9
ENDMDL
MODEL 2
REMARK VINA RESULT:    -6.641      2.110      4.148
REMARK INTER + INTRA:         -11.882
REMARK INTER:                  -9.346
REMARK INTRA:                  -2.536
REMARK UNBOUND:                -1.746
REMARK SMILES CC(=O)CCC=C(C)CCC=C(C)CCC=C(C)C
REMARK SMILES IDX 10 1 11 2 12 3 13 4 14 5 15 6 16 7 18 8 17 9 19 10 9 11 7 12
REMARK SMILES IDX 6 13 8 14 5 15 4 16 2 17 3 18 1 19
REMARK H PARENT
REMARK Flexibility Score: inf
ROOT
ATOM      1  C   UNL     1      -1.585  -9.951  30.650  1.00  0.00     0.032 C 
ENDROOT
BRANCH   1   2
ATOM      2  C   UNL     1      -1.284 -11.270  29.978  1.00  0.00    -0.028 C 
ATOM      3  C   UNL     1      -0.625 -12.276  30.595  1.00  0.00    -0.077 C 
ATOM      4  C   UNL     1      -0.153 -12.146  32.024  1.00  0.00     0.039 C 
BRANCH   3   5
ATOM      5  C   UNL     1      -0.356 -13.564  29.847  1.00  0.00     0.034 C 
BRANCH   5   6
ATOM      6  C   UNL     1      -0.854 -13.494  28.396  1.00  0.00     0.032 C 
BRANCH   6   7
ATOM      7  C   UNL     1      -2.274 -13.990  28.262  1.00  0.00    -0.028 C 
ATOM      8  C   UNL     1      -4.615 -13.969  27.508  1.00  0.00     0.039 C 
ATOM      9  C   UNL     1      -3.230 -13.376  27.528  1.00  0.00    -0.080 C 
ATOM     10  C   UNL     1      -2.942 -12.134  26.717  1.00  0.00     0.039 C 
ENDBRANCH   6   7
ENDBRANCH   5   6
ENDBRANCH   3   5
ENDBRANCH   1   2
BRANCH   1  11
ATOM     11  C   UNL     1      -2.995  -9.913  31.262  1.00  0.00     0.034 C 
BRANCH  11  12
ATOM     12  C   UNL     1      -3.987 -10.725  30.447  1.00  0.00    -0.077 C 
ATOM     13  C   UNL     1      -4.335 -11.993  30.766  1.00  0.00    -0.028 C 
ATOM     14  C   UNL     1      -4.616 -10.103  29.227  1.00  0.00     0.039 C 
BRANCH  13  15
ATOM     15  C   UNL     1      -3.900 -12.724  32.014  1.00  0.00     0.035 C 
BRANCH  15  16
ATOM     16  C   UNL     1      -3.891 -14.244  31.800  1.00  0.00     0.079 C 
BRANCH  16  17
ATOM     17  C   UNL     1      -5.278 -14.826  31.891  1.00  0.00     0.130 C 
ATOM     18  O   UNL     1      -5.765 -15.054  32.988  1.00  0.00    -0.300 OA
ATOM     19  C   UNL     1      -6.078 -15.129  30.659  1.00  0.00     0.087 C 
ENDBRANCH  16  17
ENDBRANCH  15  16
ENDBRANCH  13  15
ENDBRANCH  11  12
ENDBRANCH   1  11
TORSDOF 9
ENDMDL
MODEL 3
REMARK VINA RESULT:    -6.474      1.056      3.344
REMARK INTER + INTRA:         -11.627
REMARK INTER:                  -9.771
REMARK INTRA:                  -1.856
REMARK UNBOUND:                -1.746
REMARK SMILES CC(=O)CCC=C(C)CCC=C(C)CCC=C(C)C
REMARK SMILES IDX 10 1 11 2 12 3 13 4 14 5 15 6 16 7 18 8 17 9 19 10 9 11 7 12
REMARK SMILES IDX 6 13 8 14 5 15 4 16 2 17 3 18 1 19
REMARK H PARENT
REMARK Flexibility Score: inf
ROOT
ATOM      1  C   UNL     1      -4.045 -10.557  28.881  1.00  0.00     0.032 C 
ENDROOT
BRANCH   1   2
ATOM      2  C   UNL     1      -4.407 -11.795  29.668  1.00  0.00    -0.028 C 
ATOM      3  C   UNL     1      -4.229 -11.896  31.004  1.00  0.00    -0.077 C 
ATOM      4  C   UNL     1      -3.660 -10.752  31.809  1.00  0.00     0.039 C 
BRANCH   3   5
ATOM      5  C   UNL     1      -4.610 -13.178  31.714  1.00  0.00     0.034 C 
BRANCH   5   6
ATOM      6  C   UNL     1      -4.559 -14.389  30.771  1.00  0.00     0.032 C 
BRANCH   6   7
ATOM      7  C   UNL     1      -5.940 -14.853  30.373  1.00  0.00    -0.028 C 
ATOM      8  C   UNL     1      -7.810 -15.344  28.853  1.00  0.00     0.039 C 
ATOM      9  C   UNL     1      -6.397 -14.883  29.101  1.00  0.00    -0.080 C 
ATOM     10  C   UNL     1      -5.528 -14.490  27.929  1.00  0.00     0.039 C 
ENDBRANCH   6   7
ENDBRANCH   5   6
ENDBRANCH   3   5
ENDBRANCH   1   2
BRANCH   1  11
ATOM     11  C   UNL     1      -2.673 -10.676  28.200  1.00  0.00     0.034 C 
BRANCH  11  12
ATOM     12  C   UNL     1      -2.682 -11.712  27.088  1.00  0.00    -0.077 C 
ATOM     13  C   UNL     1      -2.278 -12.991  27.272  1.00  0.00    -0.028 C 
ATOM     14  C   UNL     1      -3.156 -11.310  25.716  1.00  0.00     0.039 C 
BRANCH  13  15
ATOM     15  C   UNL     1      -1.891 -13.595  28.602  1.00  0.00     0.035 C 
BRANCH  15  16
ATOM     16  C   UNL     1      -0.529 -13.074  29.079  1.00  0.00     0.079 C 
BRANCH  16  17
ATOM     17  C   UNL     1      -0.607 -12.514  30.477  1.00  0.00     0.130 C 
ATOM     18  O   UNL     1      -0.451 -11.316  30.655  1.00  0.00    -0.300 OA
ATOM     19  C   UNL     1      -0.878 -13.400  31.656  1.00  0.00     0.087 C 
ENDBRANCH  16  17
ENDBRANCH  15  16
ENDBRANCH  13  15
ENDBRANCH  11  12
ENDBRANCH   1  11
TORSDOF 9
ENDMDL
MODEL 4
REMARK VINA RESULT:    -6.473      1.398      3.356
REMARK INTER + INTRA:         -11.625
REMARK INTER:                  -9.728
REMARK INTRA:                  -1.897
REMARK UNBOUND:                -1.746
REMARK SMILES CC(=O)CCC=C(C)CCC=C(C)CCC=C(C)C
REMARK SMILES IDX 10 1 11 2 12 3 13 4 14 5 15 6 16 7 18 8 17 9 19 10 9 11 7 12
REMARK SMILES IDX 6 13 8 14 5 15 4 16 2 17 3 18 1 19
REMARK H PARENT
REMARK Flexibility Score: inf
ROOT
ATOM      1  C   UNL     1      -2.325 -10.578  31.282  1.00  0.00     0.032 C 
ENDROOT
BRANCH   1   2
ATOM      2  C   UNL     1      -2.958 -11.948  31.373  1.00  0.00    -0.028 C 
ATOM      3  C   UNL     1      -4.044 -12.206  32.134  1.00  0.00    -0.077 C 
ATOM      4  C   UNL     1      -4.715 -11.120  32.941  1.00  0.00     0.039 C 
BRANCH   3   5
ATOM      5  C   UNL     1      -4.610 -13.610  32.177  1.00  0.00     0.034 C 
BRANCH   5   6
ATOM      6  C   UNL     1      -4.562 -14.286  30.798  1.00  0.00     0.032 C 
BRANCH   6   7
ATOM      7  C   UNL     1      -5.919 -14.788  30.367  1.00  0.00    -0.028 C 
ATOM      8  C   UNL     1      -7.750 -15.300  28.808  1.00  0.00     0.039 C 
ATOM      9  C   UNL     1      -6.359 -14.794  29.089  1.00  0.00    -0.080 C 
ATOM     10  C   UNL     1      -5.491 -14.332  27.942  1.00  0.00     0.039 C 
ENDBRANCH   6   7
ENDBRANCH   5   6
ENDBRANCH   3   5
ENDBRANCH   1   2
BRANCH   1  11
ATOM     11  C   UNL     1      -2.317 -10.032  29.845  1.00  0.00     0.034 C 
BRANCH  11  12
ATOM     12  C   UNL     1      -3.502 -10.539  29.041  1.00  0.00    -0.077 C 
ATOM     13  C   UNL     1      -3.379 -11.441  28.039  1.00  0.00    -0.028 C 
ATOM     14  C   UNL     1      -4.881 -10.021  29.360  1.00  0.00     0.039 C 
BRANCH  13  15
ATOM     15  C   UNL     1      -2.099 -12.153  27.667  1.00  0.00     0.035 C 
BRANCH  15  16
ATOM     16  C   UNL     1      -1.982 -13.505  28.384  1.00  0.00     0.079 C 
BRANCH  16  17
ATOM     17  C   UNL     1      -0.576 -13.757  28.868  1.00  0.00     0.130 C 
ATOM     18  O   UNL     1       0.236 -14.273  28.116  1.00  0.00    -0.300 OA
ATOM     19  C   UNL     1      -0.152 -13.382  30.256  1.00  0.00     0.087 C 
ENDBRANCH  16  17
ENDBRANCH  15  16
ENDBRANCH  13  15
ENDBRANCH  11  12
ENDBRANCH   1  11
TORSDOF 9
ENDMDL
MODEL 5
REMARK VINA RESULT:    -6.458      2.327      5.144
REMARK INTER + INTRA:         -11.602
REMARK INTER:                 -10.322
REMARK INTRA:                  -1.280
REMARK UNBOUND:                -1.746
REMARK SMILES CC(=O)CCC=C(C)CCC=C(C)CCC=C(C)C
REMARK SMILES IDX 10 1 11 2 12 3 13 4 14 5 15 6 16 7 18 8 17 9 19 10 9 11 7 12
REMARK SMILES IDX 6 13 8 14 5 15 4 16 2 17 3 18 1 19
REMARK H PARENT
REMARK Flexibility Score: inf
ROOT
ATOM      1  C   UNL     1      -2.205 -12.933  27.332  1.00  0.00     0.032 C 
ENDROOT
BRANCH   1   2
ATOM      2  C   UNL     1      -1.672 -12.640  28.716  1.00  0.00    -0.028 C 
ATOM      3  C   UNL     1      -0.560 -13.223  29.214  1.00  0.00    -0.077 C 
ATOM      4  C   UNL     1       0.242 -14.211  28.399  1.00  0.00     0.039 C 
BRANCH   3   5
ATOM      5  C   UNL     1      -0.098 -12.880  30.614  1.00  0.00     0.034 C 
BRANCH   5   6
ATOM      6  C   UNL     1      -1.256 -12.372  31.487  1.00  0.00     0.032 C 
BRANCH   6   7
ATOM      7  C   UNL     1      -2.267 -13.457  31.770  1.00  0.00    -0.028 C 
ATOM      8  C   UNL     1      -4.447 -14.410  32.391  1.00  0.00     0.039 C 
ATOM      9  C   UNL     1      -3.555 -13.229  32.108  1.00  0.00    -0.080 C 
ATOM     10  C   UNL     1      -4.127 -11.832  32.187  1.00  0.00     0.039 C 
ENDBRANCH   6   7
ENDBRANCH   5   6
ENDBRANCH   3   5
ENDBRANCH   1   2
BRANCH   1  11
ATOM     11  C   UNL     1      -3.500 -12.163  27.028  1.00  0.00     0.034 C 
BRANCH  11  12
ATOM     12  C   UNL     1      -4.236 -11.771  28.298  1.00  0.00    -0.077 C 
ATOM     13  C   UNL     1      -5.155 -12.568  28.891  1.00  0.00    -0.028 C 
ATOM     14  C   UNL     1      -3.942 -10.436  28.933  1.00  0.00     0.039 C 
BRANCH  13  15
ATOM     15  C   UNL     1      -5.482 -13.980  28.464  1.00  0.00     0.035 C 
BRANCH  15  16
ATOM     16  C   UNL     1      -6.078 -14.793  29.621  1.00  0.00     0.079 C 
BRANCH  16  17
ATOM     17  C   UNL     1      -7.034 -15.847  29.125  1.00  0.00     0.130 C 
ATOM     18  O   UNL     1      -6.737 -17.027  29.228  1.00  0.00    -0.300 OA
ATOM     19  C   UNL     1      -8.350 -15.476  28.508  1.00  0.00     0.087 C 
ENDBRANCH  16  17
ENDBRANCH  15  16
ENDBRANCH  13  15
ENDBRANCH  11  12
ENDBRANCH   1  11
TORSDOF 9
ENDMDL
MODEL 6
REMARK VINA RESULT:    -6.275      1.232      4.536
REMARK INTER + INTRA:         -11.323
REMARK INTER:                  -9.685
REMARK INTRA:                  -1.638
REMARK UNBOUND:                -1.746
REMARK SMILES CC(=O)CCC=C(C)CCC=C(C)CCC=C(C)C
REMARK SMILES IDX 10 1 11 2 12 3 13 4 14 5 15 6 16 7 18 8 17 9 19 10 9 11 7 12
REMARK SMILES IDX 6 13 8 14 5 15 4 16 2 17 3 18 1 19
REMARK H PARENT
REMARK Flexibility Score: inf
ROOT
ATOM      1  C   UNL     1      -5.076 -13.886  27.447  1.00  0.00     0.032 C 
ENDROOT
BRANCH   1   2
ATOM      2  C   UNL     1      -4.949 -13.919  28.952  1.00  0.00    -0.028 C 
ATOM      3  C   UNL     1      -5.765 -14.652  29.742  1.00  0.00    -0.077 C 
ATOM      4  C   UNL     1      -6.863 -15.509  29.158  1.00  0.00     0.039 C 
BRANCH   3   5
ATOM      5  C   UNL     1      -5.575 -14.622  31.244  1.00  0.00     0.034 C 
BRANCH   5   6
ATOM      6  C   UNL     1      -4.234 -13.985  31.636  1.00  0.00     0.032 C 
BRANCH   6   7
ATOM      7  C   UNL     1      -4.422 -12.703  32.412  1.00  0.00    -0.028 C 
ATOM      8  C   UNL     1      -4.374 -10.278  32.817  1.00  0.00     0.039 C 
ATOM      9  C   UNL     1      -4.167 -11.471  31.919  1.00  0.00    -0.080 C 
ATOM     10  C   UNL     1      -3.704 -11.257  30.497  1.00  0.00     0.039 C 
ENDBRANCH   6   7
ENDBRANCH   5   6
ENDBRANCH   3   5
ENDBRANCH   1   2
BRANCH   1  11
ATOM     11  C   UNL     1      -3.712 -13.968  26.742  1.00  0.00     0.034 C 
BRANCH  11  12
ATOM     12  C   UNL     1      -2.875 -12.723  26.983  1.00  0.00    -0.077 C 
ATOM     13  C   UNL     1      -1.887 -12.669  27.906  1.00  0.00    -0.028 C 
ATOM     14  C   UNL     1      -3.149 -11.487  26.166  1.00  0.00     0.039 C 
BRANCH  13  15
ATOM     15  C   UNL     1      -1.398 -13.843  28.722  1.00  0.00     0.035 C 
BRANCH  15  16
ATOM     16  C   UNL     1      -0.164 -13.472  29.555  1.00  0.00     0.079 C 
BRANCH  16  17
ATOM     17  C   UNL     1      -0.539 -13.103  30.968  1.00  0.00     0.130 C 
ATOM     18  O   UNL     1      -1.158 -13.901  31.655  1.00  0.00    -0.300 OA
ATOM     19  C   UNL     1      -0.162 -11.773  31.551  1.00  0.00     0.087 C 
ENDBRANCH  16  17
ENDBRANCH  15  16
ENDBRANCH  13  15
ENDBRANCH  11  12
ENDBRANCH   1  11
TORSDOF 9
ENDMDL
MODEL 7
REMARK VINA RESULT:    -6.088      1.938      4.588
REMARK INTER + INTRA:         -11.037
REMARK INTER:                  -8.784
REMARK INTRA:                  -2.253
REMARK UNBOUND:                -1.746
REMARK SMILES CC(=O)CCC=C(C)CCC=C(C)CCC=C(C)C
REMARK SMILES IDX 10 1 11 2 12 3 13 4 14 5 15 6 16 7 18 8 17 9 19 10 9 11 7 12
REMARK SMILES IDX 6 13 8 14 5 15 4 16 2 17 3 18 1 19
REMARK H PARENT
REMARK Flexibility Score: inf
ROOT
ATOM      1  C   UNL     1      -1.268 -10.631  31.798  1.00  0.00     0.032 C 
ENDROOT
BRANCH   1   2
ATOM      2  C   UNL     1      -2.331 -10.424  30.743  1.00  0.00    -0.028 C 
ATOM      3  C   UNL     1      -3.617 -10.134  31.042  1.00  0.00    -0.077 C 
ATOM      4  C   UNL     1      -4.075  -9.980  32.473  1.00  0.00     0.039 C 
BRANCH   3   5
ATOM      5  C   UNL     1      -4.621  -9.951  29.924  1.00  0.00     0.034 C 
BRANCH   5   6
ATOM      6  C   UNL     1      -4.023 -10.312  28.556  1.00  0.00     0.032 C 
BRANCH   6   7
ATOM      7  C   UNL     1      -4.139 -11.788  28.262  1.00  0.00    -0.028 C 
ATOM      8  C   UNL     1      -3.851 -13.868  26.980  1.00  0.00     0.039 C 
ATOM      9  C   UNL     1      -3.636 -12.387  27.159  1.00  0.00    -0.080 C 
ATOM     10  C   UNL     1      -2.851 -11.621  26.120  1.00  0.00     0.039 C 
ENDBRANCH   6   7
ENDBRANCH   5   6
ENDBRANCH   3   5
ENDBRANCH   1   2
BRANCH   1  11
ATOM     11  C   UNL     1      -0.669 -12.046  31.756  1.00  0.00     0.034 C 
BRANCH  11  12
ATOM     12  C   UNL     1      -1.191 -12.846  30.575  1.00  0.00    -0.077 C 
ATOM     13  C   UNL     1      -2.249 -13.685  30.666  1.00  0.00    -0.028 C 
ATOM     14  C   UNL     1      -0.507 -12.710  29.239  1.00  0.00     0.039 C 
BRANCH  13  15
ATOM     15  C   UNL     1      -3.123 -13.849  31.887  1.00  0.00     0.035 C 
BRANCH  15  16
ATOM     16  C   UNL     1      -4.591 -13.528  31.573  1.00  0.00     0.079 C 
BRANCH  16  17
ATOM     17  C   UNL     1      -5.405 -14.782  31.383  1.00  0.00     0.130 C 
ATOM     18  O   UNL     1      -5.471 -15.600  32.287  1.00  0.00    -0.300 OA
ATOM     19  C   UNL     1      -6.142 -15.045  30.103  1.00  0.00     0.087 C 
ENDBRANCH  16  17
ENDBRANCH  15  16
ENDBRANCH  13  15
ENDBRANCH  11  12
ENDBRANCH   1  11
TORSDOF 9
ENDMDL
MODEL 8
REMARK VINA RESULT:    -6.057      2.533      5.293
REMARK INTER + INTRA:         -10.990
REMARK INTER:                  -8.492
REMARK INTRA:                  -2.498
REMARK UNBOUND:                -1.746
REMARK SMILES CC(=O)CCC=C(C)CCC=C(C)CCC=C(C)C
REMARK SMILES IDX 10 1 11 2 12 3 13 4 14 5 15 6 16 7 18 8 17 9 19 10 9 11 7 12
REMARK SMILES IDX 6 13 8 14 5 15 4 16 2 17 3 18 1 19
REMARK H PARENT
REMARK Flexibility Score: inf
ROOT
ATOM      1  C   UNL     1      -2.945 -10.948  27.324  1.00  0.00     0.032 C 
ENDROOT
BRANCH   1   2
ATOM      2  C   UNL     1      -3.843 -10.713  28.517  1.00  0.00    -0.028 C 
ATOM      3  C   UNL     1      -3.371 -10.371  29.736  1.00  0.00    -0.077 C 
ATOM      4  C   UNL     1      -1.893 -10.185  29.983  1.00  0.00     0.039 C 
BRANCH   3   5
ATOM      5  C   UNL     1      -4.340 -10.162  30.881  1.00  0.00     0.034 C 
BRANCH   5   6
ATOM      6  C   UNL     1      -3.881 -10.887  32.155  1.00  0.00     0.032 C 
BRANCH   6   7
ATOM      7  C   UNL     1      -4.487 -12.266  32.269  1.00  0.00    -0.028 C 
ATOM      8  C   UNL     1      -4.563 -14.720  32.138  1.00  0.00     0.039 C 
ATOM      9  C   UNL     1      -3.823 -13.414  32.009  1.00  0.00    -0.080 C 
ATOM     10  C   UNL     1      -2.363 -13.423  31.618  1.00  0.00     0.039 C 
ENDBRANCH   6   7
ENDBRANCH   5   6
ENDBRANCH   3   5
ENDBRANCH   1   2
BRANCH   1  11
ATOM     11  C   UNL     1      -3.148 -12.339  26.703  1.00  0.00     0.034 C 
BRANCH  11  12
ATOM     12  C   UNL     1      -2.848 -13.451  27.694  1.00  0.00    -0.077 C 
ATOM     13  C   UNL     1      -3.795 -14.299  28.156  1.00  0.00    -0.028 C 
ATOM     14  C   UNL     1      -1.437 -13.625  28.194  1.00  0.00     0.039 C 
BRANCH  13  15
ATOM     15  C   UNL     1      -5.226 -14.348  27.672  1.00  0.00     0.035 C 
BRANCH  15  16
ATOM     16  C   UNL     1      -6.217 -14.249  28.839  1.00  0.00     0.079 C 
BRANCH  16  17
ATOM     17  C   UNL     1      -7.234 -15.360  28.801  1.00  0.00     0.130 C 
ATOM     18  O   UNL     1      -8.372 -15.123  28.426  1.00  0.00    -0.300 OA
ATOM     19  C   UNL     1      -6.876 -16.758  29.211  1.00  0.00     0.087 C 
ENDBRANCH  16  17
ENDBRANCH  15  16
ENDBRANCH  13  15
ENDBRANCH  11  12
ENDBRANCH   1  11
TORSDOF 9
ENDMDL
MODEL 9
REMARK VINA RESULT:    -5.945      1.214      3.884
REMARK INTER + INTRA:         -10.819
REMARK INTER:                  -9.474
REMARK INTRA:                  -1.345
REMARK UNBOUND:                -1.746
REMARK SMILES CC(=O)CCC=C(C)CCC=C(C)CCC=C(C)C
REMARK SMILES IDX 10 1 11 2 12 3 13 4 14 5 15 6 16 7 18 8 17 9 19 10 9 11 7 12
REMARK SMILES IDX 6 13 8 14 5 15 4 16 2 17 3 18 1 19
REMARK H PARENT
REMARK Flexibility Score: inf
ROOT
ATOM      1  C   UNL     1      -5.325 -14.720  31.580  1.00  0.00     0.032 C 
ENDROOT
BRANCH   1   2
ATOM      2  C   UNL     1      -5.142 -14.336  30.130  1.00  0.00    -0.028 C 
ATOM      3  C   UNL     1      -6.014 -14.690  29.160  1.00  0.00    -0.077 C 
ATOM      4  C   UNL     1      -7.256 -15.491  29.474  1.00  0.00     0.039 C 
BRANCH   3   5
ATOM      5  C   UNL     1      -5.751 -14.272  27.729  1.00  0.00     0.034 C 
BRANCH   5   6
ATOM      6  C   UNL     1      -4.330 -13.717  27.551  1.00  0.00     0.032 C 
BRANCH   6   7
ATOM      7  C   UNL     1      -4.121 -12.442  28.332  1.00  0.00    -0.028 C 
ATOM      8  C   UNL     1      -3.253 -10.187  28.790  1.00  0.00     0.039 C 
ATOM      9  C   UNL     1      -3.402 -11.386  27.890  1.00  0.00    -0.080 C 
ATOM     10  C   UNL     1      -2.768 -11.368  26.518  1.00  0.00     0.039 C 
ENDBRANCH   6   7
ENDBRANCH   5   6
ENDBRANCH   3   5
ENDBRANCH   1   2
BRANCH   1  11
ATOM     11  C   UNL     1      -4.145 -14.274  32.458  1.00  0.00     0.034 C 
BRANCH  11  12
ATOM     12  C   UNL     1      -3.686 -12.867  32.116  1.00  0.00    -0.077 C 
ATOM     13  C   UNL     1      -2.463 -12.597  31.603  1.00  0.00    -0.028 C 
ATOM     14  C   UNL     1      -4.623 -11.712  32.357  1.00  0.00     0.039 C 
BRANCH  13  15
ATOM     15  C   UNL     1      -1.450 -13.637  31.185  1.00  0.00     0.035 C 
BRANCH  15  16
ATOM     16  C   UNL     1      -0.234 -12.993  30.504  1.00  0.00     0.079 C 
BRANCH  16  17
ATOM     17  C   UNL     1      -0.031 -13.527  29.109  1.00  0.00     0.130 C 
ATOM     18  O   UNL     1       1.000 -13.268  28.508  1.00  0.00    -0.300 OA
ATOM     19  C   UNL     1      -1.072 -14.377  28.442  1.00  0.00     0.087 C 
ENDBRANCH  16  17
ENDBRANCH  15  16
ENDBRANCH  13  15
ENDBRANCH  11  12
ENDBRANCH   1  11
TORSDOF 9
ENDMDL
