MODEL 1
REMARK VINA RESULT:    -7.330      0.000      0.000
REMARK INTER + INTRA:         -12.251
REMARK INTER:                 -10.758
REMARK INTRA:                  -1.493
REMARK UNBOUND:                -1.493
REMARK SMILES O=c1c(O[C@H]2O[C@H](CO)[C@@H](O)[C@H](O)[C@@H]2O)c(-c2ccc(O)c(O)c2)oc2cc(O)cc(O)c12
REMARK SMILES IDX 4 1 3 2 16 3 25 4 2 5 26 6 1 7 33 8 27 9 31 10 28 11 30 12
REMARK SMILES IDX 17 13 18 14 19 15 20 16 24 17 22 18 21 19 23 21 32 23 29 25
REMARK SMILES IDX 5 27 14 28 6 29 12 30 7 31 10 32 15 33 13 35 8 37 9 38 11 40
REMARK H PARENT 21 20 23 22 32 24 29 26 15 34 13 36 9 39 11 41
REMARK Flexibility Score: inf
ROOT
ATOM      1  O   UNL     1      55.349   5.335  80.536  1.00  0.00    -0.454 OA
ENDROOT
BRANCH   1   2
ATOM      2  C   UNL     1      55.841   6.219  79.553  1.00  0.00     0.214 A 
ATOM      3  C   UNL     1      55.212   6.220  78.295  1.00  0.00     0.180 A 
ATOM      4  O   UNL     1      55.660   7.005  77.324  1.00  0.00    -0.452 OA
ATOM      5  C   UNL     1      56.942   7.085  79.752  1.00  0.00     0.239 A 
ATOM      6  C   UNL     1      56.697   7.818  77.461  1.00  0.00     0.146 A 
ATOM      7  O   UNL     1      57.470   7.171  80.889  1.00  0.00    -0.285 OA
ATOM      8  C   UNL     1      57.421   7.876  78.678  1.00  0.00     0.111 A 
ATOM      9  C   UNL     1      57.056   8.627  76.380  1.00  0.00     0.094 A 
ATOM     10  C   UNL     1      58.555   8.741  78.752  1.00  0.00     0.134 A 
ATOM     11  C   UNL     1      58.124   9.514  76.485  1.00  0.00     0.123 A 
ATOM     12  C   UNL     1      58.864   9.570  77.667  1.00  0.00     0.093 A 
BRANCH   3  13
ATOM     13  C   UNL     1      54.052   5.350  78.000  1.00  0.00     0.025 A 
ATOM     14  C   UNL     1      52.780   5.891  77.746  1.00  0.00     0.016 A 
ATOM     15  C   UNL     1      51.700   5.053  77.462  1.00  0.00     0.051 A 
ATOM     16  C   UNL     1      51.875   3.667  77.409  1.00  0.00     0.157 A 
ATOM     17  C   UNL     1      54.230   3.960  77.924  1.00  0.00     0.062 A 
ATOM     18  C   UNL     1      53.148   3.116  77.636  1.00  0.00     0.158 A 
BRANCH  16  19
ATOM     19  O   UNL     1      50.778   2.854  77.124  1.00  0.00    -0.504 OA
ATOM     20  H   UNL     1      50.089   2.615  77.825  1.00  0.00     0.293 HD
ENDBRANCH  16  19
BRANCH  18  21
ATOM     21  O   UNL     1      53.332   1.735  77.577  1.00  0.00    -0.504 OA
ATOM     22  H   UNL     1      54.256   1.326  77.496  1.00  0.00     0.293 HD
ENDBRANCH  18  21
ENDBRANCH   3  13
BRANCH  10  23
ATOM     23  O   UNL     1      59.422   8.801  79.848  1.00  0.00    -0.507 OA
ATOM     24  H   UNL     1      59.322   9.436  80.625  1.00  0.00     0.293 HD
ENDBRANCH  10  23
BRANCH  11  25
ATOM     25  O   UNL     1      58.450  10.329  75.402  1.00  0.00    -0.508 OA
ATOM     26  H   UNL     1      58.044  10.181  74.486  1.00  0.00     0.293 HD
ENDBRANCH  11  25
ENDBRANCH   1   2
BRANCH   1  27
ATOM     27  C   UNL     1      54.574   5.658  81.696  1.00  0.00     0.339 C 
ATOM     28  C   UNL     1      55.183   4.977  82.938  1.00  0.00     0.214 C 
ATOM     29  O   UNL     1      53.211   5.296  81.534  1.00  0.00    -0.332 OA
ATOM     30  C   UNL     1      54.984   3.451  82.878  1.00  0.00     0.180 C 
ATOM     31  C   UNL     1      53.055   3.905  81.305  1.00  0.00     0.179 C 
ATOM     32  C   UNL     1      53.526   3.091  82.537  1.00  0.00     0.177 C 
BRANCH  28  33
ATOM     33  O   UNL     1      54.655   5.520  84.125  1.00  0.00    -0.384 OA
ATOM     34  H   UNL     1      54.093   6.301  83.886  1.00  0.00     0.211 HD
ENDBRANCH  28  33
BRANCH  30  35
ATOM     35  O   UNL     1      55.351   2.882  84.108  1.00  0.00    -0.387 OA
ATOM     36  H   UNL     1      55.450   1.905  83.959  1.00  0.00     0.211 HD
ENDBRANCH  30  35
BRANCH  31  37
ATOM     37  C   UNL     1      51.571   3.647  80.995  1.00  0.00     0.191 C 
BRANCH  37  38
ATOM     38  O   UNL     1      50.984   2.816  81.960  1.00  0.00    -0.394 OA
ATOM     39  H   UNL     1      50.521   3.412  82.606  1.00  0.00     0.210 HD
ENDBRANCH  37  38
ENDBRANCH  31  37
BRANCH  32  40
ATOM     40  O   UNL     1      53.457   1.713  82.260  1.00  0.00    -0.387 OA
ATOM     41  H   UNL     1      52.617   1.555  81.755  1.00  0.00     0.211 HD
ENDBRANCH  32  40
ENDBRANCH   1  27
TORSDOF 12
ENDMDL
MODEL 2
REMARK VINA RESULT:    -7.174      1.167      1.786
REMARK INTER + INTRA:         -12.021
REMARK INTER:                 -10.941
REMARK INTRA:                  -1.080
REMARK UNBOUND:                -1.493
REMARK SMILES O=c1c(O[C@H]2O[C@H](CO)[C@@H](O)[C@H](O)[C@@H]2O)c(-c2ccc(O)c(O)c2)oc2cc(O)cc(O)c12
REMARK SMILES IDX 4 1 3 2 16 3 25 4 2 5 26 6 1 7 33 8 27 9 31 10 28 11 30 12
REMARK SMILES IDX 17 13 18 14 19 15 20 16 24 17 22 18 21 19 23 21 32 23 29 25
REMARK SMILES IDX 5 27 14 28 6 29 12 30 7 31 10 32 15 33 13 35 8 37 9 38 11 40
REMARK H PARENT 21 20 23 22 32 24 29 26 15 34 13 36 9 39 11 41
REMARK Flexibility Score: inf
ROOT
ATOM      1  O   UNL     1      55.871   4.808  79.870  1.00  0.00    -0.454 OA
ENDROOT
BRANCH   1   2
ATOM      2  C   UNL     1      56.124   5.933  79.057  1.00  0.00     0.214 A 
ATOM      3  C   UNL     1      55.082   6.394  78.231  1.00  0.00     0.180 A 
ATOM      4  O   UNL     1      55.279   7.424  77.419  1.00  0.00    -0.452 OA
ATOM      5  C   UNL     1      57.366   6.607  79.007  1.00  0.00     0.239 A 
ATOM      6  C   UNL     1      56.431   8.074  77.328  1.00  0.00     0.146 A 
ATOM      7  O   UNL     1      58.287   6.275  79.795  1.00  0.00    -0.285 OA
ATOM      8  C   UNL     1      57.553   7.675  78.096  1.00  0.00     0.111 A 
ATOM      9  C   UNL     1      56.510   9.170  76.465  1.00  0.00     0.094 A 
ATOM     10  C   UNL     1      58.780   8.388  77.924  1.00  0.00     0.134 A 
ATOM     11  C   UNL     1      57.693   9.897  76.354  1.00  0.00     0.123 A 
ATOM     12  C   UNL     1      58.816   9.508  77.085  1.00  0.00     0.093 A 
BRANCH   3  13
ATOM     13  C   UNL     1      53.749   5.752  78.220  1.00  0.00     0.025 A 
ATOM     14  C   UNL     1      52.587   6.478  78.531  1.00  0.00     0.016 A 
ATOM     15  C   UNL     1      51.337   5.855  78.507  1.00  0.00     0.051 A 
ATOM     16  C   UNL     1      51.226   4.506  78.156  1.00  0.00     0.157 A 
ATOM     17  C   UNL     1      53.633   4.404  77.846  1.00  0.00     0.062 A 
ATOM     18  C   UNL     1      52.379   3.776  77.819  1.00  0.00     0.158 A 
BRANCH  16  19
ATOM     19  O   UNL     1      49.965   3.910  78.143  1.00  0.00    -0.504 OA
ATOM     20  H   UNL     1      49.350   3.972  77.342  1.00  0.00     0.293 HD
ENDBRANCH  16  19
BRANCH  18  21
ATOM     21  O   UNL     1      52.274   2.433  77.460  1.00  0.00    -0.504 OA
ATOM     22  H   UNL     1      52.219   1.701  78.159  1.00  0.00     0.293 HD
ENDBRANCH  18  21
ENDBRANCH   3  13
BRANCH  10  23
ATOM     23  O   UNL     1      59.987   8.023  78.527  1.00  0.00    -0.507 OA
ATOM     24  H   UNL     1      60.892   8.383  78.266  1.00  0.00     0.293 HD
ENDBRANCH  10  23
BRANCH  11  25
ATOM     25  O   UNL     1      57.743  11.002  75.506  1.00  0.00    -0.508 OA
ATOM     26  H   UNL     1      56.942  11.608  75.377  1.00  0.00     0.293 HD
ENDBRANCH  11  25
ENDBRANCH   1   2
BRANCH   1  27
ATOM     27  C   UNL     1      55.999   4.709  81.292  1.00  0.00     0.339 C 
ATOM     28  C   UNL     1      55.532   3.317  81.763  1.00  0.00     0.214 C 
ATOM     29  O   UNL     1      55.283   5.739  81.957  1.00  0.00    -0.332 OA
ATOM     30  C   UNL     1      54.007   3.169  81.604  1.00  0.00     0.180 C 
ATOM     31  C   UNL     1      53.896   5.696  81.661  1.00  0.00     0.179 C 
ATOM     32  C   UNL     1      53.264   4.384  82.190  1.00  0.00     0.177 C 
BRANCH  28  33
ATOM     33  O   UNL     1      55.939   3.066  83.088  1.00  0.00    -0.384 OA
ATOM     34  H   UNL     1      56.148   3.934  83.518  1.00  0.00     0.211 HD
ENDBRANCH  28  33
BRANCH  30  35
ATOM     35  O   UNL     1      53.582   1.988  82.234  1.00  0.00    -0.387 OA
ATOM     36  H   UNL     1      54.279   1.747  82.900  1.00  0.00     0.211 HD
ENDBRANCH  30  35
BRANCH  31  37
ATOM     37  C   UNL     1      53.245   6.932  82.303  1.00  0.00     0.191 C 
BRANCH  37  38
ATOM     38  O   UNL     1      52.849   6.674  83.623  1.00  0.00    -0.394 OA
ATOM     39  H   UNL     1      52.556   7.542  84.008  1.00  0.00     0.210 HD
ENDBRANCH  37  38
ENDBRANCH  31  37
BRANCH  32  40
ATOM     40  O   UNL     1      51.912   4.311  81.806  1.00  0.00    -0.387 OA
ATOM     41  H   UNL     1      51.887   4.299  80.814  1.00  0.00     0.211 HD
ENDBRANCH  32  40
ENDBRANCH   1  27
TORSDOF 12
ENDMDL
MODEL 3
REMARK VINA RESULT:    -7.078      2.315      4.915
REMARK INTER + INTRA:         -11.881
REMARK INTER:                 -10.324
REMARK INTRA:                  -1.558
REMARK UNBOUND:                -1.493
REMARK SMILES O=c1c(O[C@H]2O[C@H](CO)[C@@H](O)[C@H](O)[C@@H]2O)c(-c2ccc(O)c(O)c2)oc2cc(O)cc(O)c12
REMARK SMILES IDX 4 1 3 2 16 3 25 4 2 5 26 6 1 7 33 8 27 9 31 10 28 11 30 12
REMARK SMILES IDX 17 13 18 14 19 15 20 16 24 17 22 18 21 19 23 21 32 23 29 25
REMARK SMILES IDX 5 27 14 28 6 29 12 30 7 31 10 32 15 33 13 35 8 37 9 38 11 40
REMARK H PARENT 21 20 23 22 32 24 29 26 15 34 13 36 9 39 11 41
REMARK Flexibility Score: inf
ROOT
ATOM      1  O   UNL     1      52.823   5.696  79.844  1.00  0.00    -0.454 OA
ENDROOT
BRANCH   1   2
ATOM      2  C   UNL     1      53.394   6.652  78.978  1.00  0.00     0.214 A 
ATOM      3  C   UNL     1      54.785   6.853  79.047  1.00  0.00     0.180 A 
ATOM      4  O   UNL     1      55.367   7.767  78.282  1.00  0.00    -0.452 OA
ATOM      5  C   UNL     1      52.649   7.435  78.066  1.00  0.00     0.239 A 
ATOM      6  C   UNL     1      54.706   8.533  77.426  1.00  0.00     0.146 A 
ATOM      7  O   UNL     1      51.419   7.219  77.919  1.00  0.00    -0.285 OA
ATOM      8  C   UNL     1      53.298   8.433  77.297  1.00  0.00     0.111 A 
ATOM      9  C   UNL     1      55.430   9.437  76.645  1.00  0.00     0.094 A 
ATOM     10  C   UNL     1      52.636   9.314  76.389  1.00  0.00     0.134 A 
ATOM     11  C   UNL     1      54.781  10.246  75.715  1.00  0.00     0.123 A 
ATOM     12  C   UNL     1      53.393  10.178  75.589  1.00  0.00     0.093 A 
BRANCH   3  13
ATOM     13  C   UNL     1      55.643   6.077  79.969  1.00  0.00     0.025 A 
ATOM     14  C   UNL     1      56.537   5.105  79.490  1.00  0.00     0.016 A 
ATOM     15  C   UNL     1      57.344   4.389  80.377  1.00  0.00     0.051 A 
ATOM     16  C   UNL     1      57.284   4.643  81.750  1.00  0.00     0.157 A 
ATOM     17  C   UNL     1      55.601   6.346  81.346  1.00  0.00     0.062 A 
ATOM     18  C   UNL     1      56.412   5.631  82.239  1.00  0.00     0.158 A 
BRANCH  16  19
ATOM     19  O   UNL     1      58.101   3.912  82.612  1.00  0.00    -0.504 OA
ATOM     20  H   UNL     1      58.418   4.284  83.498  1.00  0.00     0.293 HD
ENDBRANCH  16  19
BRANCH  18  21
ATOM     21  O   UNL     1      56.352   5.895  83.606  1.00  0.00    -0.504 OA
ATOM     22  H   UNL     1      56.316   6.844  83.962  1.00  0.00     0.293 HD
ENDBRANCH  18  21
ENDBRANCH   3  13
BRANCH  10  23
ATOM     23  O   UNL     1      51.246   9.401  76.256  1.00  0.00    -0.507 OA
ATOM     24  H   UNL     1      50.685  10.175  76.577  1.00  0.00     0.293 HD
ENDBRANCH  10  23
BRANCH  11  25
ATOM     25  O   UNL     1      55.526  11.123  74.929  1.00  0.00    -0.508 OA
ATOM     26  H   UNL     1      55.716  10.928  73.953  1.00  0.00     0.293 HD
ENDBRANCH  11  25
ENDBRANCH   1   2
BRANCH   1  27
ATOM     27  C   UNL     1      52.404   4.364  79.524  1.00  0.00     0.339 C 
ATOM     28  C   UNL     1      50.898   4.206  79.810  1.00  0.00     0.214 C 
ATOM     29  O   UNL     1      53.162   3.392  80.229  1.00  0.00    -0.332 OA
ATOM     30  C   UNL     1      50.623   4.235  81.325  1.00  0.00     0.180 C 
ATOM     31  C   UNL     1      53.037   3.540  81.634  1.00  0.00     0.179 C 
ATOM     32  C   UNL     1      51.575   3.290  82.083  1.00  0.00     0.177 C 
BRANCH  28  33
ATOM     33  O   UNL     1      50.387   3.037  79.215  1.00  0.00    -0.384 OA
ATOM     34  H   UNL     1      49.398   3.104  79.197  1.00  0.00     0.211 HD
ENDBRANCH  28  33
BRANCH  30  35
ATOM     35  O   UNL     1      49.287   3.877  81.566  1.00  0.00    -0.387 OA
ATOM     36  H   UNL     1      48.874   4.621  82.079  1.00  0.00     0.211 HD
ENDBRANCH  30  35
BRANCH  31  37
ATOM     37  C   UNL     1      54.005   2.546  82.296  1.00  0.00     0.191 C 
BRANCH  37  38
ATOM     38  O   UNL     1      53.352   1.358  82.655  1.00  0.00    -0.394 OA
ATOM     39  H   UNL     1      53.114   0.897  81.808  1.00  0.00     0.210 HD
ENDBRANCH  37  38
ENDBRANCH  31  37
BRANCH  32  40
ATOM     40  O   UNL     1      51.445   3.534  83.463  1.00  0.00    -0.387 OA
ATOM     41  H   UNL     1      51.460   2.654  83.921  1.00  0.00     0.211 HD
ENDBRANCH  32  40
ENDBRANCH   1  27
TORSDOF 12
ENDMDL
MODEL 4
REMARK VINA RESULT:    -6.957      1.850      4.526
REMARK INTER + INTRA:         -11.703
REMARK INTER:                 -10.421
REMARK INTRA:                  -1.282
REMARK UNBOUND:                -1.493
REMARK SMILES O=c1c(O[C@H]2O[C@H](CO)[C@@H](O)[C@H](O)[C@@H]2O)c(-c2ccc(O)c(O)c2)oc2cc(O)cc(O)c12
REMARK SMILES IDX 4 1 3 2 16 3 25 4 2 5 26 6 1 7 33 8 27 9 31 10 28 11 30 12
REMARK SMILES IDX 17 13 18 14 19 15 20 16 24 17 22 18 21 19 23 21 32 23 29 25
REMARK SMILES IDX 5 27 14 28 6 29 12 30 7 31 10 32 15 33 13 35 8 37 9 38 11 40
REMARK H PARENT 21 20 23 22 32 24 29 26 15 34 13 36 9 39 11 41
REMARK Flexibility Score: inf
ROOT
ATOM      1  O   UNL     1      54.681   4.964  78.511  1.00  0.00    -0.454 OA
ENDROOT
BRANCH   1   2
ATOM      2  C   UNL     1      55.705   5.682  79.164  1.00  0.00     0.214 A 
ATOM      3  C   UNL     1      55.666   5.750  80.569  1.00  0.00     0.180 A 
ATOM      4  O   UNL     1      56.584   6.443  81.230  1.00  0.00    -0.452 OA
ATOM      5  C   UNL     1      56.751   6.354  78.490  1.00  0.00     0.239 A 
ATOM      6  C   UNL     1      57.571   7.101  80.639  1.00  0.00     0.146 A 
ATOM      7  O   UNL     1      56.862   6.240  77.243  1.00  0.00    -0.285 OA
ATOM      8  C   UNL     1      57.687   7.122  79.226  1.00  0.00     0.111 A 
ATOM      9  C   UNL     1      58.501   7.767  81.440  1.00  0.00     0.094 A 
ATOM     10  C   UNL     1      58.746   7.883  78.644  1.00  0.00     0.134 A 
ATOM     11  C   UNL     1      59.568   8.452  80.864  1.00  0.00     0.123 A 
ATOM     12  C   UNL     1      59.688   8.503  79.474  1.00  0.00     0.093 A 
BRANCH   3  13
ATOM     13  C   UNL     1      54.611   5.074  81.357  1.00  0.00     0.025 A 
ATOM     14  C   UNL     1      53.587   5.806  81.982  1.00  0.00     0.016 A 
ATOM     15  C   UNL     1      52.596   5.148  82.714  1.00  0.00     0.051 A 
ATOM     16  C   UNL     1      52.601   3.754  82.818  1.00  0.00     0.157 A 
ATOM     17  C   UNL     1      54.601   3.674  81.443  1.00  0.00     0.062 A 
ATOM     18  C   UNL     1      53.605   3.011  82.176  1.00  0.00     0.158 A 
BRANCH  16  19
ATOM     19  O   UNL     1      51.599   3.125  83.557  1.00  0.00    -0.504 OA
ATOM     20  H   UNL     1      51.572   3.164  84.568  1.00  0.00     0.293 HD
ENDBRANCH  16  19
BRANCH  18  21
ATOM     21  O   UNL     1      53.612   1.620  82.268  1.00  0.00    -0.504 OA
ATOM     22  H   UNL     1      54.128   1.047  81.611  1.00  0.00     0.293 HD
ENDBRANCH  18  21
ENDBRANCH   3  13
BRANCH  10  23
ATOM     23  O   UNL     1      58.901   8.083  77.269  1.00  0.00    -0.507 OA
ATOM     24  H   UNL     1      59.627   7.668  76.705  1.00  0.00     0.293 HD
ENDBRANCH  10  23
BRANCH  11  25
ATOM     25  O   UNL     1      60.499   9.088  81.682  1.00  0.00    -0.508 OA
ATOM     26  H   UNL     1      60.812  10.033  81.494  1.00  0.00     0.293 HD
ENDBRANCH  11  25
ENDBRANCH   1   2
BRANCH   1  27
ATOM     27  C   UNL     1      53.833   5.418  77.451  1.00  0.00     0.339 C 
ATOM     28  C   UNL     1      53.188   6.764  77.837  1.00  0.00     0.214 C 
ATOM     29  O   UNL     1      52.843   4.455  77.121  1.00  0.00    -0.332 OA
ATOM     30  C   UNL     1      52.156   6.573  78.965  1.00  0.00     0.180 C 
ATOM     31  C   UNL     1      52.004   4.158  78.226  1.00  0.00     0.179 C 
ATOM     32  C   UNL     1      51.196   5.410  78.652  1.00  0.00     0.177 C 
BRANCH  28  33
ATOM     33  O   UNL     1      52.615   7.393  76.714  1.00  0.00    -0.384 OA
ATOM     34  H   UNL     1      52.020   8.119  77.035  1.00  0.00     0.211 HD
ENDBRANCH  28  33
BRANCH  30  35
ATOM     35  O   UNL     1      51.435   7.765  79.147  1.00  0.00    -0.387 OA
ATOM     36  H   UNL     1      51.488   8.270  78.293  1.00  0.00     0.211 HD
ENDBRANCH  30  35
BRANCH  31  37
ATOM     37  C   UNL     1      51.075   3.006  77.809  1.00  0.00     0.191 C 
BRANCH  37  38
ATOM     38  O   UNL     1      49.727   3.389  77.865  1.00  0.00    -0.394 OA
ATOM     39  H   UNL     1      49.715   4.381  77.920  1.00  0.00     0.210 HD
ENDBRANCH  37  38
ENDBRANCH  31  37
BRANCH  32  40
ATOM     40  O   UNL     1      50.442   5.128  79.806  1.00  0.00    -0.387 OA
ATOM     41  H   UNL     1      49.555   5.559  79.691  1.00  0.00     0.211 HD
ENDBRANCH  32  40
ENDBRANCH   1  27
TORSDOF 12
ENDMDL
MODEL 5
REMARK VINA RESULT:    -6.596      2.113      2.827
REMARK INTER + INTRA:         -11.173
REMARK INTER:                 -10.359
REMARK INTRA:                  -0.814
REMARK UNBOUND:                -1.493
REMARK SMILES O=c1c(O[C@H]2O[C@H](CO)[C@@H](O)[C@H](O)[C@@H]2O)c(-c2ccc(O)c(O)c2)oc2cc(O)cc(O)c12
REMARK SMILES IDX 4 1 3 2 16 3 25 4 2 5 26 6 1 7 33 8 27 9 31 10 28 11 30 12
REMARK SMILES IDX 17 13 18 14 19 15 20 16 24 17 22 18 21 19 23 21 32 23 29 25
REMARK SMILES IDX 5 27 14 28 6 29 12 30 7 31 10 32 15 33 13 35 8 37 9 38 11 40
REMARK H PARENT 21 20 23 22 32 24 29 26 15 34 13 36 9 39 11 41
REMARK Flexibility Score: inf
ROOT
ATOM      1  O   UNL     1      54.220   6.141  80.171  1.00  0.00    -0.454 OA
ENDROOT
BRANCH   1   2
ATOM      2  C   UNL     1      54.102   6.999  79.057  1.00  0.00     0.214 A 
ATOM      3  C   UNL     1      53.143   6.678  78.079  1.00  0.00     0.180 A 
ATOM      4  O   UNL     1      53.017   7.430  76.994  1.00  0.00    -0.452 OA
ATOM      5  C   UNL     1      54.904   8.147  78.857  1.00  0.00     0.239 A 
ATOM      6  C   UNL     1      53.757   8.504  76.758  1.00  0.00     0.146 A 
ATOM      7  O   UNL     1      55.708   8.509  79.753  1.00  0.00    -0.285 OA
ATOM      8  C   UNL     1      54.771   8.901  77.665  1.00  0.00     0.111 A 
ATOM      9  C   UNL     1      53.509   9.242  75.598  1.00  0.00     0.094 A 
ATOM     10  C   UNL     1      55.566  10.042  77.336  1.00  0.00     0.134 A 
ATOM     11  C   UNL     1      54.247  10.390  75.320  1.00  0.00     0.123 A 
ATOM     12  C   UNL     1      55.265  10.786  76.189  1.00  0.00     0.093 A 
BRANCH   3  13
ATOM     13  C   UNL     1      52.259   5.498  78.208  1.00  0.00     0.025 A 
ATOM     14  C   UNL     1      52.240   4.491  77.229  1.00  0.00     0.016 A 
ATOM     15  C   UNL     1      51.403   3.381  77.373  1.00  0.00     0.051 A 
ATOM     16  C   UNL     1      50.589   3.252  78.503  1.00  0.00     0.157 A 
ATOM     17  C   UNL     1      51.458   5.355  79.351  1.00  0.00     0.062 A 
ATOM     18  C   UNL     1      50.619   4.241  79.501  1.00  0.00     0.158 A 
BRANCH  16  19
ATOM     19  O   UNL     1      49.764   2.134  78.619  1.00  0.00    -0.504 OA
ATOM     20  H   UNL     1      49.461   1.602  77.812  1.00  0.00     0.293 HD
ENDBRANCH  16  19
BRANCH  18  21
ATOM     21  O   UNL     1      49.816   4.114  80.633  1.00  0.00    -0.504 OA
ATOM     22  H   UNL     1      49.028   4.730  80.796  1.00  0.00     0.293 HD
ENDBRANCH  18  21
ENDBRANCH   3  13
BRANCH  10  23
ATOM     23  O   UNL     1      56.671  10.467  78.081  1.00  0.00    -0.507 OA
ATOM     24  H   UNL     1      56.646  10.706  79.061  1.00  0.00     0.293 HD
ENDBRANCH  10  23
BRANCH  11  25
ATOM     25  O   UNL     1      53.967  11.125  74.170  1.00  0.00    -0.508 OA
ATOM     26  H   UNL     1      53.742  12.111  74.213  1.00  0.00     0.293 HD
ENDBRANCH  11  25
ENDBRANCH   1   2
BRANCH   1  27
ATOM     27  C   UNL     1      53.825   6.400  81.522  1.00  0.00     0.339 C 
ATOM     28  C   UNL     1      55.061   6.768  82.367  1.00  0.00     0.214 C 
ATOM     29  O   UNL     1      53.132   5.297  82.087  1.00  0.00    -0.332 OA
ATOM     30  C   UNL     1      55.972   5.542  82.566  1.00  0.00     0.180 C 
ATOM     31  C   UNL     1      53.928   4.123  82.105  1.00  0.00     0.179 C 
ATOM     32  C   UNL     1      55.163   4.313  83.022  1.00  0.00     0.177 C 
BRANCH  28  33
ATOM     33  O   UNL     1      54.684   7.336  83.599  1.00  0.00    -0.384 OA
ATOM     34  H   UNL     1      55.204   8.170  83.728  1.00  0.00     0.211 HD
ENDBRANCH  28  33
BRANCH  30  35
ATOM     35  O   UNL     1      56.968   5.846  83.508  1.00  0.00    -0.387 OA
ATOM     36  H   UNL     1      57.214   6.799  83.374  1.00  0.00     0.211 HD
ENDBRANCH  30  35
BRANCH  31  37
ATOM     37  C   UNL     1      53.040   2.966  82.590  1.00  0.00     0.191 C 
BRANCH  37  38
ATOM     38  O   UNL     1      53.559   1.724  82.195  1.00  0.00    -0.394 OA
ATOM     39  H   UNL     1      52.815   1.230  81.758  1.00  0.00     0.210 HD
ENDBRANCH  37  38
ENDBRANCH  31  37
BRANCH  32  40
ATOM     40  O   UNL     1      55.993   3.179  82.955  1.00  0.00    -0.387 OA
ATOM     41  H   UNL     1      56.311   3.101  82.018  1.00  0.00     0.211 HD
ENDBRANCH  32  40
ENDBRANCH   1  27
TORSDOF 12
ENDMDL
MODEL 6
REMARK VINA RESULT:    -6.393      2.036      6.968
REMARK INTER + INTRA:         -10.876
REMARK INTER:                  -9.985
REMARK INTRA:                  -0.891
REMARK UNBOUND:                -1.493
REMARK SMILES O=c1c(O[C@H]2O[C@H](CO)[C@@H](O)[C@H](O)[C@@H]2O)c(-c2ccc(O)c(O)c2)oc2cc(O)cc(O)c12
REMARK SMILES IDX 4 1 3 2 16 3 25 4 2 5 26 6 1 7 33 8 27 9 31 10 28 11 30 12
REMARK SMILES IDX 17 13 18 14 19 15 20 16 24 17 22 18 21 19 23 21 32 23 29 25
REMARK SMILES IDX 5 27 14 28 6 29 12 30 7 31 10 32 15 33 13 35 8 37 9 38 11 40
REMARK H PARENT 21 20 23 22 32 24 29 26 15 34 13 36 9 39 11 41
REMARK Flexibility Score: inf
ROOT
ATOM      1  O   UNL     1      55.712   6.762  78.858  1.00  0.00    -0.454 OA
ENDROOT
BRANCH   1   2
ATOM      2  C   UNL     1      54.853   5.964  79.644  1.00  0.00     0.214 A 
ATOM      3  C   UNL     1      53.467   6.100  79.446  1.00  0.00     0.180 A 
ATOM      4  O   UNL     1      52.615   5.401  80.184  1.00  0.00    -0.452 OA
ATOM      5  C   UNL     1      55.303   5.056  80.631  1.00  0.00     0.239 A 
ATOM      6  C   UNL     1      52.991   4.552  81.130  1.00  0.00     0.146 A 
ATOM      7  O   UNL     1      56.535   4.849  80.771  1.00  0.00    -0.285 OA
ATOM      8  C   UNL     1      54.363   4.360  81.430  1.00  0.00     0.111 A 
ATOM      9  C   UNL     1      52.005   3.843  81.819  1.00  0.00     0.094 A 
ATOM     10  C   UNL     1      54.707   3.465  82.489  1.00  0.00     0.134 A 
ATOM     11  C   UNL     1      52.354   2.923  82.805  1.00  0.00     0.123 A 
ATOM     12  C   UNL     1      53.699   2.735  83.131  1.00  0.00     0.093 A 
BRANCH   3  13
ATOM     13  C   UNL     1      52.907   7.023  78.434  1.00  0.00     0.025 A 
ATOM     14  C   UNL     1      51.981   8.019  78.787  1.00  0.00     0.016 A 
ATOM     15  C   UNL     1      51.471   8.885  77.818  1.00  0.00     0.051 A 
ATOM     16  C   UNL     1      51.890   8.783  76.488  1.00  0.00     0.157 A 
ATOM     17  C   UNL     1      53.343   6.937  77.103  1.00  0.00     0.062 A 
ATOM     18  C   UNL     1      52.835   7.807  76.127  1.00  0.00     0.158 A 
BRANCH  16  19
ATOM     19  O   UNL     1      51.362   9.661  75.541  1.00  0.00    -0.504 OA
ATOM     20  H   UNL     1      51.833  10.519  75.281  1.00  0.00     0.293 HD
ENDBRANCH  16  19
BRANCH  18  21
ATOM     21  O   UNL     1      53.262   7.705  74.804  1.00  0.00    -0.504 OA
ATOM     22  H   UNL     1      54.230   7.864  74.546  1.00  0.00     0.293 HD
ENDBRANCH  18  21
ENDBRANCH   3  13
BRANCH  10  23
ATOM     23  O   UNL     1      56.009   3.277  82.964  1.00  0.00    -0.507 OA
ATOM     24  H   UNL     1      56.290   3.383  83.926  1.00  0.00     0.293 HD
ENDBRANCH  10  23
BRANCH  11  25
ATOM     25  O   UNL     1      51.356   2.208  83.463  1.00  0.00    -0.508 OA
ATOM     26  H   UNL     1      51.088   1.277  83.167  1.00  0.00     0.293 HD
ENDBRANCH  11  25
ENDBRANCH   1   2
BRANCH   1  27
ATOM     27  C   UNL     1      55.957   8.167  78.981  1.00  0.00     0.339 C 
ATOM     28  C   UNL     1      56.486   8.724  77.645  1.00  0.00     0.214 C 
ATOM     29  O   UNL     1      56.854   8.453  80.043  1.00  0.00    -0.332 OA
ATOM     30  C   UNL     1      57.910   8.210  77.363  1.00  0.00     0.180 C 
ATOM     31  C   UNL     1      58.113   7.827  79.856  1.00  0.00     0.179 C 
ATOM     32  C   UNL     1      58.820   8.384  78.594  1.00  0.00     0.177 C 
BRANCH  28  33
ATOM     33  O   UNL     1      56.432  10.131  77.623  1.00  0.00    -0.384 OA
ATOM     34  H   UNL     1      55.501  10.403  77.416  1.00  0.00     0.211 HD
ENDBRANCH  28  33
BRANCH  30  35
ATOM     35  O   UNL     1      58.447   8.895  76.261  1.00  0.00    -0.387 OA
ATOM     36  H   UNL     1      59.161   9.491  76.608  1.00  0.00     0.211 HD
ENDBRANCH  30  35
BRANCH  31  37
ATOM     37  C   UNL     1      58.949   8.073  81.123  1.00  0.00     0.191 C 
BRANCH  37  38
ATOM     38  O   UNL     1      59.990   8.981  80.880  1.00  0.00    -0.394 OA
ATOM     39  H   UNL     1      60.491   8.636  80.094  1.00  0.00     0.210 HD
ENDBRANCH  37  38
ENDBRANCH  31  37
BRANCH  32  40
ATOM     40  O   UNL     1      60.021   7.688  78.367  1.00  0.00    -0.387 OA
ATOM     41  H   UNL     1      59.780   6.762  78.099  1.00  0.00     0.211 HD
ENDBRANCH  32  40
ENDBRANCH   1  27
TORSDOF 12
ENDMDL
MODEL 7
REMARK VINA RESULT:    -6.376      2.352      4.644
REMARK INTER + INTRA:         -10.851
REMARK INTER:                  -9.419
REMARK INTRA:                  -1.432
REMARK UNBOUND:                -1.493
REMARK SMILES O=c1c(O[C@H]2O[C@H](CO)[C@@H](O)[C@H](O)[C@@H]2O)c(-c2ccc(O)c(O)c2)oc2cc(O)cc(O)c12
REMARK SMILES IDX 4 1 3 2 16 3 25 4 2 5 26 6 1 7 33 8 27 9 31 10 28 11 30 12
REMARK SMILES IDX 17 13 18 14 19 15 20 16 24 17 22 18 21 19 23 21 32 23 29 25
REMARK SMILES IDX 5 27 14 28 6 29 12 30 7 31 10 32 15 33 13 35 8 37 9 38 11 40
REMARK H PARENT 21 20 23 22 32 24 29 26 15 34 13 36 9 39 11 41
REMARK Flexibility Score: inf
ROOT
ATOM      1  O   UNL     1      53.690   5.538  80.381  1.00  0.00    -0.454 OA
ENDROOT
BRANCH   1   2
ATOM      2  C   UNL     1      54.885   6.208  80.718  1.00  0.00     0.214 A 
ATOM      3  C   UNL     1      55.357   7.194  79.833  1.00  0.00     0.180 A 
ATOM      4  O   UNL     1      56.495   7.828  80.083  1.00  0.00    -0.452 OA
ATOM      5  C   UNL     1      55.645   5.930  81.878  1.00  0.00     0.239 A 
ATOM      6  C   UNL     1      57.247   7.588  81.148  1.00  0.00     0.146 A 
ATOM      7  O   UNL     1      55.207   5.118  82.731  1.00  0.00    -0.285 OA
ATOM      8  C   UNL     1      56.878   6.595  82.090  1.00  0.00     0.111 A 
ATOM      9  C   UNL     1      58.408   8.344  81.327  1.00  0.00     0.094 A 
ATOM     10  C   UNL     1      57.750   6.352  83.195  1.00  0.00     0.134 A 
ATOM     11  C   UNL     1      59.217   8.144  82.443  1.00  0.00     0.123 A 
ATOM     12  C   UNL     1      58.883   7.156  83.371  1.00  0.00     0.093 A 
BRANCH   3  13
ATOM     13  C   UNL     1      54.625   7.552  78.598  1.00  0.00     0.025 A 
ATOM     14  C   UNL     1      54.807   6.829  77.406  1.00  0.00     0.016 A 
ATOM     15  C   UNL     1      54.100   7.178  76.253  1.00  0.00     0.051 A 
ATOM     16  C   UNL     1      53.190   8.239  76.276  1.00  0.00     0.157 A 
ATOM     17  C   UNL     1      53.694   8.601  78.624  1.00  0.00     0.062 A 
ATOM     18  C   UNL     1      52.981   8.953  77.468  1.00  0.00     0.158 A 
BRANCH  16  19
ATOM     19  O   UNL     1      52.500   8.566  75.109  1.00  0.00    -0.504 OA
ATOM     20  H   UNL     1      52.833   8.293  74.193  1.00  0.00     0.293 HD
ENDBRANCH  16  19
BRANCH  18  21
ATOM     21  O   UNL     1      52.069  10.006  77.500  1.00  0.00    -0.504 OA
ATOM     22  H   UNL     1      51.204   9.976  76.971  1.00  0.00     0.293 HD
ENDBRANCH  18  21
ENDBRANCH   3  13
BRANCH  10  23
ATOM     23  O   UNL     1      57.566   5.324  84.125  1.00  0.00    -0.507 OA
ATOM     24  H   UNL     1      57.604   4.340  83.909  1.00  0.00     0.293 HD
ENDBRANCH  10  23
BRANCH  11  25
ATOM     25  O   UNL     1      60.357   8.926  82.615  1.00  0.00    -0.508 OA
ATOM     26  H   UNL     1      61.256   8.640  82.247  1.00  0.00     0.293 HD
ENDBRANCH  11  25
ENDBRANCH   1   2
BRANCH   1  27
ATOM     27  C   UNL     1      53.535   4.172  79.980  1.00  0.00     0.339 C 
ATOM     28  C   UNL     1      52.522   4.079  78.823  1.00  0.00     0.214 C 
ATOM     29  O   UNL     1      53.144   3.347  81.068  1.00  0.00    -0.332 OA
ATOM     30  C   UNL     1      51.097   4.395  79.315  1.00  0.00     0.180 C 
ATOM     31  C   UNL     1      51.907   3.759  81.627  1.00  0.00     0.179 C 
ATOM     32  C   UNL     1      50.761   3.605  80.595  1.00  0.00     0.177 C 
BRANCH  28  33
ATOM     33  O   UNL     1      52.583   2.820  78.194  1.00  0.00    -0.384 OA
ATOM     34  H   UNL     1      52.839   2.959  77.246  1.00  0.00     0.211 HD
ENDBRANCH  28  33
BRANCH  30  35
ATOM     35  O   UNL     1      50.173   4.095  78.302  1.00  0.00    -0.387 OA
ATOM     36  H   UNL     1      50.321   3.147  78.044  1.00  0.00     0.211 HD
ENDBRANCH  30  35
BRANCH  31  37
ATOM     37  C   UNL     1      51.654   2.903  82.879  1.00  0.00     0.191 C 
BRANCH  37  38
ATOM     38  O   UNL     1      50.784   1.838  82.603  1.00  0.00    -0.394 OA
ATOM     39  H   UNL     1      50.192   1.741  83.395  1.00  0.00     0.210 HD
ENDBRANCH  37  38
ENDBRANCH  31  37
BRANCH  32  40
ATOM     40  O   UNL     1      49.560   4.106  81.129  1.00  0.00    -0.387 OA
ATOM     41  H   UNL     1      49.518   3.821  82.079  1.00  0.00     0.211 HD
ENDBRANCH  32  40
ENDBRANCH   1  27
TORSDOF 12
ENDMDL
MODEL 8
REMARK VINA RESULT:    -6.326      2.140      7.014
REMARK INTER + INTRA:         -10.777
REMARK INTER:                  -9.616
REMARK INTRA:                  -1.161
REMARK UNBOUND:                -1.493
REMARK SMILES O=c1c(O[C@H]2O[C@H](CO)[C@@H](O)[C@H](O)[C@@H]2O)c(-c2ccc(O)c(O)c2)oc2cc(O)cc(O)c12
REMARK SMILES IDX 4 1 3 2 16 3 25 4 2 5 26 6 1 7 33 8 27 9 31 10 28 11 30 12
REMARK SMILES IDX 17 13 18 14 19 15 20 16 24 17 22 18 21 19 23 21 32 23 29 25
REMARK SMILES IDX 5 27 14 28 6 29 12 30 7 31 10 32 15 33 13 35 8 37 9 38 11 40
REMARK H PARENT 21 20 23 22 32 24 29 26 15 34 13 36 9 39 11 41
REMARK Flexibility Score: inf
ROOT
ATOM      1  O   UNL     1      55.776   6.211  79.757  1.00  0.00    -0.454 OA
ENDROOT
BRANCH   1   2
ATOM      2  C   UNL     1      54.786   5.416  80.372  1.00  0.00     0.214 A 
ATOM      3  C   UNL     1      53.474   5.497  79.872  1.00  0.00     0.180 A 
ATOM      4  O   UNL     1      52.498   4.799  80.437  1.00  0.00    -0.452 OA
ATOM      5  C   UNL     1      55.031   4.562  81.472  1.00  0.00     0.239 A 
ATOM      6  C   UNL     1      52.679   4.000  81.479  1.00  0.00     0.146 A 
ATOM      7  O   UNL     1      56.207   4.401  81.886  1.00  0.00    -0.285 OA
ATOM      8  C   UNL     1      53.957   3.866  82.079  1.00  0.00     0.111 A 
ATOM      9  C   UNL     1      51.584   3.285  81.968  1.00  0.00     0.094 A 
ATOM     10  C   UNL     1      54.082   3.023  83.225  1.00  0.00     0.134 A 
ATOM     11  C   UNL     1      51.731   2.416  83.046  1.00  0.00     0.123 A 
ATOM     12  C   UNL     1      52.976   2.286  83.665  1.00  0.00     0.093 A 
BRANCH   3  13
ATOM     13  C   UNL     1      53.127   6.362  78.722  1.00  0.00     0.025 A 
ATOM     14  C   UNL     1      53.796   6.242  77.492  1.00  0.00     0.016 A 
ATOM     15  C   UNL     1      53.447   7.063  76.416  1.00  0.00     0.051 A 
ATOM     16  C   UNL     1      52.417   8.000  76.546  1.00  0.00     0.157 A 
ATOM     17  C   UNL     1      52.078   7.286  78.842  1.00  0.00     0.062 A 
ATOM     18  C   UNL     1      51.725   8.110  77.763  1.00  0.00     0.158 A 
BRANCH  16  19
ATOM     19  O   UNL     1      52.093   8.806  75.455  1.00  0.00    -0.504 OA
ATOM     20  H   UNL     1      51.744   9.749  75.568  1.00  0.00     0.293 HD
ENDBRANCH  16  19
BRANCH  18  21
ATOM     21  O   UNL     1      50.692   9.036  77.897  1.00  0.00    -0.504 OA
ATOM     22  H   UNL     1      50.876  10.030  77.972  1.00  0.00     0.293 HD
ENDBRANCH  18  21
ENDBRANCH   3  13
BRANCH  10  23
ATOM     23  O   UNL     1      55.253   2.898  83.979  1.00  0.00    -0.507 OA
ATOM     24  H   UNL     1      55.798   3.672  84.328  1.00  0.00     0.293 HD
ENDBRANCH  10  23
BRANCH  11  25
ATOM     25  O   UNL     1      50.631   1.693  83.503  1.00  0.00    -0.508 OA
ATOM     26  H   UNL     1      49.683   2.009  83.335  1.00  0.00     0.293 HD
ENDBRANCH  11  25
ENDBRANCH   1   2
BRANCH   1  27
ATOM     27  C   UNL     1      56.516   7.291  80.337  1.00  0.00     0.339 C 
ATOM     28  C   UNL     1      55.600   8.519  80.511  1.00  0.00     0.214 C 
ATOM     29  O   UNL     1      57.662   7.617  79.563  1.00  0.00    -0.332 OA
ATOM     30  C   UNL     1      55.232   9.126  79.145  1.00  0.00     0.180 C 
ATOM     31  C   UNL     1      57.317   8.010  78.245  1.00  0.00     0.179 C 
ATOM     32  C   UNL     1      56.481   9.315  78.263  1.00  0.00     0.177 C 
BRANCH  28  33
ATOM     33  O   UNL     1      56.188   9.476  81.360  1.00  0.00    -0.384 OA
ATOM     34  H   UNL     1      55.784   9.383  82.260  1.00  0.00     0.211 HD
ENDBRANCH  28  33
BRANCH  30  35
ATOM     35  O   UNL     1      54.581  10.356  79.338  1.00  0.00    -0.387 OA
ATOM     36  H   UNL     1      55.252  11.069  79.168  1.00  0.00     0.211 HD
ENDBRANCH  30  35
BRANCH  31  37
ATOM     37  C   UNL     1      58.624   8.192  77.456  1.00  0.00     0.191 C 
BRANCH  37  38
ATOM     38  O   UNL     1      59.727   7.706  78.175  1.00  0.00    -0.394 OA
ATOM     39  H   UNL     1      60.382   8.451  78.231  1.00  0.00     0.210 HD
ENDBRANCH  37  38
ENDBRANCH  31  37
BRANCH  32  40
ATOM     40  O   UNL     1      56.065   9.640  76.959  1.00  0.00    -0.387 OA
ATOM     41  H   UNL     1      55.982  10.628  76.914  1.00  0.00     0.211 HD
ENDBRANCH  32  40
ENDBRANCH   1  27
TORSDOF 12
ENDMDL
MODEL 9
REMARK VINA RESULT:    -6.186      2.016      7.002
REMARK INTER + INTRA:         -10.572
REMARK INTER:                  -9.107
REMARK INTRA:                  -1.465
REMARK UNBOUND:                -1.493
REMARK SMILES O=c1c(O[C@H]2O[C@H](CO)[C@@H](O)[C@H](O)[C@@H]2O)c(-c2ccc(O)c(O)c2)oc2cc(O)cc(O)c12
REMARK SMILES IDX 4 1 3 2 16 3 25 4 2 5 26 6 1 7 33 8 27 9 31 10 28 11 30 12
REMARK SMILES IDX 17 13 18 14 19 15 20 16 24 17 22 18 21 19 23 21 32 23 29 25
REMARK SMILES IDX 5 27 14 28 6 29 12 30 7 31 10 32 15 33 13 35 8 37 9 38 11 40
REMARK H PARENT 21 20 23 22 32 24 29 26 15 34 13 36 9 39 11 41
REMARK Flexibility Score: inf
ROOT
ATOM      1  O   UNL     1      55.765   6.943  79.766  1.00  0.00    -0.454 OA
ENDROOT
BRANCH   1   2
ATOM      2  C   UNL     1      54.818   6.053  80.316  1.00  0.00     0.214 A 
ATOM      3  C   UNL     1      53.492   6.139  79.856  1.00  0.00     0.180 A 
ATOM      4  O   UNL     1      52.554   5.352  80.367  1.00  0.00    -0.452 OA
ATOM      5  C   UNL     1      55.119   5.099  81.315  1.00  0.00     0.239 A 
ATOM      6  C   UNL     1      52.789   4.456  81.315  1.00  0.00     0.146 A 
ATOM      7  O   UNL     1      56.310   4.938  81.684  1.00  0.00    -0.285 OA
ATOM      8  C   UNL     1      54.084   4.306  81.869  1.00  0.00     0.111 A 
ATOM      9  C   UNL     1      51.730   3.655  81.751  1.00  0.00     0.094 A 
ATOM     10  C   UNL     1      54.267   3.354  82.918  1.00  0.00     0.134 A 
ATOM     11  C   UNL     1      51.934   2.685  82.729  1.00  0.00     0.123 A 
ATOM     12  C   UNL     1      53.198   2.536  83.303  1.00  0.00     0.093 A 
BRANCH   3  13
ATOM     13  C   UNL     1      53.087   7.106  78.811  1.00  0.00     0.025 A 
ATOM     14  C   UNL     1      52.469   8.323  79.143  1.00  0.00     0.016 A 
ATOM     15  C   UNL     1      52.102   9.226  78.141  1.00  0.00     0.051 A 
ATOM     16  C   UNL     1      52.362   8.935  76.798  1.00  0.00     0.157 A 
ATOM     17  C   UNL     1      53.367   6.826  77.464  1.00  0.00     0.062 A 
ATOM     18  C   UNL     1      53.001   7.731  76.456  1.00  0.00     0.158 A 
BRANCH  16  19
ATOM     19  O   UNL     1      51.982   9.854  75.820  1.00  0.00    -0.504 OA
ATOM     20  H   UNL     1      52.089   9.662  74.832  1.00  0.00     0.293 HD
ENDBRANCH  16  19
BRANCH  18  21
ATOM     21  O   UNL     1      53.270   7.439  75.120  1.00  0.00    -0.504 OA
ATOM     22  H   UNL     1      52.637   7.717  74.379  1.00  0.00     0.293 HD
ENDBRANCH  18  21
ENDBRANCH   3  13
BRANCH  10  23
ATOM     23  O   UNL     1      55.460   3.193  83.630  1.00  0.00    -0.507 OA
ATOM     24  H   UNL     1      56.000   3.948  84.026  1.00  0.00     0.293 HD
ENDBRANCH  10  23
BRANCH  11  25
ATOM     25  O   UNL     1      50.870   1.880  83.131  1.00  0.00    -0.508 OA
ATOM     26  H   UNL     1      49.987   2.278  83.428  1.00  0.00     0.293 HD
ENDBRANCH  11  25
ENDBRANCH   1   2
BRANCH   1  27
ATOM     27  C   UNL     1      56.826   6.640  78.854  1.00  0.00     0.339 C 
ATOM     28  C   UNL     1      58.187   6.835  79.552  1.00  0.00     0.214 C 
ATOM     29  O   UNL     1      56.742   7.422  77.672  1.00  0.00    -0.332 OA
ATOM     30  C   UNL     1      58.457   8.328  79.816  1.00  0.00     0.180 C 
ATOM     31  C   UNL     1      56.818   8.811  77.949  1.00  0.00     0.179 C 
ATOM     32  C   UNL     1      58.197   9.174  78.555  1.00  0.00     0.177 C 
BRANCH  28  33
ATOM     33  O   UNL     1      59.228   6.246  78.809  1.00  0.00    -0.384 OA
ATOM     34  H   UNL     1      59.075   5.267  78.782  1.00  0.00     0.211 HD
ENDBRANCH  28  33
BRANCH  30  35
ATOM     35  O   UNL     1      59.782   8.496  80.251  1.00  0.00    -0.387 OA
ATOM     36  H   UNL     1      60.083   9.385  79.928  1.00  0.00     0.211 HD
ENDBRANCH  30  35
BRANCH  31  37
ATOM     37  C   UNL     1      56.567   9.563  76.632  1.00  0.00     0.191 C 
BRANCH  37  38
ATOM     38  O   UNL     1      57.770   9.983  76.046  1.00  0.00    -0.394 OA
ATOM     39  H   UNL     1      58.295   9.162  75.855  1.00  0.00     0.210 HD
ENDBRANCH  37  38
ENDBRANCH  31  37
BRANCH  32  40
ATOM     40  O   UNL     1      58.224  10.534  78.914  1.00  0.00    -0.387 OA
ATOM     41  H   UNL     1      59.159  10.849  78.809  1.00  0.00     0.211 HD
ENDBRANCH  32  40
ENDBRANCH   1  27
TORSDOF 12
ENDMDL
