MODEL 1
REMARK VINA RESULT:    -3.730      0.000      0.000
REMARK INTER + INTRA:          -3.971
REMARK INTER:                  -3.948
REMARK INTRA:                  -0.023
REMARK UNBOUND:                -0.023
REMARK SMILES O=C([O-])c1cccnc1
REMARK SMILES IDX 4 1 5 2 9 3 6 4 8 5 7 6 2 7 1 8 3 9
REMARK H PARENT
REMARK Flexibility Score: inf
ROOT
ATOM      1  C   UNL     1      15.340  15.675  19.719  1.00  0.00     0.016 A 
ATOM      2  C   UNL     1      14.888  16.192  20.945  1.00  0.00     0.013 A 
ATOM      3  C   UNL     1      14.962  16.334  18.537  1.00  0.00     0.120 A 
ATOM      4  C   UNL     1      14.085  17.332  20.973  1.00  0.00     0.021 A 
ATOM      5  N   UNL     1      14.177  17.444  18.591  1.00  0.00    -0.264 NA
ATOM      6  C   UNL     1      13.736  17.952  19.772  1.00  0.00     0.111 A 
ENDROOT
BRANCH   1   7
ATOM      7  C   UNL     1      16.192  14.467  19.670  1.00  0.00     0.073 C 
ATOM      8  O   UNL     1      16.772  14.135  18.601  1.00  0.00    -0.545 OA
ATOM      9  O   UNL     1      16.367  13.682  20.804  1.00  0.00    -0.545 OA
ENDBRANCH   1   7
TORSDOF 1
ENDMDL
MODEL 2
REMARK VINA RESULT:    -3.650      2.552      3.232
REMARK INTER + INTRA:          -3.886
REMARK INTER:                  -3.870
REMARK INTRA:                  -0.016
REMARK UNBOUND:                -0.023
REMARK SMILES O=C([O-])c1cccnc1
REMARK SMILES IDX 4 1 5 2 9 3 6 4 8 5 7 6 2 7 1 8 3 9
REMARK H PARENT
REMARK Flexibility Score: inf
ROOT
ATOM      1  C   UNL     1      16.815  15.660  17.376  1.00  0.00     0.016 A 
ATOM      2  C   UNL     1      16.485  16.995  17.086  1.00  0.00     0.013 A 
ATOM      3  C   UNL     1      16.003  14.953  18.279  1.00  0.00     0.120 A 
ATOM      4  C   UNL     1      15.375  17.590  17.689  1.00  0.00     0.021 A 
ATOM      5  N   UNL     1      14.927  15.556  18.853  1.00  0.00    -0.264 NA
ATOM      6  C   UNL     1      14.599  16.847  18.579  1.00  0.00     0.111 A 
ENDROOT
BRANCH   1   7
ATOM      7  C   UNL     1      17.986  15.012  16.747  1.00  0.00     0.073 C 
ATOM      8  O   UNL     1      17.835  14.198  15.797  1.00  0.00    -0.545 OA
ATOM      9  O   UNL     1      19.271  15.294  17.196  1.00  0.00    -0.545 OA
ENDBRANCH   1   7
TORSDOF 1
ENDMDL
MODEL 3
REMARK VINA RESULT:    -3.585      2.892      3.945
REMARK INTER + INTRA:          -3.818
REMARK INTER:                  -3.800
REMARK INTRA:                  -0.018
REMARK UNBOUND:                -0.023
REMARK SMILES O=C([O-])c1cccnc1
REMARK SMILES IDX 4 1 5 2 9 3 6 4 8 5 7 6 2 7 1 8 3 9
REMARK H PARENT
REMARK Flexibility Score: inf
ROOT
ATOM      1  C   UNL     1      15.916  15.740  18.313  1.00  0.00     0.016 A 
ATOM      2  C   UNL     1      16.346  16.716  17.399  1.00  0.00     0.013 A 
ATOM      3  C   UNL     1      16.542  14.482  18.290  1.00  0.00     0.120 A 
ATOM      4  C   UNL     1      17.371  16.429  16.496  1.00  0.00     0.021 A 
ATOM      5  N   UNL     1      17.538  14.227  17.399  1.00  0.00    -0.264 NA
ATOM      6  C   UNL     1      17.962  15.165  16.512  1.00  0.00     0.111 A 
ENDROOT
BRANCH   1   7
ATOM      7  C   UNL     1      14.832  16.025  19.278  1.00  0.00     0.073 C 
ATOM      8  O   UNL     1      13.674  16.313  18.873  1.00  0.00    -0.545 OA
ATOM      9  O   UNL     1      15.077  15.979  20.646  1.00  0.00    -0.545 OA
ENDBRANCH   1   7
TORSDOF 1
ENDMDL
MODEL 4
REMARK VINA RESULT:    -3.556      2.136      3.379
REMARK INTER + INTRA:          -3.787
REMARK INTER:                  -3.764
REMARK INTRA:                  -0.024
REMARK UNBOUND:                -0.023
REMARK SMILES O=C([O-])c1cccnc1
REMARK SMILES IDX 4 1 5 2 9 3 6 4 8 5 7 6 2 7 1 8 3 9
REMARK H PARENT
REMARK Flexibility Score: inf
ROOT
ATOM      1  C   UNL     1      16.425  15.289  18.801  1.00  0.00     0.016 A 
ATOM      2  C   UNL     1      17.306  14.495  18.046  1.00  0.00     0.013 A 
ATOM      3  C   UNL     1      15.993  16.509  18.256  1.00  0.00     0.120 A 
ATOM      4  C   UNL     1      17.732  14.923  16.788  1.00  0.00     0.021 A 
ATOM      5  N   UNL     1      16.422  16.904  17.028  1.00  0.00    -0.264 NA
ATOM      6  C   UNL     1      17.274  16.143  16.289  1.00  0.00     0.111 A 
ENDROOT
BRANCH   1   7
ATOM      7  C   UNL     1      15.963  14.853  20.137  1.00  0.00     0.073 C 
ATOM      8  O   UNL     1      15.212  15.592  20.828  1.00  0.00    -0.545 OA
ATOM      9  O   UNL     1      16.350  13.618  20.647  1.00  0.00    -0.545 OA
ENDBRANCH   1   7
TORSDOF 1
ENDMDL
MODEL 5
REMARK VINA RESULT:    -3.547     18.174     18.928
REMARK INTER + INTRA:          -3.777
REMARK INTER:                  -3.761
REMARK INTRA:                  -0.016
REMARK UNBOUND:                -0.023
REMARK SMILES O=C([O-])c1cccnc1
REMARK SMILES IDX 4 1 5 2 9 3 6 4 8 5 7 6 2 7 1 8 3 9
REMARK H PARENT
REMARK Flexibility Score: inf
ROOT
ATOM      1  C   UNL     1       3.040  16.041   5.159  1.00  0.00     0.016 A 
ATOM      2  C   UNL     1       2.830  15.846   6.535  1.00  0.00     0.013 A 
ATOM      3  C   UNL     1       2.948  17.346   4.648  1.00  0.00     0.120 A 
ATOM      4  C   UNL     1       2.538  16.934   7.361  1.00  0.00     0.021 A 
ATOM      5  N   UNL     1       2.662  18.388   5.474  1.00  0.00    -0.264 NA
ATOM      6  C   UNL     1       2.458  18.211   6.806  1.00  0.00     0.111 A 
ENDROOT
BRANCH   1   7
ATOM      7  C   UNL     1       3.351  14.902   4.269  1.00  0.00     0.073 C 
ATOM      8  O   UNL     1       2.434  14.143   3.857  1.00  0.00    -0.545 OA
ATOM      9  O   UNL     1       4.660  14.654   3.873  1.00  0.00    -0.545 OA
ENDBRANCH   1   7
TORSDOF 1
ENDMDL
MODEL 6
REMARK VINA RESULT:    -3.459     19.271     20.241
REMARK INTER + INTRA:          -3.685
REMARK INTER:                  -3.666
REMARK INTRA:                  -0.019
REMARK UNBOUND:                -0.023
REMARK SMILES O=C([O-])c1cccnc1
REMARK SMILES IDX 4 1 5 2 9 3 6 4 8 5 7 6 2 7 1 8 3 9
REMARK H PARENT
REMARK Flexibility Score: inf
ROOT
ATOM      1  C   UNL     1       3.499  15.080   3.775  1.00  0.00     0.016 A 
ATOM      2  C   UNL     1       2.838  13.864   3.533  1.00  0.00     0.013 A 
ATOM      3  C   UNL     1       4.557  15.445   2.925  1.00  0.00     0.120 A 
ATOM      4  C   UNL     1       3.233  13.050   2.471  1.00  0.00     0.021 A 
ATOM      5  N   UNL     1       4.924  14.633   1.898  1.00  0.00    -0.264 NA
ATOM      6  C   UNL     1       4.290  13.455   1.655  1.00  0.00     0.111 A 
ENDROOT
BRANCH   1   7
ATOM      7  C   UNL     1       3.095  15.957   4.895  1.00  0.00     0.073 C 
ATOM      8  O   UNL     1       2.955  15.489   6.057  1.00  0.00    -0.545 OA
ATOM      9  O   UNL     1       2.864  17.311   4.681  1.00  0.00    -0.545 OA
ENDBRANCH   1   7
TORSDOF 1
ENDMDL
MODEL 7
REMARK VINA RESULT:    -3.430      2.961      3.599
REMARK INTER + INTRA:          -3.654
REMARK INTER:                  -3.634
REMARK INTRA:                  -0.020
REMARK UNBOUND:                -0.023
REMARK SMILES O=C([O-])c1cccnc1
REMARK SMILES IDX 4 1 5 2 9 3 6 4 8 5 7 6 2 7 1 8 3 9
REMARK H PARENT
REMARK Flexibility Score: inf
ROOT
ATOM      1  C   UNL     1      15.782  16.379  18.468  1.00  0.00     0.016 A 
ATOM      2  C   UNL     1      15.351  16.463  19.803  1.00  0.00     0.013 A 
ATOM      3  C   UNL     1      16.379  15.183  18.034  1.00  0.00     0.120 A 
ATOM      4  C   UNL     1      15.519  15.378  20.664  1.00  0.00     0.021 A 
ATOM      5  N   UNL     1      16.531  14.140  18.893  1.00  0.00    -0.264 NA
ATOM      6  C   UNL     1      16.116  14.211  20.186  1.00  0.00     0.111 A 
ENDROOT
BRANCH   1   7
ATOM      7  C   UNL     1      15.614  17.518  17.540  1.00  0.00     0.073 C 
ATOM      8  O   UNL     1      16.546  17.854  16.763  1.00  0.00    -0.545 OA
ATOM      9  O   UNL     1      14.421  18.233  17.513  1.00  0.00    -0.545 OA
ENDBRANCH   1   7
TORSDOF 1
ENDMDL
MODEL 8
REMARK VINA RESULT:    -3.389      2.085      2.909
REMARK INTER + INTRA:          -3.611
REMARK INTER:                  -3.587
REMARK INTRA:                  -0.024
REMARK UNBOUND:                -0.023
REMARK SMILES O=C([O-])c1cccnc1
REMARK SMILES IDX 4 1 5 2 9 3 6 4 8 5 7 6 2 7 1 8 3 9
REMARK H PARENT
REMARK Flexibility Score: inf
ROOT
ATOM      1  C   UNL     1      16.364  15.458  18.412  1.00  0.00     0.016 A 
ATOM      2  C   UNL     1      15.571  16.615  18.497  1.00  0.00     0.013 A 
ATOM      3  C   UNL     1      16.394  14.588  19.514  1.00  0.00     0.120 A 
ATOM      4  C   UNL     1      14.837  16.879  19.655  1.00  0.00     0.021 A 
ATOM      5  N   UNL     1      15.671  14.868  20.631  1.00  0.00    -0.264 NA
ATOM      6  C   UNL     1      14.900  15.984  20.723  1.00  0.00     0.111 A 
ENDROOT
BRANCH   1   7
ATOM      7  C   UNL     1      17.149  15.161  17.194  1.00  0.00     0.073 C 
ATOM      8  O   UNL     1      17.864  14.127  17.129  1.00  0.00    -0.545 OA
ATOM      9  O   UNL     1      17.105  16.021  16.102  1.00  0.00    -0.545 OA
ENDBRANCH   1   7
TORSDOF 1
ENDMDL
MODEL 9
REMARK VINA RESULT:    -3.367      3.227      4.052
REMARK INTER + INTRA:          -3.587
REMARK INTER:                  -3.564
REMARK INTRA:                  -0.023
REMARK UNBOUND:                -0.023
REMARK SMILES O=C([O-])c1cccnc1
REMARK SMILES IDX 4 1 5 2 9 3 6 4 8 5 7 6 2 7 1 8 3 9
REMARK H PARENT
REMARK Flexibility Score: inf
ROOT
ATOM      1  C   UNL     1      13.941  17.453  19.844  1.00  0.00     0.016 A 
ATOM      2  C   UNL     1      14.415  16.802  20.997  1.00  0.00     0.013 A 
ATOM      3  C   UNL     1      14.359  16.977  18.590  1.00  0.00     0.120 A 
ATOM      4  C   UNL     1      15.278  15.712  20.881  1.00  0.00     0.021 A 
ATOM      5  N   UNL     1      15.201  15.913  18.505  1.00  0.00    -0.264 NA
ATOM      6  C   UNL     1      15.664  15.276  19.613  1.00  0.00     0.111 A 
ENDROOT
BRANCH   1   7
ATOM      7  C   UNL     1      13.026  18.610  19.946  1.00  0.00     0.073 C 
ATOM      8  O   UNL     1      12.976  19.297  21.001  1.00  0.00    -0.545 OA
ATOM      9  O   UNL     1      12.208  18.957  18.876  1.00  0.00    -0.545 OA
ENDBRANCH   1   7
TORSDOF 1
ENDMDL
