MODEL 1
REMARK VINA RESULT:    -6.210      0.000      0.000
REMARK INTER + INTRA:          -7.041
REMARK INTER:                  -6.755
REMARK INTRA:                  -0.286
REMARK UNBOUND:                -0.286
REMARK SMILES CC1=CCC[C@@]2(C)CC[C@H](C(C)(C)O)C[C@@H]12
REMARK SMILES IDX 11 1 12 2 13 3 10 4 1 5 2 6 3 7 16 8 4 9 6 10 15 11 5 12
REMARK SMILES IDX 7 13 8 14 9 15 14 16
REMARK H PARENT 14 17
REMARK Flexibility Score: inf
ROOT
ATOM      1  C   UNL     1     112.864 119.031 126.142  1.00  0.00     0.062 C 
ATOM      2  C   UNL     1     111.959 118.269 125.145  1.00  0.00     0.042 C 
ATOM      3  C   UNL     1     113.834 118.024 126.791  1.00  0.00     0.042 C 
ENDROOT
BRANCH   1   4
ATOM      4  C   UNL     1     113.616 120.214 125.424  1.00  0.00     0.021 C 
ATOM      5  C   UNL     1     111.153 120.264 121.559  1.00  0.00     0.039 C 
ATOM      6  C   UNL     1     112.503 120.914 121.731  1.00  0.00    -0.074 C 
ATOM      7  C   UNL     1     112.837 121.918 120.895  1.00  0.00    -0.028 C 
ATOM      8  C   UNL     1     113.418 120.442 122.857  1.00  0.00     0.021 C 
ATOM      9  C   UNL     1     114.197 122.556 120.869  1.00  0.00     0.028 C 
ATOM     10  C   UNL     1     114.910 120.912 122.704  1.00  0.00    -0.026 C 
ATOM     11  C   UNL     1     112.839 120.854 124.230  1.00  0.00     0.015 C 
ATOM     12  C   UNL     1     114.955 122.373 122.184  1.00  0.00     0.011 C 
ATOM     13  C   UNL     1     115.638 119.974 121.708  1.00  0.00     0.012 C 
ATOM     14  C   UNL     1     115.668 120.864 124.073  1.00  0.00     0.008 C 
ATOM     15  C   UNL     1     115.070 119.833 125.034  1.00  0.00     0.007 C 
ENDBRANCH   1   4
BRANCH   1  16
ATOM     16  O   UNL     1     112.047 119.545 127.170  1.00  0.00    -0.390 OA
ATOM     17  H   UNL     1     111.102 119.340 126.944  1.00  0.00     0.211 HD
ENDBRANCH   1  16
TORSDOF 2
ENDMDL
MODEL 2
REMARK VINA RESULT:    -5.801     13.001     15.488
REMARK INTER + INTRA:          -6.596
REMARK INTER:                  -6.328
REMARK INTRA:                  -0.268
REMARK UNBOUND:                -0.286
REMARK SMILES CC1=CCC[C@@]2(C)CC[C@H](C(C)(C)O)C[C@@H]12
REMARK SMILES IDX 11 1 12 2 13 3 10 4 1 5 2 6 3 7 16 8 4 9 6 10 15 11 5 12
REMARK SMILES IDX 7 13 8 14 9 15 14 16
REMARK H PARENT 14 17
REMARK Flexibility Score: inf
ROOT
ATOM      1  C   UNL     1     127.322 121.631 114.978  1.00  0.00     0.062 C 
ATOM      2  C   UNL     1     127.585 123.131 115.251  1.00  0.00     0.042 C 
ATOM      3  C   UNL     1     126.836 120.973 116.285  1.00  0.00     0.042 C 
ENDROOT
BRANCH   1   4
ATOM      4  C   UNL     1     126.297 121.448 113.796  1.00  0.00     0.021 C 
ATOM      5  C   UNL     1     122.829 119.717 116.242  1.00  0.00     0.039 C 
ATOM      6  C   UNL     1     122.953 119.633 114.741  1.00  0.00    -0.074 C 
ATOM      7  C   UNL     1     121.831 119.442 114.019  1.00  0.00    -0.028 C 
ATOM      8  C   UNL     1     124.326 119.803 114.098  1.00  0.00     0.021 C 
ATOM      9  C   UNL     1     121.831 119.204 112.536  1.00  0.00     0.028 C 
ATOM     10  C   UNL     1     124.392 119.326 112.602  1.00  0.00    -0.026 C 
ATOM     11  C   UNL     1     124.812 121.264 114.242  1.00  0.00     0.015 C 
ATOM     12  C   UNL     1     123.094 119.735 111.858  1.00  0.00     0.011 C 
ATOM     13  C   UNL     1     124.558 117.785 112.568  1.00  0.00     0.012 C 
ATOM     14  C   UNL     1     125.604 119.970 111.849  1.00  0.00     0.008 C 
ATOM     15  C   UNL     1     126.746 120.348 112.797  1.00  0.00     0.007 C 
ENDBRANCH   1   4
BRANCH   1  16
ATOM     16  O   UNL     1     128.549 121.026 114.638  1.00  0.00    -0.390 OA
ATOM     17  H   UNL     1     128.493 120.063 114.877  1.00  0.00     0.211 HD
ENDBRANCH   1  16
TORSDOF 2
ENDMDL
MODEL 3
REMARK VINA RESULT:    -5.732      1.528      2.849
REMARK INTER + INTRA:          -6.520
REMARK INTER:                  -6.308
REMARK INTRA:                  -0.213
REMARK UNBOUND:                -0.286
REMARK SMILES CC1=CCC[C@@]2(C)CC[C@H](C(C)(C)O)C[C@@H]12
REMARK SMILES IDX 11 1 12 2 13 3 10 4 1 5 2 6 3 7 16 8 4 9 6 10 15 11 5 12
REMARK SMILES IDX 7 13 8 14 9 15 14 16
REMARK H PARENT 14 17
REMARK Flexibility Score: inf
ROOT
ATOM      1  C   UNL     1     112.872 119.668 125.188  1.00  0.00     0.062 C 
ATOM      2  C   UNL     1     111.993 118.410 124.993  1.00  0.00     0.042 C 
ATOM      3  C   UNL     1     113.693 119.497 126.482  1.00  0.00     0.042 C 
ENDROOT
BRANCH   1   4
ATOM      4  C   UNL     1     113.782 119.917 123.927  1.00  0.00     0.021 C 
ATOM      5  C   UNL     1     114.495 124.402 124.549  1.00  0.00     0.039 C 
ATOM      6  C   UNL     1     114.733 123.661 123.257  1.00  0.00    -0.074 C 
ATOM      7  C   UNL     1     115.590 124.196 122.365  1.00  0.00    -0.028 C 
ATOM      8  C   UNL     1     114.031 122.327 123.024  1.00  0.00     0.021 C 
ATOM      9  C   UNL     1     115.811 123.635 120.989  1.00  0.00     0.028 C 
ATOM     10  C   UNL     1     114.052 121.848 121.528  1.00  0.00    -0.026 C 
ATOM     11  C   UNL     1     114.605 121.244 123.966  1.00  0.00     0.015 C 
ATOM     12  C   UNL     1     115.433 122.157 120.892  1.00  0.00     0.011 C 
ATOM     13  C   UNL     1     112.934 122.583 120.745  1.00  0.00     0.012 C 
ATOM     14  C   UNL     1     113.803 120.306 121.416  1.00  0.00     0.008 C 
ATOM     15  C   UNL     1     112.996 119.759 122.597  1.00  0.00     0.007 C 
ENDBRANCH   1   4
BRANCH   1  16
ATOM     16  O   UNL     1     112.018 120.774 125.381  1.00  0.00    -0.390 OA
ATOM     17  H   UNL     1     112.437 121.565 124.948  1.00  0.00     0.211 HD
ENDBRANCH   1  16
TORSDOF 2
ENDMDL
MODEL 4
REMARK VINA RESULT:    -5.684     12.306     14.849
REMARK INTER + INTRA:          -6.468
REMARK INTER:                  -6.093
REMARK INTRA:                  -0.375
REMARK UNBOUND:                -0.286
REMARK SMILES CC1=CCC[C@@]2(C)CC[C@H](C(C)(C)O)C[C@@H]12
REMARK SMILES IDX 11 1 12 2 13 3 10 4 1 5 2 6 3 7 16 8 4 9 6 10 15 11 5 12
REMARK SMILES IDX 7 13 8 14 9 15 14 16
REMARK H PARENT 14 17
REMARK Flexibility Score: inf
ROOT
ATOM      1  C   UNL     1     121.339 118.001 114.108  1.00  0.00     0.062 C 
ATOM      2  C   UNL     1     121.750 116.771 114.953  1.00  0.00     0.042 C 
ATOM      3  C   UNL     1     120.937 119.141 115.066  1.00  0.00     0.042 C 
ENDROOT
BRANCH   1   4
ATOM      4  C   UNL     1     122.499 118.420 113.128  1.00  0.00     0.021 C 
ATOM      5  C   UNL     1     125.915 118.449 116.184  1.00  0.00     0.039 C 
ATOM      6  C   UNL     1     125.964 119.108 114.828  1.00  0.00    -0.074 C 
ATOM      7  C   UNL     1     127.172 119.345 114.279  1.00  0.00    -0.028 C 
ATOM      8  C   UNL     1     124.657 119.444 114.116  1.00  0.00     0.021 C 
ATOM      9  C   UNL     1     127.365 120.115 113.003  1.00  0.00     0.028 C 
ATOM     10  C   UNL     1     124.824 120.448 112.918  1.00  0.00    -0.026 C 
ATOM     11  C   UNL     1     123.939 118.150 113.668  1.00  0.00     0.015 C 
ATOM     12  C   UNL     1     126.115 120.115 112.124  1.00  0.00     0.011 C 
ATOM     13  C   UNL     1     124.903 121.892 113.474  1.00  0.00     0.012 C 
ATOM     14  C   UNL     1     123.613 120.364 111.929  1.00  0.00     0.008 C 
ATOM     15  C   UNL     1     122.333 119.876 112.614  1.00  0.00     0.007 C 
ENDBRANCH   1   4
BRANCH   1  16
ATOM     16  O   UNL     1     120.192 117.658 113.364  1.00  0.00    -0.390 OA
ATOM     17  H   UNL     1     120.443 116.938 112.727  1.00  0.00     0.211 HD
ENDBRANCH   1  16
TORSDOF 2
ENDMDL
MODEL 5
REMARK VINA RESULT:    -5.593      2.203      3.682
REMARK INTER + INTRA:          -6.369
REMARK INTER:                  -6.053
REMARK INTRA:                  -0.316
REMARK UNBOUND:                -0.286
REMARK SMILES CC1=CCC[C@@]2(C)CC[C@H](C(C)(C)O)C[C@@H]12
REMARK SMILES IDX 11 1 12 2 13 3 10 4 1 5 2 6 3 7 16 8 4 9 6 10 15 11 5 12
REMARK SMILES IDX 7 13 8 14 9 15 14 16
REMARK H PARENT 14 17
REMARK Flexibility Score: inf
ROOT
ATOM      1  C   UNL     1     113.551 120.244 123.954  1.00  0.00     0.062 C 
ATOM      2  C   UNL     1     114.895 119.941 124.658  1.00  0.00     0.042 C 
ATOM      3  C   UNL     1     112.426 120.209 125.008  1.00  0.00     0.042 C 
ENDROOT
BRANCH   1   4
ATOM      4  C   UNL     1     113.617 121.620 123.191  1.00  0.00     0.021 C 
ATOM      5  C   UNL     1     117.112 120.617 120.400  1.00  0.00     0.039 C 
ATOM      6  C   UNL     1     116.613 122.010 120.691  1.00  0.00    -0.074 C 
ATOM      7  C   UNL     1     116.880 122.982 119.796  1.00  0.00    -0.028 C 
ATOM      8  C   UNL     1     115.798 122.259 121.957  1.00  0.00     0.021 C 
ATOM      9  C   UNL     1     116.562 124.432 120.029  1.00  0.00     0.028 C 
ATOM     10  C   UNL     1     115.663 123.777 122.340  1.00  0.00    -0.026 C 
ATOM     11  C   UNL     1     114.411 121.584 121.846  1.00  0.00     0.015 C 
ATOM     12  C   UNL     1     115.452 124.630 121.061  1.00  0.00     0.011 C 
ATOM     13  C   UNL     1     116.953 124.231 123.071  1.00  0.00     0.012 C 
ATOM     14  C   UNL     1     114.443 124.021 123.291  1.00  0.00     0.008 C 
ATOM     15  C   UNL     1     114.086 122.779 124.112  1.00  0.00     0.007 C 
ENDBRANCH   1   4
BRANCH   1  16
ATOM     16  O   UNL     1     113.294 119.206 123.035  1.00  0.00    -0.390 OA
ATOM     17  H   UNL     1     113.568 118.349 123.455  1.00  0.00     0.211 HD
ENDBRANCH   1  16
TORSDOF 2
ENDMDL
MODEL 6
REMARK VINA RESULT:    -5.565      4.262      5.952
REMARK INTER + INTRA:          -6.339
REMARK INTER:                  -6.019
REMARK INTRA:                  -0.320
REMARK UNBOUND:                -0.286
REMARK SMILES CC1=CCC[C@@]2(C)CC[C@H](C(C)(C)O)C[C@@H]12
REMARK SMILES IDX 11 1 12 2 13 3 10 4 1 5 2 6 3 7 16 8 4 9 6 10 15 11 5 12
REMARK SMILES IDX 7 13 8 14 9 15 14 16
REMARK H PARENT 14 17
REMARK Flexibility Score: inf
ROOT
ATOM      1  C   UNL     1     115.101 126.065 125.299  1.00  0.00     0.062 C 
ATOM      2  C   UNL     1     116.054 127.071 124.610  1.00  0.00     0.042 C 
ATOM      3  C   UNL     1     113.880 126.837 125.838  1.00  0.00     0.042 C 
ENDROOT
BRANCH   1   4
ATOM      4  C   UNL     1     114.694 124.911 124.308  1.00  0.00     0.021 C 
ATOM      5  C   UNL     1     118.887 123.213 123.571  1.00  0.00     0.039 C 
ATOM      6  C   UNL     1     117.683 122.943 122.706  1.00  0.00    -0.074 C 
ATOM      7  C   UNL     1     117.685 121.833 121.941  1.00  0.00    -0.028 C 
ATOM      8  C   UNL     1     116.500 123.905 122.755  1.00  0.00     0.021 C 
ATOM      9  C   UNL     1     116.614 121.518 120.935  1.00  0.00     0.028 C 
ATOM     10  C   UNL     1     115.492 123.738 121.560  1.00  0.00    -0.026 C 
ATOM     11  C   UNL     1     115.776 123.801 124.117  1.00  0.00     0.015 C 
ATOM     12  C   UNL     1     115.297 122.232 121.239  1.00  0.00     0.011 C 
ATOM     13  C   UNL     1     116.052 124.476 120.317  1.00  0.00     0.012 C 
ATOM     14  C   UNL     1     114.090 124.343 121.906  1.00  0.00     0.008 C 
ATOM     15  C   UNL     1     114.178 125.460 122.950  1.00  0.00     0.007 C 
ENDBRANCH   1   4
BRANCH   1  16
ATOM     16  O   UNL     1     115.772 125.517 126.412  1.00  0.00    -0.390 OA
ATOM     17  H   UNL     1     115.728 126.178 127.153  1.00  0.00     0.211 HD
ENDBRANCH   1  16
TORSDOF 2
ENDMDL
MODEL 7
REMARK VINA RESULT:    -5.561     12.914     14.592
REMARK INTER + INTRA:          -6.335
REMARK INTER:                  -5.965
REMARK INTRA:                  -0.370
REMARK UNBOUND:                -0.286
REMARK SMILES CC1=CCC[C@@]2(C)CC[C@H](C(C)(C)O)C[C@@H]12
REMARK SMILES IDX 11 1 12 2 13 3 10 4 1 5 2 6 3 7 16 8 4 9 6 10 15 11 5 12
REMARK SMILES IDX 7 13 8 14 9 15 14 16
REMARK H PARENT 14 17
REMARK Flexibility Score: inf
ROOT
ATOM      1  C   UNL     1     125.995 119.858 116.957  1.00  0.00     0.062 C 
ATOM      2  C   UNL     1     124.818 119.584 117.923  1.00  0.00     0.042 C 
ATOM      3  C   UNL     1     126.629 118.508 116.562  1.00  0.00     0.042 C 
ENDROOT
BRANCH   1   4
ATOM      4  C   UNL     1     125.513 120.685 115.706  1.00  0.00     0.021 C 
ATOM      5  C   UNL     1     122.053 117.953 114.451  1.00  0.00     0.039 C 
ATOM      6  C   UNL     1     122.686 119.003 113.573  1.00  0.00    -0.074 C 
ATOM      7  C   UNL     1     121.965 119.490 112.543  1.00  0.00    -0.028 C 
ATOM      8  C   UNL     1     124.090 119.500 113.901  1.00  0.00     0.021 C 
ATOM      9  C   UNL     1     122.523 120.434 111.515  1.00  0.00     0.028 C 
ATOM     10  C   UNL     1     124.777 120.290 112.729  1.00  0.00    -0.026 C 
ATOM     11  C   UNL     1     124.076 120.333 115.205  1.00  0.00     0.015 C 
ATOM     12  C   UNL     1     123.739 121.205 112.027  1.00  0.00     0.011 C 
ATOM     13  C   UNL     1     125.364 119.278 111.712  1.00  0.00     0.012 C 
ATOM     14  C   UNL     1     125.941 121.196 113.254  1.00  0.00     0.008 C 
ATOM     15  C   UNL     1     126.553 120.664 114.554  1.00  0.00     0.007 C 
ENDBRANCH   1   4
BRANCH   1  16
ATOM     16  O   UNL     1     126.976 120.589 117.658  1.00  0.00    -0.390 OA
ATOM     17  H   UNL     1     126.653 121.524 117.753  1.00  0.00     0.211 HD
ENDBRANCH   1  16
TORSDOF 2
ENDMDL
MODEL 8
REMARK VINA RESULT:    -5.535     13.752     16.230
REMARK INTER + INTRA:          -6.306
REMARK INTER:                  -5.999
REMARK INTRA:                  -0.307
REMARK UNBOUND:                -0.286
REMARK SMILES CC1=CCC[C@@]2(C)CC[C@H](C(C)(C)O)C[C@@H]12
REMARK SMILES IDX 11 1 12 2 13 3 10 4 1 5 2 6 3 7 16 8 4 9 6 10 15 11 5 12
REMARK SMILES IDX 7 13 8 14 9 15 14 16
REMARK H PARENT 14 17
REMARK Flexibility Score: inf
ROOT
ATOM      1  C   UNL     1     127.880 117.747 113.633  1.00  0.00     0.062 C 
ATOM      2  C   UNL     1     127.777 117.929 115.166  1.00  0.00     0.042 C 
ATOM      3  C   UNL     1     128.758 116.513 113.344  1.00  0.00     0.042 C 
ENDROOT
BRANCH   1   4
ATOM      4  C   UNL     1     126.449 117.633 112.985  1.00  0.00     0.021 C 
ATOM      5  C   UNL     1     125.562 122.117 112.642  1.00  0.00     0.039 C 
ATOM      6  C   UNL     1     124.527 121.023 112.556  1.00  0.00    -0.074 C 
ATOM      7  C   UNL     1     123.367 121.293 111.925  1.00  0.00    -0.028 C 
ATOM      8  C   UNL     1     124.843 119.652 113.146  1.00  0.00     0.021 C 
ATOM      9  C   UNL     1     122.204 120.342 111.889  1.00  0.00     0.028 C 
ATOM     10  C   UNL     1     123.581 118.734 113.335  1.00  0.00    -0.026 C 
ATOM     11  C   UNL     1     125.932 118.942 112.309  1.00  0.00     0.015 C 
ATOM     12  C   UNL     1     122.625 118.892 112.123  1.00  0.00     0.011 C 
ATOM     13  C   UNL     1     122.851 119.138 114.641  1.00  0.00     0.012 C 
ATOM     14  C   UNL     1     123.983 117.224 113.439  1.00  0.00     0.008 C 
ATOM     15  C   UNL     1     125.407 117.035 113.969  1.00  0.00     0.007 C 
ENDBRANCH   1   4
BRANCH   1  16
ATOM     16  O   UNL     1     128.551 118.869 113.103  1.00  0.00    -0.390 OA
ATOM     17  H   UNL     1     129.209 119.181 113.779  1.00  0.00     0.211 HD
ENDBRANCH   1  16
TORSDOF 2
ENDMDL
MODEL 9
REMARK VINA RESULT:    -5.444      1.998      4.129
REMARK INTER + INTRA:          -6.207
REMARK INTER:                  -5.901
REMARK INTRA:                  -0.306
REMARK UNBOUND:                -0.286
REMARK SMILES CC1=CCC[C@@]2(C)CC[C@H](C(C)(C)O)C[C@@H]12
REMARK SMILES IDX 11 1 12 2 13 3 10 4 1 5 2 6 3 7 16 8 4 9 6 10 15 11 5 12
REMARK SMILES IDX 7 13 8 14 9 15 14 16
REMARK H PARENT 14 17
REMARK Flexibility Score: inf
ROOT
ATOM      1  C   UNL     1     113.322 120.046 123.581  1.00  0.00     0.062 C 
ATOM      2  C   UNL     1     113.065 121.119 124.666  1.00  0.00     0.042 C 
ATOM      3  C   UNL     1     112.052 119.184 123.433  1.00  0.00     0.042 C 
ENDROOT
BRANCH   1   4
ATOM      4  C   UNL     1     113.757 120.715 122.223  1.00  0.00     0.021 C 
ATOM      5  C   UNL     1     117.218 123.240 123.852  1.00  0.00     0.039 C 
ATOM      6  C   UNL     1     116.545 123.455 122.520  1.00  0.00    -0.074 C 
ATOM      7  C   UNL     1     117.229 124.110 121.560  1.00  0.00    -0.028 C 
ATOM      8  C   UNL     1     115.144 122.895 122.295  1.00  0.00     0.021 C 
ATOM      9  C   UNL     1     116.628 124.509 120.242  1.00  0.00     0.028 C 
ATOM     10  C   UNL     1     114.412 123.495 121.040  1.00  0.00    -0.026 C 
ATOM     11  C   UNL     1     115.183 121.351 122.234  1.00  0.00     0.015 C 
ATOM     12  C   UNL     1     115.416 123.657 119.868  1.00  0.00     0.011 C 
ATOM     13  C   UNL     1     113.811 124.874 121.415  1.00  0.00     0.012 C 
ATOM     14  C   UNL     1     113.250 122.564 120.555  1.00  0.00     0.008 C 
ATOM     15  C   UNL     1     112.684 121.702 121.687  1.00  0.00     0.007 C 
ENDBRANCH   1   4
BRANCH   1  16
ATOM     16  O   UNL     1     114.351 119.197 124.040  1.00  0.00    -0.390 OA
ATOM     17  H   UNL     1     114.650 119.529 124.927  1.00  0.00     0.211 HD
ENDBRANCH   1  16
TORSDOF 2
ENDMDL
