MODEL 1
REMARK VINA RESULT:    -5.331      0.000      0.000
REMARK INTER + INTRA:          -7.035
REMARK INTER:                  -6.889
REMARK INTRA:                  -0.146
REMARK UNBOUND:                -0.146
REMARK SMILES CCO[C@H]1O[C@@H](CO)[C@H](O)[C@H](O)[C@H]1O
REMARK SMILES IDX 4 1 13 2 11 3 9 4 6 5 5 6 3 7 2 8 1 9 14 10 12 12 7 14 8 15
REMARK SMILES IDX 10 17
REMARK H PARENT 14 11 12 13 8 16 10 18
REMARK Flexibility Score: inf
ROOT
ATOM      1  C   UNL     1      29.848  10.152  29.962  1.00  0.00     0.281 C 
ATOM      2  C   UNL     1      30.680  10.508  28.687  1.00  0.00     0.202 C 
ATOM      3  C   UNL     1      30.810   9.281  27.764  1.00  0.00     0.179 C 
ATOM      4  C   UNL     1      31.358   8.053  28.534  1.00  0.00     0.177 C 
ATOM      5  C   UNL     1      30.825   8.031  29.993  1.00  0.00     0.178 C 
ATOM      6  O   UNL     1      29.610   8.753  30.101  1.00  0.00    -0.341 OA
ENDROOT
BRANCH   1   7
ATOM      7  O   UNL     1      28.636  10.893  30.037  1.00  0.00    -0.350 OA
BRANCH   7   8
ATOM      8  C   UNL     1      28.607  11.765  31.152  1.00  0.00     0.160 C 
ATOM      9  C   UNL     1      27.286  12.520  31.156  1.00  0.00     0.035 C 
ENDBRANCH   7   8
ENDBRANCH   1   7
BRANCH   2  10
ATOM     10  O   UNL     1      30.107  11.575  27.974  1.00  0.00    -0.385 OA
ATOM     11  H   UNL     1      29.856  12.263  28.645  1.00  0.00     0.211 HD
ENDBRANCH   2  10
BRANCH   3  12
ATOM     12  O   UNL     1      31.584   9.565  26.624  1.00  0.00    -0.387 OA
ATOM     13  H   UNL     1      31.613  10.552  26.509  1.00  0.00     0.211 HD
ENDBRANCH   3  12
BRANCH   5  14
ATOM     14  C   UNL     1      30.603   6.595  30.493  1.00  0.00     0.191 C 
BRANCH  14  15
ATOM     15  O   UNL     1      29.250   6.232  30.413  1.00  0.00    -0.394 OA
ATOM     16  H   UNL     1      28.723   7.069  30.501  1.00  0.00     0.210 HD
ENDBRANCH  14  15
ENDBRANCH   5  14
BRANCH   4  17
ATOM     17  O   UNL     1      32.764   8.071  28.569  1.00  0.00    -0.387 OA
ATOM     18  H   UNL     1      33.078   8.292  27.653  1.00  0.00     0.211 HD
ENDBRANCH   4  17
TORSDOF 7
ENDMDL
MODEL 2
REMARK VINA RESULT:    -5.107      2.097      4.359
REMARK INTER + INTRA:          -6.746
REMARK INTER:                  -6.342
REMARK INTRA:                  -0.404
REMARK UNBOUND:                -0.146
REMARK SMILES CCO[C@H]1O[C@@H](CO)[C@H](O)[C@H](O)[C@H]1O
REMARK SMILES IDX 4 1 13 2 11 3 9 4 6 5 5 6 3 7 2 8 1 9 14 10 12 12 7 14 8 15
REMARK SMILES IDX 10 17
REMARK H PARENT 14 11 12 13 8 16 10 18
REMARK Flexibility Score: inf
ROOT
ATOM      1  C   UNL     1      32.318   8.588  30.284  1.00  0.00     0.281 C 
ATOM      2  C   UNL     1      32.535   8.320  28.759  1.00  0.00     0.202 C 
ATOM      3  C   UNL     1      31.874   9.427  27.914  1.00  0.00     0.179 C 
ATOM      4  C   UNL     1      30.385   9.616  28.300  1.00  0.00     0.177 C 
ATOM      5  C   UNL     1      30.176   9.399  29.824  1.00  0.00     0.178 C 
ATOM      6  O   UNL     1      31.378   9.629  30.540  1.00  0.00    -0.341 OA
ENDROOT
BRANCH   1   7
ATOM      7  O   UNL     1      33.542   8.816  30.970  1.00  0.00    -0.350 OA
BRANCH   7   8
ATOM      8  C   UNL     1      33.798   7.832  31.956  1.00  0.00     0.160 C 
ATOM      9  C   UNL     1      35.153   7.197  31.682  1.00  0.00     0.035 C 
ENDBRANCH   7   8
ENDBRANCH   1   7
BRANCH   2  10
ATOM     10  O   UNL     1      33.901   8.234  28.437  1.00  0.00    -0.385 OA
ATOM     11  H   UNL     1      34.400   8.313  29.291  1.00  0.00     0.211 HD
ENDBRANCH   2  10
BRANCH   3  12
ATOM     12  O   UNL     1      32.027   9.192  26.535  1.00  0.00    -0.387 OA
ATOM     13  H   UNL     1      31.495   8.388  26.298  1.00  0.00     0.211 HD
ENDBRANCH   3  12
BRANCH   5  14
ATOM     14  C   UNL     1      29.075  10.316  30.380  1.00  0.00     0.191 C 
BRANCH  14  15
ATOM     15  O   UNL     1      28.112  10.604  29.401  1.00  0.00    -0.394 OA
ATOM     16  H   UNL     1      28.603  10.950  28.610  1.00  0.00     0.210 HD
ENDBRANCH  14  15
ENDBRANCH   5  14
BRANCH   4  17
ATOM     17  O   UNL     1      29.569   8.710  27.600  1.00  0.00    -0.387 OA
ATOM     18  H   UNL     1      29.815   7.797  27.905  1.00  0.00     0.211 HD
ENDBRANCH   4  17
TORSDOF 7
ENDMDL
MODEL 3
REMARK VINA RESULT:    -5.076      1.888      2.359
REMARK INTER + INTRA:          -6.705
REMARK INTER:                  -6.286
REMARK INTRA:                  -0.420
REMARK UNBOUND:                -0.146
REMARK SMILES CCO[C@H]1O[C@@H](CO)[C@H](O)[C@H](O)[C@H]1O
REMARK SMILES IDX 4 1 13 2 11 3 9 4 6 5 5 6 3 7 2 8 1 9 14 10 12 12 7 14 8 15
REMARK SMILES IDX 10 17
REMARK H PARENT 14 11 12 13 8 16 10 18
REMARK Flexibility Score: inf
ROOT
ATOM      1  C   UNL     1      30.720   9.786  29.496  1.00  0.00     0.281 C 
ATOM      2  C   UNL     1      31.374   9.618  28.085  1.00  0.00     0.202 C 
ATOM      3  C   UNL     1      32.173   8.303  28.011  1.00  0.00     0.179 C 
ATOM      4  C   UNL     1      33.187   8.193  29.177  1.00  0.00     0.177 C 
ATOM      5  C   UNL     1      32.611   8.825  30.474  1.00  0.00     0.178 C 
ATOM      6  O   UNL     1      31.194   8.836  30.448  1.00  0.00    -0.341 OA
ENDROOT
BRANCH   1   7
ATOM      7  O   UNL     1      29.299   9.791  29.433  1.00  0.00    -0.350 OA
BRANCH   7   8
ATOM      8  C   UNL     1      28.738  10.949  30.023  1.00  0.00     0.160 C 
ATOM      9  C   UNL     1      28.402  11.951  28.929  1.00  0.00     0.035 C 
ENDBRANCH   7   8
ENDBRANCH   1   7
BRANCH   2  10
ATOM     10  O   UNL     1      30.412   9.645  27.061  1.00  0.00    -0.385 OA
ATOM     11  H   UNL     1      29.566   9.965  27.472  1.00  0.00     0.211 HD
ENDBRANCH   2  10
BRANCH   3  12
ATOM     12  O   UNL     1      32.799   8.143  26.761  1.00  0.00    -0.387 OA
ATOM     13  H   UNL     1      32.251   7.517  26.218  1.00  0.00     0.211 HD
ENDBRANCH   3  12
BRANCH   5  14
ATOM     14  C   UNL     1      33.086   8.075  31.728  1.00  0.00     0.191 C 
BRANCH  14  15
ATOM     15  O   UNL     1      34.409   7.631  31.583  1.00  0.00    -0.394 OA
ATOM     16  H   UNL     1      34.490   7.266  30.663  1.00  0.00     0.210 HD
ENDBRANCH  14  15
ENDBRANCH   5  14
BRANCH   4  17
ATOM     17  O   UNL     1      34.391   8.845  28.855  1.00  0.00    -0.387 OA
ATOM     18  H   UNL     1      34.181   9.809  28.740  1.00  0.00     0.211 HD
ENDBRANCH   4  17
TORSDOF 7
ENDMDL
MODEL 4
REMARK VINA RESULT:    -4.932      2.106      3.742
REMARK INTER + INTRA:          -6.520
REMARK INTER:                  -6.120
REMARK INTRA:                  -0.399
REMARK UNBOUND:                -0.146
REMARK SMILES CCO[C@H]1O[C@@H](CO)[C@H](O)[C@H](O)[C@H]1O
REMARK SMILES IDX 4 1 13 2 11 3 9 4 6 5 5 6 3 7 2 8 1 9 14 10 12 12 7 14 8 15
REMARK SMILES IDX 10 17
REMARK H PARENT 14 11 12 13 8 16 10 18
REMARK Flexibility Score: inf
ROOT
ATOM      1  C   UNL     1      30.848  10.985  30.928  1.00  0.00     0.281 C 
ATOM      2  C   UNL     1      29.460  11.584  30.527  1.00  0.00     0.202 C 
ATOM      3  C   UNL     1      28.718  10.636  29.564  1.00  0.00     0.179 C 
ATOM      4  C   UNL     1      29.602  10.263  28.348  1.00  0.00     0.177 C 
ATOM      5  C   UNL     1      31.094  10.137  28.765  1.00  0.00     0.178 C 
ATOM      6  O   UNL     1      31.212   9.849  30.148  1.00  0.00    -0.341 OA
ENDROOT
BRANCH   1   7
ATOM      7  O   UNL     1      30.931  10.706  32.320  1.00  0.00    -0.350 OA
BRANCH   7   8
ATOM      8  C   UNL     1      32.087  11.267  32.913  1.00  0.00     0.160 C 
ATOM      9  C   UNL     1      31.706  12.562  33.613  1.00  0.00     0.035 C 
ENDBRANCH   7   8
ENDBRANCH   1   7
BRANCH   2  10
ATOM     10  O   UNL     1      28.658  11.835  31.654  1.00  0.00    -0.385 OA
ATOM     11  H   UNL     1      28.152  11.000  31.834  1.00  0.00     0.211 HD
ENDBRANCH   2  10
BRANCH   3  12
ATOM     12  O   UNL     1      27.479  11.168  29.162  1.00  0.00    -0.387 OA
ATOM     13  H   UNL     1      26.862  11.138  29.940  1.00  0.00     0.211 HD
ENDBRANCH   3  12
BRANCH   5  14
ATOM     14  C   UNL     1      31.816   9.047  27.959  1.00  0.00     0.191 C 
BRANCH  14  15
ATOM     15  O   UNL     1      31.809   9.341  26.587  1.00  0.00    -0.394 OA
ATOM     16  H   UNL     1      32.154   8.536  26.119  1.00  0.00     0.210 HD
ENDBRANCH  14  15
ENDBRANCH   5  14
BRANCH   4  17
ATOM     17  O   UNL     1      29.498  11.236  27.337  1.00  0.00    -0.387 OA
ATOM     18  H   UNL     1      29.691  10.785  26.474  1.00  0.00     0.211 HD
ENDBRANCH   4  17
TORSDOF 7
ENDMDL
MODEL 5
REMARK VINA RESULT:    -4.917      2.098      4.513
REMARK INTER + INTRA:          -6.500
REMARK INTER:                  -6.147
REMARK INTRA:                  -0.353
REMARK UNBOUND:                -0.146
REMARK SMILES CCO[C@H]1O[C@@H](CO)[C@H](O)[C@H](O)[C@H]1O
REMARK SMILES IDX 4 1 13 2 11 3 9 4 6 5 5 6 3 7 2 8 1 9 14 10 12 12 7 14 8 15
REMARK SMILES IDX 10 17
REMARK H PARENT 14 11 12 13 8 16 10 18
REMARK Flexibility Score: inf
ROOT
ATOM      1  C   UNL     1      30.789   9.782  29.390  1.00  0.00     0.281 C 
ATOM      2  C   UNL     1      30.033   9.806  28.022  1.00  0.00     0.202 C 
ATOM      3  C   UNL     1      29.284  11.140  27.839  1.00  0.00     0.179 C 
ATOM      4  C   UNL     1      28.369  11.443  29.052  1.00  0.00     0.177 C 
ATOM      5  C   UNL     1      29.021  10.949  30.374  1.00  0.00     0.178 C 
ATOM      6  O   UNL     1      30.430  10.865  30.246  1.00  0.00    -0.341 OA
ENDROOT
BRANCH   1   7
ATOM      7  O   UNL     1      32.199   9.700  29.224  1.00  0.00    -0.350 OA
BRANCH   7   8
ATOM      8  C   UNL     1      32.773   8.667  30.003  1.00  0.00     0.160 C 
ATOM      9  C   UNL     1      34.286   8.709  29.846  1.00  0.00     0.035 C 
ENDBRANCH   7   8
ENDBRANCH   1   7
BRANCH   2  10
ATOM     10  O   UNL     1      30.910   9.606  26.941  1.00  0.00    -0.385 OA
ATOM     11  H   UNL     1      31.831   9.680  27.304  1.00  0.00     0.211 HD
ENDBRANCH   2  10
BRANCH   3  12
ATOM     12  O   UNL     1      28.567  11.174  26.628  1.00  0.00    -0.387 OA
ATOM     13  H   UNL     1      28.844  11.986  26.128  1.00  0.00     0.211 HD
ENDBRANCH   3  12
BRANCH   5  14
ATOM     14  C   UNL     1      28.676  11.871  31.554  1.00  0.00     0.191 C 
BRANCH  14  15
ATOM     15  O   UNL     1      27.325  12.248  31.526  1.00  0.00    -0.394 OA
ATOM     16  H   UNL     1      27.281  13.180  31.866  1.00  0.00     0.210 HD
ENDBRANCH  14  15
ENDBRANCH   5  14
BRANCH   4  17
ATOM     17  O   UNL     1      27.119  10.816  28.905  1.00  0.00    -0.387 OA
ATOM     18  H   UNL     1      26.998  10.625  27.938  1.00  0.00     0.211 HD
ENDBRANCH   4  17
TORSDOF 7
ENDMDL
MODEL 6
REMARK VINA RESULT:    -4.870      1.736      3.951
REMARK INTER + INTRA:          -6.439
REMARK INTER:                  -6.129
REMARK INTRA:                  -0.310
REMARK UNBOUND:                -0.146
REMARK SMILES CCO[C@H]1O[C@@H](CO)[C@H](O)[C@H](O)[C@H]1O
REMARK SMILES IDX 4 1 13 2 11 3 9 4 6 5 5 6 3 7 2 8 1 9 14 10 12 12 7 14 8 15
REMARK SMILES IDX 10 17
REMARK H PARENT 14 11 12 13 8 16 10 18
REMARK Flexibility Score: inf
ROOT
ATOM      1  C   UNL     1      29.869   8.863  30.369  1.00  0.00     0.281 C 
ATOM      2  C   UNL     1      30.351   8.661  28.895  1.00  0.00     0.202 C 
ATOM      3  C   UNL     1      30.539  10.020  28.194  1.00  0.00     0.179 C 
ATOM      4  C   UNL     1      29.265  10.895  28.310  1.00  0.00     0.177 C 
ATOM      5  C   UNL     1      28.567  10.677  29.681  1.00  0.00     0.178 C 
ATOM      6  O   UNL     1      29.487  10.208  30.652  1.00  0.00    -0.341 OA
ENDROOT
BRANCH   1   7
ATOM      7  O   UNL     1      30.816   8.384  31.315  1.00  0.00    -0.350 OA
BRANCH   7   8
ATOM      8  C   UNL     1      31.385   9.427  32.083  1.00  0.00     0.160 C 
ATOM      9  C   UNL     1      32.843   9.598  31.685  1.00  0.00     0.035 C 
ENDBRANCH   7   8
ENDBRANCH   1   7
BRANCH   2  10
ATOM     10  O   UNL     1      31.550   7.930  28.837  1.00  0.00    -0.385 OA
ATOM     11  H   UNL     1      32.284   8.573  29.016  1.00  0.00     0.211 HD
ENDBRANCH   2  10
BRANCH   3  12
ATOM     12  O   UNL     1      30.940   9.865  26.854  1.00  0.00    -0.387 OA
ATOM     13  H   UNL     1      30.231  10.246  26.273  1.00  0.00     0.211 HD
ENDBRANCH   3  12
BRANCH   5  14
ATOM     14  C   UNL     1      27.909  11.968  30.193  1.00  0.00     0.191 C 
BRANCH  14  15
ATOM     15  O   UNL     1      26.526  11.801  30.362  1.00  0.00    -0.394 OA
ATOM     16  H   UNL     1      26.242  12.452  31.056  1.00  0.00     0.210 HD
ENDBRANCH  14  15
ENDBRANCH   5  14
BRANCH   4  17
ATOM     17  O   UNL     1      28.352  10.587  27.286  1.00  0.00    -0.387 OA
ATOM     18  H   UNL     1      28.800   9.943  26.677  1.00  0.00     0.211 HD
ENDBRANCH   4  17
TORSDOF 7
ENDMDL
MODEL 7
REMARK VINA RESULT:    -4.788      2.364      2.876
REMARK INTER + INTRA:          -6.333
REMARK INTER:                  -5.950
REMARK INTRA:                  -0.383
REMARK UNBOUND:                -0.146
REMARK SMILES CCO[C@H]1O[C@@H](CO)[C@H](O)[C@H](O)[C@H]1O
REMARK SMILES IDX 4 1 13 2 11 3 9 4 6 5 5 6 3 7 2 8 1 9 14 10 12 12 7 14 8 15
REMARK SMILES IDX 10 17
REMARK H PARENT 14 11 12 13 8 16 10 18
REMARK Flexibility Score: inf
ROOT
ATOM      1  C   UNL     1      30.829  11.509  29.872  1.00  0.00     0.281 C 
ATOM      2  C   UNL     1      29.862  11.526  28.643  1.00  0.00     0.202 C 
ATOM      3  C   UNL     1      29.620  10.096  28.123  1.00  0.00     0.179 C 
ATOM      4  C   UNL     1      30.957   9.364  27.843  1.00  0.00     0.177 C 
ATOM      5  C   UNL     1      32.041   9.776  28.879  1.00  0.00     0.178 C 
ATOM      6  O   UNL     1      31.447  10.240  30.079  1.00  0.00    -0.341 OA
ENDROOT
BRANCH   1   7
ATOM      7  O   UNL     1      30.201  11.978  31.058  1.00  0.00    -0.350 OA
BRANCH   7   8
ATOM      8  C   UNL     1      31.121  12.163  32.118  1.00  0.00     0.160 C 
ATOM      9  C   UNL     1      31.996  13.368  31.811  1.00  0.00     0.035 C 
ENDBRANCH   7   8
ENDBRANCH   1   7
BRANCH   2  10
ATOM     10  O   UNL     1      28.632  12.127  28.960  1.00  0.00    -0.385 OA
ATOM     11  H   UNL     1      28.820  13.085  29.140  1.00  0.00     0.211 HD
ENDBRANCH   2  10
BRANCH   3  12
ATOM     12  O   UNL     1      28.778  10.086  26.995  1.00  0.00    -0.387 OA
ATOM     13  H   UNL     1      28.114  10.817  27.100  1.00  0.00     0.211 HD
ENDBRANCH   3  12
BRANCH   5  14
ATOM     14  C   UNL     1      32.986   8.609  29.203  1.00  0.00     0.191 C 
BRANCH  14  15
ATOM     15  O   UNL     1      33.628   8.139  28.047  1.00  0.00    -0.394 OA
ATOM     16  H   UNL     1      33.288   7.221  27.883  1.00  0.00     0.210 HD
ENDBRANCH  14  15
ENDBRANCH   5  14
BRANCH   4  17
ATOM     17  O   UNL     1      31.431   9.664  26.553  1.00  0.00    -0.387 OA
ATOM     18  H   UNL     1      30.806  10.328  26.158  1.00  0.00     0.211 HD
ENDBRANCH   4  17
TORSDOF 7
ENDMDL
MODEL 8
REMARK VINA RESULT:    -4.538      1.986      3.458
REMARK INTER + INTRA:          -6.011
REMARK INTER:                  -5.794
REMARK INTRA:                  -0.217
REMARK UNBOUND:                -0.146
REMARK SMILES CCO[C@H]1O[C@@H](CO)[C@H](O)[C@H](O)[C@H]1O
REMARK SMILES IDX 4 1 13 2 11 3 9 4 6 5 5 6 3 7 2 8 1 9 14 10 12 12 7 14 8 15
REMARK SMILES IDX 10 17
REMARK H PARENT 14 11 12 13 8 16 10 18
REMARK Flexibility Score: inf
ROOT
ATOM      1  C   UNL     1      30.781   8.576  30.530  1.00  0.00     0.281 C 
ATOM      2  C   UNL     1      32.241   8.132  30.190  1.00  0.00     0.202 C 
ATOM      3  C   UNL     1      32.870   9.086  29.155  1.00  0.00     0.179 C 
ATOM      4  C   UNL     1      31.965   9.238  27.906  1.00  0.00     0.177 C 
ATOM      5  C   UNL     1      30.463   9.202  28.303  1.00  0.00     0.178 C 
ATOM      6  O   UNL     1      30.285   9.586  29.655  1.00  0.00    -0.341 OA
ENDROOT
BRANCH   1   7
ATOM      7  O   UNL     1      30.638   8.956  31.894  1.00  0.00    -0.350 OA
BRANCH   7   8
ATOM      8  C   UNL     1      30.255  10.310  32.038  1.00  0.00     0.160 C 
ATOM      9  C   UNL     1      30.122  10.634  33.518  1.00  0.00     0.035 C 
ENDBRANCH   7   8
ENDBRANCH   1   7
BRANCH   2  10
ATOM     10  O   UNL     1      33.049   8.083  31.338  1.00  0.00    -0.385 OA
ATOM     11  H   UNL     1      33.962   7.838  31.034  1.00  0.00     0.211 HD
ENDBRANCH   2  10
BRANCH   3  12
ATOM     12  O   UNL     1      34.174   8.689  28.806  1.00  0.00    -0.387 OA
ATOM     13  H   UNL     1      34.335   7.787  29.188  1.00  0.00     0.211 HD
ENDBRANCH   3  12
BRANCH   5  14
ATOM     14  C   UNL     1      29.618  10.118  27.403  1.00  0.00     0.191 C 
BRANCH  14  15
ATOM     15  O   UNL     1      29.835  11.470  27.709  1.00  0.00    -0.394 OA
ATOM     16  H   UNL     1      28.960  11.929  27.615  1.00  0.00     0.210 HD
ENDBRANCH  14  15
ENDBRANCH   5  14
BRANCH   4  17
ATOM     17  O   UNL     1      32.212   8.207  26.982  1.00  0.00    -0.387 OA
ATOM     18  H   UNL     1      33.107   8.375  26.587  1.00  0.00     0.211 HD
ENDBRANCH   4  17
TORSDOF 7
ENDMDL
