MODEL 1
REMARK VINA RESULT:    -1.851      0.000      0.000
REMARK INTER + INTRA:          -3.254
REMARK INTER:                  -2.825
REMARK INTRA:                  -0.429
REMARK UNBOUND:                -0.429
REMARK SMILES C=CCCCCCCCCCC
REMARK SMILES IDX 7 1 8 2 9 3 10 4 11 5 12 6 6 7 5 8 4 9 3 10 2 11 1 12
REMARK H PARENT
REMARK Flexibility Score: inf
ROOT
ATOM      1  C   UNL     1      11.323   7.495  -5.935  1.00  0.00     0.000 C 
ENDROOT
BRANCH   1   2
ATOM      2  C   UNL     1       9.945   8.028  -6.383  1.00  0.00    -0.000 C 
BRANCH   2   3
ATOM      3  C   UNL     1       8.797   7.078  -6.002  1.00  0.00    -0.000 C 
BRANCH   3   4
ATOM      4  C   UNL     1       7.446   7.800  -5.875  1.00  0.00    -0.000 C 
BRANCH   4   5
ATOM      5  C   UNL     1       7.431   9.158  -6.593  1.00  0.00    -0.003 C 
ATOM      6  C   UNL     1       6.247  10.006  -6.137  1.00  0.00     0.004 C 
ENDBRANCH   4   5
ENDBRANCH   3   4
ENDBRANCH   2   3
ENDBRANCH   1   2
BRANCH   1   7
ATOM      7  C   UNL     1      12.397   7.550  -7.038  1.00  0.00     0.000 C 
BRANCH   7   8
ATOM      8  C   UNL     1      11.845   7.568  -8.476  1.00  0.00     0.000 C 
BRANCH   8   9
ATOM      9  C   UNL     1      12.893   7.849  -9.574  1.00  0.00     0.004 C 
BRANCH   9  10
ATOM     10  C   UNL     1      12.739   9.215 -10.267  1.00  0.00     0.027 C 
BRANCH  10  11
ATOM     11  C   UNL     1      13.728   9.414 -11.384  1.00  0.00    -0.035 C 
ATOM     12  C   UNL     1      14.805   8.635 -11.519  1.00  0.00     0.004 C 
ENDBRANCH  10  11
ENDBRANCH   9  10
ENDBRANCH   8   9
ENDBRANCH   7   8
ENDBRANCH   1   7
TORSDOF 9
ENDMDL
MODEL 2
REMARK VINA RESULT:    -1.402      0.401      6.624
REMARK INTER + INTRA:          -2.569
REMARK INTER:                  -2.186
REMARK INTRA:                  -0.383
REMARK UNBOUND:                -0.429
REMARK SMILES C=CCCCCCCCCCC
REMARK SMILES IDX 7 1 8 2 9 3 10 4 11 5 12 6 6 7 5 8 4 9 3 10 2 11 1 12
REMARK H PARENT
REMARK Flexibility Score: inf
ROOT
ATOM      1  C   UNL     1      12.062   7.818  -6.889  1.00  0.00     0.000 C 
ENDROOT
BRANCH   1   2
ATOM      2  C   UNL     1      11.957   7.446  -8.384  1.00  0.00    -0.000 C 
BRANCH   2   3
ATOM      3  C   UNL     1      13.143   7.979  -9.205  1.00  0.00    -0.000 C 
BRANCH   3   4
ATOM      4  C   UNL     1      12.777   9.214 -10.043  1.00  0.00    -0.000 C 
BRANCH   4   5
ATOM      5  C   UNL     1      13.435   9.204 -11.432  1.00  0.00    -0.003 C 
ATOM      6  C   UNL     1      14.702   8.354 -11.431  1.00  0.00     0.004 C 
ENDBRANCH   4   5
ENDBRANCH   3   4
ENDBRANCH   2   3
ENDBRANCH   1   2
BRANCH   1   7
ATOM      7  C   UNL     1      10.884   7.304  -6.038  1.00  0.00     0.000 C 
BRANCH   7   8
ATOM      8  C   UNL     1       9.504   7.850  -6.450  1.00  0.00     0.000 C 
BRANCH   8   9
ATOM      9  C   UNL     1       8.299   7.053  -5.907  1.00  0.00     0.004 C 
BRANCH   9  10
ATOM     10  C   UNL     1       6.972   7.832  -5.897  1.00  0.00     0.027 C 
BRANCH  10  11
ATOM     11  C   UNL     1       7.142   9.276  -6.287  1.00  0.00    -0.035 C 
ATOM     12  C   UNL     1       6.122  10.138  -6.259  1.00  0.00     0.004 C 
ENDBRANCH  10  11
ENDBRANCH   9  10
ENDBRANCH   8   9
ENDBRANCH   7   8
ENDBRANCH   1   7
TORSDOF 9
ENDMDL
MODEL 3
REMARK VINA RESULT:     0.608     10.764     13.143
REMARK INTER + INTRA:           0.499
REMARK INTER:                   0.986
REMARK INTRA:                  -0.487
REMARK UNBOUND:                -0.429
REMARK SMILES C=CCCCCCCCCCC
REMARK SMILES IDX 7 1 8 2 9 3 10 4 11 5 12 6 6 7 5 8 4 9 3 10 2 11 1 12
REMARK H PARENT
REMARK Flexibility Score: inf
ROOT
ATOM      1  C   UNL     1       0.672   6.171 -10.720  1.00  0.00     0.000 C 
ENDROOT
BRANCH   1   2
ATOM      2  C   UNL     1       1.087   5.070  -9.720  1.00  0.00    -0.000 C 
BRANCH   2   3
ATOM      3  C   UNL     1       0.867   5.494  -8.258  1.00  0.00    -0.000 C 
BRANCH   3   4
ATOM      4  C   UNL     1      -0.346   6.423  -8.086  1.00  0.00    -0.000 C 
BRANCH   4   5
ATOM      5  C   UNL     1      -0.099   7.535  -7.055  1.00  0.00    -0.003 C 
ATOM      6  C   UNL     1      -1.250   8.535  -7.042  1.00  0.00     0.004 C 
ENDBRANCH   4   5
ENDBRANCH   3   4
ENDBRANCH   2   3
ENDBRANCH   1   2
BRANCH   1   7
ATOM      7  C   UNL     1      -0.647   5.871 -11.458  1.00  0.00     0.000 C 
BRANCH   7   8
ATOM      8  C   UNL     1      -0.495   5.591 -12.965  1.00  0.00     0.000 C 
BRANCH   8   9
ATOM      9  C   UNL     1      -1.652   4.793 -13.601  1.00  0.00     0.004 C 
BRANCH   9  10
ATOM     10  C   UNL     1      -2.894   4.647 -12.704  1.00  0.00     0.027 C 
BRANCH  10  11
ATOM     11  C   UNL     1      -4.094   5.372 -13.251  1.00  0.00    -0.035 C 
ATOM     12  C   UNL     1      -4.115   6.702 -13.381  1.00  0.00     0.004 C 
ENDBRANCH  10  11
ENDBRANCH   9  10
ENDBRANCH   8   9
ENDBRANCH   7   8
ENDBRANCH   1   7
TORSDOF 9
ENDMDL
MODEL 4
REMARK VINA RESULT:     1.082     10.634     13.178
REMARK INTER + INTRA:           1.222
REMARK INTER:                   1.708
REMARK INTRA:                  -0.486
REMARK UNBOUND:                -0.429
REMARK SMILES C=CCCCCCCCCCC
REMARK SMILES IDX 7 1 8 2 9 3 10 4 11 5 12 6 6 7 5 8 4 9 3 10 2 11 1 12
REMARK H PARENT
REMARK Flexibility Score: inf
ROOT
ATOM      1  C   UNL     1       0.351   6.067 -10.874  1.00  0.00     0.000 C 
ENDROOT
BRANCH   1   2
ATOM      2  C   UNL     1      -1.089   5.672 -11.269  1.00  0.00    -0.000 C 
BRANCH   2   3
ATOM      3  C   UNL     1      -1.303   5.691 -12.792  1.00  0.00    -0.000 C 
BRANCH   3   4
ATOM      4  C   UNL     1      -2.250   4.579 -13.271  1.00  0.00    -0.000 C 
BRANCH   4   5
ATOM      5  C   UNL     1      -3.715   4.845 -12.893  1.00  0.00    -0.003 C 
ATOM      6  C   UNL     1      -4.122   6.272 -13.247  1.00  0.00     0.004 C 
ENDBRANCH   4   5
ENDBRANCH   3   4
ENDBRANCH   2   3
ENDBRANCH   1   2
BRANCH   1   7
ATOM      7  C   UNL     1       1.105   4.968 -10.102  1.00  0.00     0.000 C 
BRANCH   7   8
ATOM      8  C   UNL     1       1.157   5.169  -8.576  1.00  0.00     0.000 C 
BRANCH   8   9
ATOM      9  C   UNL     1       0.014   6.025  -7.991  1.00  0.00     0.004 C 
BRANCH   9  10
ATOM     10  C   UNL     1       0.479   7.302  -7.268  1.00  0.00     0.027 C 
BRANCH  10  11
ATOM     11  C   UNL     1      -0.643   8.276  -7.030  1.00  0.00    -0.035 C 
ATOM     12  C   UNL     1      -1.909   7.981  -7.337  1.00  0.00     0.004 C 
ENDBRANCH  10  11
ENDBRANCH   9  10
ENDBRANCH   8   9
ENDBRANCH   7   8
ENDBRANCH   1   7
TORSDOF 9
ENDMDL
