MODEL 1
REMARK VINA RESULT:    -2.806      0.000      0.000
REMARK INTER + INTRA:          -2.806
REMARK INTER:                  -2.806
REMARK INTRA:                   0.000
REMARK UNBOUND:                 0.000
REMARK SMILES c1cc[nH]c1
REMARK SMILES IDX 1 1 5 2 4 3 3 4 2 5
REMARK H PARENT 4 6
REMARK Flexibility Score: inf
ROOT
ATOM      1  C   UNL     1     151.287 135.786 127.037  1.00  0.00     0.019 A 
ATOM      2  C   UNL     1     151.306 134.875 128.073  1.00  0.00     0.082 A 
ATOM      3  N   UNL     1     152.515 134.876 128.662  1.00  0.00    -0.368 N 
ATOM      4  C   UNL     1     153.271 135.779 128.013  1.00  0.00     0.082 A 
ATOM      5  C   UNL     1     152.541 136.362 126.999  1.00  0.00     0.019 A 
ATOM      6  H   UNL     1     152.812 134.286 129.471  1.00  0.00     0.165 HD
ENDROOT
TORSDOF 0
ENDMDL
MODEL 2
REMARK VINA RESULT:    -2.783      1.367      1.806
REMARK INTER + INTRA:          -2.783
REMARK INTER:                  -2.783
REMARK INTRA:                   0.000
REMARK UNBOUND:                 0.000
REMARK SMILES c1cc[nH]c1
REMARK SMILES IDX 1 1 5 2 4 3 3 4 2 5
REMARK H PARENT 4 6
REMARK Flexibility Score: inf
ROOT
ATOM      1  C   UNL     1     152.171 134.893 128.066  1.00  0.00     0.019 A 
ATOM      2  C   UNL     1     151.793 136.031 127.383  1.00  0.00     0.082 A 
ATOM      3  N   UNL     1     152.882 136.700 126.967  1.00  0.00    -0.368 N 
ATOM      4  C   UNL     1     153.956 136.002 127.377  1.00  0.00     0.082 A 
ATOM      5  C   UNL     1     153.552 134.875 128.062  1.00  0.00     0.019 A 
ATOM      6  H   UNL     1     152.893 137.594 126.427  1.00  0.00     0.165 HD
ENDROOT
TORSDOF 0
ENDMDL
MODEL 3
REMARK VINA RESULT:    -2.763     16.124     16.703
REMARK INTER + INTRA:          -2.763
REMARK INTER:                  -2.763
REMARK INTRA:                   0.000
REMARK UNBOUND:                 0.000
REMARK SMILES c1cc[nH]c1
REMARK SMILES IDX 1 1 5 2 4 3 3 4 2 5
REMARK H PARENT 4 6
REMARK Flexibility Score: inf
ROOT
ATOM      1  C   UNL     1     134.915 138.475 128.049  1.00  0.00     0.019 A 
ATOM      2  C   UNL     1     136.080 138.857 127.416  1.00  0.00     0.082 A 
ATOM      3  N   UNL     1     136.760 137.770 127.011  1.00  0.00    -0.368 N 
ATOM      4  C   UNL     1     136.043 136.694 127.378  1.00  0.00     0.082 A 
ATOM      5  C   UNL     1     134.892 137.094 128.025  1.00  0.00     0.019 A 
ATOM      6  H   UNL     1     137.674 137.763 126.506  1.00  0.00     0.165 HD
ENDROOT
TORSDOF 0
ENDMDL
MODEL 4
REMARK VINA RESULT:    -2.761     14.047     14.255
REMARK INTER + INTRA:          -2.761
REMARK INTER:                  -2.761
REMARK INTRA:                   0.000
REMARK UNBOUND:                 0.000
REMARK SMILES c1cc[nH]c1
REMARK SMILES IDX 1 1 5 2 4 3 3 4 2 5
REMARK H PARENT 4 6
REMARK Flexibility Score: inf
ROOT
ATOM      1  C   UNL     1     145.609 147.530 133.369  1.00  0.00     0.019 A 
ATOM      2  C   UNL     1     144.436 147.175 132.735  1.00  0.00     0.082 A 
ATOM      3  N   UNL     1     144.691 146.817 131.465  1.00  0.00    -0.368 N 
ATOM      4  C   UNL     1     146.017 146.938 131.278  1.00  0.00     0.082 A 
ATOM      5  C   UNL     1     146.618 147.379 132.439  1.00  0.00     0.019 A 
ATOM      6  H   UNL     1     143.991 146.502 130.757  1.00  0.00     0.165 HD
ENDROOT
TORSDOF 0
ENDMDL
MODEL 5
REMARK VINA RESULT:    -2.757     11.438     11.770
REMARK INTER + INTRA:          -2.757
REMARK INTER:                  -2.757
REMARK INTRA:                   0.000
REMARK UNBOUND:                 0.000
REMARK SMILES c1cc[nH]c1
REMARK SMILES IDX 1 1 5 2 4 3 3 4 2 5
REMARK H PARENT 4 6
REMARK Flexibility Score: inf
ROOT
ATOM      1  C   UNL     1     145.048 143.278 133.405  1.00  0.00     0.019 A 
ATOM      2  C   UNL     1     146.251 143.616 132.820  1.00  0.00     0.082 A 
ATOM      3  N   UNL     1     146.055 143.968 131.538  1.00  0.00    -0.368 N 
ATOM      4  C   UNL     1     144.737 143.859 131.294  1.00  0.00     0.082 A 
ATOM      5  C   UNL     1     144.082 143.433 132.431  1.00  0.00     0.019 A 
ATOM      6  H   UNL     1     146.788 144.270 130.858  1.00  0.00     0.165 HD
ENDROOT
TORSDOF 0
ENDMDL
MODEL 6
REMARK VINA RESULT:    -2.741     13.849     14.149
REMARK INTER + INTRA:          -2.741
REMARK INTER:                  -2.741
REMARK INTRA:                   0.000
REMARK UNBOUND:                 0.000
REMARK SMILES c1cc[nH]c1
REMARK SMILES IDX 1 1 5 2 4 3 3 4 2 5
REMARK H PARENT 4 6
REMARK Flexibility Score: inf
ROOT
ATOM      1  C   UNL     1     143.396 145.826 133.504  1.00  0.00     0.019 A 
ATOM      2  C   UNL     1     143.654 144.660 132.813  1.00  0.00     0.082 A 
ATOM      3  N   UNL     1     143.873 144.935 131.515  1.00  0.00    -0.368 N 
ATOM      4  C   UNL     1     143.759 146.266 131.367  1.00  0.00     0.082 A 
ATOM      5  C   UNL     1     143.463 146.851 132.581  1.00  0.00     0.019 A 
ATOM      6  H   UNL     1     144.091 144.244 130.763  1.00  0.00     0.165 HD
ENDROOT
TORSDOF 0
ENDMDL
MODEL 7
REMARK VINA RESULT:    -2.729     11.753     11.935
REMARK INTER + INTRA:          -2.729
REMARK INTER:                  -2.729
REMARK INTRA:                   0.000
REMARK UNBOUND:                 0.000
REMARK SMILES c1cc[nH]c1
REMARK SMILES IDX 1 1 5 2 4 3 3 4 2 5
REMARK H PARENT 4 6
REMARK Flexibility Score: inf
ROOT
ATOM      1  C   UNL     1     147.254 143.965 132.640  1.00  0.00     0.019 A 
ATOM      2  C   UNL     1     146.982 144.491 131.394  1.00  0.00     0.082 A 
ATOM      3  N   UNL     1     146.825 145.823 131.484  1.00  0.00    -0.368 N 
ATOM      4  C   UNL     1     146.993 146.156 132.776  1.00  0.00     0.082 A 
ATOM      5  C   UNL     1     147.260 145.027 133.522  1.00  0.00     0.019 A 
ATOM      6  H   UNL     1     146.612 146.477 130.698  1.00  0.00     0.165 HD
ENDROOT
TORSDOF 0
ENDMDL
MODEL 8
REMARK VINA RESULT:    -2.674     12.632     12.909
REMARK INTER + INTRA:          -2.674
REMARK INTER:                  -2.674
REMARK INTRA:                   0.000
REMARK UNBOUND:                 0.000
REMARK SMILES c1cc[nH]c1
REMARK SMILES IDX 1 1 5 2 4 3 3 4 2 5
REMARK H PARENT 4 6
REMARK Flexibility Score: inf
ROOT
ATOM      1  C   UNL     1     145.062 143.154 133.224  1.00  0.00     0.019 A 
ATOM      2  C   UNL     1     144.172 143.369 132.192  1.00  0.00     0.082 A 
ATOM      3  N   UNL     1     143.491 144.509 132.405  1.00  0.00    -0.368 N 
ATOM      4  C   UNL     1     143.937 145.027 133.563  1.00  0.00     0.082 A 
ATOM      5  C   UNL     1     144.912 144.212 134.098  1.00  0.00     0.019 A 
ATOM      6  H   UNL     1     142.754 144.916 131.786  1.00  0.00     0.165 HD
ENDROOT
TORSDOF 0
ENDMDL
MODEL 9
REMARK VINA RESULT:    -2.673     13.579     13.770
REMARK INTER + INTRA:          -2.673
REMARK INTER:                  -2.673
REMARK INTRA:                   0.000
REMARK UNBOUND:                 0.000
REMARK SMILES c1cc[nH]c1
REMARK SMILES IDX 1 1 5 2 4 3 3 4 2 5
REMARK H PARENT 4 6
REMARK Flexibility Score: inf
ROOT
ATOM      1  C   UNL     1     145.710 147.604 133.276  1.00  0.00     0.019 A 
ATOM      2  C   UNL     1     146.624 147.412 132.260  1.00  0.00     0.082 A 
ATOM      3  N   UNL     1     147.295 146.264 132.457  1.00  0.00    -0.368 N 
ATOM      4  C   UNL     1     146.819 145.716 133.589  1.00  0.00     0.082 A 
ATOM      5  C   UNL     1     145.834 146.521 134.124  1.00  0.00     0.019 A 
ATOM      6  H   UNL     1     148.044 145.870 131.845  1.00  0.00     0.165 HD
ENDROOT
TORSDOF 0
ENDMDL
