MODEL 1
REMARK VINA RESULT:    -3.499      0.000      0.000
REMARK INTER + INTRA:          -5.646
REMARK INTER:                  -4.930
REMARK INTRA:                  -0.715
REMARK UNBOUND:                -0.715
REMARK SMILES CCCCCCCCC(=O)[O-]
REMARK SMILES IDX 6 1 7 2 8 3 9 4 10 5 11 6 5 7 4 8 3 9 2 10 1 11
REMARK H PARENT
REMARK Flexibility Score: inf
ROOT
ATOM      1  C   UNL     1      -4.961   2.386  -0.443  1.00  0.00     0.000 C 
ENDROOT
BRANCH   1   2
ATOM      2  C   UNL     1      -5.852   1.186  -0.074  1.00  0.00     0.006 C 
BRANCH   2   3
ATOM      3  C   UNL     1      -5.184   0.162   0.859  1.00  0.00     0.053 C 
BRANCH   3   4
ATOM      4  C   UNL     1      -5.577  -1.244   0.525  1.00  0.00     0.041 C 
ATOM      5  O   UNL     1      -4.722  -2.047   0.066  1.00  0.00    -0.550 OA
ATOM      6  O   UNL     1      -6.892  -1.657   0.688  1.00  0.00    -0.550 OA
ENDBRANCH   3   4
ENDBRANCH   2   3
ENDBRANCH   1   2
BRANCH   1   7
ATOM      7  C   UNL     1      -3.509   2.220   0.039  1.00  0.00     0.000 C 
BRANCH   7   8
ATOM      8  C   UNL     1      -3.136   3.201   1.165  1.00  0.00    -0.000 C 
BRANCH   8   9
ATOM      9  C   UNL     1      -4.292   4.076   1.682  1.00  0.00    -0.000 C 
BRANCH   9  10
ATOM     10  C   UNL     1      -4.693   3.749   3.128  1.00  0.00    -0.003 C 
ATOM     11  C   UNL     1      -6.082   3.120   3.184  1.00  0.00     0.004 C 
ENDBRANCH   9  10
ENDBRANCH   8   9
ENDBRANCH   7   8
ENDBRANCH   1   7
TORSDOF 7
ENDMDL
MODEL 2
REMARK VINA RESULT:    -3.447      3.160      5.093
REMARK INTER + INTRA:          -5.573
REMARK INTER:                  -5.098
REMARK INTRA:                  -0.475
REMARK UNBOUND:                -0.715
REMARK SMILES CCCCCCCCC(=O)[O-]
REMARK SMILES IDX 6 1 7 2 8 3 9 4 10 5 11 6 5 7 4 8 3 9 2 10 1 11
REMARK H PARENT
REMARK Flexibility Score: inf
ROOT
ATOM      1  C   UNL     1      -5.355   2.354  -0.695  1.00  0.00     0.000 C 
ENDROOT
BRANCH   1   2
ATOM      2  C   UNL     1      -4.316   1.793   0.293  1.00  0.00     0.006 C 
BRANCH   2   3
ATOM      3  C   UNL     1      -3.075   2.682   0.483  1.00  0.00     0.053 C 
BRANCH   3   4
ATOM      4  C   UNL     1      -3.337   3.820   1.420  1.00  0.00     0.041 C 
ATOM      5  O   UNL     1      -3.211   3.659   2.663  1.00  0.00    -0.550 OA
ATOM      6  O   UNL     1      -3.752   5.049   0.925  1.00  0.00    -0.550 OA
ENDBRANCH   3   4
ENDBRANCH   2   3
ENDBRANCH   1   2
BRANCH   1   7
ATOM      7  C   UNL     1      -6.705   1.620  -0.619  1.00  0.00     0.000 C 
BRANCH   7   8
ATOM      8  C   UNL     1      -6.722   0.505   0.443  1.00  0.00    -0.000 C 
BRANCH   8   9
ATOM      9  C   UNL     1      -7.467  -0.778   0.033  1.00  0.00    -0.000 C 
BRANCH   9  10
ATOM     10  C   UNL     1      -6.617  -2.046   0.203  1.00  0.00    -0.003 C 
ATOM     11  C   UNL     1      -5.277  -1.726   0.859  1.00  0.00     0.004 C 
ENDBRANCH   9  10
ENDBRANCH   8   9
ENDBRANCH   7   8
ENDBRANCH   1   7
TORSDOF 7
ENDMDL
MODEL 3
REMARK VINA RESULT:    -3.394      2.983      4.920
REMARK INTER + INTRA:          -5.499
REMARK INTER:                  -4.973
REMARK INTRA:                  -0.526
REMARK UNBOUND:                -0.715
REMARK SMILES CCCCCCCCC(=O)[O-]
REMARK SMILES IDX 6 1 7 2 8 3 9 4 10 5 11 6 5 7 4 8 3 9 2 10 1 11
REMARK H PARENT
REMARK Flexibility Score: inf
ROOT
ATOM      1  C   UNL     1      -4.640   2.595  -0.625  1.00  0.00     0.000 C 
ENDROOT
BRANCH   1   2
ATOM      2  C   UNL     1      -3.839   2.185   0.625  1.00  0.00     0.006 C 
BRANCH   2   3
ATOM      3  C   UNL     1      -3.258   3.365   1.422  1.00  0.00     0.053 C 
BRANCH   3   4
ATOM      4  C   UNL     1      -4.172   3.802   2.525  1.00  0.00     0.041 C 
ATOM      5  O   UNL     1      -5.144   3.078   2.866  1.00  0.00    -0.550 OA
ATOM      6  O   UNL     1      -3.970   5.024   3.155  1.00  0.00    -0.550 OA
ENDBRANCH   3   4
ENDBRANCH   2   3
ENDBRANCH   1   2
BRANCH   1   7
ATOM      7  C   UNL     1      -6.029   1.938  -0.683  1.00  0.00     0.000 C 
BRANCH   7   8
ATOM      8  C   UNL     1      -6.252   0.908   0.440  1.00  0.00    -0.000 C 
BRANCH   8   9
ATOM      9  C   UNL     1      -7.230  -0.231   0.100  1.00  0.00    -0.000 C 
BRANCH   9  10
ATOM     10  C   UNL     1      -6.603  -1.625   0.244  1.00  0.00    -0.003 C 
ATOM     11  C   UNL     1      -5.173  -1.533   0.770  1.00  0.00     0.004 C 
ENDBRANCH   9  10
ENDBRANCH   8   9
ENDBRANCH   7   8
ENDBRANCH   1   7
TORSDOF 7
ENDMDL
MODEL 4
REMARK VINA RESULT:    -3.342      3.138      5.241
REMARK INTER + INTRA:          -5.425
REMARK INTER:                  -5.018
REMARK INTRA:                  -0.407
REMARK UNBOUND:                -0.715
REMARK SMILES CCCCCCCCC(=O)[O-]
REMARK SMILES IDX 6 1 7 2 8 3 9 4 10 5 11 6 5 7 4 8 3 9 2 10 1 11
REMARK H PARENT
REMARK Flexibility Score: inf
ROOT
ATOM      1  C   UNL     1      -5.742   1.463  -0.225  1.00  0.00     0.000 C 
ENDROOT
BRANCH   1   2
ATOM      2  C   UNL     1      -4.730   2.560  -0.604  1.00  0.00     0.006 C 
BRANCH   2   3
ATOM      3  C   UNL     1      -3.453   2.571   0.253  1.00  0.00     0.053 C 
BRANCH   3   4
ATOM      4  C   UNL     1      -3.374   3.781   1.130  1.00  0.00     0.041 C 
ATOM      5  O   UNL     1      -3.651   4.919   0.666  1.00  0.00    -0.550 OA
ATOM      6  O   UNL     1      -2.964   3.660   2.451  1.00  0.00    -0.550 OA
ENDBRANCH   3   4
ENDBRANCH   2   3
ENDBRANCH   1   2
BRANCH   1   7
ATOM      7  C   UNL     1      -5.238   0.558   0.912  1.00  0.00     0.000 C 
BRANCH   7   8
ATOM      8  C   UNL     1      -5.188  -0.930   0.517  1.00  0.00    -0.000 C 
BRANCH   8   9
ATOM      9  C   UNL     1      -6.280  -1.812   1.149  1.00  0.00    -0.000 C 
BRANCH   9  10
ATOM     10  C   UNL     1      -7.177  -2.496   0.107  1.00  0.00    -0.003 C 
ATOM     11  C   UNL     1      -8.132  -1.496  -0.537  1.00  0.00     0.004 C 
ENDBRANCH   9  10
ENDBRANCH   8   9
ENDBRANCH   7   8
ENDBRANCH   1   7
TORSDOF 7
ENDMDL
MODEL 5
REMARK VINA RESULT:    -3.290      3.048      4.641
REMARK INTER + INTRA:          -5.351
REMARK INTER:                  -4.541
REMARK INTRA:                  -0.810
REMARK UNBOUND:                -0.715
REMARK SMILES CCCCCCCCC(=O)[O-]
REMARK SMILES IDX 6 1 7 2 8 3 9 4 10 5 11 6 5 7 4 8 3 9 2 10 1 11
REMARK H PARENT
REMARK Flexibility Score: inf
ROOT
ATOM      1  C   UNL     1      -3.021   3.086   1.312  1.00  0.00     0.000 C 
ENDROOT
BRANCH   1   2
ATOM      2  C   UNL     1      -3.505   4.540   1.167  1.00  0.00     0.006 C 
BRANCH   2   3
ATOM      3  C   UNL     1      -4.829   4.844   1.889  1.00  0.00     0.053 C 
BRANCH   3   4
ATOM      4  C   UNL     1      -4.899   4.192   3.235  1.00  0.00     0.041 C 
ATOM      5  O   UNL     1      -4.161   4.596   4.173  1.00  0.00    -0.550 OA
ATOM      6  O   UNL     1      -5.753   3.118   3.446  1.00  0.00    -0.550 OA
ENDBRANCH   3   4
ENDBRANCH   2   3
ENDBRANCH   1   2
BRANCH   1   7
ATOM      7  C   UNL     1      -3.458   2.194   0.137  1.00  0.00     0.000 C 
BRANCH   7   8
ATOM      8  C   UNL     1      -4.607   1.237   0.505  1.00  0.00    -0.000 C 
BRANCH   8   9
ATOM      9  C   UNL     1      -5.937   1.501  -0.224  1.00  0.00    -0.000 C 
BRANCH   9  10
ATOM     10  C   UNL     1      -5.885   2.729  -1.145  1.00  0.00    -0.003 C 
ATOM     11  C   UNL     1      -7.052   3.672  -0.869  1.00  0.00     0.004 C 
ENDBRANCH   9  10
ENDBRANCH   8   9
ENDBRANCH   7   8
ENDBRANCH   1   7
TORSDOF 7
ENDMDL
MODEL 6
REMARK VINA RESULT:    -3.255      2.580      4.317
REMARK INTER + INTRA:          -5.302
REMARK INTER:                  -4.671
REMARK INTRA:                  -0.631
REMARK UNBOUND:                -0.715
REMARK SMILES CCCCCCCCC(=O)[O-]
REMARK SMILES IDX 6 1 7 2 8 3 9 4 10 5 11 6 5 7 4 8 3 9 2 10 1 11
REMARK H PARENT
REMARK Flexibility Score: inf
ROOT
ATOM      1  C   UNL     1      -3.042   3.096   1.196  1.00  0.00     0.000 C 
ENDROOT
BRANCH   1   2
ATOM      2  C   UNL     1      -4.186   4.031   1.629  1.00  0.00     0.006 C 
BRANCH   2   3
ATOM      3  C   UNL     1      -4.736   3.752   3.038  1.00  0.00     0.053 C 
BRANCH   3   4
ATOM      4  C   UNL     1      -6.200   3.436   3.019  1.00  0.00     0.041 C 
ATOM      5  O   UNL     1      -6.927   3.863   2.083  1.00  0.00    -0.550 OA
ATOM      6  O   UNL     1      -6.768   2.700   4.049  1.00  0.00    -0.550 OA
ENDBRANCH   3   4
ENDBRANCH   2   3
ENDBRANCH   1   2
BRANCH   1   7
ATOM      7  C   UNL     1      -3.411   2.228  -0.019  1.00  0.00     0.000 C 
BRANCH   7   8
ATOM      8  C   UNL     1      -4.875   2.410  -0.463  1.00  0.00    -0.000 C 
BRANCH   8   9
ATOM      9  C   UNL     1      -5.819   1.251  -0.095  1.00  0.00    -0.000 C 
BRANCH   9  10
ATOM     10  C   UNL     1      -5.131   0.157   0.736  1.00  0.00    -0.003 C 
ATOM     11  C   UNL     1      -5.857  -1.178   0.594  1.00  0.00     0.004 C 
ENDBRANCH   9  10
ENDBRANCH   8   9
ENDBRANCH   7   8
ENDBRANCH   1   7
TORSDOF 7
ENDMDL
MODEL 7
REMARK VINA RESULT:    -3.252      3.378      4.673
REMARK INTER + INTRA:          -5.298
REMARK INTER:                  -4.552
REMARK INTRA:                  -0.746
REMARK UNBOUND:                -0.715
REMARK SMILES CCCCCCCCC(=O)[O-]
REMARK SMILES IDX 6 1 7 2 8 3 9 4 10 5 11 6 5 7 4 8 3 9 2 10 1 11
REMARK H PARENT
REMARK Flexibility Score: inf
ROOT
ATOM      1  C   UNL     1      -6.679   2.435   1.014  1.00  0.00     0.000 C 
ENDROOT
BRANCH   1   2
ATOM      2  C   UNL     1      -5.938   2.553   2.359  1.00  0.00     0.006 C 
BRANCH   2   3
ATOM      3  C   UNL     1      -5.788   3.993   2.877  1.00  0.00     0.053 C 
BRANCH   3   4
ATOM      4  C   UNL     1      -4.430   4.243   3.457  1.00  0.00     0.041 C 
ATOM      5  O   UNL     1      -3.402   3.815   2.868  1.00  0.00    -0.550 OA
ATOM      6  O   UNL     1      -4.300   4.919   4.663  1.00  0.00    -0.550 OA
ENDBRANCH   3   4
ENDBRANCH   2   3
ENDBRANCH   1   2
BRANCH   1   7
ATOM      7  C   UNL     1      -5.854   1.700  -0.056  1.00  0.00     0.000 C 
BRANCH   7   8
ATOM      8  C   UNL     1      -4.409   1.413   0.393  1.00  0.00    -0.000 C 
BRANCH   8   9
ATOM      9  C   UNL     1      -3.343   2.361  -0.187  1.00  0.00    -0.000 C 
BRANCH   9  10
ATOM     10  C   UNL     1      -3.925   3.392  -1.166  1.00  0.00    -0.003 C 
ATOM     11  C   UNL     1      -4.004   4.774  -0.525  1.00  0.00     0.004 C 
ENDBRANCH   9  10
ENDBRANCH   8   9
ENDBRANCH   7   8
ENDBRANCH   1   7
TORSDOF 7
ENDMDL
MODEL 8
REMARK VINA RESULT:    -3.199      4.095      5.734
REMARK INTER + INTRA:          -5.223
REMARK INTER:                  -4.831
REMARK INTRA:                  -0.392
REMARK UNBOUND:                -0.715
REMARK SMILES CCCCCCCCC(=O)[O-]
REMARK SMILES IDX 6 1 7 2 8 3 9 4 10 5 11 6 5 7 4 8 3 9 2 10 1 11
REMARK H PARENT
REMARK Flexibility Score: inf
ROOT
ATOM      1  C   UNL     1      -4.381   3.812   1.819  1.00  0.00     0.000 C 
ENDROOT
BRANCH   1   2
ATOM      2  C   UNL     1      -4.175   3.952   3.338  1.00  0.00     0.006 C 
BRANCH   2   3
ATOM      3  C   UNL     1      -5.373   4.559   4.088  1.00  0.00     0.053 C 
BRANCH   3   4
ATOM      4  C   UNL     1      -4.942   5.404   5.247  1.00  0.00     0.041 C 
ATOM      5  O   UNL     1      -5.529   5.305   6.356  1.00  0.00    -0.550 OA
ATOM      6  O   UNL     1      -3.914   6.325   5.093  1.00  0.00    -0.550 OA
ENDBRANCH   3   4
ENDBRANCH   2   3
ENDBRANCH   1   2
BRANCH   1   7
ATOM      7  C   UNL     1      -3.216   3.083   1.126  1.00  0.00     0.000 C 
BRANCH   7   8
ATOM      8  C   UNL     1      -3.688   2.092   0.046  1.00  0.00    -0.000 C 
BRANCH   8   9
ATOM      9  C   UNL     1      -5.153   2.255  -0.397  1.00  0.00    -0.000 C 
BRANCH   9  10
ATOM     10  C   UNL     1      -6.019   1.030  -0.071  1.00  0.00    -0.003 C 
ATOM     11  C   UNL     1      -5.230  -0.004   0.727  1.00  0.00     0.004 C 
ENDBRANCH   9  10
ENDBRANCH   8   9
ENDBRANCH   7   8
ENDBRANCH   1   7
TORSDOF 7
ENDMDL
MODEL 9
REMARK VINA RESULT:    -3.070      3.242      5.012
REMARK INTER + INTRA:          -5.042
REMARK INTER:                  -4.466
REMARK INTRA:                  -0.576
REMARK UNBOUND:                -0.715
REMARK SMILES CCCCCCCCC(=O)[O-]
REMARK SMILES IDX 6 1 7 2 8 3 9 4 10 5 11 6 5 7 4 8 3 9 2 10 1 11
REMARK H PARENT
REMARK Flexibility Score: inf
ROOT
ATOM      1  C   UNL     1      -6.637   2.552   0.906  1.00  0.00     0.000 C 
ENDROOT
BRANCH   1   2
ATOM      2  C   UNL     1      -6.057   2.497   2.332  1.00  0.00     0.006 C 
BRANCH   2   3
ATOM      3  C   UNL     1      -5.852   3.873   2.988  1.00  0.00     0.053 C 
BRANCH   3   4
ATOM      4  C   UNL     1      -4.415   4.130   3.318  1.00  0.00     0.041 C 
ATOM      5  O   UNL     1      -4.104   4.692   4.402  1.00  0.00    -0.550 OA
ATOM      6  O   UNL     1      -3.419   3.781   2.415  1.00  0.00    -0.550 OA
ENDBRANCH   3   4
ENDBRANCH   2   3
ENDBRANCH   1   2
BRANCH   1   7
ATOM      7  C   UNL     1      -5.866   1.663  -0.084  1.00  0.00     0.000 C 
BRANCH   7   8
ATOM      8  C   UNL     1      -4.811   0.776   0.603  1.00  0.00    -0.000 C 
BRANCH   8   9
ATOM      9  C   UNL     1      -5.158  -0.723   0.668  1.00  0.00    -0.000 C 
BRANCH   9  10
ATOM     10  C   UNL     1      -6.644  -1.007   0.404  1.00  0.00    -0.003 C 
ATOM     11  C   UNL     1      -7.360  -1.426   1.685  1.00  0.00     0.004 C 
ENDBRANCH   9  10
ENDBRANCH   8   9
ENDBRANCH   7   8
ENDBRANCH   1   7
TORSDOF 7
ENDMDL
