MODEL 1
REMARK VINA RESULT:    -3.700      0.000      0.000
REMARK INTER + INTRA:          -4.707
REMARK INTER:                  -5.214
REMARK INTRA:                   0.508
REMARK UNBOUND:                 0.508
REMARK SMILES CC1=CCC(=C(C)C)C(=O)CC(C)=CCC1
REMARK SMILES IDX 12 1 14 2 13 3 15 4 16 5 2 6 1 7 3 8 11 10 9 11 10 12 5 13
REMARK SMILES IDX 6 14 7 15 8 16 4 17
REMARK H PARENT
REMARK Flexibility Score: 60.00
ROOT
ATOM      1  C   UNL     1      -9.393   3.964 -17.460  1.00  0.00    -0.070 C 
ATOM      2  C   UNL     1      -8.847   2.786 -17.834  1.00  0.00    -0.027 C 
ATOM      3  C   UNL     1      -9.428   4.289 -15.987  1.00  0.00     0.039 C 
ENDROOT
BRANCH   2   4
ATOM      4  C   UNL     1      -8.633   2.324 -19.260  1.00  0.00     0.032 C 
BRANCH   4   5
ATOM      5  C   UNL     1      -9.332   0.998 -19.623  1.00  0.00     0.034 C 
BRANCH   5   6
ATOM      6  C   UNL     1     -10.825   1.015 -19.352  1.00  0.00    -0.077 C 
ATOM      7  C   UNL     1     -11.385  -0.051 -18.444  1.00  0.00     0.039 C 
ATOM      8  C   UNL     1     -11.675   1.965 -19.814  1.00  0.00    -0.023 CG0
ATOM      9  G   UNL     1     -11.344   3.112 -20.747  1.00  0.00     0.000 G0
ENDBRANCH   5   6
ENDBRANCH   4   5
ENDBRANCH   2   4
BRANCH   1  10
ATOM     10  C   UNL     1      -9.882   5.004 -18.446  1.00  0.00     0.111 C 
BRANCH  10  11
ATOM     11  C   UNL     1     -11.327   4.787 -18.812  1.00  0.00     0.163 C 
ATOM     12  O   UNL     1     -12.197   4.940 -17.913  1.00  0.00    -0.294 OA
BRANCH  11  13
ATOM     13  C   UNL     1     -11.760   4.461 -20.204  1.00  0.00    -0.002 C 
ATOM     14  C   UNL     1     -12.421   5.384 -20.964  1.00  0.00    -0.069 C 
ATOM     15  C   UNL     1     -12.733   5.145 -22.426  1.00  0.00     0.039 C 
ATOM     16  C   UNL     1     -12.876   6.703 -20.377  1.00  0.00     0.039 C 
BRANCH  13  17
ATOM     17  C   UNL     1     -11.351   3.107 -20.760  1.00  0.00     0.066 CG0
ATOM     18  G   UNL     1     -11.666   1.972 -19.807  1.00  0.00     0.000 G0
ENDBRANCH  13  17
ENDBRANCH  11  13
ENDBRANCH  10  11
ENDBRANCH   1  10
TORSDOF 0
ENDMDL
MODEL 2
REMARK VINA RESULT:    -3.287      2.207      3.915
REMARK INTER + INTRA:          -4.124
REMARK INTER:                  -4.560
REMARK INTRA:                   0.436
REMARK UNBOUND:                 0.508
REMARK SMILES CC1=CCC(=C(C)C)C(=O)CC(C)=CCC1
REMARK SMILES IDX 12 1 14 2 13 3 15 4 16 5 2 6 1 7 3 8 11 10 9 11 10 12 5 13
REMARK SMILES IDX 6 14 7 15 8 16 4 17
REMARK H PARENT
REMARK Flexibility Score: 60.00
ROOT
ATOM      1  C   UNL     1     -11.566   3.880 -17.641  1.00  0.00    -0.070 C 
ATOM      2  C   UNL     1     -10.544   4.522 -18.251  1.00  0.00    -0.027 C 
ATOM      3  C   UNL     1     -11.917   4.290 -16.233  1.00  0.00     0.039 C 
ENDROOT
BRANCH   2   4
ATOM      4  C   UNL     1     -10.105   4.322 -19.685  1.00  0.00     0.032 C 
BRANCH   4   5
ATOM      5  C   UNL     1      -8.689   3.734 -19.854  1.00  0.00     0.034 C 
BRANCH   5   6
ATOM      6  C   UNL     1      -8.419   2.554 -18.938  1.00  0.00    -0.077 C 
ATOM      7  C   UNL     1      -7.413   2.743 -17.830  1.00  0.00     0.039 C 
ATOM      8  C   UNL     1      -9.071   1.368 -19.007  1.00  0.00    -0.023 CG0
ATOM      9  G   UNL     1     -10.100   0.949 -20.038  1.00  0.00     0.000 G0
ENDBRANCH   5   6
ENDBRANCH   4   5
ENDBRANCH   2   4
BRANCH   1  10
ATOM     10  C   UNL     1     -12.426   2.842 -18.332  1.00  0.00     0.111 C 
BRANCH  10  11
ATOM     11  C   UNL     1     -11.841   1.460 -18.202  1.00  0.00     0.163 C 
ATOM     12  O   UNL     1     -11.733   0.967 -17.046  1.00  0.00    -0.294 OA
BRANCH  11  13
ATOM     13  C   UNL     1     -11.450   0.641 -19.388  1.00  0.00    -0.002 C 
ATOM     14  C   UNL     1     -12.314  -0.273 -19.922  1.00  0.00    -0.069 C 
ATOM     15  C   UNL     1     -12.012  -1.002 -21.213  1.00  0.00     0.039 C 
ATOM     16  C   UNL     1     -13.626  -0.601 -19.244  1.00  0.00     0.039 C 
BRANCH  13  17
ATOM     17  C   UNL     1     -10.100   0.937 -20.022  1.00  0.00     0.066 CG0
ATOM     18  G   UNL     1      -9.064   1.364 -19.001  1.00  0.00     0.000 G0
ENDBRANCH  13  17
ENDBRANCH  11  13
ENDBRANCH  10  11
ENDBRANCH   1  10
TORSDOF 0
ENDMDL
MODEL 3
REMARK VINA RESULT:    -3.259      2.217      4.366
REMARK INTER + INTRA:          -4.085
REMARK INTER:                  -5.434
REMARK INTRA:                   1.350
REMARK UNBOUND:                 0.508
REMARK SMILES CC1=CCC(=C(C)C)C(=O)CC(C)=CCC1
REMARK SMILES IDX 12 1 14 2 13 3 15 4 16 5 2 6 1 7 3 8 11 10 9 11 10 12 5 13
REMARK SMILES IDX 6 14 7 15 8 16 4 17
REMARK H PARENT
REMARK Flexibility Score: 60.00
ROOT
ATOM      1  C   UNL     1      -8.662   3.046 -18.967  1.00  0.00    -0.070 C 
ATOM      2  C   UNL     1      -8.947   4.040 -18.096  1.00  0.00    -0.027 C 
ATOM      3  C   UNL     1      -7.976   3.416 -20.258  1.00  0.00     0.039 C 
ENDROOT
BRANCH   2   4
ATOM      4  C   UNL     1      -9.542   3.861 -16.716  1.00  0.00     0.032 C 
BRANCH   4   5
ATOM      5  C   UNL     1     -11.026   4.267 -16.592  1.00  0.00     0.034 C 
BRANCH   5   6
ATOM      6  C   UNL     1     -11.761   4.253 -17.919  1.00  0.00    -0.077 C 
ATOM      7  C   UNL     1     -12.062   5.581 -18.567  1.00  0.00     0.039 C 
ATOM      8  C   UNL     1     -12.103   3.128 -18.593  1.00  0.00    -0.023 CG0
ATOM      9  G   UNL     1     -11.918   1.695 -18.133  1.00  0.00     0.000 G0
ENDBRANCH   5   6
ENDBRANCH   4   5
ENDBRANCH   2   4
BRANCH   1  10
ATOM     10  C   UNL     1      -8.914   1.583 -18.671  1.00  0.00     0.111 C 
BRANCH  10  11
ATOM     11  C   UNL     1      -9.924   0.989 -19.617  1.00  0.00     0.163 C 
ATOM     12  O   UNL     1      -9.521   0.590 -20.743  1.00  0.00    -0.294 OA
BRANCH  11  13
ATOM     13  C   UNL     1     -11.359   0.804 -19.244  1.00  0.00    -0.002 C 
ATOM     14  C   UNL     1     -12.108  -0.184 -19.819  1.00  0.00    -0.069 C 
ATOM     15  C   UNL     1     -13.512  -0.500 -19.351  1.00  0.00     0.039 C 
ATOM     16  C   UNL     1     -11.565  -1.016 -20.960  1.00  0.00     0.039 C 
BRANCH  13  17
ATOM     17  C   UNL     1     -11.910   1.691 -18.139  1.00  0.00     0.066 CG0
ATOM     18  G   UNL     1     -12.100   3.124 -18.591  1.00  0.00     0.000 G0
ENDBRANCH  13  17
ENDBRANCH  11  13
ENDBRANCH  10  11
ENDBRANCH   1  10
TORSDOF 0
ENDMDL
MODEL 4
REMARK VINA RESULT:    -2.274      1.598      2.582
REMARK INTER + INTRA:          -2.697
REMARK INTER:                  -3.951
REMARK INTRA:                   1.255
REMARK UNBOUND:                 0.508
REMARK SMILES CC1=CCC(=C(C)C)C(=O)CC(C)=CCC1
REMARK SMILES IDX 12 1 14 2 13 3 15 4 16 5 2 6 1 7 3 8 11 10 9 11 10 12 5 13
REMARK SMILES IDX 6 14 7 15 8 16 4 17
REMARK H PARENT
REMARK Flexibility Score: 60.00
ROOT
ATOM      1  C   UNL     1      -8.194   2.287 -18.725  1.00  0.00    -0.070 C 
ATOM      2  C   UNL     1      -8.528   1.494 -19.768  1.00  0.00    -0.027 C 
ATOM      3  C   UNL     1      -6.998   3.192 -18.881  1.00  0.00     0.039 C 
ENDROOT
BRANCH   2   4
ATOM      4  C   UNL     1      -9.742   0.594 -19.840  1.00  0.00     0.032 C 
BRANCH   4   5
ATOM      5  C   UNL     1     -11.097   1.331 -19.830  1.00  0.00     0.034 C 
BRANCH   5   6
ATOM      6  C   UNL     1     -11.903   1.083 -18.568  1.00  0.00    -0.077 C 
ATOM      7  C   UNL     1     -12.134  -0.348 -18.153  1.00  0.00     0.039 C 
ATOM      8  C   UNL     1     -12.365   2.062 -17.752  1.00  0.00    -0.023 CG0
ATOM      9  G   UNL     1     -12.267   3.559 -17.973  1.00  0.00     0.000 G0
ENDBRANCH   5   6
ENDBRANCH   4   5
ENDBRANCH   2   4
BRANCH   1  10
ATOM     10  C   UNL     1      -9.012   2.375 -17.453  1.00  0.00     0.111 C 
BRANCH  10  11
ATOM     11  C   UNL     1      -9.772   3.672 -17.369  1.00  0.00     0.163 C 
ATOM     12  O   UNL     1      -9.422   4.510 -16.494  1.00  0.00    -0.294 OA
BRANCH  11  13
ATOM     13  C   UNL     1     -10.872   4.018 -18.318  1.00  0.00    -0.002 C 
ATOM     14  C   UNL     1     -10.602   4.644 -19.502  1.00  0.00    -0.069 C 
ATOM     15  C   UNL     1     -11.668   4.867 -20.553  1.00  0.00     0.039 C 
ATOM     16  C   UNL     1      -9.213   5.149 -19.823  1.00  0.00     0.039 C 
BRANCH  13  17
ATOM     17  C   UNL     1     -12.275   3.561 -17.952  1.00  0.00     0.066 CG0
ATOM     18  G   UNL     1     -12.360   2.060 -17.756  1.00  0.00     0.000 G0
ENDBRANCH  13  17
ENDBRANCH  11  13
ENDBRANCH  10  11
ENDBRANCH   1  10
TORSDOF 0
ENDMDL
MODEL 5
REMARK VINA RESULT:    -2.176      2.044      3.271
REMARK INTER + INTRA:          -2.558
REMARK INTER:                  -3.372
REMARK INTRA:                   0.814
REMARK UNBOUND:                 0.508
REMARK SMILES CC1=CCC(=C(C)C)C(=O)CC(C)=CCC1
REMARK SMILES IDX 12 1 14 2 13 3 15 4 16 5 2 6 1 7 3 8 11 10 9 11 10 12 5 13
REMARK SMILES IDX 6 14 7 15 8 16 4 17
REMARK H PARENT
REMARK Flexibility Score: 60.00
ROOT
ATOM      1  C   UNL     1     -11.014   3.136 -17.113  1.00  0.00    -0.070 C 
ATOM      2  C   UNL     1     -11.390   1.908 -16.688  1.00  0.00    -0.027 C 
ATOM      3  C   UNL     1      -9.899   3.828 -16.371  1.00  0.00     0.039 C 
ENDROOT
BRANCH   2   4
ATOM      4  C   UNL     1     -12.416   1.018 -17.355  1.00  0.00     0.032 C 
BRANCH   4   5
ATOM      5  C   UNL     1     -11.834  -0.218 -18.071  1.00  0.00     0.034 C 
BRANCH   5   6
ATOM      6  C   UNL     1     -11.789  -0.068 -19.581  1.00  0.00    -0.077 C 
ATOM      7  C   UNL     1     -12.957  -0.601 -20.373  1.00  0.00     0.039 C 
ATOM      8  C   UNL     1     -10.805   0.574 -20.256  1.00  0.00    -0.023 CG0
ATOM      9  G   UNL     1      -9.537   1.169 -19.678  1.00  0.00     0.000 G0
ENDBRANCH   5   6
ENDBRANCH   4   5
ENDBRANCH   2   4
BRANCH   1  10
ATOM     10  C   UNL     1     -11.593   3.802 -18.343  1.00  0.00     0.111 C 
BRANCH  10  11
ATOM     11  C   UNL     1     -10.911   3.334 -19.602  1.00  0.00     0.163 C 
ATOM     12  O   UNL     1     -11.480   3.559 -20.705  1.00  0.00    -0.294 OA
BRANCH  11  13
ATOM     13  C   UNL     1      -9.570   2.676 -19.589  1.00  0.00    -0.002 C 
ATOM     14  C   UNL     1      -8.433   3.411 -19.409  1.00  0.00    -0.069 C 
ATOM     15  C   UNL     1      -7.077   2.762 -19.233  1.00  0.00     0.039 C 
ATOM     16  C   UNL     1      -8.473   4.924 -19.376  1.00  0.00     0.039 C 
BRANCH  13  17
ATOM     17  C   UNL     1      -9.539   1.159 -19.688  1.00  0.00     0.066 CG0
ATOM     18  G   UNL     1     -10.826   0.592 -20.254  1.00  0.00     0.000 G0
ENDBRANCH  13  17
ENDBRANCH  11  13
ENDBRANCH  10  11
ENDBRANCH   1  10
TORSDOF 0
ENDMDL
MODEL 6
REMARK VINA RESULT:    -2.022      2.431      4.814
REMARK INTER + INTRA:          -2.342
REMARK INTER:                  -3.909
REMARK INTRA:                   1.567
REMARK UNBOUND:                 0.508
REMARK SMILES CC1=CCC(=C(C)C)C(=O)CC(C)=CCC1
REMARK SMILES IDX 12 1 14 2 13 3 15 4 16 5 2 6 1 7 3 8 11 10 9 11 10 12 5 13
REMARK SMILES IDX 6 14 7 15 8 16 4 17
REMARK H PARENT
REMARK Flexibility Score: 60.00
ROOT
ATOM      1  C   UNL     1     -12.010   0.033 -19.461  1.00  0.00    -0.070 C 
ATOM      2  C   UNL     1     -12.166   0.144 -18.123  1.00  0.00    -0.027 C 
ATOM      3  C   UNL     1     -12.535  -1.212 -20.132  1.00  0.00     0.039 C 
ENDROOT
BRANCH   2   4
ATOM      4  C   UNL     1     -11.796   1.350 -17.288  1.00  0.00     0.032 C 
BRANCH   4   5
ATOM      5  C   UNL     1     -12.552   2.646 -17.649  1.00  0.00     0.034 C 
BRANCH   5   6
ATOM      6  C   UNL     1     -11.755   3.904 -17.356  1.00  0.00    -0.077 C 
ATOM      7  C   UNL     1     -12.030   4.622 -16.059  1.00  0.00     0.039 C 
ATOM      8  C   UNL     1     -10.766   4.384 -18.149  1.00  0.00    -0.023 CG0
ATOM      9  G   UNL     1     -10.330   3.842 -19.496  1.00  0.00     0.000 G0
ENDBRANCH   5   6
ENDBRANCH   4   5
ENDBRANCH   2   4
BRANCH   1  10
ATOM     10  C   UNL     1     -11.421   1.130 -20.323  1.00  0.00     0.111 C 
BRANCH  10  11
ATOM     11  C   UNL     1      -9.964   1.356 -20.018  1.00  0.00     0.163 C 
ATOM     12  O   UNL     1      -9.137   0.478 -20.385  1.00  0.00    -0.294 OA
BRANCH  11  13
ATOM     13  C   UNL     1      -9.468   2.601 -19.358  1.00  0.00    -0.002 C 
ATOM     14  C   UNL     1      -8.254   2.622 -18.730  1.00  0.00    -0.069 C 
ATOM     15  C   UNL     1      -7.653   3.902 -18.191  1.00  0.00     0.039 C 
ATOM     16  C   UNL     1      -7.446   1.357 -18.542  1.00  0.00     0.039 C 
BRANCH  13  17
ATOM     17  C   UNL     1     -10.321   3.851 -19.499  1.00  0.00     0.066 CG0
ATOM     18  G   UNL     1     -10.772   4.397 -18.159  1.00  0.00     0.000 G0
ENDBRANCH  13  17
ENDBRANCH  11  13
ENDBRANCH  10  11
ENDBRANCH   1  10
TORSDOF 0
ENDMDL
MODEL 7
REMARK VINA RESULT:    -1.994      1.644      3.335
REMARK INTER + INTRA:          -2.302
REMARK INTER:                  -3.328
REMARK INTRA:                   1.026
REMARK UNBOUND:                 0.508
REMARK SMILES CC1=CCC(=C(C)C)C(=O)CC(C)=CCC1
REMARK SMILES IDX 12 1 14 2 13 3 15 4 16 5 2 6 1 7 3 8 11 10 9 11 10 12 5 13
REMARK SMILES IDX 6 14 7 15 8 16 4 17
REMARK H PARENT
REMARK Flexibility Score: 60.00
ROOT
ATOM      1  C   UNL     1      -9.511   3.557 -16.624  1.00  0.00    -0.070 C 
ATOM      2  C   UNL     1      -8.390   3.459 -17.374  1.00  0.00    -0.027 C 
ATOM      3  C   UNL     1      -9.714   4.816 -15.819  1.00  0.00     0.039 C 
ENDROOT
BRANCH   2   4
ATOM      4  C   UNL     1      -8.055   2.325 -18.317  1.00  0.00     0.032 C 
BRANCH   4   5
ATOM      5  C   UNL     1      -8.669   2.451 -19.727  1.00  0.00     0.034 C 
BRANCH   5   6
ATOM      6  C   UNL     1      -9.285   3.813 -19.990  1.00  0.00    -0.077 C 
ATOM      7  C   UNL     1      -8.359   5.001 -20.054  1.00  0.00     0.039 C 
ATOM      8  C   UNL     1     -10.601   4.021 -20.241  1.00  0.00    -0.023 CG0
ATOM      9  G   UNL     1     -11.711   2.990 -20.213  1.00  0.00     0.000 G0
ENDBRANCH   5   6
ENDBRANCH   4   5
ENDBRANCH   2   4
BRANCH   1  10
ATOM     10  C   UNL     1     -10.606   2.511 -16.626  1.00  0.00     0.111 C 
BRANCH  10  11
ATOM     11  C   UNL     1     -11.662   2.812 -17.656  1.00  0.00     0.163 C 
ATOM     12  O   UNL     1     -12.500   3.719 -17.401  1.00  0.00    -0.294 OA
BRANCH  11  13
ATOM     13  C   UNL     1     -11.709   2.122 -18.980  1.00  0.00    -0.002 C 
ATOM     14  C   UNL     1     -11.819   0.762 -19.056  1.00  0.00    -0.069 C 
ATOM     15  C   UNL     1     -12.028   0.047 -20.373  1.00  0.00     0.039 C 
ATOM     16  C   UNL     1     -11.739  -0.101 -17.817  1.00  0.00     0.039 C 
BRANCH  13  17
ATOM     17  C   UNL     1     -11.725   3.000 -20.222  1.00  0.00     0.066 CG0
ATOM     18  G   UNL     1     -10.605   4.021 -20.221  1.00  0.00     0.000 G0
ENDBRANCH  13  17
ENDBRANCH  11  13
ENDBRANCH  10  11
ENDBRANCH   1  10
TORSDOF 0
ENDMDL
MODEL 8
REMARK VINA RESULT:    -1.837      1.895      3.830
REMARK INTER + INTRA:          -2.081
REMARK INTER:                  -3.413
REMARK INTRA:                   1.332
REMARK UNBOUND:                 0.508
REMARK SMILES CC1=CCC(=C(C)C)C(=O)CC(C)=CCC1
REMARK SMILES IDX 12 1 14 2 13 3 15 4 16 5 2 6 1 7 3 8 11 10 9 11 10 12 5 13
REMARK SMILES IDX 6 14 7 15 8 16 4 17
REMARK H PARENT
REMARK Flexibility Score: 60.00
ROOT
ATOM      1  C   UNL     1     -11.849   0.450 -19.231  1.00  0.00    -0.070 C 
ATOM      2  C   UNL     1     -10.924   0.431 -20.217  1.00  0.00    -0.027 C 
ATOM      3  C   UNL     1     -13.177  -0.214 -19.497  1.00  0.00     0.039 C 
ENDROOT
BRANCH   2   4
ATOM      4  C   UNL     1      -9.509   0.955 -20.111  1.00  0.00     0.032 C 
BRANCH   4   5
ATOM      5  C   UNL     1      -8.892   0.876 -18.698  1.00  0.00     0.034 C 
BRANCH   5   6
ATOM      6  C   UNL     1      -7.892   1.983 -18.420  1.00  0.00    -0.077 C 
ATOM      7  C   UNL     1      -6.496   1.819 -18.965  1.00  0.00     0.039 C 
ATOM      8  C   UNL     1      -8.190   3.138 -17.777  1.00  0.00    -0.023 CG0
ATOM      9  G   UNL     1      -9.511   3.513 -17.134  1.00  0.00     0.000 G0
ENDBRANCH   5   6
ENDBRANCH   4   5
ENDBRANCH   2   4
BRANCH   1  10
ATOM     10  C   UNL     1     -11.584   1.022 -17.854  1.00  0.00     0.111 C 
BRANCH  10  11
ATOM     11  C   UNL     1     -11.766   2.517 -17.827  1.00  0.00     0.163 C 
ATOM     12  O   UNL     1     -12.890   2.973 -17.484  1.00  0.00    -0.294 OA
BRANCH  11  13
ATOM     13  C   UNL     1     -10.652   3.464 -18.131  1.00  0.00    -0.002 C 
ATOM     14  C   UNL     1     -10.720   4.300 -19.210  1.00  0.00    -0.069 C 
ATOM     15  C   UNL     1      -9.687   5.378 -19.456  1.00  0.00     0.039 C 
ATOM     16  C   UNL     1     -11.842   4.187 -20.220  1.00  0.00     0.039 C 
BRANCH  13  17
ATOM     17  C   UNL     1      -9.499   3.522 -17.142  1.00  0.00     0.066 CG0
ATOM     18  G   UNL     1      -8.177   3.132 -17.773  1.00  0.00     0.000 G0
ENDBRANCH  13  17
ENDBRANCH  11  13
ENDBRANCH  10  11
ENDBRANCH   1  10
TORSDOF 0
ENDMDL
MODEL 9
REMARK VINA RESULT:    -1.730     15.140     17.327
REMARK INTER + INTRA:          -1.930
REMARK INTER:                  -3.437
REMARK INTRA:                   1.506
REMARK UNBOUND:                 0.508
REMARK SMILES CC1=CCC(=C(C)C)C(=O)CC(C)=CCC1
REMARK SMILES IDX 12 1 14 2 13 3 15 4 16 5 2 6 1 7 3 8 11 10 9 11 10 12 5 13
REMARK SMILES IDX 6 14 7 15 8 16 4 17
REMARK H PARENT
REMARK Flexibility Score: 60.00
ROOT
ATOM      1  C   UNL     1       4.262   8.468 -16.008  1.00  0.00    -0.070 C 
ATOM      2  C   UNL     1       3.112   9.025 -16.450  1.00  0.00    -0.027 C 
ATOM      3  C   UNL     1       4.749   7.216 -16.693  1.00  0.00     0.039 C 
ENDROOT
BRANCH   2   4
ATOM      4  C   UNL     1       2.515  10.326 -15.960  1.00  0.00     0.032 C 
BRANCH   4   5
ATOM      5  C   UNL     1       1.222  10.174 -15.132  1.00  0.00     0.034 C 
BRANCH   5   6
ATOM      6  C   UNL     1       1.088  11.217 -14.037  1.00  0.00    -0.077 C 
ATOM      7  C   UNL     1      -0.304  11.615 -13.614  1.00  0.00     0.039 C 
ATOM      8  C   UNL     1       2.134  11.760 -13.367  1.00  0.00    -0.023 CG0
ATOM      9  G   UNL     1       3.608  11.525 -13.627  1.00  0.00     0.000 G0
ENDBRANCH   5   6
ENDBRANCH   4   5
ENDBRANCH   2   4
BRANCH   1  10
ATOM     10  C   UNL     1       5.125   9.089 -14.929  1.00  0.00     0.111 C 
BRANCH  10  11
ATOM     11  C   UNL     1       4.423   9.105 -13.596  1.00  0.00     0.163 C 
ATOM     12  O   UNL     1       4.090   8.001 -13.087  1.00  0.00    -0.294 OA
BRANCH  11  13
ATOM     13  C   UNL     1       4.168  10.368 -12.841  1.00  0.00    -0.002 C 
ATOM     14  C   UNL     1       4.510  10.474 -11.522  1.00  0.00    -0.069 C 
ATOM     15  C   UNL     1       4.412  11.785 -10.771  1.00  0.00     0.039 C 
ATOM     16  C   UNL     1       5.007   9.277 -10.742  1.00  0.00     0.039 C 
BRANCH  13  17
ATOM     17  C   UNL     1       3.608  11.546 -13.623  1.00  0.00     0.066 CG0
ATOM     18  G   UNL     1       2.126  11.748 -13.378  1.00  0.00     0.000 G0
ENDBRANCH  13  17
ENDBRANCH  11  13
ENDBRANCH  10  11
ENDBRANCH   1  10
TORSDOF 0
ENDMDL
