MODEL 1
REMARK VINA RESULT:    -6.400      0.000      0.000
REMARK INTER + INTRA:         -10.234
REMARK INTER:                  -9.768
REMARK INTRA:                  -0.466
REMARK UNBOUND:                -0.466
REMARK SMILES CCCCCCCCCCC(=O)[O-]
REMARK SMILES IDX 7 1 8 2 9 3 10 4 11 5 12 6 13 7 6 8 5 9 4 10 3 11 2 12 1 13
REMARK H PARENT
REMARK Flexibility Score: inf
ROOT
ATOM      1  C   UNL     1      29.174  -0.566  41.109  1.00  0.00     0.000 C 
ENDROOT
BRANCH   1   2
ATOM      2  C   UNL     1      28.128  -1.301  41.962  1.00  0.00     0.000 C 
BRANCH   2   3
ATOM      3  C   UNL     1      28.085  -0.794  43.413  1.00  0.00     0.006 C 
BRANCH   3   4
ATOM      4  C   UNL     1      28.714  -1.792  44.394  1.00  0.00     0.053 C 
BRANCH   4   5
ATOM      5  C   UNL     1      30.023  -1.295  44.927  1.00  0.00     0.041 C 
ATOM      6  O   UNL     1      30.311  -1.445  46.143  1.00  0.00    -0.550 OA
ATOM      7  O   UNL     1      30.939  -0.696  44.070  1.00  0.00    -0.550 OA
ENDBRANCH   4   5
ENDBRANCH   3   4
ENDBRANCH   2   3
ENDBRANCH   1   2
BRANCH   1   8
ATOM      8  C   UNL     1      29.024  -0.858  39.609  1.00  0.00     0.000 C 
BRANCH   8   9
ATOM      9  C   UNL     1      28.797   0.436  38.817  1.00  0.00    -0.000 C 
BRANCH   9  10
ATOM     10  C   UNL     1      29.991   0.737  37.898  1.00  0.00    -0.000 C 
BRANCH  10  11
ATOM     11  C   UNL     1      31.347   0.413  38.552  1.00  0.00    -0.000 C 
BRANCH  11  12
ATOM     12  C   UNL     1      32.111   1.634  39.092  1.00  0.00    -0.003 C 
ATOM     13  C   UNL     1      31.289   2.471  40.072  1.00  0.00     0.004 C 
ENDBRANCH  11  12
ENDBRANCH  10  11
ENDBRANCH   9  10
ENDBRANCH   8   9
ENDBRANCH   1   8
TORSDOF 9
ENDMDL
MODEL 2
REMARK VINA RESULT:    -6.242      2.847      5.989
REMARK INTER + INTRA:          -9.992
REMARK INTER:                  -9.386
REMARK INTRA:                  -0.605
REMARK UNBOUND:                -0.466
REMARK SMILES CCCCCCCCCCC(=O)[O-]
REMARK SMILES IDX 7 1 8 2 9 3 10 4 11 5 12 6 13 7 6 8 5 9 4 10 3 11 2 12 1 13
REMARK H PARENT
REMARK Flexibility Score: inf
ROOT
ATOM      1  C   UNL     1      30.726  -0.362  41.567  1.00  0.00     0.000 C 
ENDROOT
BRANCH   1   2
ATOM      2  C   UNL     1      31.753  -0.668  40.466  1.00  0.00     0.000 C 
BRANCH   2   3
ATOM      3  C   UNL     1      31.877   0.469  39.438  1.00  0.00     0.006 C 
BRANCH   3   4
ATOM      4  C   UNL     1      30.609   1.330  39.372  1.00  0.00     0.053 C 
BRANCH   4   5
ATOM      5  C   UNL     1      29.584   0.739  38.452  1.00  0.00     0.041 C 
ATOM      6  O   UNL     1      28.503   0.288  38.913  1.00  0.00    -0.550 OA
ATOM      7  O   UNL     1      29.811   0.719  37.082  1.00  0.00    -0.550 OA
ENDBRANCH   4   5
ENDBRANCH   3   4
ENDBRANCH   2   3
ENDBRANCH   1   2
BRANCH   1   8
ATOM      8  C   UNL     1      29.745  -1.521  41.798  1.00  0.00     0.000 C 
BRANCH   8   9
ATOM      9  C   UNL     1      28.384  -1.001  42.279  1.00  0.00    -0.000 C 
BRANCH   9  10
ATOM     10  C   UNL     1      28.422  -0.663  43.777  1.00  0.00    -0.000 C 
BRANCH  10  11
ATOM     11  C   UNL     1      29.196  -1.704  44.607  1.00  0.00    -0.000 C 
BRANCH  11  12
ATOM     12  C   UNL     1      30.340  -1.128  45.461  1.00  0.00    -0.003 C 
ATOM     13  C   UNL     1      30.406  -1.736  46.861  1.00  0.00     0.004 C 
ENDBRANCH  11  12
ENDBRANCH  10  11
ENDBRANCH   9  10
ENDBRANCH   8   9
ENDBRANCH   1   8
TORSDOF 9
ENDMDL
MODEL 3
REMARK VINA RESULT:    -6.184      1.027      2.073
REMARK INTER + INTRA:          -9.903
REMARK INTER:                  -9.262
REMARK INTRA:                  -0.641
REMARK UNBOUND:                -0.466
REMARK SMILES CCCCCCCCCCC(=O)[O-]
REMARK SMILES IDX 7 1 8 2 9 3 10 4 11 5 12 6 13 7 6 8 5 9 4 10 3 11 2 12 1 13
REMARK H PARENT
REMARK Flexibility Score: inf
ROOT
ATOM      1  C   UNL     1      29.061  -1.032  41.259  1.00  0.00     0.000 C 
ENDROOT
BRANCH   1   2
ATOM      2  C   UNL     1      28.334  -1.729  42.420  1.00  0.00     0.000 C 
BRANCH   2   3
ATOM      3  C   UNL     1      28.555  -1.021  43.767  1.00  0.00     0.006 C 
BRANCH   3   4
ATOM      4  C   UNL     1      28.915  -2.007  44.887  1.00  0.00     0.053 C 
BRANCH   4   5
ATOM      5  C   UNL     1      30.107  -1.546  45.669  1.00  0.00     0.041 C 
ATOM      6  O   UNL     1      30.971  -0.805  45.131  1.00  0.00    -0.550 OA
ATOM      7  O   UNL     1      30.244  -1.908  47.003  1.00  0.00    -0.550 OA
ENDBRANCH   4   5
ENDBRANCH   3   4
ENDBRANCH   2   3
ENDBRANCH   1   2
BRANCH   1   8
ATOM      8  C   UNL     1      30.468  -0.553  41.647  1.00  0.00     0.000 C 
BRANCH   8   9
ATOM      9  C   UNL     1      31.426  -0.637  40.451  1.00  0.00    -0.000 C 
BRANCH   9  10
ATOM     10  C   UNL     1      31.848   0.764  39.983  1.00  0.00    -0.000 C 
BRANCH  10  11
ATOM     11  C   UNL     1      31.451   1.053  38.524  1.00  0.00    -0.000 C 
BRANCH  11  12
ATOM     12  C   UNL     1      30.121   0.420  38.078  1.00  0.00    -0.003 C 
ATOM     13  C   UNL     1      28.897   1.213  38.534  1.00  0.00     0.004 C 
ENDBRANCH  11  12
ENDBRANCH  10  11
ENDBRANCH   9  10
ENDBRANCH   8   9
ENDBRANCH   1   8
TORSDOF 9
ENDMDL
MODEL 4
REMARK VINA RESULT:    -5.909      2.205      5.382
REMARK INTER + INTRA:          -9.483
REMARK INTER:                  -8.957
REMARK INTRA:                  -0.526
REMARK UNBOUND:                -0.466
REMARK SMILES CCCCCCCCCCC(=O)[O-]
REMARK SMILES IDX 7 1 8 2 9 3 10 4 11 5 12 6 13 7 6 8 5 9 4 10 3 11 2 12 1 13
REMARK H PARENT
REMARK Flexibility Score: inf
ROOT
ATOM      1  C   UNL     1      28.602  -0.788  39.052  1.00  0.00     0.000 C 
ENDROOT
BRANCH   1   2
ATOM      2  C   UNL     1      29.070   0.670  38.931  1.00  0.00     0.000 C 
BRANCH   2   3
ATOM      3  C   UNL     1      29.991   0.897  37.720  1.00  0.00     0.006 C 
BRANCH   3   4
ATOM      4  C   UNL     1      31.472   0.720  38.079  1.00  0.00     0.053 C 
BRANCH   4   5
ATOM      5  C   UNL     1      31.751   1.116  39.497  1.00  0.00     0.041 C 
ATOM      6  O   UNL     1      32.125   0.253  40.334  1.00  0.00    -0.550 OA
ATOM      7  O   UNL     1      31.629   2.444  39.884  1.00  0.00    -0.550 OA
ENDBRANCH   4   5
ENDBRANCH   3   4
ENDBRANCH   2   3
ENDBRANCH   1   2
BRANCH   1   8
ATOM      8  C   UNL     1      28.807  -1.360  40.463  1.00  0.00     0.000 C 
BRANCH   8   9
ATOM      9  C   UNL     1      28.893  -0.236  41.503  1.00  0.00    -0.000 C 
BRANCH   9  10
ATOM     10  C   UNL     1      28.146  -0.618  42.790  1.00  0.00    -0.000 C 
BRANCH  10  11
ATOM     11  C   UNL     1      28.976  -1.524  43.719  1.00  0.00    -0.000 C 
BRANCH  11  12
ATOM     12  C   UNL     1      30.195  -0.842  44.365  1.00  0.00    -0.003 C 
ATOM     13  C   UNL     1      30.422  -1.270  45.815  1.00  0.00     0.004 C 
ENDBRANCH  11  12
ENDBRANCH  10  11
ENDBRANCH   9  10
ENDBRANCH   8   9
ENDBRANCH   1   8
TORSDOF 9
ENDMDL
MODEL 5
REMARK VINA RESULT:    -5.385      1.596      2.892
REMARK INTER + INTRA:          -8.684
REMARK INTER:                  -7.887
REMARK INTRA:                  -0.797
REMARK UNBOUND:                -0.466
REMARK SMILES CCCCCCCCCCC(=O)[O-]
REMARK SMILES IDX 7 1 8 2 9 3 10 4 11 5 12 6 13 7 6 8 5 9 4 10 3 11 2 12 1 13
REMARK H PARENT
REMARK Flexibility Score: inf
ROOT
ATOM      1  C   UNL     1      32.125   0.073  40.193  1.00  0.00     0.000 C 
ENDROOT
BRANCH   1   2
ATOM      2  C   UNL     1      31.719  -0.927  41.286  1.00  0.00     0.000 C 
BRANCH   2   3
ATOM      3  C   UNL     1      30.389  -0.557  41.964  1.00  0.00     0.006 C 
BRANCH   3   4
ATOM      4  C   UNL     1      30.390  -0.891  43.462  1.00  0.00     0.053 C 
BRANCH   4   5
ATOM      5  C   UNL     1      29.006  -1.150  43.972  1.00  0.00     0.041 C 
ATOM      6  O   UNL     1      28.796  -2.083  44.790  1.00  0.00    -0.550 OA
ATOM      7  O   UNL     1      27.954  -0.337  43.570  1.00  0.00    -0.550 OA
ENDBRANCH   4   5
ENDBRANCH   3   4
ENDBRANCH   2   3
ENDBRANCH   1   2
BRANCH   1   8
ATOM      8  C   UNL     1      31.556   1.479  40.438  1.00  0.00     0.000 C 
BRANCH   8   9
ATOM      9  C   UNL     1      31.048   2.102  39.131  1.00  0.00    -0.000 C 
BRANCH   9  10
ATOM     10  C   UNL     1      31.234   1.135  37.952  1.00  0.00    -0.000 C 
BRANCH  10  11
ATOM     11  C   UNL     1      29.906   0.536  37.453  1.00  0.00    -0.000 C 
BRANCH  11  12
ATOM     12  C   UNL     1      28.781   0.497  38.503  1.00  0.00    -0.003 C 
ATOM     13  C   UNL     1      28.603  -0.881  39.139  1.00  0.00     0.004 C 
ENDBRANCH  11  12
ENDBRANCH  10  11
ENDBRANCH   9  10
ENDBRANCH   8   9
ENDBRANCH   1   8
TORSDOF 9
ENDMDL
MODEL 6
REMARK VINA RESULT:    -4.680      2.898      5.982
REMARK INTER + INTRA:          -7.608
REMARK INTER:                  -7.292
REMARK INTRA:                  -0.316
REMARK UNBOUND:                -0.466
REMARK SMILES CCCCCCCCCCC(=O)[O-]
REMARK SMILES IDX 7 1 8 2 9 3 10 4 11 5 12 6 13 7 6 8 5 9 4 10 3 11 2 12 1 13
REMARK H PARENT
REMARK Flexibility Score: inf
ROOT
ATOM      1  C   UNL     1      30.865  -0.466  41.138  1.00  0.00     0.000 C 
ENDROOT
BRANCH   1   2
ATOM      2  C   UNL     1      32.086  -0.490  40.205  1.00  0.00     0.000 C 
BRANCH   2   3
ATOM      3  C   UNL     1      32.008   0.576  39.100  1.00  0.00     0.006 C 
BRANCH   3   4
ATOM      4  C   UNL     1      30.753   1.450  39.226  1.00  0.00     0.053 C 
BRANCH   4   5
ATOM      5  C   UNL     1      29.619   0.913  38.407  1.00  0.00     0.041 C 
ATOM      6  O   UNL     1      28.484   0.748  38.926  1.00  0.00    -0.550 OA
ATOM      7  O   UNL     1      29.810   0.627  37.061  1.00  0.00    -0.550 OA
ENDBRANCH   4   5
ENDBRANCH   3   4
ENDBRANCH   2   3
ENDBRANCH   1   2
BRANCH   1   8
ATOM      8  C   UNL     1      31.180  -1.020  42.536  1.00  0.00     0.000 C 
BRANCH   8   9
ATOM      9  C   UNL     1      30.443  -0.223  43.621  1.00  0.00    -0.000 C 
BRANCH   9  10
ATOM     10  C   UNL     1      29.756  -1.163  44.623  1.00  0.00    -0.000 C 
BRANCH  10  11
ATOM     11  C   UNL     1      28.423  -1.728  44.099  1.00  0.00    -0.000 C 
BRANCH  11  12
ATOM     12  C   UNL     1      27.771  -0.905  42.973  1.00  0.00    -0.003 C 
ATOM     13  C   UNL     1      27.628  -1.684  41.667  1.00  0.00     0.004 C 
ENDBRANCH  11  12
ENDBRANCH  10  11
ENDBRANCH   9  10
ENDBRANCH   8   9
ENDBRANCH   1   8
TORSDOF 9
ENDMDL
