MODEL 1
REMARK VINA RESULT:    -3.725      0.000      0.000
REMARK INTER + INTRA:          -7.902
REMARK INTER:                  -5.793
REMARK INTRA:                  -2.108
REMARK UNBOUND:                -2.108
REMARK SMILES COc1cc(CNC(=O)CCCCC=CC(C)C)ccc1O
REMARK SMILES IDX 11 1 12 2 13 3 14 4 15 5 16 6 17 7 18 8 10 9 8 10 9 11 7 12
REMARK SMILES IDX 6 14 5 15 4 16 19 17 3 18 20 19 21 20 2 21 1 22 22 23
REMARK H PARENT 7 13 22 24
REMARK Flexibility Score: inf
ROOT
ATOM      1  C   UNL     1      -0.996   2.718  -9.478  1.00  0.00     0.010 C 
ENDROOT
BRANCH   1   2
ATOM      2  C   UNL     1      -0.257   2.248  -8.216  1.00  0.00     0.005 C 
BRANCH   2   3
ATOM      3  C   UNL     1       0.898   3.190  -7.833  1.00  0.00     0.027 C 
BRANCH   3   4
ATOM      4  C   UNL     1       1.436   2.909  -6.453  1.00  0.00    -0.031 C 
ATOM      5  C   UNL     1       2.633   3.370  -6.055  1.00  0.00    -0.028 C 
BRANCH   5   6
ATOM      6  C   UNL     1       3.200   3.036  -4.693  1.00  0.00     0.005 C 
ATOM      7  C   UNL     1       2.342   1.971  -3.995  1.00  0.00     0.012 C 
ATOM      8  C   UNL     1       4.646   2.543  -4.830  1.00  0.00     0.012 C 
ENDBRANCH   5   6
ENDBRANCH   3   4
ENDBRANCH   2   3
ENDBRANCH   1   2
BRANCH   1   9
ATOM      9  C   UNL     1      -2.344   2.004  -9.624  1.00  0.00     0.100 C 
BRANCH   9  10
ATOM     10  C   UNL     1      -3.245   2.388  -8.493  1.00  0.00     0.220 C 
ATOM     11  O   UNL     1      -3.691   1.492  -7.724  1.00  0.00    -0.275 OA
ATOM     12  N   UNL     1      -3.521   3.772  -8.230  1.00  0.00    -0.352 N 
ATOM     13  H   UNL     1      -3.257   4.486  -8.947  1.00  0.00     0.163 HD
BRANCH  12  14
ATOM     14  C   UNL     1      -3.887   4.245  -6.898  1.00  0.00     0.151 C 
BRANCH  14  15
ATOM     15  C   UNL     1      -2.640   4.481  -6.088  1.00  0.00    -0.025 A 
ATOM     16  C   UNL     1      -1.790   5.562  -6.383  1.00  0.00     0.056 A 
ATOM     17  C   UNL     1      -2.366   3.674  -4.976  1.00  0.00     0.009 A 
ATOM     18  C   UNL     1      -0.660   5.826  -5.582  1.00  0.00     0.160 A 
ATOM     19  C   UNL     1      -1.241   3.921  -4.187  1.00  0.00     0.050 A 
ATOM     20  C   UNL     1      -0.387   4.989  -4.483  1.00  0.00     0.157 A 
BRANCH  18  21
ATOM     21  O   UNL     1       0.201   6.906  -5.846  1.00  0.00    -0.493 OA
ATOM     22  C   UNL     1       1.322   6.848  -6.723  1.00  0.00     0.278 C 
ENDBRANCH  18  21
BRANCH  20  23
ATOM     23  O   UNL     1       0.730   5.202  -3.672  1.00  0.00    -0.504 OA
ATOM     24  H   UNL     1       0.655   5.613  -2.748  1.00  0.00     0.293 HD
ENDBRANCH  20  23
ENDBRANCH  14  15
ENDBRANCH  12  14
ENDBRANCH   9  10
ENDBRANCH   1   9
TORSDOF 10
ENDMDL
MODEL 2
REMARK VINA RESULT:    -3.715      2.664      5.469
REMARK INTER + INTRA:          -7.887
REMARK INTER:                  -7.325
REMARK INTRA:                  -0.562
REMARK UNBOUND:                -2.108
REMARK SMILES COc1cc(CNC(=O)CCCCC=CC(C)C)ccc1O
REMARK SMILES IDX 11 1 12 2 13 3 14 4 15 5 16 6 17 7 18 8 10 9 8 10 9 11 7 12
REMARK SMILES IDX 6 14 5 15 4 16 19 17 3 18 20 19 21 20 2 21 1 22 22 23
REMARK H PARENT 7 13 22 24
REMARK Flexibility Score: inf
ROOT
ATOM      1  C   UNL     1       1.927   2.220  -4.203  1.00  0.00     0.010 C 
ENDROOT
BRANCH   1   2
ATOM      2  C   UNL     1       2.609   1.052  -3.474  1.00  0.00     0.005 C 
BRANCH   2   3
ATOM      3  C   UNL     1       4.132   1.244  -3.366  1.00  0.00     0.027 C 
BRANCH   3   4
ATOM      4  C   UNL     1       4.882  -0.062  -3.430  1.00  0.00    -0.031 C 
ATOM      5  C   UNL     1       6.221  -0.112  -3.345  1.00  0.00    -0.028 C 
BRANCH   5   6
ATOM      6  C   UNL     1       6.978  -1.416  -3.472  1.00  0.00     0.005 C 
ATOM      7  C   UNL     1       6.303  -2.516  -2.641  1.00  0.00     0.012 C 
ATOM      8  C   UNL     1       7.058  -1.838  -4.944  1.00  0.00     0.012 C 
ENDBRANCH   5   6
ENDBRANCH   3   4
ENDBRANCH   2   3
ENDBRANCH   1   2
BRANCH   1   9
ATOM      9  C   UNL     1       0.416   1.989  -4.319  1.00  0.00     0.100 C 
BRANCH   9  10
ATOM     10  C   UNL     1      -0.312   3.271  -4.063  1.00  0.00     0.220 C 
ATOM     11  O   UNL     1       0.347   4.332  -3.882  1.00  0.00    -0.275 OA
ATOM     12  N   UNL     1      -1.745   3.307  -4.118  1.00  0.00    -0.352 N 
ATOM     13  H   UNL     1      -2.274   2.406  -4.135  1.00  0.00     0.163 HD
BRANCH  12  14
ATOM     14  C   UNL     1      -2.473   4.532  -4.437  1.00  0.00     0.151 C 
BRANCH  14  15
ATOM     15  C   UNL     1      -3.237   4.343  -5.721  1.00  0.00    -0.025 A 
ATOM     16  C   UNL     1      -3.029   3.201  -6.514  1.00  0.00     0.056 A 
ATOM     17  C   UNL     1      -4.227   5.264  -6.087  1.00  0.00     0.009 A 
ATOM     18  C   UNL     1      -3.794   2.987  -7.679  1.00  0.00     0.160 A 
ATOM     19  C   UNL     1      -4.978   5.066  -7.247  1.00  0.00     0.050 A 
ATOM     20  C   UNL     1      -4.767   3.936  -8.045  1.00  0.00     0.157 A 
BRANCH  18  21
ATOM     21  O   UNL     1      -3.616   1.848  -8.485  1.00  0.00    -0.493 OA
ATOM     22  C   UNL     1      -2.475   1.612  -9.305  1.00  0.00     0.278 C 
ENDBRANCH  18  21
BRANCH  20  23
ATOM     23  O   UNL     1      -5.536   3.775  -9.200  1.00  0.00    -0.504 OA
ATOM     24  H   UNL     1      -5.514   4.445  -9.961  1.00  0.00     0.293 HD
ENDBRANCH  20  23
ENDBRANCH  14  15
ENDBRANCH  12  14
ENDBRANCH   9  10
ENDBRANCH   1   9
TORSDOF 10
ENDMDL
MODEL 3
REMARK VINA RESULT:    -3.637      7.814     11.112
REMARK INTER + INTRA:          -7.766
REMARK INTER:                  -7.009
REMARK INTRA:                  -0.757
REMARK UNBOUND:                -2.108
REMARK SMILES COc1cc(CNC(=O)CCCCC=CC(C)C)ccc1O
REMARK SMILES IDX 11 1 12 2 13 3 14 4 15 5 16 6 17 7 18 8 10 9 8 10 9 11 7 12
REMARK SMILES IDX 6 14 5 15 4 16 19 17 3 18 20 19 21 20 2 21 1 22 22 23
REMARK H PARENT 7 13 22 24
REMARK Flexibility Score: inf
ROOT
ATOM      1  C   UNL     1       4.982   0.100  -0.904  1.00  0.00     0.010 C 
ENDROOT
BRANCH   1   2
ATOM      2  C   UNL     1       4.488   0.864  -2.142  1.00  0.00     0.005 C 
BRANCH   2   3
ATOM      3  C   UNL     1       3.576   0.000  -3.032  1.00  0.00     0.027 C 
BRANCH   3   4
ATOM      4  C   UNL     1       2.354   0.749  -3.500  1.00  0.00    -0.031 C 
ATOM      5  C   UNL     1       2.440   1.985  -4.018  1.00  0.00    -0.028 C 
BRANCH   5   6
ATOM      6  C   UNL     1       1.209   2.761  -4.431  1.00  0.00     0.005 C 
ATOM      7  C   UNL     1       1.314   3.204  -5.897  1.00  0.00     0.012 C 
ATOM      8  C   UNL     1      -0.047   1.904  -4.227  1.00  0.00     0.012 C 
ENDBRANCH   5   6
ENDBRANCH   3   4
ENDBRANCH   2   3
ENDBRANCH   1   2
BRANCH   1   9
ATOM      9  C   UNL     1       5.910  -1.052  -1.303  1.00  0.00     0.100 C 
BRANCH   9  10
ATOM     10  C   UNL     1       5.405  -2.334  -0.716  1.00  0.00     0.220 C 
ATOM     11  O   UNL     1       6.147  -3.354  -0.725  1.00  0.00    -0.275 OA
ATOM     12  N   UNL     1       4.126  -2.372  -0.067  1.00  0.00    -0.352 N 
ATOM     13  H   UNL     1       3.473  -1.564  -0.185  1.00  0.00     0.163 HD
BRANCH  12  14
ATOM     14  C   UNL     1       3.818  -3.352   0.971  1.00  0.00     0.151 C 
BRANCH  14  15
ATOM     15  C   UNL     1       2.984  -4.460   0.383  1.00  0.00    -0.025 A 
ATOM     16  C   UNL     1       3.595  -5.616  -0.134  1.00  0.00     0.056 A 
ATOM     17  C   UNL     1       1.586  -4.383   0.431  1.00  0.00     0.009 A 
ATOM     18  C   UNL     1       2.813  -6.685  -0.620  1.00  0.00     0.160 A 
ATOM     19  C   UNL     1       0.806  -5.432  -0.060  1.00  0.00     0.050 A 
ATOM     20  C   UNL     1       1.410  -6.580  -0.586  1.00  0.00     0.157 A 
BRANCH  18  21
ATOM     21  O   UNL     1       3.396  -7.858  -1.132  1.00  0.00    -0.493 OA
ATOM     22  C   UNL     1       3.587  -9.056  -0.384  1.00  0.00     0.278 C 
ENDBRANCH  18  21
BRANCH  20  23
ATOM     23  O   UNL     1       0.596  -7.606  -1.072  1.00  0.00    -0.504 OA
ATOM     24  H   UNL     1       0.431  -7.739  -2.064  1.00  0.00     0.293 HD
ENDBRANCH  20  23
ENDBRANCH  14  15
ENDBRANCH  12  14
ENDBRANCH   9  10
ENDBRANCH   1   9
TORSDOF 10
ENDMDL
MODEL 4
REMARK VINA RESULT:    -3.599      2.504      5.365
REMARK INTER + INTRA:          -7.706
REMARK INTER:                  -6.193
REMARK INTRA:                  -1.513
REMARK UNBOUND:                -2.108
REMARK SMILES COc1cc(CNC(=O)CCCCC=CC(C)C)ccc1O
REMARK SMILES IDX 11 1 12 2 13 3 14 4 15 5 16 6 17 7 18 8 10 9 8 10 9 11 7 12
REMARK SMILES IDX 6 14 5 15 4 16 19 17 3 18 20 19 21 20 2 21 1 22 22 23
REMARK H PARENT 7 13 22 24
REMARK Flexibility Score: inf
ROOT
ATOM      1  C   UNL     1      -1.373   5.907  -5.129  1.00  0.00     0.010 C 
ENDROOT
BRANCH   1   2
ATOM      2  C   UNL     1      -1.911   6.781  -6.272  1.00  0.00     0.005 C 
BRANCH   2   3
ATOM      3  C   UNL     1      -1.816   6.076  -7.637  1.00  0.00     0.027 C 
BRANCH   3   4
ATOM      4  C   UNL     1      -0.706   5.056  -7.680  1.00  0.00    -0.031 C 
ATOM      5  C   UNL     1      -0.921   3.797  -8.097  1.00  0.00    -0.028 C 
BRANCH   5   6
ATOM      6  C   UNL     1       0.177   2.757  -8.082  1.00  0.00     0.005 C 
ATOM      7  C   UNL     1      -0.105   1.656  -9.114  1.00  0.00     0.012 C 
ATOM      8  C   UNL     1       1.532   3.416  -8.369  1.00  0.00     0.012 C 
ENDBRANCH   5   6
ENDBRANCH   3   4
ENDBRANCH   2   3
ENDBRANCH   1   2
BRANCH   1   9
ATOM      9  C   UNL     1      -2.496   5.081  -4.493  1.00  0.00     0.100 C 
BRANCH   9  10
ATOM     10  C   UNL     1      -2.182   3.622  -4.615  1.00  0.00     0.220 C 
ATOM     11  O   UNL     1      -2.837   2.913  -5.427  1.00  0.00    -0.275 OA
ATOM     12  N   UNL     1      -1.083   3.060  -3.884  1.00  0.00    -0.352 N 
ATOM     13  H   UNL     1      -0.640   3.623  -3.122  1.00  0.00     0.163 HD
BRANCH  12  14
ATOM     14  C   UNL     1      -0.382   1.865  -4.345  1.00  0.00     0.151 C 
BRANCH  14  15
ATOM     15  C   UNL     1       1.102   2.054  -4.171  1.00  0.00    -0.025 A 
ATOM     16  C   UNL     1       1.864   1.109  -3.463  1.00  0.00     0.056 A 
ATOM     17  C   UNL     1       1.746   3.132  -4.793  1.00  0.00     0.009 A 
ATOM     18  C   UNL     1       3.265   1.248  -3.360  1.00  0.00     0.160 A 
ATOM     19  C   UNL     1       3.130   3.283  -4.684  1.00  0.00     0.050 A 
ATOM     20  C   UNL     1       3.892   2.350  -3.971  1.00  0.00     0.157 A 
BRANCH  18  21
ATOM     21  O   UNL     1       4.054   0.313  -2.668  1.00  0.00    -0.493 OA
ATOM     22  C   UNL     1       4.856  -0.685  -3.294  1.00  0.00     0.278 C 
ENDBRANCH  18  21
BRANCH  20  23
ATOM     23  O   UNL     1       5.273   2.538  -3.880  1.00  0.00    -0.504 OA
ATOM     24  H   UNL     1       5.901   1.792  -3.603  1.00  0.00     0.293 HD
ENDBRANCH  20  23
ENDBRANCH  14  15
ENDBRANCH  12  14
ENDBRANCH   9  10
ENDBRANCH   1   9
TORSDOF 10
ENDMDL
MODEL 5
REMARK VINA RESULT:    -3.585      1.883      5.175
REMARK INTER + INTRA:          -7.685
REMARK INTER:                  -5.236
REMARK INTRA:                  -2.449
REMARK UNBOUND:                -2.108
REMARK SMILES COc1cc(CNC(=O)CCCCC=CC(C)C)ccc1O
REMARK SMILES IDX 11 1 12 2 13 3 14 4 15 5 16 6 17 7 18 8 10 9 8 10 9 11 7 12
REMARK SMILES IDX 6 14 5 15 4 16 19 17 3 18 20 19 21 20 2 21 1 22 22 23
REMARK H PARENT 7 13 22 24
REMARK Flexibility Score: inf
ROOT
ATOM      1  C   UNL     1       0.766   2.605  -6.630  1.00  0.00     0.010 C 
ENDROOT
BRANCH   1   2
ATOM      2  C   UNL     1       1.163   3.725  -7.604  1.00  0.00     0.005 C 
BRANCH   2   3
ATOM      3  C   UNL     1      -0.021   4.185  -8.473  1.00  0.00     0.027 C 
BRANCH   3   4
ATOM      4  C   UNL     1      -0.704   5.407  -7.913  1.00  0.00    -0.031 C 
ATOM      5  C   UNL     1      -0.121   6.174  -6.977  1.00  0.00    -0.028 C 
BRANCH   5   6
ATOM      6  C   UNL     1      -0.831   7.364  -6.370  1.00  0.00     0.005 C 
ATOM      7  C   UNL     1       0.181   8.432  -5.930  1.00  0.00     0.012 C 
ATOM      8  C   UNL     1      -1.822   7.958  -7.379  1.00  0.00     0.012 C 
ENDBRANCH   5   6
ENDBRANCH   3   4
ENDBRANCH   2   3
ENDBRANCH   1   2
BRANCH   1   9
ATOM      9  C   UNL     1       1.332   2.868  -5.230  1.00  0.00     0.100 C 
BRANCH   9  10
ATOM     10  C   UNL     1       0.326   3.614  -4.410  1.00  0.00     0.220 C 
ATOM     11  O   UNL     1       0.648   4.715  -3.885  1.00  0.00    -0.275 OA
ATOM     12  N   UNL     1      -1.018   3.124  -4.302  1.00  0.00    -0.352 N 
ATOM     13  H   UNL     1      -1.232   2.153  -4.626  1.00  0.00     0.163 HD
BRANCH  12  14
ATOM     14  C   UNL     1      -2.143   4.015  -4.028  1.00  0.00     0.151 C 
BRANCH  14  15
ATOM     15  C   UNL     1      -2.961   4.190  -5.280  1.00  0.00    -0.025 A 
ATOM     16  C   UNL     1      -3.000   3.179  -6.256  1.00  0.00     0.056 A 
ATOM     17  C   UNL     1      -3.760   5.330  -5.438  1.00  0.00     0.009 A 
ATOM     18  C   UNL     1      -3.821   3.311  -7.395  1.00  0.00     0.160 A 
ATOM     19  C   UNL     1      -4.565   5.474  -6.570  1.00  0.00     0.050 A 
ATOM     20  C   UNL     1      -4.599   4.474  -7.549  1.00  0.00     0.157 A 
BRANCH  18  21
ATOM     21  O   UNL     1      -3.889   2.310  -8.381  1.00  0.00    -0.493 OA
ATOM     22  C   UNL     1      -2.758   1.757  -9.047  1.00  0.00     0.278 C 
ENDBRANCH  18  21
BRANCH  20  23
ATOM     23  O   UNL     1      -5.413   4.656  -8.669  1.00  0.00    -0.504 OA
ATOM     24  H   UNL     1      -5.155   5.279  -9.427  1.00  0.00     0.293 HD
ENDBRANCH  20  23
ENDBRANCH  14  15
ENDBRANCH  12  14
ENDBRANCH   9  10
ENDBRANCH   1   9
TORSDOF 10
ENDMDL
MODEL 6
REMARK VINA RESULT:    -3.533      1.967      4.568
REMARK INTER + INTRA:          -7.603
REMARK INTER:                  -5.484
REMARK INTRA:                  -2.120
REMARK UNBOUND:                -2.108
REMARK SMILES COc1cc(CNC(=O)CCCCC=CC(C)C)ccc1O
REMARK SMILES IDX 11 1 12 2 13 3 14 4 15 5 16 6 17 7 18 8 10 9 8 10 9 11 7 12
REMARK SMILES IDX 6 14 5 15 4 16 19 17 3 18 20 19 21 20 2 21 1 22 22 23
REMARK H PARENT 7 13 22 24
REMARK Flexibility Score: inf
ROOT
ATOM      1  C   UNL     1      -2.958   2.640  -5.984  1.00  0.00     0.010 C 
ENDROOT
BRANCH   1   2
ATOM      2  C   UNL     1      -2.258   3.277  -4.773  1.00  0.00     0.005 C 
BRANCH   2   3
ATOM      3  C   UNL     1      -2.895   4.620  -4.374  1.00  0.00     0.027 C 
BRANCH   3   4
ATOM      4  C   UNL     1      -1.968   5.786  -4.605  1.00  0.00    -0.031 C 
ATOM      5  C   UNL     1      -0.638   5.625  -4.686  1.00  0.00    -0.028 C 
BRANCH   5   6
ATOM      6  C   UNL     1       0.297   6.802  -4.855  1.00  0.00     0.005 C 
ATOM      7  C   UNL     1      -0.487   8.065  -5.237  1.00  0.00     0.012 C 
ATOM      8  C   UNL     1       1.085   7.040  -3.560  1.00  0.00     0.012 C 
ENDBRANCH   5   6
ENDBRANCH   3   4
ENDBRANCH   2   3
ENDBRANCH   1   2
BRANCH   1   9
ATOM      9  C   UNL     1      -3.142   3.660  -7.113  1.00  0.00     0.100 C 
BRANCH   9  10
ATOM     10  C   UNL     1      -1.931   3.664  -7.992  1.00  0.00     0.220 C 
ATOM     11  O   UNL     1      -1.639   4.706  -8.640  1.00  0.00    -0.275 OA
ATOM     12  N   UNL     1      -1.061   2.523  -8.023  1.00  0.00    -0.352 N 
ATOM     13  H   UNL     1      -1.384   1.628  -7.590  1.00  0.00     0.163 HD
BRANCH  12  14
ATOM     14  C   UNL     1       0.352   2.641  -8.373  1.00  0.00     0.151 C 
BRANCH  14  15
ATOM     15  C   UNL     1       1.132   3.099  -7.169  1.00  0.00    -0.025 A 
ATOM     16  C   UNL     1       0.990   2.441  -5.934  1.00  0.00     0.056 A 
ATOM     17  C   UNL     1       2.072   4.130  -7.296  1.00  0.00     0.009 A 
ATOM     18  C   UNL     1       1.772   2.822  -4.824  1.00  0.00     0.160 A 
ATOM     19  C   UNL     1       2.839   4.522  -6.197  1.00  0.00     0.050 A 
ATOM     20  C   UNL     1       2.694   3.877  -4.963  1.00  0.00     0.157 A 
BRANCH  18  21
ATOM     21  O   UNL     1       1.661   2.175  -3.580  1.00  0.00    -0.493 OA
ATOM     22  C   UNL     1       2.201   0.889  -3.290  1.00  0.00     0.278 C 
ENDBRANCH  18  21
BRANCH  20  23
ATOM     23  O   UNL     1       3.477   4.300  -3.887  1.00  0.00    -0.504 OA
ATOM     24  H   UNL     1       4.160   5.045  -3.977  1.00  0.00     0.293 HD
ENDBRANCH  20  23
ENDBRANCH  14  15
ENDBRANCH  12  14
ENDBRANCH   9  10
ENDBRANCH   1   9
TORSDOF 10
ENDMDL
MODEL 7
REMARK VINA RESULT:    -3.520      1.442      2.743
REMARK INTER + INTRA:          -7.583
REMARK INTER:                  -5.607
REMARK INTRA:                  -1.977
REMARK UNBOUND:                -2.108
REMARK SMILES COc1cc(CNC(=O)CCCCC=CC(C)C)ccc1O
REMARK SMILES IDX 11 1 12 2 13 3 14 4 15 5 16 6 17 7 18 8 10 9 8 10 9 11 7 12
REMARK SMILES IDX 6 14 5 15 4 16 19 17 3 18 20 19 21 20 2 21 1 22 22 23
REMARK H PARENT 7 13 22 24
REMARK Flexibility Score: inf
ROOT
ATOM      1  C   UNL     1      -1.008   1.744  -9.325  1.00  0.00     0.010 C 
ENDROOT
BRANCH   1   2
ATOM      2  C   UNL     1      -0.024   2.842  -8.893  1.00  0.00     0.005 C 
BRANCH   2   3
ATOM      3  C   UNL     1       0.529   2.603  -7.478  1.00  0.00     0.027 C 
BRANCH   3   4
ATOM      4  C   UNL     1       1.764   3.421  -7.198  1.00  0.00    -0.031 C 
ATOM      5  C   UNL     1       1.988   4.593  -7.813  1.00  0.00    -0.028 C 
BRANCH   5   6
ATOM      6  C   UNL     1       3.256   5.384  -7.579  1.00  0.00     0.005 C 
ATOM      7  C   UNL     1       3.428   6.464  -8.657  1.00  0.00     0.012 C 
ATOM      8  C   UNL     1       3.227   6.028  -6.186  1.00  0.00     0.012 C 
ENDBRANCH   5   6
ENDBRANCH   3   4
ENDBRANCH   2   3
ENDBRANCH   1   2
BRANCH   1   9
ATOM      9  C   UNL     1      -2.351   2.346  -9.754  1.00  0.00     0.100 C 
BRANCH   9  10
ATOM     10  C   UNL     1      -3.241   2.498  -8.560  1.00  0.00     0.220 C 
ATOM     11  O   UNL     1      -3.693   1.468  -7.988  1.00  0.00    -0.275 OA
ATOM     12  N   UNL     1      -3.497   3.801  -8.016  1.00  0.00    -0.352 N 
ATOM     13  H   UNL     1      -3.229   4.644  -8.573  1.00  0.00     0.163 HD
BRANCH  12  14
ATOM     14  C   UNL     1      -3.850   3.994  -6.612  1.00  0.00     0.151 C 
BRANCH  14  15
ATOM     15  C   UNL     1      -2.605   4.283  -5.816  1.00  0.00    -0.025 A 
ATOM     16  C   UNL     1      -2.040   3.295  -4.991  1.00  0.00     0.056 A 
ATOM     17  C   UNL     1      -1.951   5.513  -5.963  1.00  0.00     0.009 A 
ATOM     18  C   UNL     1      -0.835   3.539  -4.300  1.00  0.00     0.160 A 
ATOM     19  C   UNL     1      -0.765   5.767  -5.272  1.00  0.00     0.050 A 
ATOM     20  C   UNL     1      -0.205   4.791  -4.441  1.00  0.00     0.157 A 
BRANCH  18  21
ATOM     21  O   UNL     1      -0.240   2.566  -3.477  1.00  0.00    -0.493 OA
ATOM     22  C   UNL     1       0.737   1.627  -3.916  1.00  0.00     0.278 C 
ENDBRANCH  18  21
BRANCH  20  23
ATOM     23  O   UNL     1       0.980   5.084  -3.762  1.00  0.00    -0.504 OA
ATOM     24  H   UNL     1       1.622   4.359  -3.460  1.00  0.00     0.293 HD
ENDBRANCH  20  23
ENDBRANCH  14  15
ENDBRANCH  12  14
ENDBRANCH   9  10
ENDBRANCH   1   9
TORSDOF 10
ENDMDL
MODEL 8
REMARK VINA RESULT:    -3.457      2.229      5.141
REMARK INTER + INTRA:          -7.486
REMARK INTER:                  -5.808
REMARK INTRA:                  -1.677
REMARK UNBOUND:                -2.108
REMARK SMILES COc1cc(CNC(=O)CCCCC=CC(C)C)ccc1O
REMARK SMILES IDX 11 1 12 2 13 3 14 4 15 5 16 6 17 7 18 8 10 9 8 10 9 11 7 12
REMARK SMILES IDX 6 14 5 15 4 16 19 17 3 18 20 19 21 20 2 21 1 22 22 23
REMARK H PARENT 7 13 22 24
REMARK Flexibility Score: inf
ROOT
ATOM      1  C   UNL     1      -3.436   3.202  -6.810  1.00  0.00     0.010 C 
ENDROOT
BRANCH   1   2
ATOM      2  C   UNL     1      -2.733   2.623  -5.573  1.00  0.00     0.005 C 
BRANCH   2   3
ATOM      3  C   UNL     1      -1.977   3.700  -4.776  1.00  0.00     0.027 C 
BRANCH   3   4
ATOM      4  C   UNL     1      -2.727   5.007  -4.722  1.00  0.00    -0.031 C 
ATOM      5  C   UNL     1      -3.749   5.199  -3.873  1.00  0.00    -0.028 C 
BRANCH   5   6
ATOM      6  C   UNL     1      -4.542   6.488  -3.862  1.00  0.00     0.005 C 
ATOM      7  C   UNL     1      -6.013   6.223  -4.211  1.00  0.00     0.012 C 
ATOM      8  C   UNL     1      -4.437   7.160  -2.487  1.00  0.00     0.012 C 
ENDBRANCH   5   6
ENDBRANCH   3   4
ENDBRANCH   2   3
ENDBRANCH   1   2
BRANCH   1   9
ATOM      9  C   UNL     1      -3.180   2.333  -8.046  1.00  0.00     0.100 C 
BRANCH   9  10
ATOM     10  C   UNL     1      -1.876   2.716  -8.672  1.00  0.00     0.220 C 
ATOM     11  O   UNL     1      -1.822   3.730  -9.422  1.00  0.00    -0.275 OA
ATOM     12  N   UNL     1      -0.681   1.992  -8.345  1.00  0.00    -0.352 N 
ATOM     13  H   UNL     1      -0.764   1.083  -7.834  1.00  0.00     0.163 HD
BRANCH  12  14
ATOM     14  C   UNL     1       0.641   2.603  -8.441  1.00  0.00     0.151 C 
BRANCH  14  15
ATOM     15  C   UNL     1       0.926   3.384  -7.185  1.00  0.00    -0.025 A 
ATOM     16  C   UNL     1       1.467   2.747  -6.055  1.00  0.00     0.056 A 
ATOM     17  C   UNL     1       0.734   4.772  -7.167  1.00  0.00     0.009 A 
ATOM     18  C   UNL     1       1.800   3.489  -4.902  1.00  0.00     0.160 A 
ATOM     19  C   UNL     1       1.049   5.511  -6.025  1.00  0.00     0.050 A 
ATOM     20  C   UNL     1       1.578   4.879  -4.894  1.00  0.00     0.157 A 
BRANCH  18  21
ATOM     21  O   UNL     1       2.353   2.880  -3.761  1.00  0.00    -0.493 OA
ATOM     22  C   UNL     1       3.447   1.968  -3.785  1.00  0.00     0.278 C 
ENDBRANCH  18  21
BRANCH  20  23
ATOM     23  O   UNL     1       1.876   5.652  -3.769  1.00  0.00    -0.504 OA
ATOM     24  H   UNL     1       1.994   5.242  -2.849  1.00  0.00     0.293 HD
ENDBRANCH  20  23
ENDBRANCH  14  15
ENDBRANCH  12  14
ENDBRANCH   9  10
ENDBRANCH   1   9
TORSDOF 10
ENDMDL
MODEL 9
REMARK VINA RESULT:    -3.452      2.446      6.046
REMARK INTER + INTRA:          -7.478
REMARK INTER:                  -5.269
REMARK INTRA:                  -2.209
REMARK UNBOUND:                -2.108
REMARK SMILES COc1cc(CNC(=O)CCCCC=CC(C)C)ccc1O
REMARK SMILES IDX 11 1 12 2 13 3 14 4 15 5 16 6 17 7 18 8 10 9 8 10 9 11 7 12
REMARK SMILES IDX 6 14 5 15 4 16 19 17 3 18 20 19 21 20 2 21 1 22 22 23
REMARK H PARENT 7 13 22 24
REMARK Flexibility Score: inf
ROOT
ATOM      1  C   UNL     1       2.030   7.680  -5.649  1.00  0.00     0.010 C 
ENDROOT
BRANCH   1   2
ATOM      2  C   UNL     1       0.817   6.750  -5.810  1.00  0.00     0.005 C 
BRANCH   2   3
ATOM      3  C   UNL     1       0.405   6.097  -4.479  1.00  0.00     0.027 C 
BRANCH   3   4
ATOM      4  C   UNL     1      -1.075   5.819  -4.410  1.00  0.00    -0.031 C 
ATOM      5  C   UNL     1      -1.826   5.715  -5.519  1.00  0.00    -0.028 C 
BRANCH   5   6
ATOM      6  C   UNL     1      -3.322   5.497  -5.448  1.00  0.00     0.005 C 
ATOM      7  C   UNL     1      -3.750   4.369  -6.397  1.00  0.00     0.012 C 
ATOM      8  C   UNL     1      -3.739   5.167  -4.010  1.00  0.00     0.012 C 
ENDBRANCH   5   6
ENDBRANCH   3   4
ENDBRANCH   2   3
ENDBRANCH   1   2
BRANCH   1   9
ATOM      9  C   UNL     1       3.252   7.123  -6.387  1.00  0.00     0.100 C 
BRANCH   9  10
ATOM     10  C   UNL     1       3.730   5.879  -5.705  1.00  0.00     0.220 C 
ATOM     11  O   UNL     1       4.052   5.925  -4.486  1.00  0.00    -0.275 OA
ATOM     12  N   UNL     1       3.731   4.628  -6.409  1.00  0.00    -0.352 N 
ATOM     13  H   UNL     1       3.591   4.630  -7.445  1.00  0.00     0.163 HD
BRANCH  12  14
ATOM     14  C   UNL     1       3.633   3.350  -5.709  1.00  0.00     0.151 C 
BRANCH  14  15
ATOM     15  C   UNL     1       2.182   3.006  -5.493  1.00  0.00    -0.025 A 
ATOM     16  C   UNL     1       1.273   3.041  -6.564  1.00  0.00     0.056 A 
ATOM     17  C   UNL     1       1.749   2.562  -4.236  1.00  0.00     0.009 A 
ATOM     18  C   UNL     1      -0.070   2.651  -6.379  1.00  0.00     0.160 A 
ATOM     19  C   UNL     1       0.418   2.188  -4.043  1.00  0.00     0.050 A 
ATOM     20  C   UNL     1      -0.493   2.231  -5.104  1.00  0.00     0.157 A 
BRANCH  18  21
ATOM     21  O   UNL     1      -0.999   2.664  -7.435  1.00  0.00    -0.493 OA
ATOM     22  C   UNL     1      -0.861   3.443  -8.620  1.00  0.00     0.278 C 
ENDBRANCH  18  21
BRANCH  20  23
ATOM     23  O   UNL     1      -1.817   1.852  -4.870  1.00  0.00    -0.504 OA
ATOM     24  H   UNL     1      -2.561   2.057  -5.528  1.00  0.00     0.293 HD
ENDBRANCH  20  23
ENDBRANCH  14  15
ENDBRANCH  12  14
ENDBRANCH   9  10
ENDBRANCH   1   9
TORSDOF 10
ENDMDL
