MODEL 1
REMARK VINA RESULT:    -5.752      0.000      0.000
REMARK INTER + INTRA:          -5.752
REMARK INTER:                  -5.752
REMARK INTRA:                   0.000
REMARK UNBOUND:                 0.000
REMARK SMILES O=c1ccc2ccccc2o1
REMARK SMILES IDX 7 1 8 2 9 3 10 4 5 5 6 6 4 7 3 8 2 9 1 10 11 11
REMARK H PARENT
REMARK Flexibility Score: inf
ROOT
ATOM      1  C   UNL     1     -32.077  66.759  86.118  1.00  0.00     0.001 A 
ATOM      2  C   UNL     1     -31.723  67.912  86.826  1.00  0.00     0.004 A 
ATOM      3  C   UNL     1     -30.408  68.388  86.784  1.00  0.00     0.048 A 
ATOM      4  C   UNL     1     -29.441  67.709  86.034  1.00  0.00     0.138 A 
ATOM      5  C   UNL     1     -29.798  66.543  85.320  1.00  0.00     0.018 A 
ATOM      6  C   UNL     1     -31.119  66.072  85.366  1.00  0.00     0.012 A 
ATOM      7  C   UNL     1     -28.811  65.887  84.579  1.00  0.00     0.019 A 
ATOM      8  C   UNL     1     -27.513  66.396  84.566  1.00  0.00     0.094 A 
ATOM      9  C   UNL     1     -27.232  67.555  85.298  1.00  0.00     0.336 A 
ATOM     10  O   UNL     1     -26.066  68.030  85.299  1.00  0.00    -0.246 OA
ATOM     11  O   UNL     1     -28.190  68.161  85.995  1.00  0.00    -0.423 OA
ENDROOT
TORSDOF 0
ENDMDL
MODEL 2
REMARK VINA RESULT:    -5.743      1.667      3.821
REMARK INTER + INTRA:          -5.743
REMARK INTER:                  -5.743
REMARK INTRA:                   0.000
REMARK UNBOUND:                 0.000
REMARK SMILES O=c1ccc2ccccc2o1
REMARK SMILES IDX 7 1 8 2 9 3 10 4 5 5 6 6 4 7 3 8 2 9 1 10 11 11
REMARK H PARENT
REMARK Flexibility Score: inf
ROOT
ATOM      1  C   UNL     1     -26.489  67.134  84.990  1.00  0.00     0.001 A 
ATOM      2  C   UNL     1     -26.691  68.304  85.729  1.00  0.00     0.004 A 
ATOM      3  C   UNL     1     -27.955  68.596  86.253  1.00  0.00     0.048 A 
ATOM      4  C   UNL     1     -29.022  67.718  86.038  1.00  0.00     0.138 A 
ATOM      5  C   UNL     1     -28.819  66.536  85.291  1.00  0.00     0.018 A 
ATOM      6  C   UNL     1     -27.549  66.249  84.768  1.00  0.00     0.012 A 
ATOM      7  C   UNL     1     -29.904  65.677  85.093  1.00  0.00     0.019 A 
ATOM      8  C   UNL     1     -31.146  66.008  85.633  1.00  0.00     0.094 A 
ATOM      9  C   UNL     1     -31.274  67.196  86.363  1.00  0.00     0.336 A 
ATOM     10  O   UNL     1     -32.387  67.512  86.858  1.00  0.00    -0.246 OA
ATOM     11  O   UNL     1     -30.224  67.996  86.537  1.00  0.00    -0.423 OA
ENDROOT
TORSDOF 0
ENDMDL
MODEL 3
REMARK VINA RESULT:    -5.736      2.793      4.618
REMARK INTER + INTRA:          -5.736
REMARK INTER:                  -5.736
REMARK INTRA:                   0.000
REMARK UNBOUND:                 0.000
REMARK SMILES O=c1ccc2ccccc2o1
REMARK SMILES IDX 7 1 8 2 9 3 10 4 5 5 6 6 4 7 3 8 2 9 1 10 11 11
REMARK H PARENT
REMARK Flexibility Score: inf
ROOT
ATOM      1  C   UNL     1     -28.225  66.932  82.121  1.00  0.00     0.001 A 
ATOM      2  C   UNL     1     -28.253  65.605  81.679  1.00  0.00     0.004 A 
ATOM      3  C   UNL     1     -28.737  64.594  82.516  1.00  0.00     0.048 A 
ATOM      4  C   UNL     1     -29.195  64.908  83.801  1.00  0.00     0.138 A 
ATOM      5  C   UNL     1     -29.168  66.248  84.247  1.00  0.00     0.018 A 
ATOM      6  C   UNL     1     -28.680  67.257  83.402  1.00  0.00     0.012 A 
ATOM      7  C   UNL     1     -29.633  66.532  85.534  1.00  0.00     0.019 A 
ATOM      8  C   UNL     1     -30.106  65.493  86.335  1.00  0.00     0.094 A 
ATOM      9  C   UNL     1     -30.105  64.189  85.827  1.00  0.00     0.336 A 
ATOM     10  O   UNL     1     -30.528  63.238  86.534  1.00  0.00    -0.246 OA
ATOM     11  O   UNL     1     -29.657  63.947  84.597  1.00  0.00    -0.423 OA
ENDROOT
TORSDOF 0
ENDMDL
MODEL 4
REMARK VINA RESULT:    -5.735      1.749      3.693
REMARK INTER + INTRA:          -5.735
REMARK INTER:                  -5.735
REMARK INTRA:                   0.000
REMARK UNBOUND:                 0.000
REMARK SMILES O=c1ccc2ccccc2o1
REMARK SMILES IDX 7 1 8 2 9 3 10 4 5 5 6 6 4 7 3 8 2 9 1 10 11 11
REMARK H PARENT
REMARK Flexibility Score: inf
ROOT
ATOM      1  C   UNL     1     -28.928  64.623  82.953  1.00  0.00     0.001 A 
ATOM      2  C   UNL     1     -28.321  65.793  82.485  1.00  0.00     0.004 A 
ATOM      3  C   UNL     1     -28.567  67.016  83.119  1.00  0.00     0.048 A 
ATOM      4  C   UNL     1     -29.423  67.071  84.224  1.00  0.00     0.138 A 
ATOM      5  C   UNL     1     -30.036  65.890  84.697  1.00  0.00     0.018 A 
ATOM      6  C   UNL     1     -29.785  64.667  84.057  1.00  0.00     0.012 A 
ATOM      7  C   UNL     1     -30.886  65.976  85.804  1.00  0.00     0.019 A 
ATOM      8  C   UNL     1     -31.102  67.216  86.405  1.00  0.00     0.094 A 
ATOM      9  C   UNL     1     -30.461  68.345  85.883  1.00  0.00     0.336 A 
ATOM     10  O   UNL     1     -30.644  69.472  86.411  1.00  0.00    -0.246 OA
ATOM     11  O   UNL     1     -29.656  68.234  84.828  1.00  0.00    -0.423 OA
ENDROOT
TORSDOF 0
ENDMDL
MODEL 5
REMARK VINA RESULT:    -5.726      2.470      3.179
REMARK INTER + INTRA:          -5.726
REMARK INTER:                  -5.726
REMARK INTRA:                   0.000
REMARK UNBOUND:                 0.000
REMARK SMILES O=c1ccc2ccccc2o1
REMARK SMILES IDX 7 1 8 2 9 3 10 4 5 5 6 6 4 7 3 8 2 9 1 10 11 11
REMARK H PARENT
REMARK Flexibility Score: inf
ROOT
ATOM      1  C   UNL     1     -30.127  68.326  86.508  1.00  0.00     0.001 A 
ATOM      2  C   UNL     1     -31.265  67.513  86.510  1.00  0.00     0.004 A 
ATOM      3  C   UNL     1     -31.401  66.490  85.565  1.00  0.00     0.048 A 
ATOM      4  C   UNL     1     -30.398  66.278  84.613  1.00  0.00     0.138 A 
ATOM      5  C   UNL     1     -29.248  67.098  84.610  1.00  0.00     0.018 A 
ATOM      6  C   UNL     1     -29.118  68.122  85.561  1.00  0.00     0.012 A 
ATOM      7  C   UNL     1     -28.262  66.862  83.649  1.00  0.00     0.019 A 
ATOM      8  C   UNL     1     -28.440  65.831  82.726  1.00  0.00     0.094 A 
ATOM      9  C   UNL     1     -29.604  65.058  82.788  1.00  0.00     0.336 A 
ATOM     10  O   UNL     1     -29.783  64.123  81.964  1.00  0.00    -0.246 OA
ATOM     11  O   UNL     1     -30.527  65.304  83.715  1.00  0.00    -0.423 OA
ENDROOT
TORSDOF 0
ENDMDL
MODEL 6
REMARK VINA RESULT:    -5.715      2.361      3.607
REMARK INTER + INTRA:          -5.715
REMARK INTER:                  -5.715
REMARK INTRA:                   0.000
REMARK UNBOUND:                 0.000
REMARK SMILES O=c1ccc2ccccc2o1
REMARK SMILES IDX 7 1 8 2 9 3 10 4 5 5 6 6 4 7 3 8 2 9 1 10 11 11
REMARK H PARENT
REMARK Flexibility Score: inf
ROOT
ATOM      1  C   UNL     1     -28.716  68.489  86.414  1.00  0.00     0.001 A 
ATOM      2  C   UNL     1     -27.509  68.243  85.751  1.00  0.00     0.004 A 
ATOM      3  C   UNL     1     -27.273  66.998  85.157  1.00  0.00     0.048 A 
ATOM      4  C   UNL     1     -28.245  65.994  85.226  1.00  0.00     0.138 A 
ATOM      5  C   UNL     1     -29.464  66.242  85.896  1.00  0.00     0.018 A 
ATOM      6  C   UNL     1     -29.694  67.493  86.489  1.00  0.00     0.012 A 
ATOM      7  C   UNL     1     -30.417  65.221  85.947  1.00  0.00     0.019 A 
ATOM      8  C   UNL     1     -30.140  63.996  85.342  1.00  0.00     0.094 A 
ATOM      9  C   UNL     1     -28.911  63.821  84.696  1.00  0.00     0.336 A 
ATOM     10  O   UNL     1     -28.642  62.722  84.143  1.00  0.00    -0.246 OA
ATOM     11  O   UNL     1     -28.021  64.811  84.661  1.00  0.00    -0.423 OA
ENDROOT
TORSDOF 0
ENDMDL
MODEL 7
REMARK VINA RESULT:    -5.690      2.102      2.998
REMARK INTER + INTRA:          -5.690
REMARK INTER:                  -5.690
REMARK INTRA:                   0.000
REMARK UNBOUND:                 0.000
REMARK SMILES O=c1ccc2ccccc2o1
REMARK SMILES IDX 7 1 8 2 9 3 10 4 5 5 6 6 4 7 3 8 2 9 1 10 11 11
REMARK H PARENT
REMARK Flexibility Score: inf
ROOT
ATOM      1  C   UNL     1     -29.413  63.785  83.974  1.00  0.00     0.001 A 
ATOM      2  C   UNL     1     -29.991  63.610  85.235  1.00  0.00     0.004 A 
ATOM      3  C   UNL     1     -29.836  64.590  86.222  1.00  0.00     0.048 A 
ATOM      4  C   UNL     1     -29.099  65.748  85.950  1.00  0.00     0.138 A 
ATOM      5  C   UNL     1     -28.515  65.925  84.676  1.00  0.00     0.018 A 
ATOM      6  C   UNL     1     -28.675  64.939  83.690  1.00  0.00     0.012 A 
ATOM      7  C   UNL     1     -27.787  67.092  84.432  1.00  0.00     0.019 A 
ATOM      8  C   UNL     1     -27.657  68.041  85.446  1.00  0.00     0.094 A 
ATOM      9  C   UNL     1     -28.263  67.800  86.684  1.00  0.00     0.336 A 
ATOM     10  O   UNL     1     -28.157  68.644  87.611  1.00  0.00    -0.246 OA
ATOM     11  O   UNL     1     -28.952  66.679  86.889  1.00  0.00    -0.423 OA
ENDROOT
TORSDOF 0
ENDMDL
MODEL 8
REMARK VINA RESULT:    -5.656      2.844      3.703
REMARK INTER + INTRA:          -5.656
REMARK INTER:                  -5.656
REMARK INTRA:                   0.000
REMARK UNBOUND:                 0.000
REMARK SMILES O=c1ccc2ccccc2o1
REMARK SMILES IDX 7 1 8 2 9 3 10 4 5 5 6 6 4 7 3 8 2 9 1 10 11 11
REMARK H PARENT
REMARK Flexibility Score: inf
ROOT
ATOM      1  C   UNL     1     -29.908  65.174  86.704  1.00  0.00     0.001 A 
ATOM      2  C   UNL     1     -30.063  63.909  86.126  1.00  0.00     0.004 A 
ATOM      3  C   UNL     1     -29.720  63.701  84.786  1.00  0.00     0.048 A 
ATOM      4  C   UNL     1     -29.223  64.759  84.017  1.00  0.00     0.138 A 
ATOM      5  C   UNL     1     -29.067  66.037  84.600  1.00  0.00     0.018 A 
ATOM      6  C   UNL     1     -29.412  66.239  85.945  1.00  0.00     0.012 A 
ATOM      7  C   UNL     1     -28.567  67.075  83.808  1.00  0.00     0.019 A 
ATOM      8  C   UNL     1     -28.240  66.822  82.476  1.00  0.00     0.094 A 
ATOM      9  C   UNL     1     -28.421  65.531  81.966  1.00  0.00     0.336 A 
ATOM     10  O   UNL     1     -28.131  65.283  80.766  1.00  0.00    -0.246 OA
ATOM     11  O   UNL     1     -28.898  64.561  82.742  1.00  0.00    -0.423 OA
ENDROOT
TORSDOF 0
ENDMDL
MODEL 9
REMARK VINA RESULT:    -5.506      2.104      3.081
REMARK INTER + INTRA:          -5.506
REMARK INTER:                  -5.506
REMARK INTRA:                   0.000
REMARK UNBOUND:                 0.000
REMARK SMILES O=c1ccc2ccccc2o1
REMARK SMILES IDX 7 1 8 2 9 3 10 4 5 5 6 6 4 7 3 8 2 9 1 10 11 11
REMARK H PARENT
REMARK Flexibility Score: inf
ROOT
ATOM      1  C   UNL     1     -29.212  68.537  86.888  1.00  0.00     0.001 A 
ATOM      2  C   UNL     1     -27.868  68.626  86.510  1.00  0.00     0.004 A 
ATOM      3  C   UNL     1     -27.407  67.936  85.384  1.00  0.00     0.048 A 
ATOM      4  C   UNL     1     -28.290  67.152  84.632  1.00  0.00     0.138 A 
ATOM      5  C   UNL     1     -29.648  67.062  85.014  1.00  0.00     0.018 A 
ATOM      6  C   UNL     1     -30.103  67.757  86.145  1.00  0.00     0.012 A 
ATOM      7  C   UNL     1     -30.507  66.274  84.244  1.00  0.00     0.019 A 
ATOM      8  C   UNL     1     -30.003  65.603  83.129  1.00  0.00     0.094 A 
ATOM      9  C   UNL     1     -28.648  65.738  82.810  1.00  0.00     0.336 A 
ATOM     10  O   UNL     1     -28.175  65.140  81.809  1.00  0.00    -0.246 OA
ATOM     11  O   UNL     1     -27.852  66.496  83.561  1.00  0.00    -0.423 OA
ENDROOT
TORSDOF 0
ENDMDL
