MODEL 1
REMARK VINA RESULT:    -3.937      0.000      0.000
REMARK INTER + INTRA:          -4.052
REMARK INTER:                  -4.052
REMARK INTRA:                   0.000
REMARK UNBOUND:                 0.000
REMARK SMILES Oc1ccc2[nH]ccc2c1
REMARK SMILES IDX 3 1 4 2 5 3 9 4 8 5 7 6 6 7 10 8 2 9 1 11
REMARK H PARENT 6 10 1 12
REMARK Flexibility Score: inf
ROOT
ATOM      1  C   UNL     1     133.120 145.149 137.259  1.00  0.00     0.048 A 
ATOM      2  C   UNL     1     132.915 146.462 137.723  1.00  0.00     0.030 A 
ATOM      3  C   UNL     1     131.604 146.870 137.963  1.00  0.00     0.046 A 
ATOM      4  C   UNL     1     130.542 146.031 137.759  1.00  0.00     0.003 A 
ATOM      5  C   UNL     1     129.398 146.729 138.086  1.00  0.00     0.028 A 
ATOM      6  C   UNL     1     129.841 147.987 138.483  1.00  0.00     0.083 A 
ATOM      7  N   UNL     1     131.189 148.068 138.406  1.00  0.00    -0.361 N 
ATOM      8  C   UNL     1     130.709 144.727 137.300  1.00  0.00     0.056 A 
ATOM      9  C   UNL     1     132.024 144.281 137.047  1.00  0.00     0.116 A 
ATOM     10  H   UNL     1     131.782 148.894 138.642  1.00  0.00     0.166 HD
ENDROOT
BRANCH   9  11
ATOM     11  O   UNL     1     132.253 142.987 136.586  1.00  0.00    -0.508 OA
ATOM     12  H   UNL     1     131.546 142.474 136.075  1.00  0.00     0.293 HD
ENDBRANCH   9  11
TORSDOF 1
ENDMDL
MODEL 2
REMARK VINA RESULT:    -3.888     19.359     21.001
REMARK INTER + INTRA:          -4.002
REMARK INTER:                  -4.002
REMARK INTRA:                   0.000
REMARK UNBOUND:                 0.000
REMARK SMILES Oc1ccc2[nH]ccc2c1
REMARK SMILES IDX 3 1 4 2 5 3 9 4 8 5 7 6 6 7 10 8 2 9 1 11
REMARK H PARENT 6 10 1 12
REMARK Flexibility Score: inf
ROOT
ATOM      1  C   UNL     1     143.215 131.156 137.273  1.00  0.00     0.048 A 
ATOM      2  C   UNL     1     143.481 129.847 137.717  1.00  0.00     0.030 A 
ATOM      3  C   UNL     1     144.809 129.499 137.957  1.00  0.00     0.046 A 
ATOM      4  C   UNL     1     145.831 130.391 137.772  1.00  0.00     0.003 A 
ATOM      5  C   UNL     1     147.005 129.743 138.093  1.00  0.00     0.028 A 
ATOM      6  C   UNL     1     146.622 128.460 138.466  1.00  0.00     0.083 A 
ATOM      7  N   UNL     1     145.280 128.315 138.382  1.00  0.00    -0.361 N 
ATOM      8  C   UNL     1     145.603 131.693 137.333  1.00  0.00     0.056 A 
ATOM      9  C   UNL     1     144.270 132.079 137.080  1.00  0.00     0.116 A 
ATOM     10  H   UNL     1     144.726 127.458 138.602  1.00  0.00     0.166 HD
ENDROOT
BRANCH   9  11
ATOM     11  O   UNL     1     143.980 133.368 136.639  1.00  0.00    -0.508 OA
ATOM     12  H   UNL     1     143.041 133.745 136.687  1.00  0.00     0.293 HD
ENDBRANCH   9  11
TORSDOF 1
ENDMDL
MODEL 3
REMARK VINA RESULT:    -3.806     13.551     14.915
REMARK INTER + INTRA:          -3.917
REMARK INTER:                  -3.917
REMARK INTRA:                   0.000
REMARK UNBOUND:                 0.000
REMARK SMILES Oc1ccc2[nH]ccc2c1
REMARK SMILES IDX 3 1 4 2 5 3 9 4 8 5 7 6 6 7 10 8 2 9 1 11
REMARK H PARENT 6 10 1 12
REMARK Flexibility Score: inf
ROOT
ATOM      1  C   UNL     1     130.721 133.115 137.269  1.00  0.00     0.048 A 
ATOM      2  C   UNL     1     129.392 132.846 137.648  1.00  0.00     0.030 A 
ATOM      3  C   UNL     1     129.070 131.538 138.006  1.00  0.00     0.046 A 
ATOM      4  C   UNL     1     130.006 130.538 137.993  1.00  0.00     0.003 A 
ATOM      5  C   UNL     1     129.375 129.380 138.393  1.00  0.00     0.028 A 
ATOM      6  C   UNL     1     128.056 129.749 138.635  1.00  0.00     0.083 A 
ATOM      7  N   UNL     1     127.875 131.068 138.397  1.00  0.00    -0.361 N 
ATOM      8  C   UNL     1     131.328 130.770 137.622  1.00  0.00     0.056 A 
ATOM      9  C   UNL     1     131.688 132.084 137.254  1.00  0.00     0.116 A 
ATOM     10  H   UNL     1     126.987 131.607 138.497  1.00  0.00     0.166 HD
ENDROOT
BRANCH   9  11
ATOM     11  O   UNL     1     132.996 132.377 136.874  1.00  0.00    -0.508 OA
ATOM     12  H   UNL     1     133.710 131.660 136.839  1.00  0.00     0.293 HD
ENDBRANCH   9  11
TORSDOF 1
ENDMDL
MODEL 4
REMARK VINA RESULT:    -3.783     13.689     14.980
REMARK INTER + INTRA:          -3.894
REMARK INTER:                  -3.894
REMARK INTRA:                   0.000
REMARK UNBOUND:                 0.000
REMARK SMILES Oc1ccc2[nH]ccc2c1
REMARK SMILES IDX 3 1 4 2 5 3 9 4 8 5 7 6 6 7 10 8 2 9 1 11
REMARK H PARENT 6 10 1 12
REMARK Flexibility Score: inf
ROOT
ATOM      1  C   UNL     1     147.500 145.935 138.262  1.00  0.00     0.048 A 
ATOM      2  C   UNL     1     147.475 144.529 138.200  1.00  0.00     0.030 A 
ATOM      3  C   UNL     1     146.274 143.914 137.849  1.00  0.00     0.046 A 
ATOM      4  C   UNL     1     145.148 144.642 137.571  1.00  0.00     0.003 A 
ATOM      5  C   UNL     1     144.146 143.747 137.262  1.00  0.00     0.028 A 
ATOM      6  C   UNL     1     144.734 142.491 137.372  1.00  0.00     0.083 A 
ATOM      7  N   UNL     1     146.034 142.598 137.730  1.00  0.00    -0.361 N 
ATOM      8  C   UNL     1     145.138 146.034 137.624  1.00  0.00     0.056 A 
ATOM      9  C   UNL     1     146.338 146.688 137.976  1.00  0.00     0.116 A 
ATOM     10  H   UNL     1     146.708 141.817 137.883  1.00  0.00     0.166 HD
ENDROOT
BRANCH   9  11
ATOM     11  O   UNL     1     146.389 148.079 138.046  1.00  0.00    -0.508 OA
ATOM     12  H   UNL     1     146.439 148.649 137.210  1.00  0.00     0.293 HD
ENDBRANCH   9  11
TORSDOF 1
ENDMDL
MODEL 5
REMARK VINA RESULT:    -3.778     14.662     15.743
REMARK INTER + INTRA:          -3.889
REMARK INTER:                  -3.889
REMARK INTRA:                   0.000
REMARK UNBOUND:                 0.000
REMARK SMILES Oc1ccc2[nH]ccc2c1
REMARK SMILES IDX 3 1 4 2 5 3 9 4 8 5 7 6 6 7 10 8 2 9 1 11
REMARK H PARENT 6 10 1 12
REMARK Flexibility Score: inf
ROOT
ATOM      1  C   UNL     1     130.709 129.344 140.661  1.00  0.00     0.048 A 
ATOM      2  C   UNL     1     131.644 129.629 139.648  1.00  0.00     0.030 A 
ATOM      3  C   UNL     1     131.259 130.505 138.635  1.00  0.00     0.046 A 
ATOM      4  C   UNL     1     130.016 131.078 138.613  1.00  0.00     0.003 A 
ATOM      5  C   UNL     1     129.953 131.882 137.496  1.00  0.00     0.028 A 
ATOM      6  C   UNL     1     131.196 131.752 136.884  1.00  0.00     0.083 A 
ATOM      7  N   UNL     1     131.990 130.910 137.584  1.00  0.00    -0.361 N 
ATOM      8  C   UNL     1     129.067 130.817 139.599  1.00  0.00     0.056 A 
ATOM      9  C   UNL     1     129.424 129.935 140.640  1.00  0.00     0.116 A 
ATOM     10  H   UNL     1     132.969 130.632 137.351  1.00  0.00     0.166 HD
ENDROOT
BRANCH   9  11
ATOM     11  O   UNL     1     128.516 129.636 141.654  1.00  0.00    -0.508 OA
ATOM     12  H   UNL     1     128.526 128.740 142.126  1.00  0.00     0.293 HD
ENDBRANCH   9  11
TORSDOF 1
ENDMDL
MODEL 6
REMARK VINA RESULT:    -3.775     13.574     14.945
REMARK INTER + INTRA:          -3.885
REMARK INTER:                  -3.885
REMARK INTRA:                   0.000
REMARK UNBOUND:                 0.000
REMARK SMILES Oc1ccc2[nH]ccc2c1
REMARK SMILES IDX 3 1 4 2 5 3 9 4 8 5 7 6 6 7 10 8 2 9 1 11
REMARK H PARENT 6 10 1 12
REMARK Flexibility Score: inf
ROOT
ATOM      1  C   UNL     1     128.623 130.120 138.363  1.00  0.00     0.048 A 
ATOM      2  C   UNL     1     128.618 131.526 138.309  1.00  0.00     0.030 A 
ATOM      3  C   UNL     1     129.791 132.167 137.916  1.00  0.00     0.046 A 
ATOM      4  C   UNL     1     130.920 131.463 137.591  1.00  0.00     0.003 A 
ATOM      5  C   UNL     1     131.892 132.380 137.250  1.00  0.00     0.028 A 
ATOM      6  C   UNL     1     131.283 133.623 137.390  1.00  0.00     0.083 A 
ATOM      7  N   UNL     1     130.001 133.488 137.797  1.00  0.00    -0.361 N 
ATOM      8  C   UNL     1     130.960 130.072 137.634  1.00  0.00     0.056 A 
ATOM      9  C   UNL     1     129.788 129.391 138.027  1.00  0.00     0.116 A 
ATOM     10  H   UNL     1     129.317 134.255 137.981  1.00  0.00     0.166 HD
ENDROOT
BRANCH   9  11
ATOM     11  O   UNL     1     129.768 128.000 138.090  1.00  0.00    -0.508 OA
ATOM     12  H   UNL     1     129.298 127.511 138.842  1.00  0.00     0.293 HD
ENDBRANCH   9  11
TORSDOF 1
ENDMDL
MODEL 7
REMARK VINA RESULT:    -3.758      2.039      2.663
REMARK INTER + INTRA:          -3.868
REMARK INTER:                  -3.868
REMARK INTRA:                   0.000
REMARK UNBOUND:                 0.000
REMARK SMILES Oc1ccc2[nH]ccc2c1
REMARK SMILES IDX 3 1 4 2 5 3 9 4 8 5 7 6 6 7 10 8 2 9 1 11
REMARK H PARENT 6 10 1 12
REMARK Flexibility Score: inf
ROOT
ATOM      1  C   UNL     1     132.352 145.602 137.117  1.00  0.00     0.048 A 
ATOM      2  C   UNL     1     131.041 145.090 137.085  1.00  0.00     0.030 A 
ATOM      3  C   UNL     1     130.028 145.860 137.654  1.00  0.00     0.046 A 
ATOM      4  C   UNL     1     130.286 147.076 138.229  1.00  0.00     0.003 A 
ATOM      5  C   UNL     1     129.087 147.574 138.692  1.00  0.00     0.028 A 
ATOM      6  C   UNL     1     128.141 146.609 138.364  1.00  0.00     0.083 A 
ATOM      7  N   UNL     1     128.721 145.564 137.730  1.00  0.00    -0.361 N 
ATOM      8  C   UNL     1     131.571 147.611 138.279  1.00  0.00     0.056 A 
ATOM      9  C   UNL     1     132.620 146.857 137.710  1.00  0.00     0.116 A 
ATOM     10  H   UNL     1     128.246 144.705 137.375  1.00  0.00     0.166 HD
ENDROOT
BRANCH   9  11
ATOM     11  O   UNL     1     133.927 147.340 137.730  1.00  0.00    -0.508 OA
ATOM     12  H   UNL     1     134.131 148.319 137.575  1.00  0.00     0.293 HD
ENDBRANCH   9  11
TORSDOF 1
ENDMDL
MODEL 8
REMARK VINA RESULT:    -3.712     13.548     14.874
REMARK INTER + INTRA:          -3.821
REMARK INTER:                  -3.821
REMARK INTRA:                   0.000
REMARK UNBOUND:                 0.000
REMARK SMILES Oc1ccc2[nH]ccc2c1
REMARK SMILES IDX 3 1 4 2 5 3 9 4 8 5 7 6 6 7 10 8 2 9 1 11
REMARK H PARENT 6 10 1 12
REMARK Flexibility Score: inf
ROOT
ATOM      1  C   UNL     1     145.356 143.242 137.318  1.00  0.00     0.048 A 
ATOM      2  C   UNL     1     146.670 143.558 137.712  1.00  0.00     0.030 A 
ATOM      3  C   UNL     1     146.950 144.884 138.039  1.00  0.00     0.046 A 
ATOM      4  C   UNL     1     145.987 145.857 137.983  1.00  0.00     0.003 A 
ATOM      5  C   UNL     1     146.579 147.042 138.362  1.00  0.00     0.028 A 
ATOM      6  C   UNL     1     147.904 146.717 138.635  1.00  0.00     0.083 A 
ATOM      7  N   UNL     1     148.125 145.397 138.436  1.00  0.00    -0.361 N 
ATOM      8  C   UNL     1     144.679 145.578 137.598  1.00  0.00     0.056 A 
ATOM      9  C   UNL     1     144.361 144.245 137.260  1.00  0.00     0.116 A 
ATOM     10  H   UNL     1     149.026 144.886 138.565  1.00  0.00     0.166 HD
ENDROOT
BRANCH   9  11
ATOM     11  O   UNL     1     143.068 143.906 136.867  1.00  0.00    -0.508 OA
ATOM     12  H   UNL     1     142.359 144.612 136.714  1.00  0.00     0.293 HD
ENDBRANCH   9  11
TORSDOF 1
ENDMDL
MODEL 9
REMARK VINA RESULT:    -3.710     13.974     15.007
REMARK INTER + INTRA:          -3.818
REMARK INTER:                  -3.818
REMARK INTRA:                   0.000
REMARK UNBOUND:                 0.000
REMARK SMILES Oc1ccc2[nH]ccc2c1
REMARK SMILES IDX 3 1 4 2 5 3 9 4 8 5 7 6 6 7 10 8 2 9 1 11
REMARK H PARENT 6 10 1 12
REMARK Flexibility Score: inf
ROOT
ATOM      1  C   UNL     1     145.637 147.057 140.620  1.00  0.00     0.048 A 
ATOM      2  C   UNL     1     144.677 146.789 139.626  1.00  0.00     0.030 A 
ATOM      3  C   UNL     1     145.015 145.882 138.623  1.00  0.00     0.046 A 
ATOM      4  C   UNL     1     146.236 145.266 138.592  1.00  0.00     0.003 A 
ATOM      5  C   UNL     1     146.253 144.441 137.488  1.00  0.00     0.028 A 
ATOM      6  C   UNL     1     145.007 144.605 136.893  1.00  0.00     0.083 A 
ATOM      7  N   UNL     1     144.254 145.486 137.590  1.00  0.00    -0.361 N 
ATOM      8  C   UNL     1     147.210 145.509 139.558  1.00  0.00     0.056 A 
ATOM      9  C   UNL     1     146.900 146.421 140.590  1.00  0.00     0.116 A 
ATOM     10  H   UNL     1     143.282 145.794 137.367  1.00  0.00     0.166 HD
ENDROOT
BRANCH   9  11
ATOM     11  O   UNL     1     147.834 146.705 141.584  1.00  0.00    -0.508 OA
ATOM     12  H   UNL     1     148.705 146.194 141.653  1.00  0.00     0.293 HD
ENDBRANCH   9  11
TORSDOF 1
ENDMDL
