MODEL 1
REMARK VINA RESULT:    -4.090      0.000      0.000
REMARK INTER + INTRA:          -5.449
REMARK INTER:                  -5.286
REMARK INTRA:                  -0.163
REMARK UNBOUND:                -0.163
REMARK SMILES CCCCCCC(=O)[O-]
REMARK SMILES IDX 5 1 6 2 7 3 8 4 9 5 4 6 3 7 2 8 1 9
REMARK H PARENT
REMARK Flexibility Score: inf
ROOT
ATOM      1  C   UNL     1      25.636   6.127   6.870  1.00  0.00     0.006 C 
ENDROOT
BRANCH   1   2
ATOM      2  C   UNL     1      25.397   7.640   6.769  1.00  0.00     0.053 C 
BRANCH   2   3
ATOM      3  C   UNL     1      24.103   7.953   6.081  1.00  0.00     0.041 C 
ATOM      4  O   UNL     1      23.983   9.011   5.408  1.00  0.00    -0.550 OA
ATOM      5  O   UNL     1      23.042   7.059   6.153  1.00  0.00    -0.550 OA
ENDBRANCH   2   3
ENDBRANCH   1   2
BRANCH   1   6
ATOM      6  C   UNL     1      26.837   5.672   6.023  1.00  0.00     0.000 C 
BRANCH   6   7
ATOM      7  C   UNL     1      28.074   5.352   6.877  1.00  0.00    -0.000 C 
BRANCH   7   8
ATOM      8  C   UNL     1      27.800   4.267   7.929  1.00  0.00    -0.003 C 
ATOM      9  C   UNL     1      27.383   2.956   7.271  1.00  0.00     0.004 C 
ENDBRANCH   7   8
ENDBRANCH   6   7
ENDBRANCH   1   6
TORSDOF 5
ENDMDL
MODEL 2
REMARK VINA RESULT:    -3.818      2.219      2.572
REMARK INTER + INTRA:          -5.097
REMARK INTER:                  -4.870
REMARK INTRA:                  -0.228
REMARK UNBOUND:                -0.163
REMARK SMILES CCCCCCC(=O)[O-]
REMARK SMILES IDX 5 1 6 2 7 3 8 4 9 5 4 6 3 7 2 8 1 9
REMARK H PARENT
REMARK Flexibility Score: inf
ROOT
ATOM      1  C   UNL     1      25.086   6.805   6.898  1.00  0.00     0.006 C 
ENDROOT
BRANCH   1   2
ATOM      2  C   UNL     1      25.169   8.334   6.998  1.00  0.00     0.053 C 
BRANCH   2   3
ATOM      3  C   UNL     1      26.085   8.769   8.101  1.00  0.00     0.041 C 
ATOM      4  O   UNL     1      25.626   9.013   9.248  1.00  0.00    -0.550 OA
ATOM      5  O   UNL     1      27.451   8.873   7.870  1.00  0.00    -0.550 OA
ENDBRANCH   2   3
ENDBRANCH   1   2
BRANCH   1   6
ATOM      6  C   UNL     1      25.913   6.254   5.723  1.00  0.00     0.000 C 
BRANCH   6   7
ATOM      7  C   UNL     1      27.215   5.581   6.183  1.00  0.00    -0.000 C 
BRANCH   7   8
ATOM      8  C   UNL     1      26.982   4.181   6.770  1.00  0.00    -0.003 C 
ATOM      9  C   UNL     1      27.808   3.970   8.034  1.00  0.00     0.004 C 
ENDBRANCH   7   8
ENDBRANCH   6   7
ENDBRANCH   1   6
TORSDOF 5
ENDMDL
MODEL 3
REMARK VINA RESULT:    -3.762      1.594      2.810
REMARK INTER + INTRA:          -5.025
REMARK INTER:                  -4.695
REMARK INTRA:                  -0.330
REMARK UNBOUND:                -0.163
REMARK SMILES CCCCCCC(=O)[O-]
REMARK SMILES IDX 5 1 6 2 7 3 8 4 9 5 4 6 3 7 2 8 1 9
REMARK H PARENT
REMARK Flexibility Score: inf
ROOT
ATOM      1  C   UNL     1      25.576   6.120   6.486  1.00  0.00     0.006 C 
ENDROOT
BRANCH   1   2
ATOM      2  C   UNL     1      25.410   7.451   5.740  1.00  0.00     0.053 C 
BRANCH   2   3
ATOM      3  C   UNL     1      24.003   7.960   5.818  1.00  0.00     0.041 C 
ATOM      4  O   UNL     1      23.744   9.156   5.520  1.00  0.00    -0.550 OA
ATOM      5  O   UNL     1      22.973   7.104   6.186  1.00  0.00    -0.550 OA
ENDBRANCH   2   3
ENDBRANCH   1   2
BRANCH   1   6
ATOM      6  C   UNL     1      26.782   6.136   7.441  1.00  0.00     0.000 C 
BRANCH   6   7
ATOM      7  C   UNL     1      27.247   7.561   7.781  1.00  0.00    -0.000 C 
BRANCH   7   8
ATOM      8  C   UNL     1      26.765   8.025   9.163  1.00  0.00    -0.003 C 
ATOM      9  C   UNL     1      25.756   9.162   9.040  1.00  0.00     0.004 C 
ENDBRANCH   7   8
ENDBRANCH   6   7
ENDBRANCH   1   6
TORSDOF 5
ENDMDL
MODEL 4
REMARK VINA RESULT:    -3.685     12.782     13.727
REMARK INTER + INTRA:          -4.926
REMARK INTER:                  -4.701
REMARK INTRA:                  -0.225
REMARK UNBOUND:                -0.163
REMARK SMILES CCCCCCC(=O)[O-]
REMARK SMILES IDX 5 1 6 2 7 3 8 4 9 5 4 6 3 7 2 8 1 9
REMARK H PARENT
REMARK Flexibility Score: inf
ROOT
ATOM      1  C   UNL     1      15.636   3.654  -0.335  1.00  0.00     0.006 C 
ENDROOT
BRANCH   1   2
ATOM      2  C   UNL     1      15.434   2.918  -1.666  1.00  0.00     0.053 C 
BRANCH   2   3
ATOM      3  C   UNL     1      16.173   1.615  -1.699  1.00  0.00     0.041 C 
ATOM      4  O   UNL     1      17.431   1.599  -1.650  1.00  0.00    -0.550 OA
ATOM      5  O   UNL     1      15.471   0.417  -1.749  1.00  0.00    -0.550 OA
ENDBRANCH   2   3
ENDBRANCH   1   2
BRANCH   1   6
ATOM      6  C   UNL     1      15.373   2.744   0.877  1.00  0.00     0.000 C 
BRANCH   6   7
ATOM      7  C   UNL     1      14.571   3.449   1.982  1.00  0.00    -0.000 C 
BRANCH   7   8
ATOM      8  C   UNL     1      13.844   4.703   1.475  1.00  0.00    -0.003 C 
ATOM      9  C   UNL     1      12.379   4.700   1.901  1.00  0.00     0.004 C 
ENDBRANCH   7   8
ENDBRANCH   6   7
ENDBRANCH   1   6
TORSDOF 5
ENDMDL
MODEL 5
REMARK VINA RESULT:    -3.633     13.302     14.604
REMARK INTER + INTRA:          -4.858
REMARK INTER:                  -4.390
REMARK INTRA:                  -0.468
REMARK UNBOUND:                -0.163
REMARK SMILES CCCCCCC(=O)[O-]
REMARK SMILES IDX 5 1 6 2 7 3 8 4 9 5 4 6 3 7 2 8 1 9
REMARK H PARENT
REMARK Flexibility Score: inf
ROOT
ATOM      1  C   UNL     1      16.287   1.592  -1.711  1.00  0.00     0.006 C 
ENDROOT
BRANCH   1   2
ATOM      2  C   UNL     1      16.285   2.656  -0.606  1.00  0.00     0.053 C 
BRANCH   2   3
ATOM      3  C   UNL     1      15.197   3.666  -0.809  1.00  0.00     0.041 C 
ATOM      4  O   UNL     1      14.653   4.220   0.183  1.00  0.00    -0.550 OA
ATOM      5  O   UNL     1      14.807   4.021  -2.095  1.00  0.00    -0.550 OA
ENDBRANCH   2   3
ENDBRANCH   1   2
BRANCH   1   6
ATOM      6  C   UNL     1      15.215   0.512  -1.479  1.00  0.00     0.000 C 
BRANCH   6   7
ATOM      7  C   UNL     1      14.185   0.448  -2.618  1.00  0.00    -0.000 C 
BRANCH   7   8
ATOM      8  C   UNL     1      12.828   1.048  -2.221  1.00  0.00    -0.003 C 
ATOM      9  C   UNL     1      12.622   0.990  -0.710  1.00  0.00     0.004 C 
ENDBRANCH   7   8
ENDBRANCH   6   7
ENDBRANCH   1   6
TORSDOF 5
ENDMDL
MODEL 6
REMARK VINA RESULT:    -3.607     12.791     14.056
REMARK INTER + INTRA:          -4.825
REMARK INTER:                  -4.578
REMARK INTRA:                  -0.247
REMARK UNBOUND:                -0.163
REMARK SMILES CCCCCCC(=O)[O-]
REMARK SMILES IDX 5 1 6 2 7 3 8 4 9 5 4 6 3 7 2 8 1 9
REMARK H PARENT
REMARK Flexibility Score: inf
ROOT
ATOM      1  C   UNL     1      15.354   3.089   1.099  1.00  0.00     0.006 C 
ENDROOT
BRANCH   1   2
ATOM      2  C   UNL     1      15.558   4.096  -0.042  1.00  0.00     0.053 C 
BRANCH   2   3
ATOM      3  C   UNL     1      15.283   3.482  -1.380  1.00  0.00     0.041 C 
ATOM      4  O   UNL     1      14.490   4.041  -2.183  1.00  0.00    -0.550 OA
ATOM      5  O   UNL     1      15.929   2.310  -1.755  1.00  0.00    -0.550 OA
ENDBRANCH   2   3
ENDBRANCH   1   2
BRANCH   1   6
ATOM      6  C   UNL     1      14.087   3.389   1.918  1.00  0.00     0.000 C 
BRANCH   6   7
ATOM      7  C   UNL     1      13.520   4.789   1.637  1.00  0.00    -0.000 C 
BRANCH   7   8
ATOM      8  C   UNL     1      12.004   4.870   1.871  1.00  0.00    -0.003 C 
ATOM      9  C   UNL     1      11.250   3.956   0.910  1.00  0.00     0.004 C 
ENDBRANCH   7   8
ENDBRANCH   6   7
ENDBRANCH   1   6
TORSDOF 5
ENDMDL
MODEL 7
REMARK VINA RESULT:    -3.584     13.468     14.747
REMARK INTER + INTRA:          -4.794
REMARK INTER:                  -4.374
REMARK INTRA:                  -0.420
REMARK UNBOUND:                -0.163
REMARK SMILES CCCCCCC(=O)[O-]
REMARK SMILES IDX 5 1 6 2 7 3 8 4 9 5 4 6 3 7 2 8 1 9
REMARK H PARENT
REMARK Flexibility Score: inf
ROOT
ATOM      1  C   UNL     1      13.278   3.154  -1.820  1.00  0.00     0.006 C 
ENDROOT
BRANCH   1   2
ATOM      2  C   UNL     1      14.680   3.758  -1.981  1.00  0.00     0.053 C 
BRANCH   2   3
ATOM      3  C   UNL     1      15.519   3.548  -0.758  1.00  0.00     0.041 C 
ATOM      4  O   UNL     1      15.332   4.254   0.268  1.00  0.00    -0.550 OA
ATOM      5  O   UNL     1      16.485   2.550  -0.740  1.00  0.00    -0.550 OA
ENDBRANCH   2   3
ENDBRANCH   1   2
BRANCH   1   6
ATOM      6  C   UNL     1      13.180   1.746  -2.432  1.00  0.00     0.000 C 
BRANCH   6   7
ATOM      7  C   UNL     1      13.223   0.636  -1.371  1.00  0.00    -0.000 C 
BRANCH   7   8
ATOM      8  C   UNL     1      14.419  -0.310  -1.553  1.00  0.00    -0.003 C 
ATOM      9  C   UNL     1      15.069  -0.118  -2.920  1.00  0.00     0.004 C 
ENDBRANCH   7   8
ENDBRANCH   6   7
ENDBRANCH   1   6
TORSDOF 5
ENDMDL
MODEL 8
REMARK VINA RESULT:    -3.571     13.528     15.007
REMARK INTER + INTRA:          -4.778
REMARK INTER:                  -4.386
REMARK INTRA:                  -0.392
REMARK UNBOUND:                -0.163
REMARK SMILES CCCCCCC(=O)[O-]
REMARK SMILES IDX 5 1 6 2 7 3 8 4 9 5 4 6 3 7 2 8 1 9
REMARK H PARENT
REMARK Flexibility Score: inf
ROOT
ATOM      1  C   UNL     1      13.421   1.678  -2.352  1.00  0.00     0.006 C 
ENDROOT
BRANCH   1   2
ATOM      2  C   UNL     1      14.147   0.423  -1.848  1.00  0.00     0.053 C 
BRANCH   2   3
ATOM      3  C   UNL     1      15.366   0.121  -2.664  1.00  0.00     0.041 C 
ATOM      4  O   UNL     1      15.302  -0.693  -3.623  1.00  0.00    -0.550 OA
ATOM      5  O   UNL     1      16.566   0.764  -2.387  1.00  0.00    -0.550 OA
ENDBRANCH   2   3
ENDBRANCH   1   2
BRANCH   1   6
ATOM      6  C   UNL     1      13.528   2.848  -1.359  1.00  0.00     0.000 C 
BRANCH   6   7
ATOM      7  C   UNL     1      14.724   3.766  -1.655  1.00  0.00    -0.000 C 
BRANCH   7   8
ATOM      8  C   UNL     1      15.796   3.711  -0.556  1.00  0.00    -0.003 C 
ATOM      9  C   UNL     1      15.214   3.196   0.756  1.00  0.00     0.004 C 
ENDBRANCH   7   8
ENDBRANCH   6   7
ENDBRANCH   1   6
TORSDOF 5
ENDMDL
MODEL 9
REMARK VINA RESULT:    -3.546     11.924     12.720
REMARK INTER + INTRA:          -4.745
REMARK INTER:                  -4.674
REMARK INTRA:                  -0.071
REMARK UNBOUND:                -0.163
REMARK SMILES CCCCCCC(=O)[O-]
REMARK SMILES IDX 5 1 6 2 7 3 8 4 9 5 4 6 3 7 2 8 1 9
REMARK H PARENT
REMARK Flexibility Score: inf
ROOT
ATOM      1  C   UNL     1      15.380   2.620   1.047  1.00  0.00     0.006 C 
ENDROOT
BRANCH   1   2
ATOM      2  C   UNL     1      15.169   3.834   0.132  1.00  0.00     0.053 C 
BRANCH   2   3
ATOM      3  C   UNL     1      15.274   3.464  -1.316  1.00  0.00     0.041 C 
ATOM      4  O   UNL     1      14.678   4.147  -2.190  1.00  0.00    -0.550 OA
ATOM      5  O   UNL     1      16.059   2.385  -1.703  1.00  0.00    -0.550 OA
ENDBRANCH   2   3
ENDBRANCH   1   2
BRANCH   1   6
ATOM      6  C   UNL     1      14.984   2.915   2.504  1.00  0.00     0.000 C 
BRANCH   6   7
ATOM      7  C   UNL     1      14.933   1.647   3.370  1.00  0.00    -0.000 C 
BRANCH   7   8
ATOM      8  C   UNL     1      15.645   1.824   4.719  1.00  0.00    -0.003 C 
ATOM      9  C   UNL     1      14.661   1.718   5.879  1.00  0.00     0.004 C 
ENDBRANCH   7   8
ENDBRANCH   6   7
ENDBRANCH   1   6
TORSDOF 5
ENDMDL
