MODEL 1
REMARK VINA RESULT:    -5.350      0.000      0.000
REMARK INTER + INTRA:          -6.184
REMARK INTER:                  -5.976
REMARK INTRA:                  -0.208
REMARK UNBOUND:                -0.208
REMARK SMILES CC(C)c1ccc(C(=O)[O-])cc1
REMARK SMILES IDX 7 1 6 2 11 3 5 4 12 5 4 6 8 7 9 8 10 9 2 10 1 11 3 12
REMARK H PARENT
REMARK Flexibility Score: inf
ROOT
ATOM      1  C   UNL     1       6.336   1.332  28.486  1.00  0.00    -0.003 A 
ATOM      2  C   UNL     1       7.575   1.551  29.107  1.00  0.00     0.010 A 
ATOM      3  C   UNL     1       5.881   2.256  27.528  1.00  0.00     0.010 A 
ATOM      4  C   UNL     1       8.348   2.670  28.778  1.00  0.00     0.004 A 
ATOM      5  C   UNL     1       6.652   3.374  27.200  1.00  0.00     0.004 A 
ATOM      6  C   UNL     1       7.894   3.594  27.821  1.00  0.00    -0.045 A 
ENDROOT
BRANCH   1   7
ATOM      7  C   UNL     1       5.522   0.147  28.837  1.00  0.00     0.071 C 
ATOM      8  O   UNL     1       4.264   0.217  28.858  1.00  0.00    -0.545 OA
ATOM      9  O   UNL     1       6.136  -1.061  29.148  1.00  0.00    -0.545 OA
ENDBRANCH   1   7
BRANCH   6  10
ATOM     10  C   UNL     1       8.742   4.804  27.474  1.00  0.00     0.013 C 
ATOM     11  C   UNL     1       7.871   5.967  26.984  1.00  0.00     0.012 C 
ATOM     12  C   UNL     1       9.817   4.447  26.440  1.00  0.00     0.012 C 
ENDBRANCH   6  10
TORSDOF 2
ENDMDL
MODEL 2
REMARK VINA RESULT:    -5.335      3.350      5.318
REMARK INTER + INTRA:          -6.167
REMARK INTER:                  -5.954
REMARK INTRA:                  -0.214
REMARK UNBOUND:                -0.208
REMARK SMILES CC(C)c1ccc(C(=O)[O-])cc1
REMARK SMILES IDX 7 1 6 2 11 3 5 4 12 5 4 6 8 7 9 8 10 9 2 10 1 11 3 12
REMARK H PARENT
REMARK Flexibility Score: inf
ROOT
ATOM      1  C   UNL     1       8.086   4.386  27.389  1.00  0.00    -0.003 A 
ATOM      2  C   UNL     1       6.849   3.798  27.076  1.00  0.00     0.010 A 
ATOM      3  C   UNL     1       8.963   3.707  28.253  1.00  0.00     0.010 A 
ATOM      4  C   UNL     1       6.496   2.557  27.614  1.00  0.00     0.004 A 
ATOM      5  C   UNL     1       8.609   2.467  28.792  1.00  0.00     0.004 A 
ATOM      6  C   UNL     1       7.371   1.878  28.479  1.00  0.00    -0.045 A 
ENDROOT
BRANCH   1   7
ATOM      7  C   UNL     1       8.455   5.699  26.817  1.00  0.00     0.071 C 
ATOM      8  O   UNL     1       9.498   5.824  26.121  1.00  0.00    -0.545 OA
ATOM      9  O   UNL     1       7.655   6.814  27.038  1.00  0.00    -0.545 OA
ENDBRANCH   1   7
BRANCH   6  10
ATOM     10  C   UNL     1       6.974   0.532  29.056  1.00  0.00     0.013 C 
ATOM     11  C   UNL     1       8.132  -0.470  28.966  1.00  0.00     0.012 C 
ATOM     12  C   UNL     1       5.717  -0.015  28.370  1.00  0.00     0.012 C 
ENDBRANCH   6  10
TORSDOF 2
ENDMDL
MODEL 3
REMARK VINA RESULT:    -5.294      1.436      2.475
REMARK INTER + INTRA:          -6.121
REMARK INTER:                  -5.907
REMARK INTRA:                  -0.213
REMARK UNBOUND:                -0.208
REMARK SMILES CC(C)c1ccc(C(=O)[O-])cc1
REMARK SMILES IDX 7 1 6 2 11 3 5 4 12 5 4 6 8 7 9 8 10 9 2 10 1 11 3 12
REMARK H PARENT
REMARK Flexibility Score: inf
ROOT
ATOM      1  C   UNL     1       6.140   2.219  27.829  1.00  0.00    -0.003 A 
ATOM      2  C   UNL     1       6.502   3.426  27.212  1.00  0.00     0.010 A 
ATOM      3  C   UNL     1       7.069   1.579  28.670  1.00  0.00     0.010 A 
ATOM      4  C   UNL     1       7.765   3.986  27.430  1.00  0.00     0.004 A 
ATOM      5  C   UNL     1       8.331   2.138  28.887  1.00  0.00     0.004 A 
ATOM      6  C   UNL     1       8.694   3.348  28.269  1.00  0.00    -0.045 A 
ENDROOT
BRANCH   1   7
ATOM      7  C   UNL     1       4.803   1.630  27.596  1.00  0.00     0.071 C 
ATOM      8  O   UNL     1       4.179   1.861  26.526  1.00  0.00    -0.545 OA
ATOM      9  O   UNL     1       4.217   0.812  28.555  1.00  0.00    -0.545 OA
ENDBRANCH   1   7
BRANCH   6  10
ATOM     10  C   UNL     1      10.061   3.966  28.497  1.00  0.00     0.013 C 
ATOM     11  C   UNL     1      10.873   4.003  27.196  1.00  0.00     0.012 C 
ATOM     12  C   UNL     1      10.824   3.228  29.603  1.00  0.00     0.012 C 
ENDBRANCH   6  10
TORSDOF 2
ENDMDL
MODEL 4
REMARK VINA RESULT:    -5.186      3.002      4.639
REMARK INTER + INTRA:          -6.001
REMARK INTER:                  -5.784
REMARK INTRA:                  -0.216
REMARK UNBOUND:                -0.208
REMARK SMILES CC(C)c1ccc(C(=O)[O-])cc1
REMARK SMILES IDX 7 1 6 2 11 3 5 4 12 5 4 6 8 7 9 8 10 9 2 10 1 11 3 12
REMARK H PARENT
REMARK Flexibility Score: inf
ROOT
ATOM      1  C   UNL     1       8.800   3.109  28.428  1.00  0.00    -0.003 A 
ATOM      2  C   UNL     1       8.282   1.907  28.934  1.00  0.00     0.010 A 
ATOM      3  C   UNL     1       8.023   3.861  27.530  1.00  0.00     0.010 A 
ATOM      4  C   UNL     1       7.012   1.463  28.551  1.00  0.00     0.004 A 
ATOM      5  C   UNL     1       6.754   3.418  27.147  1.00  0.00     0.004 A 
ATOM      6  C   UNL     1       6.235   2.213  27.653  1.00  0.00    -0.045 A 
ENDROOT
BRANCH   1   7
ATOM      7  C   UNL     1      10.144   3.575  28.836  1.00  0.00     0.071 C 
ATOM      8  O   UNL     1      10.508   3.507  30.040  1.00  0.00    -0.545 OA
ATOM      9  O   UNL     1      11.026   4.092  27.894  1.00  0.00    -0.545 OA
ENDBRANCH   1   7
BRANCH   6  10
ATOM     10  C   UNL     1       4.858   1.720  27.246  1.00  0.00     0.013 C 
ATOM     11  C   UNL     1       4.063   2.825  26.539  1.00  0.00     0.012 C 
ATOM     12  C   UNL     1       4.088   1.173  28.453  1.00  0.00     0.012 C 
ENDBRANCH   6  10
TORSDOF 2
ENDMDL
MODEL 5
REMARK VINA RESULT:    -5.149      3.297      4.960
REMARK INTER + INTRA:          -5.959
REMARK INTER:                  -5.753
REMARK INTRA:                  -0.206
REMARK UNBOUND:                -0.208
REMARK SMILES CC(C)c1ccc(C(=O)[O-])cc1
REMARK SMILES IDX 7 1 6 2 11 3 5 4 12 5 4 6 8 7 9 8 10 9 2 10 1 11 3 12
REMARK H PARENT
REMARK Flexibility Score: inf
ROOT
ATOM      1  C   UNL     1       7.938   4.176  27.382  1.00  0.00    -0.003 A 
ATOM      2  C   UNL     1       8.753   3.409  28.229  1.00  0.00     0.010 A 
ATOM      3  C   UNL     1       6.674   3.676  27.018  1.00  0.00     0.010 A 
ATOM      4  C   UNL     1       8.315   2.169  28.707  1.00  0.00     0.004 A 
ATOM      5  C   UNL     1       6.237   2.437  27.495  1.00  0.00     0.004 A 
ATOM      6  C   UNL     1       7.053   1.670  28.344  1.00  0.00    -0.045 A 
ENDROOT
BRANCH   1   7
ATOM      7  C   UNL     1       8.404   5.486  26.879  1.00  0.00     0.071 C 
ATOM      8  O   UNL     1       7.733   6.531  27.093  1.00  0.00    -0.545 OA
ATOM      9  O   UNL     1       9.593   5.584  26.165  1.00  0.00    -0.545 OA
ENDBRANCH   1   7
BRANCH   6  10
ATOM     10  C   UNL     1       6.591   0.323  28.870  1.00  0.00     0.013 C 
ATOM     11  C   UNL     1       5.756   0.485  30.145  1.00  0.00     0.012 C 
ATOM     12  C   UNL     1       7.780  -0.616  29.105  1.00  0.00     0.012 C 
ENDBRANCH   6  10
TORSDOF 2
ENDMDL
MODEL 6
REMARK VINA RESULT:    -5.136      4.341      5.741
REMARK INTER + INTRA:          -5.945
REMARK INTER:                  -5.738
REMARK INTRA:                  -0.207
REMARK UNBOUND:                -0.208
REMARK SMILES CC(C)c1ccc(C(=O)[O-])cc1
REMARK SMILES IDX 7 1 6 2 11 3 5 4 12 5 4 6 8 7 9 8 10 9 2 10 1 11 3 12
REMARK H PARENT
REMARK Flexibility Score: inf
ROOT
ATOM      1  C   UNL     1      11.931   3.689  29.325  1.00  0.00    -0.003 A 
ATOM      2  C   UNL     1      11.916   4.135  27.994  1.00  0.00     0.010 A 
ATOM      3  C   UNL     1      10.719   3.314  29.931  1.00  0.00     0.010 A 
ATOM      4  C   UNL     1      10.715   4.204  27.281  1.00  0.00     0.004 A 
ATOM      5  C   UNL     1       9.519   3.384  29.219  1.00  0.00     0.004 A 
ATOM      6  C   UNL     1       9.503   3.831  27.885  1.00  0.00    -0.045 A 
ENDROOT
BRANCH   1   7
ATOM      7  C   UNL     1      13.204   3.617  30.075  1.00  0.00     0.071 C 
ATOM      8  O   UNL     1      14.247   3.170  29.528  1.00  0.00    -0.545 OA
ATOM      9  O   UNL     1      13.267   4.044  31.397  1.00  0.00    -0.545 OA
ENDBRANCH   1   7
BRANCH   6  10
ATOM     10  C   UNL     1       8.207   3.911  27.100  1.00  0.00     0.013 C 
ATOM     11  C   UNL     1       7.603   5.319  27.175  1.00  0.00     0.012 C 
ATOM     12  C   UNL     1       7.205   2.854  27.578  1.00  0.00     0.012 C 
ENDBRANCH   6  10
TORSDOF 2
ENDMDL
MODEL 7
REMARK VINA RESULT:    -5.061      4.400      5.721
REMARK INTER + INTRA:          -5.861
REMARK INTER:                  -5.651
REMARK INTRA:                  -0.210
REMARK UNBOUND:                -0.208
REMARK SMILES CC(C)c1ccc(C(=O)[O-])cc1
REMARK SMILES IDX 7 1 6 2 11 3 5 4 12 5 4 6 8 7 9 8 10 9 2 10 1 11 3 12
REMARK H PARENT
REMARK Flexibility Score: inf
ROOT
ATOM      1  C   UNL     1      11.949   3.750  29.354  1.00  0.00    -0.003 A 
ATOM      2  C   UNL     1      10.759   3.375  29.997  1.00  0.00     0.010 A 
ATOM      3  C   UNL     1      11.903   4.125  28.000  1.00  0.00     0.010 A 
ATOM      4  C   UNL     1       9.545   3.376  29.302  1.00  0.00     0.004 A 
ATOM      5  C   UNL     1      10.690   4.125  27.305  1.00  0.00     0.004 A 
ATOM      6  C   UNL     1       9.497   3.750  27.949  1.00  0.00    -0.045 A 
ENDROOT
BRANCH   1   7
ATOM      7  C   UNL     1      13.231   3.747  30.093  1.00  0.00     0.071 C 
ATOM      8  O   UNL     1      13.255   3.948  31.336  1.00  0.00    -0.545 OA
ATOM      9  O   UNL     1      14.429   3.520  29.424  1.00  0.00    -0.545 OA
ENDBRANCH   1   7
BRANCH   6  10
ATOM     10  C   UNL     1       8.173   3.747  27.207  1.00  0.00     0.013 C 
ATOM     11  C   UNL     1       7.513   5.131  27.250  1.00  0.00     0.012 C 
ATOM     12  C   UNL     1       7.232   2.670  27.760  1.00  0.00     0.012 C 
ENDBRANCH   6  10
TORSDOF 2
ENDMDL
MODEL 8
REMARK VINA RESULT:    -5.060      3.194      4.257
REMARK INTER + INTRA:          -5.859
REMARK INTER:                  -5.646
REMARK INTRA:                  -0.214
REMARK UNBOUND:                -0.208
REMARK SMILES CC(C)c1ccc(C(=O)[O-])cc1
REMARK SMILES IDX 7 1 6 2 11 3 5 4 12 5 4 6 8 7 9 8 10 9 2 10 1 11 3 12
REMARK H PARENT
REMARK Flexibility Score: inf
ROOT
ATOM      1  C   UNL     1       8.690   3.655  27.862  1.00  0.00    -0.003 A 
ATOM      2  C   UNL     1       9.002   3.269  29.175  1.00  0.00     0.010 A 
ATOM      3  C   UNL     1       9.722   4.111  27.022  1.00  0.00     0.010 A 
ATOM      4  C   UNL     1      10.319   3.334  29.640  1.00  0.00     0.004 A 
ATOM      5  C   UNL     1      11.038   4.177  27.488  1.00  0.00     0.004 A 
ATOM      6  C   UNL     1      11.351   3.790  28.803  1.00  0.00    -0.045 A 
ENDROOT
BRANCH   1   7
ATOM      7  C   UNL     1       7.295   3.584  27.373  1.00  0.00     0.071 C 
ATOM      8  O   UNL     1       6.689   4.628  27.010  1.00  0.00    -0.545 OA
ATOM      9  O   UNL     1       6.634   2.363  27.306  1.00  0.00    -0.545 OA
ENDBRANCH   1   7
BRANCH   6  10
ATOM     10  C   UNL     1      12.776   3.856  29.322  1.00  0.00     0.013 C 
ATOM     11  C   UNL     1      12.804   3.897  30.854  1.00  0.00     0.012 C 
ATOM     12  C   UNL     1      13.527   5.052  28.724  1.00  0.00     0.012 C 
ENDBRANCH   6  10
TORSDOF 2
ENDMDL
MODEL 9
REMARK VINA RESULT:    -4.780      3.503      4.827
REMARK INTER + INTRA:          -5.547
REMARK INTER:                  -5.335
REMARK INTRA:                  -0.212
REMARK UNBOUND:                -0.208
REMARK SMILES CC(C)c1ccc(C(=O)[O-])cc1
REMARK SMILES IDX 7 1 6 2 11 3 5 4 12 5 4 6 8 7 9 8 10 9 2 10 1 11 3 12
REMARK H PARENT
REMARK Flexibility Score: inf
ROOT
ATOM      1  C   UNL     1       9.077   3.708  27.991  1.00  0.00    -0.003 A 
ATOM      2  C   UNL     1      10.132   4.113  27.158  1.00  0.00     0.010 A 
ATOM      3  C   UNL     1       9.360   3.342  29.319  1.00  0.00     0.010 A 
ATOM      4  C   UNL     1      11.443   4.154  27.641  1.00  0.00     0.004 A 
ATOM      5  C   UNL     1      10.671   3.382  29.801  1.00  0.00     0.004 A 
ATOM      6  C   UNL     1      11.728   3.788  28.967  1.00  0.00    -0.045 A 
ENDROOT
BRANCH   1   7
ATOM      7  C   UNL     1       7.691   3.666  27.476  1.00  0.00     0.071 C 
ATOM      8  O   UNL     1       7.098   2.565  27.319  1.00  0.00    -0.545 OA
ATOM      9  O   UNL     1       7.021   4.842  27.159  1.00  0.00    -0.545 OA
ENDBRANCH   1   7
BRANCH   6  10
ATOM     10  C   UNL     1      13.156   3.837  29.478  1.00  0.00     0.013 C 
ATOM     11  C   UNL     1      14.126   3.215  28.466  1.00  0.00     0.012 C 
ATOM     12  C   UNL     1      13.277   3.158  30.847  1.00  0.00     0.012 C 
ENDBRANCH   6  10
TORSDOF 2
ENDMDL
