MODEL 1
REMARK VINA RESULT:    -3.688      0.000      0.000
REMARK INTER + INTRA:          -5.920
REMARK INTER:                  -5.628
REMARK INTRA:                  -0.291
REMARK UNBOUND:                -0.291
REMARK SMILES CC1=CCC[C@H](C)C(=O)C[C@@H](C(C)C)C(=O)C1
REMARK SMILES IDX 8 1 9 2 6 3 7 4 5 5 4 6 3 7 2 8 1 9 10 11 11 12 15 13 16 14
REMARK SMILES IDX 17 15 12 17 13 18 14 19
REMARK H PARENT
REMARK Flexibility Score: 70.00
ROOT
ATOM      1  C   UNL     1      -9.468  36.645  -1.075  1.00  0.00     0.136 C 
ATOM      2  O   UNL     1      -8.596  36.956  -0.275  1.00  0.00    -0.299 OA
ENDROOT
BRANCH   1   3
ATOM      3  C   UNL     1     -10.917  36.633  -0.599  1.00  0.00     0.053 C 
ATOM      4  C   UNL     1     -10.983  36.827   0.926  1.00  0.00     0.016 C 
BRANCH   3   5
ATOM      5  C   UNL     1     -11.758  37.722  -1.305  1.00  0.00     0.015 C 
BRANCH   5   6
ATOM      6  C   UNL     1     -12.676  37.188  -2.416  1.00  0.00     0.028 C 
BRANCH   6   7
ATOM      7  C   UNL     1     -12.737  38.122  -3.601  1.00  0.00    -0.028 C 
ATOM      8  C   UNL     1     -11.956  38.064  -4.707  1.00  0.00    -0.070 CG0
ATOM      9  C   UNL     1     -12.198  39.086  -5.789  1.00  0.00     0.039 C 
ATOM     10  G   UNL     1     -10.890  37.006  -4.942  1.00  0.00     0.000 G0
ENDBRANCH   6   7
ENDBRANCH   5   6
ENDBRANCH   3   5
ENDBRANCH   1   3
BRANCH   1  11
ATOM     11  C   UNL     1      -9.044  36.428  -2.518  1.00  0.00     0.087 C 
BRANCH  11  12
ATOM     12  C   UNL     1      -8.854  37.673  -3.427  1.00  0.00     0.066 C 
BRANCH  12  13
ATOM     13  C   UNL     1      -9.492  37.539  -4.805  1.00  0.00     0.140 C 
ATOM     14  O   UNL     1      -8.899  37.925  -5.802  1.00  0.00    -0.299 OA
BRANCH  13  15
ATOM     15  C   UNL     1     -10.896  37.007  -4.965  1.00  0.00     0.106 CG0
ATOM     16  G   UNL     1     -11.935  38.083  -4.694  1.00  0.00     0.000 G0
ENDBRANCH  13  15
ENDBRANCH  12  13
BRANCH  12  17
ATOM     17  C   UNL     1      -7.396  38.243  -3.394  1.00  0.00    -0.006 C 
ATOM     18  C   UNL     1      -6.350  37.135  -3.182  1.00  0.00     0.008 C 
ATOM     19  C   UNL     1      -7.173  39.393  -2.394  1.00  0.00     0.008 C 
ENDBRANCH  12  17
ENDBRANCH  11  12
ENDBRANCH   1  11
TORSDOF 1
ENDMDL
MODEL 2
REMARK VINA RESULT:    -3.637      2.616      4.668
REMARK INTER + INTRA:          -5.842
REMARK INTER:                  -5.577
REMARK INTRA:                  -0.265
REMARK UNBOUND:                -0.291
REMARK SMILES CC1=CCC[C@H](C)C(=O)C[C@@H](C(C)C)C(=O)C1
REMARK SMILES IDX 8 1 9 2 6 3 7 4 5 5 4 6 3 7 2 8 1 9 10 11 11 12 15 13 16 14
REMARK SMILES IDX 17 15 12 17 13 18 14 19
REMARK H PARENT
REMARK Flexibility Score: 70.00
ROOT
ATOM      1  C   UNL     1     -10.823  36.353  -1.101  1.00  0.00     0.136 C 
ATOM      2  O   UNL     1     -11.895  36.103  -1.634  1.00  0.00    -0.299 OA
ENDROOT
BRANCH   1   3
ATOM      3  C   UNL     1     -10.266  35.355  -0.091  1.00  0.00     0.053 C 
ATOM      4  C   UNL     1      -9.589  34.179  -0.816  1.00  0.00     0.016 C 
BRANCH   3   5
ATOM      5  C   UNL     1      -9.264  36.023   0.878  1.00  0.00     0.015 C 
BRANCH   5   6
ATOM      6  C   UNL     1      -7.789  35.723   0.565  1.00  0.00     0.028 C 
BRANCH   6   7
ATOM      7  C   UNL     1      -6.972  36.984   0.416  1.00  0.00    -0.028 C 
ATOM      8  C   UNL     1      -6.555  37.535  -0.750  1.00  0.00    -0.070 CG0
ATOM      9  C   UNL     1      -5.765  38.817  -0.676  1.00  0.00     0.039 C 
ATOM     10  G   UNL     1      -6.877  36.966  -2.123  1.00  0.00     0.000 G0
ENDBRANCH   6   7
ENDBRANCH   5   6
ENDBRANCH   3   5
ENDBRANCH   1   3
BRANCH   1  11
ATOM     11  C   UNL     1     -10.069  37.577  -1.593  1.00  0.00     0.087 C 
BRANCH  11  12
ATOM     12  C   UNL     1      -9.330  37.489  -2.957  1.00  0.00     0.066 C 
BRANCH  12  13
ATOM     13  C   UNL     1      -7.851  37.855  -2.886  1.00  0.00     0.140 C 
ATOM     14  O   UNL     1      -7.423  38.825  -3.494  1.00  0.00    -0.299 OA
BRANCH  13  15
ATOM     15  C   UNL     1      -6.870  36.986  -2.135  1.00  0.00     0.106 CG0
ATOM     16  G   UNL     1      -6.564  37.553  -0.758  1.00  0.00     0.000 G0
ENDBRANCH  13  15
ENDBRANCH  12  13
BRANCH  12  17
ATOM     17  C   UNL     1     -10.141  38.120  -4.139  1.00  0.00    -0.006 C 
ATOM     18  C   UNL     1     -10.936  39.360  -3.694  1.00  0.00     0.008 C 
ATOM     19  C   UNL     1     -11.053  37.138  -4.894  1.00  0.00     0.008 C 
ENDBRANCH  12  17
ENDBRANCH  11  12
ENDBRANCH   1  11
TORSDOF 1
ENDMDL
MODEL 3
REMARK VINA RESULT:    -3.541      2.810      5.369
REMARK INTER + INTRA:          -5.695
REMARK INTER:                  -5.451
REMARK INTRA:                  -0.244
REMARK UNBOUND:                -0.291
REMARK SMILES CC1=CCC[C@H](C)C(=O)C[C@@H](C(C)C)C(=O)C1
REMARK SMILES IDX 8 1 9 2 6 3 7 4 5 5 4 6 3 7 2 8 1 9 10 11 11 12 15 13 16 14
REMARK SMILES IDX 17 15 12 17 13 18 14 19
REMARK H PARENT
REMARK Flexibility Score: 70.00
ROOT
ATOM      1  C   UNL     1      -9.906  36.332  -2.016  1.00  0.00     0.136 C 
ATOM      2  O   UNL     1     -11.111  36.280  -1.814  1.00  0.00    -0.299 OA
ENDROOT
BRANCH   1   3
ATOM      3  C   UNL     1      -9.389  37.310  -3.067  1.00  0.00     0.053 C 
ATOM      4  C   UNL     1     -10.293  37.288  -4.312  1.00  0.00     0.016 C 
BRANCH   3   5
ATOM      5  C   UNL     1      -9.297  38.750  -2.508  1.00  0.00     0.015 C 
BRANCH   5   6
ATOM      6  C   UNL     1      -7.863  39.293  -2.402  1.00  0.00     0.028 C 
BRANCH   6   7
ATOM      7  C   UNL     1      -6.850  38.342  -2.994  1.00  0.00    -0.028 C 
ATOM      8  C   UNL     1      -6.008  37.536  -2.302  1.00  0.00    -0.070 CG0
ATOM      9  C   UNL     1      -5.087  36.642  -3.093  1.00  0.00     0.039 C 
ATOM     10  G   UNL     1      -5.972  37.445  -0.785  1.00  0.00     0.000 G0
ENDBRANCH   6   7
ENDBRANCH   5   6
ENDBRANCH   3   5
ENDBRANCH   1   3
BRANCH   1  11
ATOM     11  C   UNL     1      -9.010  35.512  -1.103  1.00  0.00     0.087 C 
BRANCH  11  12
ATOM     12  C   UNL     1      -8.182  36.255  -0.020  1.00  0.00     0.066 C 
BRANCH  12  13
ATOM     13  C   UNL     1      -6.676  36.222  -0.258  1.00  0.00     0.140 C 
ATOM     14  O   UNL     1      -6.024  35.232   0.038  1.00  0.00    -0.299 OA
BRANCH  13  15
ATOM     15  C   UNL     1      -5.944  37.433  -0.784  1.00  0.00     0.106 CG0
ATOM     16  G   UNL     1      -6.024  37.517  -2.300  1.00  0.00     0.000 G0
ENDBRANCH  13  15
ENDBRANCH  12  13
BRANCH  12  17
ATOM     17  C   UNL     1      -8.657  35.944   1.440  1.00  0.00    -0.006 C 
ATOM     18  C   UNL     1     -10.076  36.475   1.709  1.00  0.00     0.008 C 
ATOM     19  C   UNL     1      -7.690  36.404   2.546  1.00  0.00     0.008 C 
ENDBRANCH  12  17
ENDBRANCH  11  12
ENDBRANCH   1  11
TORSDOF 1
ENDMDL
MODEL 4
REMARK VINA RESULT:    -3.487      1.567      2.223
REMARK INTER + INTRA:          -5.614
REMARK INTER:                  -5.441
REMARK INTRA:                  -0.173
REMARK UNBOUND:                -0.291
REMARK SMILES CC1=CCC[C@H](C)C(=O)C[C@@H](C(C)C)C(=O)C1
REMARK SMILES IDX 8 1 9 2 6 3 7 4 5 5 4 6 3 7 2 8 1 9 10 11 11 12 15 13 16 14
REMARK SMILES IDX 17 15 12 17 13 18 14 19
REMARK H PARENT
REMARK Flexibility Score: 70.00
ROOT
ATOM      1  C   UNL     1      -8.233  35.966  -0.474  1.00  0.00     0.136 C 
ATOM      2  O   UNL     1      -7.814  35.768   0.659  1.00  0.00    -0.299 OA
ENDROOT
BRANCH   1   3
ATOM      3  C   UNL     1      -9.677  35.590  -0.788  1.00  0.00     0.053 C 
ATOM      4  C   UNL     1      -9.924  34.103  -0.483  1.00  0.00     0.016 C 
BRANCH   3   5
ATOM      5  C   UNL     1     -10.678  36.463   0.005  1.00  0.00     0.015 C 
BRANCH   5   6
ATOM      6  C   UNL     1     -11.419  37.505  -0.848  1.00  0.00     0.028 C 
BRANCH   6   7
ATOM      7  C   UNL     1     -11.579  37.055  -2.281  1.00  0.00    -0.028 C 
ATOM      8  C   UNL     1     -10.932  37.566  -3.357  1.00  0.00    -0.070 CG0
ATOM      9  C   UNL     1     -11.222  36.952  -4.704  1.00  0.00     0.039 C 
ATOM     10  G   UNL     1      -9.900  38.680  -3.281  1.00  0.00     0.000 G0
ENDBRANCH   6   7
ENDBRANCH   5   6
ENDBRANCH   3   5
ENDBRANCH   1   3
BRANCH   1  11
ATOM     11  C   UNL     1      -7.315  36.700  -1.437  1.00  0.00     0.087 C 
BRANCH  11  12
ATOM     12  C   UNL     1      -7.721  38.125  -1.902  1.00  0.00     0.066 C 
BRANCH  12  13
ATOM     13  C   UNL     1      -8.481  38.155  -3.224  1.00  0.00     0.140 C 
ATOM     14  O   UNL     1      -7.934  37.811  -4.261  1.00  0.00    -0.299 OA
BRANCH  13  15
ATOM     15  C   UNL     1      -9.894  38.685  -3.298  1.00  0.00     0.106 CG0
ATOM     16  G   UNL     1     -10.910  37.556  -3.358  1.00  0.00     0.000 G0
ENDBRANCH  13  15
ENDBRANCH  12  13
BRANCH  12  17
ATOM     17  C   UNL     1      -6.570  39.176  -1.745  1.00  0.00    -0.006 C 
ATOM     18  C   UNL     1      -6.955  40.543  -2.335  1.00  0.00     0.008 C 
ATOM     19  C   UNL     1      -5.202  38.721  -2.285  1.00  0.00     0.008 C 
ENDBRANCH  12  17
ENDBRANCH  11  12
ENDBRANCH   1  11
TORSDOF 1
ENDMDL
MODEL 5
REMARK VINA RESULT:    -3.427      1.968      4.728
REMARK INTER + INTRA:          -5.521
REMARK INTER:                  -5.306
REMARK INTRA:                  -0.215
REMARK UNBOUND:                -0.291
REMARK SMILES CC1=CCC[C@H](C)C(=O)C[C@@H](C(C)C)C(=O)C1
REMARK SMILES IDX 8 1 9 2 6 3 7 4 5 5 4 6 3 7 2 8 1 9 10 11 11 12 15 13 16 14
REMARK SMILES IDX 17 15 12 17 13 18 14 19
REMARK H PARENT
REMARK Flexibility Score: 70.00
ROOT
ATOM      1  C   UNL     1      -8.885  37.515  -4.357  1.00  0.00     0.136 C 
ATOM      2  O   UNL     1      -8.415  37.898  -5.420  1.00  0.00    -0.299 OA
ENDROOT
BRANCH   1   3
ATOM      3  C   UNL     1      -8.098  37.784  -3.078  1.00  0.00     0.053 C 
ATOM      4  C   UNL     1      -6.606  37.482  -3.292  1.00  0.00     0.016 C 
BRANCH   3   5
ATOM      5  C   UNL     1      -8.276  39.243  -2.597  1.00  0.00     0.015 C 
BRANCH   5   6
ATOM      6  C   UNL     1      -9.447  39.445  -1.620  1.00  0.00     0.028 C 
BRANCH   6   7
ATOM      7  C   UNL     1      -9.643  38.252  -0.715  1.00  0.00    -0.028 C 
ATOM      8  C   UNL     1     -10.795  37.559  -0.543  1.00  0.00    -0.070 CG0
ATOM      9  C   UNL     1     -10.768  36.379   0.396  1.00  0.00     0.039 C 
ATOM     10  G   UNL     1     -12.092  37.867  -1.274  1.00  0.00     0.000 G0
ENDBRANCH   6   7
ENDBRANCH   5   6
ENDBRANCH   3   5
ENDBRANCH   1   3
BRANCH   1  11
ATOM     11  C   UNL     1     -10.284  36.921  -4.388  1.00  0.00     0.087 C 
BRANCH  11  12
ATOM     12  C   UNL     1     -11.462  37.779  -3.850  1.00  0.00     0.066 C 
BRANCH  12  13
ATOM     13  C   UNL     1     -12.160  37.181  -2.633  1.00  0.00     0.140 C 
ATOM     14  O   UNL     1     -12.836  36.169  -2.741  1.00  0.00    -0.299 OA
BRANCH  13  15
ATOM     15  C   UNL     1     -12.102  37.867  -1.288  1.00  0.00     0.106 CG0
ATOM     16  G   UNL     1     -10.807  37.553  -0.557  1.00  0.00     0.000 G0
ENDBRANCH  13  15
ENDBRANCH  12  13
BRANCH  12  17
ATOM     17  C   UNL     1     -12.396  38.322  -4.984  1.00  0.00    -0.006 C 
ATOM     18  C   UNL     1     -11.622  39.166  -6.011  1.00  0.00     0.008 C 
ATOM     19  C   UNL     1     -13.639  39.082  -4.488  1.00  0.00     0.008 C 
ENDBRANCH  12  17
ENDBRANCH  11  12
ENDBRANCH   1  11
TORSDOF 1
ENDMDL
MODEL 6
REMARK VINA RESULT:    -3.426      2.855      4.057
REMARK INTER + INTRA:          -5.519
REMARK INTER:                  -5.685
REMARK INTRA:                   0.166
REMARK UNBOUND:                -0.291
REMARK SMILES CC1=CCC[C@H](C)C(=O)C[C@@H](C(C)C)C(=O)C1
REMARK SMILES IDX 8 1 9 2 6 3 7 4 5 5 4 6 3 7 2 8 1 9 10 11 11 12 15 13 16 14
REMARK SMILES IDX 17 15 12 17 13 18 14 19
REMARK H PARENT
REMARK Flexibility Score: 70.00
ROOT
ATOM      1  C   UNL     1      -8.051  35.771   0.094  1.00  0.00     0.136 C 
ATOM      2  O   UNL     1      -8.379  36.172   1.203  1.00  0.00    -0.299 OA
ENDROOT
BRANCH   1   3
ATOM      3  C   UNL     1      -9.150  35.366  -0.883  1.00  0.00     0.053 C 
ATOM      4  C   UNL     1     -10.079  34.320  -0.244  1.00  0.00     0.016 C 
BRANCH   3   5
ATOM      5  C   UNL     1      -9.976  36.588  -1.350  1.00  0.00     0.015 C 
BRANCH   5   6
ATOM      6  C   UNL     1      -9.540  37.160  -2.709  1.00  0.00     0.028 C 
BRANCH   6   7
ATOM      7  C   UNL     1      -8.812  38.475  -2.564  1.00  0.00    -0.028 C 
ATOM      8  C   UNL     1      -7.506  38.703  -2.847  1.00  0.00    -0.070 CG0
ATOM      9  C   UNL     1      -6.981  40.103  -2.652  1.00  0.00     0.039 C 
ATOM     10  G   UNL     1      -6.557  37.647  -3.392  1.00  0.00     0.000 G0
ENDBRANCH   6   7
ENDBRANCH   5   6
ENDBRANCH   3   5
ENDBRANCH   1   3
BRANCH   1  11
ATOM     11  C   UNL     1      -6.576  35.840  -0.264  1.00  0.00     0.087 C 
BRANCH  11  12
ATOM     12  C   UNL     1      -6.017  37.170  -0.839  1.00  0.00     0.066 C 
BRANCH  12  13
ATOM     13  C   UNL     1      -5.632  37.096  -2.312  1.00  0.00     0.140 C 
ATOM     14  O   UNL     1      -4.542  36.656  -2.647  1.00  0.00    -0.299 OA
BRANCH  13  15
ATOM     15  C   UNL     1      -6.547  37.637  -3.385  1.00  0.00     0.106 CG0
ATOM     16  G   UNL     1      -7.497  38.686  -2.829  1.00  0.00     0.000 G0
ENDBRANCH  13  15
ENDBRANCH  12  13
BRANCH  12  17
ATOM     17  C   UNL     1      -4.984  37.866   0.110  1.00  0.00    -0.006 C 
ATOM     18  C   UNL     1      -4.204  36.846   0.958  1.00  0.00     0.008 C 
ATOM     19  C   UNL     1      -5.570  38.973   1.004  1.00  0.00     0.008 C 
ENDBRANCH  12  17
ENDBRANCH  11  12
ENDBRANCH   1  11
TORSDOF 1
ENDMDL
MODEL 7
REMARK VINA RESULT:    -3.317     10.359     11.946
REMARK INTER + INTRA:          -5.353
REMARK INTER:                  -5.519
REMARK INTRA:                   0.166
REMARK UNBOUND:                -0.291
REMARK SMILES CC1=CCC[C@H](C)C(=O)C[C@@H](C(C)C)C(=O)C1
REMARK SMILES IDX 8 1 9 2 6 3 7 4 5 5 4 6 3 7 2 8 1 9 10 11 11 12 15 13 16 14
REMARK SMILES IDX 17 15 12 17 13 18 14 19
REMARK H PARENT
REMARK Flexibility Score: 70.00
ROOT
ATOM      1  C   UNL     1     -17.654  33.423   6.627  1.00  0.00     0.136 C 
ATOM      2  O   UNL     1     -17.763  32.544   7.472  1.00  0.00    -0.299 OA
ENDROOT
BRANCH   1   3
ATOM      3  C   UNL     1     -18.843  33.698   5.713  1.00  0.00     0.053 C 
ATOM      4  C   UNL     1     -19.406  32.381   5.151  1.00  0.00     0.016 C 
BRANCH   3   5
ATOM      5  C   UNL     1     -19.959  34.477   6.448  1.00  0.00     0.015 C 
BRANCH   5   6
ATOM      6  C   UNL     1     -20.256  35.863   5.853  1.00  0.00     0.028 C 
BRANCH   6   7
ATOM      7  C   UNL     1     -19.898  35.941   4.388  1.00  0.00    -0.028 C 
ATOM      8  C   UNL     1     -18.809  36.553   3.861  1.00  0.00    -0.070 CG0
ATOM      9  C   UNL     1     -18.627  36.492   2.365  1.00  0.00     0.039 C 
ATOM     10  G   UNL     1     -17.741  37.250   4.689  1.00  0.00     0.000 G0
ENDBRANCH   6   7
ENDBRANCH   5   6
ENDBRANCH   3   5
ENDBRANCH   1   3
BRANCH   1  11
ATOM     11  C   UNL     1     -16.386  34.260   6.653  1.00  0.00     0.087 C 
BRANCH  11  12
ATOM     12  C   UNL     1     -16.519  35.803   6.537  1.00  0.00     0.066 C 
BRANCH  12  13
ATOM     13  C   UNL     1     -16.633  36.311   5.103  1.00  0.00     0.140 C 
ATOM     14  O   UNL     1     -15.788  36.013   4.271  1.00  0.00    -0.299 OA
BRANCH  13  15
ATOM     15  C   UNL     1     -17.739  37.256   4.697  1.00  0.00     0.106 CG0
ATOM     16  G   UNL     1     -18.791  36.553   3.854  1.00  0.00     0.000 G0
ENDBRANCH  13  15
ENDBRANCH  12  13
BRANCH  12  17
ATOM     17  C   UNL     1     -15.525  36.579   7.466  1.00  0.00    -0.006 C 
ATOM     18  C   UNL     1     -16.257  37.562   8.396  1.00  0.00     0.008 C 
ATOM     19  C   UNL     1     -14.372  37.287   6.733  1.00  0.00     0.008 C 
ENDBRANCH  12  17
ENDBRANCH  11  12
ENDBRANCH   1  11
TORSDOF 1
ENDMDL
MODEL 8
REMARK VINA RESULT:    -3.235      2.603      5.247
REMARK INTER + INTRA:          -5.228
REMARK INTER:                  -5.014
REMARK INTRA:                  -0.214
REMARK UNBOUND:                -0.291
REMARK SMILES CC1=CCC[C@H](C)C(=O)C[C@@H](C(C)C)C(=O)C1
REMARK SMILES IDX 8 1 9 2 6 3 7 4 5 5 4 6 3 7 2 8 1 9 10 11 11 12 15 13 16 14
REMARK SMILES IDX 17 15 12 17 13 18 14 19
REMARK H PARENT
REMARK Flexibility Score: 70.00
ROOT
ATOM      1  C   UNL     1      -7.574  37.946  -2.646  1.00  0.00     0.136 C 
ATOM      2  O   UNL     1      -7.612  39.169  -2.635  1.00  0.00    -0.299 OA
ENDROOT
BRANCH   1   3
ATOM      3  C   UNL     1      -6.293  37.257  -2.187  1.00  0.00     0.053 C 
ATOM      4  C   UNL     1      -5.060  37.992  -2.739  1.00  0.00     0.016 C 
BRANCH   3   5
ATOM      5  C   UNL     1      -6.211  37.176  -0.645  1.00  0.00     0.015 C 
BRANCH   5   6
ATOM      6  C   UNL     1      -6.678  35.834  -0.059  1.00  0.00     0.028 C 
BRANCH   6   7
ATOM      7  C   UNL     1      -7.852  36.000   0.877  1.00  0.00    -0.028 C 
ATOM      8  C   UNL     1      -9.149  35.735   0.589  1.00  0.00    -0.070 CG0
ATOM      9  C   UNL     1     -10.167  35.950   1.682  1.00  0.00     0.039 C 
ATOM     10  G   UNL     1      -9.631  35.191  -0.746  1.00  0.00     0.000 G0
ENDBRANCH   6   7
ENDBRANCH   5   6
ENDBRANCH   3   5
ENDBRANCH   1   3
BRANCH   1  11
ATOM     11  C   UNL     1      -8.861  37.213  -2.989  1.00  0.00     0.087 C 
BRANCH  11  12
ATOM     12  C   UNL     1     -10.098  37.428  -2.075  1.00  0.00     0.066 C 
BRANCH  12  13
ATOM     13  C   UNL     1     -10.608  36.153  -1.411  1.00  0.00     0.140 C 
ATOM     14  O   UNL     1     -11.806  35.921  -1.353  1.00  0.00    -0.299 OA
BRANCH  13  15
ATOM     15  C   UNL     1      -9.656  35.191  -0.738  1.00  0.00     0.106 CG0
ATOM     16  G   UNL     1      -9.143  35.746   0.581  1.00  0.00     0.000 G0
ENDBRANCH  13  15
ENDBRANCH  12  13
BRANCH  12  17
ATOM     17  C   UNL     1     -11.186  38.353  -2.717  1.00  0.00    -0.006 C 
ATOM     18  C   UNL     1     -10.827  38.745  -4.161  1.00  0.00     0.008 C 
ATOM     19  C   UNL     1     -11.542  39.602  -1.892  1.00  0.00     0.008 C 
ENDBRANCH  12  17
ENDBRANCH  11  12
ENDBRANCH   1  11
TORSDOF 1
ENDMDL
MODEL 9
REMARK VINA RESULT:    -3.202      7.528      9.755
REMARK INTER + INTRA:          -5.179
REMARK INTER:                  -5.097
REMARK INTRA:                  -0.082
REMARK UNBOUND:                -0.291
REMARK SMILES CC1=CCC[C@H](C)C(=O)C[C@@H](C(C)C)C(=O)C1
REMARK SMILES IDX 8 1 9 2 6 3 7 4 5 5 4 6 3 7 2 8 1 9 10 11 11 12 15 13 16 14
REMARK SMILES IDX 17 15 12 17 13 18 14 19
REMARK H PARENT
REMARK Flexibility Score: 70.00
ROOT
ATOM      1  C   UNL     1      -6.020  34.257   4.866  1.00  0.00     0.136 C 
ATOM      2  O   UNL     1      -6.422  33.109   4.740  1.00  0.00    -0.299 OA
ENDROOT
BRANCH   1   3
ATOM      3  C   UNL     1      -4.842  34.513   5.801  1.00  0.00     0.053 C 
ATOM      4  C   UNL     1      -5.207  34.125   7.244  1.00  0.00     0.016 C 
BRANCH   3   5
ATOM      5  C   UNL     1      -3.580  33.741   5.351  1.00  0.00     0.015 C 
BRANCH   5   6
ATOM      6  C   UNL     1      -2.565  34.593   4.572  1.00  0.00     0.028 C 
BRANCH   6   7
ATOM      7  C   UNL     1      -2.591  36.041   5.001  1.00  0.00    -0.028 C 
ATOM      8  C   UNL     1      -3.010  37.090   4.253  1.00  0.00    -0.070 CG0
ATOM      9  C   UNL     1      -2.974  38.459   4.886  1.00  0.00     0.039 C 
ATOM     10  G   UNL     1      -3.558  36.964   2.841  1.00  0.00     0.000 G0
ENDBRANCH   6   7
ENDBRANCH   5   6
ENDBRANCH   3   5
ENDBRANCH   1   3
BRANCH   1  11
ATOM     11  C   UNL     1      -6.644  35.316   3.973  1.00  0.00     0.087 C 
BRANCH  11  12
ATOM     12  C   UNL     1      -5.892  35.725   2.677  1.00  0.00     0.066 C 
BRANCH  12  13
ATOM     13  C   UNL     1      -5.064  36.999   2.815  1.00  0.00     0.140 C 
ATOM     14  O   UNL     1      -5.609  38.093   2.837  1.00  0.00    -0.299 OA
BRANCH  13  15
ATOM     15  C   UNL     1      -3.555  36.947   2.846  1.00  0.00     0.106 CG0
ATOM     16  G   UNL     1      -3.021  37.089   4.262  1.00  0.00     0.000 G0
ENDBRANCH  13  15
ENDBRANCH  12  13
BRANCH  12  17
ATOM     17  C   UNL     1      -6.776  35.614   1.389  1.00  0.00    -0.006 C 
ATOM     18  C   UNL     1      -6.043  36.135   0.142  1.00  0.00     0.008 C 
ATOM     19  C   UNL     1      -8.170  36.257   1.504  1.00  0.00     0.008 C 
ENDBRANCH  12  17
ENDBRANCH  11  12
ENDBRANCH   1  11
TORSDOF 1
ENDMDL
