MODEL 1
REMARK VINA RESULT:    -4.022      0.000      0.000
REMARK INTER + INTRA:          -6.439
REMARK INTER:                  -5.668
REMARK INTRA:                  -0.771
REMARK UNBOUND:                -0.771
REMARK SMILES CCCCCCCCC(=O)[O-]
REMARK SMILES IDX 6 1 7 2 8 3 9 4 10 5 11 6 5 7 4 8 3 9 2 10 1 11
REMARK H PARENT
REMARK Flexibility Score: inf
ROOT
ATOM      1  C   UNL     1      62.764  30.111  27.629  1.00  0.00     0.000 C 
ENDROOT
BRANCH   1   2
ATOM      2  C   UNL     1      62.327  29.169  28.757  1.00  0.00     0.006 C 
BRANCH   2   3
ATOM      3  C   UNL     1      60.851  28.786  28.611  1.00  0.00     0.053 C 
BRANCH   3   4
ATOM      4  C   UNL     1      60.689  27.299  28.660  1.00  0.00     0.041 C 
ATOM      5  O   UNL     1      59.634  26.791  29.120  1.00  0.00    -0.550 OA
ATOM      6  O   UNL     1      61.686  26.475  28.152  1.00  0.00    -0.550 OA
ENDBRANCH   3   4
ENDBRANCH   2   3
ENDBRANCH   1   2
BRANCH   1   7
ATOM      7  C   UNL     1      63.725  29.408  26.664  1.00  0.00     0.000 C 
BRANCH   7   8
ATOM      8  C   UNL     1      63.501  29.879  25.222  1.00  0.00    -0.000 C 
BRANCH   8   9
ATOM      9  C   UNL     1      62.075  29.564  24.754  1.00  0.00    -0.000 C 
BRANCH   9  10
ATOM     10  C   UNL     1      61.777  28.065  24.874  1.00  0.00    -0.003 C 
ATOM     11  C   UNL     1      60.277  27.811  25.009  1.00  0.00     0.004 C 
ENDBRANCH   9  10
ENDBRANCH   8   9
ENDBRANCH   7   8
ENDBRANCH   1   7
TORSDOF 7
ENDMDL
MODEL 2
REMARK VINA RESULT:    -3.969     14.220     15.086
REMARK INTER + INTRA:          -6.364
REMARK INTER:                  -5.637
REMARK INTRA:                  -0.728
REMARK UNBOUND:                -0.771
REMARK SMILES CCCCCCCCC(=O)[O-]
REMARK SMILES IDX 6 1 7 2 8 3 9 4 10 5 11 6 5 7 4 8 3 9 2 10 1 11
REMARK H PARENT
REMARK Flexibility Score: inf
ROOT
ATOM      1  C   UNL     1      62.633  28.951  13.114  1.00  0.00     0.000 C 
ENDROOT
BRANCH   1   2
ATOM      2  C   UNL     1      61.128  29.071  13.382  1.00  0.00     0.006 C 
BRANCH   2   3
ATOM      3  C   UNL     1      60.319  28.316  12.322  1.00  0.00     0.053 C 
BRANCH   3   4
ATOM      4  C   UNL     1      60.527  28.927  10.973  1.00  0.00     0.041 C 
ATOM      5  O   UNL     1      60.151  30.106  10.746  1.00  0.00    -0.550 OA
ATOM      6  O   UNL     1      61.180  28.209   9.978  1.00  0.00    -0.550 OA
ENDBRANCH   3   4
ENDBRANCH   2   3
ENDBRANCH   1   2
BRANCH   1   7
ATOM      7  C   UNL     1      63.359  30.257  13.456  1.00  0.00     0.000 C 
BRANCH   7   8
ATOM      8  C   UNL     1      63.084  31.334  12.399  1.00  0.00    -0.000 C 
BRANCH   8   9
ATOM      9  C   UNL     1      62.649  32.650  13.054  1.00  0.00    -0.000 C 
BRANCH   9  10
ATOM     10  C   UNL     1      61.124  32.798  13.030  1.00  0.00    -0.003 C 
ATOM     11  C   UNL     1      60.560  32.921  14.444  1.00  0.00     0.004 C 
ENDBRANCH   9  10
ENDBRANCH   8   9
ENDBRANCH   7   8
ENDBRANCH   1   7
TORSDOF 7
ENDMDL
MODEL 3
REMARK VINA RESULT:    -3.969     14.366     15.510
REMARK INTER + INTRA:          -6.364
REMARK INTER:                  -5.664
REMARK INTRA:                  -0.700
REMARK UNBOUND:                -0.771
REMARK SMILES CCCCCCCCC(=O)[O-]
REMARK SMILES IDX 6 1 7 2 8 3 9 4 10 5 11 6 5 7 4 8 3 9 2 10 1 11
REMARK H PARENT
REMARK Flexibility Score: inf
ROOT
ATOM      1  C   UNL     1      61.520  29.539  13.708  1.00  0.00     0.000 C 
ENDROOT
BRANCH   1   2
ATOM      2  C   UNL     1      62.382  28.688  12.769  1.00  0.00     0.006 C 
BRANCH   2   3
ATOM      3  C   UNL     1      62.974  29.540  11.642  1.00  0.00     0.053 C 
BRANCH   3   4
ATOM      4  C   UNL     1      62.804  28.854  10.323  1.00  0.00     0.041 C 
ATOM      5  O   UNL     1      61.698  28.337  10.015  1.00  0.00    -0.550 OA
ATOM      6  O   UNL     1      63.854  28.827   9.414  1.00  0.00    -0.550 OA
ENDBRANCH   3   4
ENDBRANCH   2   3
ENDBRANCH   1   2
BRANCH   1   7
ATOM      7  C   UNL     1      60.443  30.301  12.929  1.00  0.00     0.000 C 
BRANCH   7   8
ATOM      8  C   UNL     1      60.151  31.660  13.576  1.00  0.00    -0.000 C 
BRANCH   8   9
ATOM      9  C   UNL     1      61.005  32.766  12.945  1.00  0.00    -0.000 C 
BRANCH   9  10
ATOM     10  C   UNL     1      62.176  33.145  13.858  1.00  0.00    -0.003 C 
ATOM     11  C   UNL     1      63.515  32.924  13.158  1.00  0.00     0.004 C 
ENDBRANCH   9  10
ENDBRANCH   8   9
ENDBRANCH   7   8
ENDBRANCH   1   7
TORSDOF 7
ENDMDL
MODEL 4
REMARK VINA RESULT:    -3.901      2.083      3.301
REMARK INTER + INTRA:          -6.268
REMARK INTER:                  -5.493
REMARK INTRA:                  -0.775
REMARK UNBOUND:                -0.771
REMARK SMILES CCCCCCCCC(=O)[O-]
REMARK SMILES IDX 6 1 7 2 8 3 9 4 10 5 11 6 5 7 4 8 3 9 2 10 1 11
REMARK H PARENT
REMARK Flexibility Score: inf
ROOT
ATOM      1  C   UNL     1      61.824  28.246  23.861  1.00  0.00     0.000 C 
ENDROOT
BRANCH   1   2
ATOM      2  C   UNL     1      60.709  28.210  24.914  1.00  0.00     0.006 C 
BRANCH   2   3
ATOM      3  C   UNL     1      60.880  27.013  25.855  1.00  0.00     0.053 C 
BRANCH   3   4
ATOM      4  C   UNL     1      61.373  27.467  27.192  1.00  0.00     0.041 C 
ATOM      5  O   UNL     1      61.769  26.625  28.041  1.00  0.00    -0.550 OA
ATOM      6  O   UNL     1      61.440  28.823  27.485  1.00  0.00    -0.550 OA
ENDBRANCH   3   4
ENDBRANCH   2   3
ENDBRANCH   1   2
BRANCH   1   7
ATOM      7  C   UNL     1      62.899  29.274  24.232  1.00  0.00     0.000 C 
BRANCH   7   8
ATOM      8  C   UNL     1      64.301  28.659  24.147  1.00  0.00    -0.000 C 
BRANCH   8   9
ATOM      9  C   UNL     1      64.623  27.846  25.407  1.00  0.00    -0.000 C 
BRANCH   9  10
ATOM     10  C   UNL     1      64.565  26.341  25.119  1.00  0.00    -0.003 C 
ATOM     11  C   UNL     1      65.007  26.036  23.690  1.00  0.00     0.004 C 
ENDBRANCH   9  10
ENDBRANCH   8   9
ENDBRANCH   7   8
ENDBRANCH   1   7
TORSDOF 7
ENDMDL
MODEL 5
REMARK VINA RESULT:    -3.888      3.138      4.512
REMARK INTER + INTRA:          -6.250
REMARK INTER:                  -5.322
REMARK INTRA:                  -0.928
REMARK UNBOUND:                -0.771
REMARK SMILES CCCCCCCCC(=O)[O-]
REMARK SMILES IDX 6 1 7 2 8 3 9 4 10 5 11 6 5 7 4 8 3 9 2 10 1 11
REMARK H PARENT
REMARK Flexibility Score: inf
ROOT
ATOM      1  C   UNL     1      65.071  28.413  25.479  1.00  0.00     0.000 C 
ENDROOT
BRANCH   1   2
ATOM      2  C   UNL     1      65.508  27.554  24.286  1.00  0.00     0.006 C 
BRANCH   2   3
ATOM      3  C   UNL     1      64.903  26.149  24.370  1.00  0.00     0.053 C 
BRANCH   3   4
ATOM      4  C   UNL     1      63.823  25.983  23.348  1.00  0.00     0.041 C 
ATOM      5  O   UNL     1      63.748  26.773  22.371  1.00  0.00    -0.550 OA
ATOM      6  O   UNL     1      62.927  24.926  23.448  1.00  0.00    -0.550 OA
ENDBRANCH   3   4
ENDBRANCH   2   3
ENDBRANCH   1   2
BRANCH   1   7
ATOM      7  C   UNL     1      64.201  29.588  25.022  1.00  0.00     0.000 C 
BRANCH   7   8
ATOM      8  C   UNL     1      62.773  29.463  25.568  1.00  0.00    -0.000 C 
BRANCH   8   9
ATOM      9  C   UNL     1      61.810  28.967  24.484  1.00  0.00    -0.000 C 
BRANCH   9  10
ATOM     10  C   UNL     1      60.959  27.799  24.996  1.00  0.00    -0.003 C 
ATOM     11  C   UNL     1      61.618  27.122  26.195  1.00  0.00     0.004 C 
ENDBRANCH   9  10
ENDBRANCH   8   9
ENDBRANCH   7   8
ENDBRANCH   1   7
TORSDOF 7
ENDMDL
MODEL 6
REMARK VINA RESULT:    -3.887      1.922      2.895
REMARK INTER + INTRA:          -6.248
REMARK INTER:                  -5.488
REMARK INTRA:                  -0.760
REMARK UNBOUND:                -0.771
REMARK SMILES CCCCCCCCC(=O)[O-]
REMARK SMILES IDX 6 1 7 2 8 3 9 4 10 5 11 6 5 7 4 8 3 9 2 10 1 11
REMARK H PARENT
REMARK Flexibility Score: inf
ROOT
ATOM      1  C   UNL     1      61.081  28.233  24.619  1.00  0.00     0.000 C 
ENDROOT
BRANCH   1   2
ATOM      2  C   UNL     1      60.726  27.238  25.732  1.00  0.00     0.006 C 
BRANCH   2   3
ATOM      3  C   UNL     1      61.880  27.094  26.729  1.00  0.00     0.053 C 
BRANCH   3   4
ATOM      4  C   UNL     1      61.392  27.303  28.127  1.00  0.00     0.041 C 
ATOM      5  O   UNL     1      61.590  26.424  29.006  1.00  0.00    -0.550 OA
ATOM      6  O   UNL     1      60.760  28.492  28.472  1.00  0.00    -0.550 OA
ENDBRANCH   3   4
ENDBRANCH   2   3
ENDBRANCH   1   2
BRANCH   1   7
ATOM      7  C   UNL     1      62.163  29.214  25.082  1.00  0.00     0.000 C 
BRANCH   7   8
ATOM      8  C   UNL     1      63.186  29.471  23.969  1.00  0.00    -0.000 C 
BRANCH   8   9
ATOM      9  C   UNL     1      63.496  28.183  23.198  1.00  0.00    -0.000 C 
BRANCH   9  10
ATOM     10  C   UNL     1      64.732  27.481  23.772  1.00  0.00    -0.003 C 
ATOM     11  C   UNL     1      64.397  26.066  24.235  1.00  0.00     0.004 C 
ENDBRANCH   9  10
ENDBRANCH   8   9
ENDBRANCH   7   8
ENDBRANCH   1   7
TORSDOF 7
ENDMDL
MODEL 7
REMARK VINA RESULT:    -3.877      1.691      2.516
REMARK INTER + INTRA:          -6.235
REMARK INTER:                  -5.554
REMARK INTRA:                  -0.681
REMARK UNBOUND:                -0.771
REMARK SMILES CCCCCCCCC(=O)[O-]
REMARK SMILES IDX 6 1 7 2 8 3 9 4 10 5 11 6 5 7 4 8 3 9 2 10 1 11
REMARK H PARENT
REMARK Flexibility Score: inf
ROOT
ATOM      1  C   UNL     1      63.087  29.733  25.683  1.00  0.00     0.000 C 
ENDROOT
BRANCH   1   2
ATOM      2  C   UNL     1      62.615  30.002  27.117  1.00  0.00     0.006 C 
BRANCH   2   3
ATOM      3  C   UNL     1      62.638  28.718  27.953  1.00  0.00     0.053 C 
BRANCH   3   4
ATOM      4  C   UNL     1      61.248  28.319  28.336  1.00  0.00     0.041 C 
ATOM      5  O   UNL     1      60.571  29.044  29.110  1.00  0.00    -0.550 OA
ATOM      6  O   UNL     1      60.682  27.169  27.799  1.00  0.00    -0.550 OA
ENDBRANCH   3   4
ENDBRANCH   2   3
ENDBRANCH   1   2
BRANCH   1   7
ATOM      7  C   UNL     1      61.907  29.381  24.771  1.00  0.00     0.000 C 
BRANCH   7   8
ATOM      8  C   UNL     1      62.238  28.177  23.882  1.00  0.00    -0.000 C 
BRANCH   8   9
ATOM      9  C   UNL     1      62.252  26.878  24.696  1.00  0.00    -0.000 C 
BRANCH   9  10
ATOM     10  C   UNL     1      63.428  25.984  24.285  1.00  0.00    -0.003 C 
ATOM     11  C   UNL     1      64.700  26.367  25.036  1.00  0.00     0.004 C 
ENDBRANCH   9  10
ENDBRANCH   8   9
ENDBRANCH   7   8
ENDBRANCH   1   7
TORSDOF 7
ENDMDL
MODEL 8
REMARK VINA RESULT:    -3.871     14.100     15.702
REMARK INTER + INTRA:          -6.225
REMARK INTER:                  -5.511
REMARK INTRA:                  -0.715
REMARK UNBOUND:                -0.771
REMARK SMILES CCCCCCCCC(=O)[O-]
REMARK SMILES IDX 6 1 7 2 8 3 9 4 10 5 11 6 5 7 4 8 3 9 2 10 1 11
REMARK H PARENT
REMARK Flexibility Score: inf
ROOT
ATOM      1  C   UNL     1      62.694  28.955  12.902  1.00  0.00     0.000 C 
ENDROOT
BRANCH   1   2
ATOM      2  C   UNL     1      62.432  29.219  11.414  1.00  0.00     0.006 C 
BRANCH   2   3
ATOM      3  C   UNL     1      60.931  29.325  11.129  1.00  0.00     0.053 C 
BRANCH   3   4
ATOM      4  C   UNL     1      60.647  29.014   9.694  1.00  0.00     0.041 C 
ATOM      5  O   UNL     1      59.958  29.804   8.998  1.00  0.00    -0.550 OA
ATOM      6  O   UNL     1      61.185  27.873   9.111  1.00  0.00    -0.550 OA
ENDBRANCH   3   4
ENDBRANCH   2   3
ENDBRANCH   1   2
BRANCH   1   7
ATOM      7  C   UNL     1      61.475  29.331  13.750  1.00  0.00     0.000 C 
BRANCH   7   8
ATOM      8  C   UNL     1      61.691  30.671  14.464  1.00  0.00    -0.000 C 
BRANCH   8   9
ATOM      9  C   UNL     1      60.614  31.687  14.068  1.00  0.00    -0.000 C 
BRANCH   9  10
ATOM     10  C   UNL     1      61.166  32.716  13.075  1.00  0.00    -0.003 C 
ATOM     11  C   UNL     1      62.692  32.732  13.090  1.00  0.00     0.004 C 
ENDBRANCH   9  10
ENDBRANCH   8   9
ENDBRANCH   7   8
ENDBRANCH   1   7
TORSDOF 7
ENDMDL
MODEL 9
REMARK VINA RESULT:    -3.866      2.372      3.631
REMARK INTER + INTRA:          -6.219
REMARK INTER:                  -5.414
REMARK INTRA:                  -0.805
REMARK UNBOUND:                -0.771
REMARK SMILES CCCCCCCCC(=O)[O-]
REMARK SMILES IDX 6 1 7 2 8 3 9 4 10 5 11 6 5 7 4 8 3 9 2 10 1 11
REMARK H PARENT
REMARK Flexibility Score: inf
ROOT
ATOM      1  C   UNL     1      61.017  27.158  26.542  1.00  0.00     0.000 C 
ENDROOT
BRANCH   1   2
ATOM      2  C   UNL     1      61.121  28.277  27.586  1.00  0.00     0.006 C 
BRANCH   2   3
ATOM      3  C   UNL     1      62.585  28.613  27.888  1.00  0.00     0.053 C 
BRANCH   3   4
ATOM      4  C   UNL     1      62.832  30.078  27.715  1.00  0.00     0.041 C 
ATOM      5  O   UNL     1      63.118  30.543  26.580  1.00  0.00    -0.550 OA
ATOM      6  O   UNL     1      62.698  30.939  28.797  1.00  0.00    -0.550 OA
ENDBRANCH   3   4
ENDBRANCH   2   3
ENDBRANCH   1   2
BRANCH   1   7
ATOM      7  C   UNL     1      60.422  27.682  25.231  1.00  0.00     0.000 C 
BRANCH   7   8
ATOM      8  C   UNL     1      61.510  28.279  24.330  1.00  0.00    -0.000 C 
BRANCH   8   9
ATOM      9  C   UNL     1      62.749  27.377  24.291  1.00  0.00    -0.000 C 
BRANCH   9  10
ATOM     10  C   UNL     1      64.033  28.210  24.210  1.00  0.00    -0.003 C 
ATOM     11  C   UNL     1      65.107  27.660  25.145  1.00  0.00     0.004 C 
ENDBRANCH   9  10
ENDBRANCH   8   9
ENDBRANCH   7   8
ENDBRANCH   1   7
TORSDOF 7
ENDMDL
