MODEL 1
REMARK VINA RESULT:    -4.544      0.000      0.000
REMARK INTER + INTRA:          -8.894
REMARK INTER:                  -8.263
REMARK INTRA:                  -0.631
REMARK UNBOUND:                -0.631
REMARK SMILES CCCCCCCCCCCCCCCC(=O)[O-]
REMARK SMILES IDX 9 1 10 2 11 3 12 4 13 5 14 6 15 7 16 8 17 9 18 10 8 11 7 12
REMARK SMILES IDX 6 13 5 14 4 15 3 16 2 17 1 18
REMARK H PARENT
REMARK Flexibility Score: inf
ROOT
ATOM      1  C   UNL     1      55.615 143.740 -26.080  1.00  0.00     0.000 C 
ENDROOT
BRANCH   1   2
ATOM      2  C   UNL     1      55.333 142.244 -25.866  1.00  0.00     0.000 C 
BRANCH   2   3
ATOM      3  C   UNL     1      55.212 141.872 -24.378  1.00  0.00     0.000 C 
BRANCH   3   4
ATOM      4  C   UNL     1      56.329 142.489 -23.516  1.00  0.00     0.000 C 
BRANCH   4   5
ATOM      5  C   UNL     1      57.053 141.504 -22.574  1.00  0.00     0.000 C 
BRANCH   5   6
ATOM      6  C   UNL     1      58.373 142.022 -21.977  1.00  0.00     0.006 C 
BRANCH   6   7
ATOM      7  C   UNL     1      58.745 143.423 -22.481  1.00  0.00     0.053 C 
BRANCH   7   8
ATOM      8  C   UNL     1      59.599 144.129 -21.477  1.00  0.00     0.041 C 
ATOM      9  O   UNL     1      60.835 143.895 -21.419  1.00  0.00    -0.550 OA
ATOM     10  O   UNL     1      59.040 145.084 -20.636  1.00  0.00    -0.550 OA
ENDBRANCH   7   8
ENDBRANCH   6   7
ENDBRANCH   5   6
ENDBRANCH   4   5
ENDBRANCH   3   4
ENDBRANCH   2   3
ENDBRANCH   1   2
BRANCH   1  11
ATOM     11  C   UNL     1      56.573 143.998 -27.257  1.00  0.00     0.000 C 
BRANCH  11  12
ATOM     12  C   UNL     1      55.831 144.386 -28.547  1.00  0.00    -0.000 C 
BRANCH  12  13
ATOM     13  C   UNL     1      56.392 143.672 -29.789  1.00  0.00    -0.000 C 
BRANCH  13  14
ATOM     14  C   UNL     1      57.924 143.781 -29.898  1.00  0.00    -0.000 C 
BRANCH  14  15
ATOM     15  C   UNL     1      58.452 144.250 -31.268  1.00  0.00    -0.000 C 
BRANCH  15  16
ATOM     16  C   UNL     1      59.604 143.405 -31.851  1.00  0.00    -0.000 C 
BRANCH  16  17
ATOM     17  C   UNL     1      60.016 143.778 -33.286  1.00  0.00    -0.003 C 
ATOM     18  C   UNL     1      59.602 145.197 -33.674  1.00  0.00     0.004 C 
ENDBRANCH  16  17
ENDBRANCH  15  16
ENDBRANCH  14  15
ENDBRANCH  13  14
ENDBRANCH  12  13
ENDBRANCH  11  12
ENDBRANCH   1  11
TORSDOF 14
ENDMDL
MODEL 2
REMARK VINA RESULT:    -4.530      4.290      9.129
REMARK INTER + INTRA:          -8.869
REMARK INTER:                  -8.263
REMARK INTRA:                  -0.605
REMARK UNBOUND:                -0.631
REMARK SMILES CCCCCCCCCCCCCCCC(=O)[O-]
REMARK SMILES IDX 9 1 10 2 11 3 12 4 13 5 14 6 15 7 16 8 17 9 18 10 8 11 7 12
REMARK SMILES IDX 6 13 5 14 4 15 3 16 2 17 1 18
REMARK H PARENT
REMARK Flexibility Score: inf
ROOT
ATOM      1  C   UNL     1      56.741 144.137 -27.959  1.00  0.00     0.000 C 
ENDROOT
BRANCH   1   2
ATOM      2  C   UNL     1      55.929 143.763 -29.210  1.00  0.00     0.000 C 
BRANCH   2   3
ATOM      3  C   UNL     1      56.766 143.828 -30.499  1.00  0.00     0.000 C 
BRANCH   3   4
ATOM      4  C   UNL     1      58.279 143.906 -30.225  1.00  0.00     0.000 C 
BRANCH   4   5
ATOM      5  C   UNL     1      59.181 143.758 -31.468  1.00  0.00     0.000 C 
BRANCH   5   6
ATOM      6  C   UNL     1      59.035 144.874 -32.518  1.00  0.00     0.006 C 
BRANCH   6   7
ATOM      7  C   UNL     1      60.207 144.919 -33.506  1.00  0.00     0.053 C 
BRANCH   7   8
ATOM      8  C   UNL     1      60.791 146.294 -33.561  1.00  0.00     0.041 C 
ATOM      9  O   UNL     1      61.596 146.605 -34.478  1.00  0.00    -0.550 OA
ATOM     10  O   UNL     1      60.407 147.251 -32.630  1.00  0.00    -0.550 OA
ENDBRANCH   7   8
ENDBRANCH   6   7
ENDBRANCH   5   6
ENDBRANCH   4   5
ENDBRANCH   3   4
ENDBRANCH   2   3
ENDBRANCH   1   2
BRANCH   1  11
ATOM     11  C   UNL     1      55.908 144.050 -26.667  1.00  0.00     0.000 C 
BRANCH  11  12
ATOM     12  C   UNL     1      55.665 142.599 -26.218  1.00  0.00    -0.000 C 
BRANCH  12  13
ATOM     13  C   UNL     1      55.267 142.498 -24.736  1.00  0.00    -0.000 C 
BRANCH  13  14
ATOM     14  C   UNL     1      56.247 143.235 -23.804  1.00  0.00    -0.000 C 
BRANCH  14  15
ATOM     15  C   UNL     1      57.145 142.323 -22.944  1.00  0.00    -0.000 C 
BRANCH  15  16
ATOM     16  C   UNL     1      58.564 142.864 -22.676  1.00  0.00    -0.000 C 
BRANCH  16  17
ATOM     17  C   UNL     1      58.711 143.677 -21.378  1.00  0.00    -0.003 C 
ATOM     18  C   UNL     1      58.773 142.799 -20.129  1.00  0.00     0.004 C 
ENDBRANCH  16  17
ENDBRANCH  15  16
ENDBRANCH  14  15
ENDBRANCH  13  14
ENDBRANCH  12  13
ENDBRANCH  11  12
ENDBRANCH   1  11
TORSDOF 14
ENDMDL
MODEL 3
REMARK VINA RESULT:    -4.435     12.452     13.648
REMARK INTER + INTRA:          -8.696
REMARK INTER:                  -7.197
REMARK INTRA:                  -1.499
REMARK UNBOUND:                -0.631
REMARK SMILES CCCCCCCCCCCCCCCC(=O)[O-]
REMARK SMILES IDX 9 1 10 2 11 3 12 4 13 5 14 6 15 7 16 8 17 9 18 10 8 11 7 12
REMARK SMILES IDX 6 13 5 14 4 15 3 16 2 17 1 18
REMARK H PARENT
REMARK Flexibility Score: inf
ROOT
ATOM      1  C   UNL     1      47.173 155.252 -28.241  1.00  0.00     0.000 C 
ENDROOT
BRANCH   1   2
ATOM      2  C   UNL     1      48.619 155.761 -28.121  1.00  0.00     0.000 C 
BRANCH   2   3
ATOM      3  C   UNL     1      49.364 155.149 -26.923  1.00  0.00     0.000 C 
BRANCH   3   4
ATOM      4  C   UNL     1      50.785 154.677 -27.282  1.00  0.00     0.000 C 
BRANCH   4   5
ATOM      5  C   UNL     1      51.763 154.570 -26.094  1.00  0.00     0.000 C 
BRANCH   5   6
ATOM      6  C   UNL     1      51.134 154.799 -24.708  1.00  0.00     0.006 C 
BRANCH   6   7
ATOM      7  C   UNL     1      51.621 153.790 -23.659  1.00  0.00     0.053 C 
BRANCH   7   8
ATOM      8  C   UNL     1      50.492 152.920 -23.208  1.00  0.00     0.041 C 
ATOM      9  O   UNL     1      50.572 152.291 -22.120  1.00  0.00    -0.550 OA
ATOM     10  O   UNL     1      49.329 152.840 -23.965  1.00  0.00    -0.550 OA
ENDBRANCH   7   8
ENDBRANCH   6   7
ENDBRANCH   5   6
ENDBRANCH   4   5
ENDBRANCH   3   4
ENDBRANCH   2   3
ENDBRANCH   1   2
BRANCH   1  11
ATOM     11  C   UNL     1      47.101 153.760 -28.609  1.00  0.00     0.000 C 
BRANCH  11  12
ATOM     12  C   UNL     1      47.458 153.499 -30.082  1.00  0.00    -0.000 C 
BRANCH  12  13
ATOM     13  C   UNL     1      48.726 152.641 -30.240  1.00  0.00    -0.000 C 
BRANCH  13  14
ATOM     14  C   UNL     1      49.961 153.471 -30.636  1.00  0.00    -0.000 C 
BRANCH  14  15
ATOM     15  C   UNL     1      49.730 154.490 -31.770  1.00  0.00    -0.000 C 
BRANCH  15  16
ATOM     16  C   UNL     1      50.728 154.404 -32.943  1.00  0.00    -0.000 C 
BRANCH  16  17
ATOM     17  C   UNL     1      50.190 153.693 -34.197  1.00  0.00    -0.003 C 
ATOM     18  C   UNL     1      48.711 153.327 -34.086  1.00  0.00     0.004 C 
ENDBRANCH  16  17
ENDBRANCH  15  16
ENDBRANCH  14  15
ENDBRANCH  13  14
ENDBRANCH  12  13
ENDBRANCH  11  12
ENDBRANCH   1  11
TORSDOF 14
ENDMDL
MODEL 4
REMARK VINA RESULT:    -4.344      5.784     10.347
REMARK INTER + INTRA:          -8.531
REMARK INTER:                  -7.354
REMARK INTRA:                  -1.177
REMARK UNBOUND:                -0.631
REMARK SMILES CCCCCCCCCCCCCCCC(=O)[O-]
REMARK SMILES IDX 9 1 10 2 11 3 12 4 13 5 14 6 15 7 16 8 17 9 18 10 8 11 7 12
REMARK SMILES IDX 6 13 5 14 4 15 3 16 2 17 1 18
REMARK H PARENT
REMARK Flexibility Score: inf
ROOT
ATOM      1  C   UNL     1      51.509 141.298 -22.766  1.00  0.00     0.000 C 
ENDROOT
BRANCH   1   2
ATOM      2  C   UNL     1      52.164 140.440 -23.862  1.00  0.00     0.000 C 
BRANCH   2   3
ATOM      3  C   UNL     1      53.262 139.514 -23.310  1.00  0.00     0.000 C 
BRANCH   3   4
ATOM      4  C   UNL     1      54.681 139.988 -23.674  1.00  0.00     0.000 C 
BRANCH   4   5
ATOM      5  C   UNL     1      54.749 141.112 -24.728  1.00  0.00     0.000 C 
BRANCH   5   6
ATOM      6  C   UNL     1      55.607 142.326 -24.332  1.00  0.00     0.006 C 
BRANCH   6   7
ATOM      7  C   UNL     1      54.788 143.446 -23.676  1.00  0.00     0.053 C 
BRANCH   7   8
ATOM      8  C   UNL     1      54.566 144.565 -24.643  1.00  0.00     0.041 C 
ATOM      9  O   UNL     1      54.865 144.422 -25.858  1.00  0.00    -0.550 OA
ATOM     10  O   UNL     1      53.982 145.750 -24.213  1.00  0.00    -0.550 OA
ENDBRANCH   7   8
ENDBRANCH   6   7
ENDBRANCH   5   6
ENDBRANCH   4   5
ENDBRANCH   3   4
ENDBRANCH   2   3
ENDBRANCH   1   2
BRANCH   1  11
ATOM     11  C   UNL     1      49.986 141.096 -22.690  1.00  0.00     0.000 C 
BRANCH  11  12
ATOM     12  C   UNL     1      49.507 140.752 -21.269  1.00  0.00    -0.000 C 
BRANCH  12  13
ATOM     13  C   UNL     1      50.097 139.429 -20.752  1.00  0.00    -0.000 C 
BRANCH  13  14
ATOM     14  C   UNL     1      50.854 139.593 -19.421  1.00  0.00    -0.000 C 
BRANCH  14  15
ATOM     15  C   UNL     1      50.520 140.875 -18.632  1.00  0.00    -0.000 C 
BRANCH  15  16
ATOM     16  C   UNL     1      51.577 141.299 -17.592  1.00  0.00    -0.000 C 
BRANCH  16  17
ATOM     17  C   UNL     1      51.877 142.807 -17.554  1.00  0.00    -0.003 C 
ATOM     18  C   UNL     1      51.010 143.562 -16.547  1.00  0.00     0.004 C 
ENDBRANCH  16  17
ENDBRANCH  15  16
ENDBRANCH  14  15
ENDBRANCH  13  14
ENDBRANCH  12  13
ENDBRANCH  11  12
ENDBRANCH   1  11
TORSDOF 14
ENDMDL
MODEL 5
REMARK VINA RESULT:    -4.343     12.340     13.631
REMARK INTER + INTRA:          -8.529
REMARK INTER:                  -7.262
REMARK INTRA:                  -1.267
REMARK UNBOUND:                -0.631
REMARK SMILES CCCCCCCCCCCCCCCC(=O)[O-]
REMARK SMILES IDX 9 1 10 2 11 3 12 4 13 5 14 6 15 7 16 8 17 9 18 10 8 11 7 12
REMARK SMILES IDX 6 13 5 14 4 15 3 16 2 17 1 18
REMARK H PARENT
REMARK Flexibility Score: inf
ROOT
ATOM      1  C   UNL     1      49.209 154.785 -28.515  1.00  0.00     0.000 C 
ENDROOT
BRANCH   1   2
ATOM      2  C   UNL     1      49.968 155.615 -27.466  1.00  0.00     0.000 C 
BRANCH   2   3
ATOM      3  C   UNL     1      51.051 154.800 -26.738  1.00  0.00     0.000 C 
BRANCH   3   4
ATOM      4  C   UNL     1      51.518 155.462 -25.429  1.00  0.00     0.000 C 
BRANCH   4   5
ATOM      5  C   UNL     1      51.770 154.494 -24.255  1.00  0.00     0.000 C 
BRANCH   5   6
ATOM      6  C   UNL     1      51.439 153.019 -24.542  1.00  0.00     0.006 C 
BRANCH   6   7
ATOM      7  C   UNL     1      50.661 152.350 -23.401  1.00  0.00     0.053 C 
BRANCH   7   8
ATOM      8  C   UNL     1      49.331 153.009 -23.220  1.00  0.00     0.041 C 
ATOM      9  O   UNL     1      48.954 153.371 -22.074  1.00  0.00    -0.550 OA
ATOM     10  O   UNL     1      48.527 153.268 -24.323  1.00  0.00    -0.550 OA
ENDBRANCH   7   8
ENDBRANCH   6   7
ENDBRANCH   5   6
ENDBRANCH   4   5
ENDBRANCH   3   4
ENDBRANCH   2   3
ENDBRANCH   1   2
BRANCH   1  11
ATOM     11  C   UNL     1      50.062 153.643 -29.094  1.00  0.00     0.000 C 
BRANCH  11  12
ATOM     12  C   UNL     1      49.308 152.822 -30.153  1.00  0.00    -0.000 C 
BRANCH  12  13
ATOM     13  C   UNL     1      47.782 152.988 -30.052  1.00  0.00    -0.000 C 
BRANCH  13  14
ATOM     14  C   UNL     1      47.152 153.514 -31.355  1.00  0.00    -0.000 C 
BRANCH  14  15
ATOM     15  C   UNL     1      48.065 154.419 -32.206  1.00  0.00    -0.000 C 
BRANCH  15  16
ATOM     16  C   UNL     1      48.149 154.048 -33.700  1.00  0.00    -0.000 C 
BRANCH  16  17
ATOM     17  C   UNL     1      49.447 153.334 -34.115  1.00  0.00    -0.003 C 
ATOM     18  C   UNL     1      50.701 154.001 -33.552  1.00  0.00     0.004 C 
ENDBRANCH  16  17
ENDBRANCH  15  16
ENDBRANCH  14  15
ENDBRANCH  13  14
ENDBRANCH  12  13
ENDBRANCH  11  12
ENDBRANCH   1  11
TORSDOF 14
ENDMDL
MODEL 6
REMARK VINA RESULT:    -4.299     11.642     13.125
REMARK INTER + INTRA:          -8.450
REMARK INTER:                  -7.621
REMARK INTRA:                  -0.829
REMARK UNBOUND:                -0.631
REMARK SMILES CCCCCCCCCCCCCCCC(=O)[O-]
REMARK SMILES IDX 9 1 10 2 11 3 12 4 13 5 14 6 15 7 16 8 17 9 18 10 8 11 7 12
REMARK SMILES IDX 6 13 5 14 4 15 3 16 2 17 1 18
REMARK H PARENT
REMARK Flexibility Score: inf
ROOT
ATOM      1  C   UNL     1      49.195 154.712 -28.733  1.00  0.00     0.000 C 
ENDROOT
BRANCH   1   2
ATOM      2  C   UNL     1      48.374 155.626 -27.809  1.00  0.00     0.000 C 
BRANCH   2   3
ATOM      3  C   UNL     1      49.202 156.177 -26.635  1.00  0.00     0.000 C 
BRANCH   3   4
ATOM      4  C   UNL     1      50.622 155.585 -26.576  1.00  0.00     0.000 C 
BRANCH   4   5
ATOM      5  C   UNL     1      51.101 155.163 -25.172  1.00  0.00     0.000 C 
BRANCH   5   6
ATOM      6  C   UNL     1      51.818 153.803 -25.108  1.00  0.00     0.006 C 
BRANCH   6   7
ATOM      7  C   UNL     1      52.420 153.384 -26.456  1.00  0.00     0.053 C 
BRANCH   7   8
ATOM      8  C   UNL     1      52.529 151.895 -26.538  1.00  0.00     0.041 C 
ATOM      9  O   UNL     1      52.157 151.177 -25.573  1.00  0.00    -0.550 OA
ATOM     10  O   UNL     1      52.995 151.295 -27.702  1.00  0.00    -0.550 OA
ENDBRANCH   7   8
ENDBRANCH   6   7
ENDBRANCH   5   6
ENDBRANCH   4   5
ENDBRANCH   3   4
ENDBRANCH   2   3
ENDBRANCH   1   2
BRANCH   1  11
ATOM     11  C   UNL     1      48.318 153.953 -29.745  1.00  0.00     0.000 C 
BRANCH  11  12
ATOM     12  C   UNL     1      49.135 153.355 -30.902  1.00  0.00    -0.000 C 
BRANCH  12  13
ATOM     13  C   UNL     1      48.697 153.895 -32.275  1.00  0.00    -0.000 C 
BRANCH  13  14
ATOM     14  C   UNL     1      49.661 153.497 -33.407  1.00  0.00    -0.000 C 
BRANCH  14  15
ATOM     15  C   UNL     1      50.789 154.509 -33.693  1.00  0.00    -0.000 C 
BRANCH  15  16
ATOM     16  C   UNL     1      52.055 154.342 -32.827  1.00  0.00    -0.000 C 
BRANCH  16  17
ATOM     17  C   UNL     1      53.370 154.733 -33.524  1.00  0.00    -0.003 C 
ATOM     18  C   UNL     1      54.480 153.704 -33.320  1.00  0.00     0.004 C 
ENDBRANCH  16  17
ENDBRANCH  15  16
ENDBRANCH  14  15
ENDBRANCH  13  14
ENDBRANCH  12  13
ENDBRANCH  11  12
ENDBRANCH   1  11
TORSDOF 14
ENDMDL
MODEL 7
REMARK VINA RESULT:    -4.271     11.846     13.207
REMARK INTER + INTRA:          -8.397
REMARK INTER:                  -7.595
REMARK INTRA:                  -0.802
REMARK UNBOUND:                -0.631
REMARK SMILES CCCCCCCCCCCCCCCC(=O)[O-]
REMARK SMILES IDX 9 1 10 2 11 3 12 4 13 5 14 6 15 7 16 8 17 9 18 10 8 11 7 12
REMARK SMILES IDX 6 13 5 14 4 15 3 16 2 17 1 18
REMARK H PARENT
REMARK Flexibility Score: inf
ROOT
ATOM      1  C   UNL     1      49.937 153.807 -29.270  1.00  0.00     0.000 C 
ENDROOT
BRANCH   1   2
ATOM      2  C   UNL     1      49.387 155.118 -28.685  1.00  0.00     0.000 C 
BRANCH   2   3
ATOM      3  C   UNL     1      50.111 155.539 -27.394  1.00  0.00     0.000 C 
BRANCH   3   4
ATOM      4  C   UNL     1      51.242 154.572 -27.001  1.00  0.00     0.000 C 
BRANCH   4   5
ATOM      5  C   UNL     1      52.083 155.004 -25.783  1.00  0.00     0.000 C 
BRANCH   5   6
ATOM      6  C   UNL     1      51.902 154.138 -24.524  1.00  0.00     0.006 C 
BRANCH   6   7
ATOM      7  C   UNL     1      50.464 154.158 -23.990  1.00  0.00     0.053 C 
BRANCH   7   8
ATOM      8  C   UNL     1      50.148 152.874 -23.292  1.00  0.00     0.041 C 
ATOM      9  O   UNL     1      49.258 152.107 -23.747  1.00  0.00    -0.550 OA
ATOM     10  O   UNL     1      50.870 152.498 -22.166  1.00  0.00    -0.550 OA
ENDBRANCH   7   8
ENDBRANCH   6   7
ENDBRANCH   5   6
ENDBRANCH   4   5
ENDBRANCH   3   4
ENDBRANCH   2   3
ENDBRANCH   1   2
BRANCH   1  11
ATOM     11  C   UNL     1      49.036 153.229 -30.376  1.00  0.00     0.000 C 
BRANCH  11  12
ATOM     12  C   UNL     1      48.778 154.233 -31.512  1.00  0.00    -0.000 C 
BRANCH  12  13
ATOM     13  C   UNL     1      48.413 153.544 -32.838  1.00  0.00    -0.000 C 
BRANCH  13  14
ATOM     14  C   UNL     1      49.446 153.804 -33.950  1.00  0.00    -0.000 C 
BRANCH  14  15
ATOM     15  C   UNL     1      50.665 154.649 -33.527  1.00  0.00    -0.000 C 
BRANCH  15  16
ATOM     16  C   UNL     1      52.035 153.971 -33.730  1.00  0.00    -0.000 C 
BRANCH  16  17
ATOM     17  C   UNL     1      53.237 154.770 -33.198  1.00  0.00    -0.003 C 
ATOM     18  C   UNL     1      54.443 153.889 -32.876  1.00  0.00     0.004 C 
ENDBRANCH  16  17
ENDBRANCH  15  16
ENDBRANCH  14  15
ENDBRANCH  13  14
ENDBRANCH  12  13
ENDBRANCH  11  12
ENDBRANCH   1  11
TORSDOF 14
ENDMDL
MODEL 8
REMARK VINA RESULT:    -4.220      8.470     11.264
REMARK INTER + INTRA:          -8.306
REMARK INTER:                  -5.811
REMARK INTRA:                  -2.495
REMARK UNBOUND:                -0.631
REMARK SMILES CCCCCCCCCCCCCCCC(=O)[O-]
REMARK SMILES IDX 9 1 10 2 11 3 12 4 13 5 14 6 15 7 16 8 17 9 18 10 8 11 7 12
REMARK SMILES IDX 6 13 5 14 4 15 3 16 2 17 1 18
REMARK H PARENT
REMARK Flexibility Score: inf
ROOT
ATOM      1  C   UNL     1      59.828 146.358 -18.529  1.00  0.00     0.000 C 
ENDROOT
BRANCH   1   2
ATOM      2  C   UNL     1      59.414 145.072 -19.264  1.00  0.00     0.000 C 
BRANCH   2   3
ATOM      3  C   UNL     1      60.611 144.159 -19.579  1.00  0.00     0.000 C 
BRANCH   3   4
ATOM      4  C   UNL     1      61.605 144.797 -20.566  1.00  0.00     0.000 C 
BRANCH   4   5
ATOM      5  C   UNL     1      62.941 145.258 -19.950  1.00  0.00     0.000 C 
BRANCH   5   6
ATOM      6  C   UNL     1      63.542 146.532 -20.570  1.00  0.00     0.006 C 
BRANCH   6   7
ATOM      7  C   UNL     1      62.781 147.803 -20.173  1.00  0.00     0.053 C 
BRANCH   7   8
ATOM      8  C   UNL     1      62.332 148.545 -21.391  1.00  0.00     0.041 C 
ATOM      9  O   UNL     1      61.423 148.072 -22.123  1.00  0.00    -0.550 OA
ATOM     10  O   UNL     1      62.881 149.785 -21.693  1.00  0.00    -0.550 OA
ENDBRANCH   7   8
ENDBRANCH   6   7
ENDBRANCH   5   6
ENDBRANCH   4   5
ENDBRANCH   3   4
ENDBRANCH   2   3
ENDBRANCH   1   2
BRANCH   1  11
ATOM     11  C   UNL     1      60.193 146.104 -17.056  1.00  0.00     0.000 C 
BRANCH  11  12
ATOM     12  C   UNL     1      61.673 146.396 -16.756  1.00  0.00    -0.000 C 
BRANCH  12  13
ATOM     13  C   UNL     1      62.452 145.135 -16.342  1.00  0.00    -0.000 C 
BRANCH  13  14
ATOM     14  C   UNL     1      61.554 144.066 -15.692  1.00  0.00    -0.000 C 
BRANCH  14  15
ATOM     15  C   UNL     1      61.512 142.711 -16.428  1.00  0.00    -0.000 C 
BRANCH  15  16
ATOM     16  C   UNL     1      60.194 141.925 -16.279  1.00  0.00    -0.000 C 
BRANCH  16  17
ATOM     17  C   UNL     1      58.974 142.779 -15.892  1.00  0.00    -0.003 C 
ATOM     18  C   UNL     1      57.831 142.676 -16.901  1.00  0.00     0.004 C 
ENDBRANCH  16  17
ENDBRANCH  15  16
ENDBRANCH  14  15
ENDBRANCH  13  14
ENDBRANCH  12  13
ENDBRANCH  11  12
ENDBRANCH   1  11
TORSDOF 14
ENDMDL
MODEL 9
REMARK VINA RESULT:    -4.210      2.174      3.961
REMARK INTER + INTRA:          -8.286
REMARK INTER:                  -6.741
REMARK INTRA:                  -1.546
REMARK UNBOUND:                -0.631
REMARK SMILES CCCCCCCCCCCCCCCC(=O)[O-]
REMARK SMILES IDX 9 1 10 2 11 3 12 4 13 5 14 6 15 7 16 8 17 9 18 10 8 11 7 12
REMARK SMILES IDX 6 13 5 14 4 15 3 16 2 17 1 18
REMARK H PARENT
REMARK Flexibility Score: inf
ROOT
ATOM      1  C   UNL     1      55.938 139.496 -24.845  1.00  0.00     0.000 C 
ENDROOT
BRANCH   1   2
ATOM      2  C   UNL     1      57.261 139.717 -24.093  1.00  0.00     0.000 C 
BRANCH   2   3
ATOM      3  C   UNL     1      57.152 139.384 -22.595  1.00  0.00     0.000 C 
BRANCH   3   4
ATOM      4  C   UNL     1      57.623 140.539 -21.691  1.00  0.00     0.000 C 
BRANCH   4   5
ATOM      5  C   UNL     1      58.534 141.579 -22.373  1.00  0.00     0.000 C 
BRANCH   5   6
ATOM      6  C   UNL     1      58.068 143.040 -22.244  1.00  0.00     0.006 C 
BRANCH   6   7
ATOM      7  C   UNL     1      59.189 143.984 -21.790  1.00  0.00     0.053 C 
BRANCH   7   8
ATOM      8  C   UNL     1      59.067 144.273 -20.328  1.00  0.00     0.041 C 
ATOM      9  O   UNL     1      58.943 143.330 -19.503  1.00  0.00    -0.550 OA
ATOM     10  O   UNL     1      59.140 145.583 -19.869  1.00  0.00    -0.550 OA
ENDBRANCH   7   8
ENDBRANCH   6   7
ENDBRANCH   5   6
ENDBRANCH   4   5
ENDBRANCH   3   4
ENDBRANCH   2   3
ENDBRANCH   1   2
BRANCH   1  11
ATOM     11  C   UNL     1      55.349 140.804 -25.402  1.00  0.00     0.000 C 
BRANCH  11  12
ATOM     12  C   UNL     1      54.805 141.724 -24.296  1.00  0.00    -0.000 C 
BRANCH  12  13
ATOM     13  C   UNL     1      55.192 143.197 -24.509  1.00  0.00    -0.000 C 
BRANCH  13  14
ATOM     14  C   UNL     1      56.127 143.400 -25.716  1.00  0.00    -0.000 C 
BRANCH  14  15
ATOM     15  C   UNL     1      55.511 144.170 -26.900  1.00  0.00    -0.000 C 
BRANCH  15  16
ATOM     16  C   UNL     1      55.085 143.299 -28.099  1.00  0.00    -0.000 C 
BRANCH  16  17
ATOM     17  C   UNL     1      55.584 143.795 -29.467  1.00  0.00    -0.003 C 
ATOM     18  C   UNL     1      57.108 143.863 -29.556  1.00  0.00     0.004 C 
ENDBRANCH  16  17
ENDBRANCH  15  16
ENDBRANCH  14  15
ENDBRANCH  13  14
ENDBRANCH  12  13
ENDBRANCH  11  12
ENDBRANCH   1  11
TORSDOF 14
ENDMDL
