MODEL 1
REMARK VINA RESULT:     1.586      0.000      0.000
REMARK INTER + INTRA:           1.918
REMARK INTER:                   1.864
REMARK INTRA:                   0.054
REMARK UNBOUND:                 0.054
REMARK SMILES O=c1c(O)c(-c2ccc(O)cc2)oc2cc(O)cc(O)c12
REMARK SMILES IDX 5 1 3 2 2 3 1 4 21 5 19 6 18 7 16 8 15 9 14 10 13 11 6 12
REMARK SMILES IDX 7 13 8 14 9 15 12 16 11 17 10 18 4 20 20 22 17 24
REMARK H PARENT 10 19 4 21 20 23 17 25
REMARK Flexibility Score: inf
ROOT
ATOM      1  C   UNL     1      11.976  22.062  -0.119  1.00  0.00     0.180 A 
ATOM      2  C   UNL     1      12.815  23.048  -0.666  1.00  0.00     0.208 A 
ATOM      3  C   UNL     1      12.801  23.262  -2.053  1.00  0.00     0.238 A 
ATOM      4  O   UNL     1      13.595  24.108  -2.543  1.00  0.00    -0.285 OA
ATOM      5  C   UNL     1      11.935  22.500  -2.875  1.00  0.00     0.111 A 
ATOM      6  C   UNL     1      11.809  22.662  -4.287  1.00  0.00     0.134 A 
ATOM      7  C   UNL     1      11.019  21.764  -5.016  1.00  0.00     0.093 A 
ATOM      8  C   UNL     1      10.298  20.753  -4.376  1.00  0.00     0.123 A 
ATOM      9  C   UNL     1      10.369  20.626  -2.990  1.00  0.00     0.094 A 
ATOM     10  C   UNL     1      11.177  21.482  -2.240  1.00  0.00     0.146 A 
ATOM     11  O   UNL     1      11.224  21.320  -0.922  1.00  0.00    -0.452 OA
ENDROOT
BRANCH   1  12
ATOM     12  C   UNL     1      11.916  21.796   1.336  1.00  0.00     0.021 A 
ATOM     13  C   UNL     1      11.907  20.469   1.797  1.00  0.00     0.016 A 
ATOM     14  C   UNL     1      11.829  20.195   3.166  1.00  0.00     0.047 A 
ATOM     15  C   UNL     1      11.744  21.240   4.089  1.00  0.00     0.115 A 
ATOM     16  C   UNL     1      11.810  22.844   2.270  1.00  0.00     0.016 A 
ATOM     17  C   UNL     1      11.732  22.566   3.638  1.00  0.00     0.047 A 
BRANCH  15  18
ATOM     18  O   UNL     1      11.668  20.951   5.450  1.00  0.00    -0.508 OA
ATOM     19  H   UNL     1      11.186  20.126   5.790  1.00  0.00     0.293 HD
ENDBRANCH  15  18
ENDBRANCH   1  12
BRANCH   2  20
ATOM     20  O   UNL     1      13.678  23.774   0.160  1.00  0.00    -0.502 OA
ATOM     21  H   UNL     1      13.506  24.739   0.412  1.00  0.00     0.293 HD
ENDBRANCH   2  20
BRANCH   6  22
ATOM     22  O   UNL     1      12.412  23.694  -5.012  1.00  0.00    -0.507 OA
ATOM     23  H   UNL     1      13.027  23.559  -5.800  1.00  0.00     0.293 HD
ENDBRANCH   6  22
BRANCH   8  24
ATOM     24  O   UNL     1       9.501  19.875  -5.107  1.00  0.00    -0.508 OA
ATOM     25  H   UNL     1       9.594  19.788  -6.112  1.00  0.00     0.293 HD
ENDBRANCH   8  24
TORSDOF 5
ENDMDL
MODEL 2
REMARK VINA RESULT:     1.820      0.273      1.091
REMARK INTER + INTRA:           2.192
REMARK INTER:                   2.048
REMARK INTRA:                   0.144
REMARK UNBOUND:                 0.054
REMARK SMILES O=c1c(O)c(-c2ccc(O)cc2)oc2cc(O)cc(O)c12
REMARK SMILES IDX 5 1 3 2 2 3 1 4 21 5 19 6 18 7 16 8 15 9 14 10 13 11 6 12
REMARK SMILES IDX 7 13 8 14 9 15 12 16 11 17 10 18 4 20 20 22 17 24
REMARK H PARENT 10 19 4 21 20 23 17 25
REMARK Flexibility Score: inf
ROOT
ATOM      1  C   UNL     1      11.910  21.968   0.136  1.00  0.00     0.180 A 
ATOM      2  C   UNL     1      12.763  22.953  -0.391  1.00  0.00     0.208 A 
ATOM      3  C   UNL     1      12.760  23.188  -1.775  1.00  0.00     0.238 A 
ATOM      4  O   UNL     1      13.565  24.032  -2.248  1.00  0.00    -0.285 OA
ATOM      5  C   UNL     1      11.892  22.446  -2.614  1.00  0.00     0.111 A 
ATOM      6  C   UNL     1      11.777  22.628  -4.024  1.00  0.00     0.134 A 
ATOM      7  C   UNL     1      10.983  21.748  -4.771  1.00  0.00     0.093 A 
ATOM      8  C   UNL     1      10.248  20.736  -4.149  1.00  0.00     0.123 A 
ATOM      9  C   UNL     1      10.309  20.589  -2.765  1.00  0.00     0.094 A 
ATOM     10  C   UNL     1      11.120  21.426  -1.997  1.00  0.00     0.146 A 
ATOM     11  O   UNL     1      11.157  21.245  -0.682  1.00  0.00    -0.452 OA
ENDROOT
BRANCH   1  12
ATOM     12  C   UNL     1      11.838  21.683   1.587  1.00  0.00     0.021 A 
ATOM     13  C   UNL     1      11.814  22.749   2.502  1.00  0.00     0.016 A 
ATOM     14  C   UNL     1      11.768  22.501   3.877  1.00  0.00     0.047 A 
ATOM     15  C   UNL     1      11.762  21.189   4.356  1.00  0.00     0.115 A 
ATOM     16  C   UNL     1      11.851  20.363   2.077  1.00  0.00     0.016 A 
ATOM     17  C   UNL     1      11.806  20.120   3.453  1.00  0.00     0.047 A 
BRANCH  15  18
ATOM     18  O   UNL     1      11.716  20.958   5.729  1.00  0.00    -0.508 OA
ATOM     19  H   UNL     1      12.325  20.279   6.173  1.00  0.00     0.293 HD
ENDBRANCH  15  18
ENDBRANCH   1  12
BRANCH   2  20
ATOM     20  O   UNL     1      13.627  23.659   0.451  1.00  0.00    -0.502 OA
ATOM     21  H   UNL     1      13.427  24.599   0.772  1.00  0.00     0.293 HD
ENDBRANCH   2  20
BRANCH   6  22
ATOM     22  O   UNL     1      12.395  23.664  -4.731  1.00  0.00    -0.507 OA
ATOM     23  H   UNL     1      12.027  24.088  -5.568  1.00  0.00     0.293 HD
ENDBRANCH   6  22
BRANCH   8  24
ATOM     24  O   UNL     1       9.448  19.876  -4.898  1.00  0.00    -0.508 OA
ATOM     25  H   UNL     1       8.544  19.564  -4.560  1.00  0.00     0.293 HD
ENDBRANCH   8  24
TORSDOF 5
ENDMDL
