MODEL 1
REMARK VINA RESULT:    -3.838      0.000      0.000
REMARK INTER + INTRA:          -9.774
REMARK INTER:                  -7.203
REMARK INTRA:                  -2.571
REMARK UNBOUND:                -2.571
REMARK SMILES CCCCCCCCC=CCCCCCCCC(=O)[O-]
REMARK SMILES IDX 10 1 9 2 11 3 12 4 13 5 14 6 15 7 16 8 17 9 18 10 19 11
REMARK SMILES IDX 20 12 8 13 7 14 6 15 5 16 4 17 3 18 2 19 1 20
REMARK H PARENT
REMARK Flexibility Score: inf
ROOT
ATOM      1  C   UNL     1       4.266  -8.082  -1.123  1.00  0.00    -0.031 C 
ATOM      2  C   UNL     1       3.250  -7.617  -0.369  1.00  0.00    -0.031 C 
ENDROOT
BRANCH   1   3
ATOM      3  C   UNL     1       4.633  -9.537  -1.264  1.00  0.00     0.027 C 
BRANCH   3   4
ATOM      4  C   UNL     1       6.104  -9.692  -1.670  1.00  0.00     0.004 C 
BRANCH   4   5
ATOM      5  C   UNL     1       6.916  -8.446  -1.284  1.00  0.00     0.000 C 
BRANCH   5   6
ATOM      6  C   UNL     1       8.109  -8.201  -2.219  1.00  0.00     0.000 C 
BRANCH   6   7
ATOM      7  C   UNL     1       7.769  -7.252  -3.382  1.00  0.00     0.000 C 
BRANCH   7   8
ATOM      8  C   UNL     1       6.902  -6.062  -2.943  1.00  0.00     0.006 C 
BRANCH   8   9
ATOM      9  C   UNL     1       7.632  -4.718  -3.073  1.00  0.00     0.053 C 
BRANCH   9  10
ATOM     10  C   UNL     1       6.670  -3.581  -2.944  1.00  0.00     0.041 C 
ATOM     11  O   UNL     1       6.587  -2.716  -3.856  1.00  0.00    -0.550 OA
ATOM     12  O   UNL     1       5.846  -3.487  -1.829  1.00  0.00    -0.550 OA
ENDBRANCH   9  10
ENDBRANCH   8   9
ENDBRANCH   7   8
ENDBRANCH   6   7
ENDBRANCH   5   6
ENDBRANCH   4   5
ENDBRANCH   3   4
ENDBRANCH   1   3
BRANCH   2  13
ATOM     13  C   UNL     1       2.279  -8.487   0.389  1.00  0.00     0.027 C 
BRANCH  13  14
ATOM     14  C   UNL     1       2.587  -8.465   1.893  1.00  0.00     0.004 C 
BRANCH  14  15
ATOM     15  C   UNL     1       2.759  -7.039   2.436  1.00  0.00     0.000 C 
BRANCH  15  16
ATOM     16  C   UNL     1       4.081  -6.854   3.199  1.00  0.00     0.000 C 
BRANCH  16  17
ATOM     17  C   UNL     1       5.206  -7.761   2.669  1.00  0.00    -0.000 C 
BRANCH  17  18
ATOM     18  C   UNL     1       6.475  -6.986   2.249  1.00  0.00    -0.000 C 
BRANCH  18  19
ATOM     19  C   UNL     1       6.228  -5.980   1.112  1.00  0.00    -0.003 C 
ATOM     20  C   UNL     1       7.461  -5.127   0.812  1.00  0.00     0.004 C 
ENDBRANCH  18  19
ENDBRANCH  17  18
ENDBRANCH  16  17
ENDBRANCH  15  16
ENDBRANCH  14  15
ENDBRANCH  13  14
ENDBRANCH   2  13
TORSDOF 15
ENDMDL
MODEL 2
REMARK VINA RESULT:    -3.772     17.255     19.266
REMARK INTER + INTRA:          -9.651
REMARK INTER:                  -7.534
REMARK INTRA:                  -2.117
REMARK UNBOUND:                -2.571
REMARK SMILES CCCCCCCCC=CCCCCCCCC(=O)[O-]
REMARK SMILES IDX 10 1 9 2 11 3 12 4 13 5 14 6 15 7 16 8 17 9 18 10 19 11
REMARK SMILES IDX 20 12 8 13 7 14 6 15 5 16 4 17 3 18 2 19 1 20
REMARK H PARENT
REMARK Flexibility Score: inf
ROOT
ATOM      1  C   UNL     1      -8.702   4.996  -0.287  1.00  0.00    -0.031 C 
ATOM      2  C   UNL     1      -7.580   4.410   0.175  1.00  0.00    -0.031 C 
ENDROOT
BRANCH   1   3
ATOM      3  C   UNL     1      -9.917   5.303   0.550  1.00  0.00     0.027 C 
BRANCH   3   4
ATOM      4  C   UNL     1     -11.160   4.603  -0.013  1.00  0.00     0.004 C 
BRANCH   4   5
ATOM      5  C   UNL     1     -10.988   3.076   0.007  1.00  0.00     0.000 C 
BRANCH   5   6
ATOM      6  C   UNL     1     -11.884   2.364  -1.018  1.00  0.00     0.000 C 
BRANCH   6   7
ATOM      7  C   UNL     1     -11.179   1.180  -1.704  1.00  0.00     0.000 C 
BRANCH   7   8
ATOM      8  C   UNL     1     -10.723   1.507  -3.134  1.00  0.00     0.006 C 
BRANCH   8   9
ATOM      9  C   UNL     1     -11.156   2.908  -3.586  1.00  0.00     0.053 C 
BRANCH   9  10
ATOM     10  C   UNL     1      -9.971   3.814  -3.702  1.00  0.00     0.041 C 
ATOM     11  O   UNL     1     -10.053   4.882  -4.365  1.00  0.00    -0.550 OA
ATOM     12  O   UNL     1      -8.782   3.493  -3.057  1.00  0.00    -0.550 OA
ENDBRANCH   9  10
ENDBRANCH   8   9
ENDBRANCH   7   8
ENDBRANCH   6   7
ENDBRANCH   5   6
ENDBRANCH   4   5
ENDBRANCH   3   4
ENDBRANCH   1   3
BRANCH   2  13
ATOM     13  C   UNL     1      -7.339   4.040   1.617  1.00  0.00     0.027 C 
BRANCH  13  14
ATOM     14  C   UNL     1      -8.130   2.781   1.996  1.00  0.00     0.004 C 
BRANCH  14  15
ATOM     15  C   UNL     1      -8.678   2.842   3.430  1.00  0.00     0.000 C 
BRANCH  15  16
ATOM     16  C   UNL     1     -10.212   2.942   3.471  1.00  0.00     0.000 C 
BRANCH  16  17
ATOM     17  C   UNL     1     -10.705   4.288   4.031  1.00  0.00    -0.000 C 
BRANCH  17  18
ATOM     18  C   UNL     1      -9.561   5.277   4.351  1.00  0.00    -0.000 C 
BRANCH  18  19
ATOM     19  C   UNL     1     -10.050   6.713   4.608  1.00  0.00    -0.003 C 
ATOM     20  C   UNL     1     -10.903   7.251   3.459  1.00  0.00     0.004 C 
ENDBRANCH  18  19
ENDBRANCH  17  18
ENDBRANCH  16  17
ENDBRANCH  15  16
ENDBRANCH  14  15
ENDBRANCH  13  14
ENDBRANCH   2  13
TORSDOF 15
ENDMDL
MODEL 3
REMARK VINA RESULT:    -3.755     17.517     19.707
REMARK INTER + INTRA:          -9.619
REMARK INTER:                  -6.952
REMARK INTRA:                  -2.667
REMARK UNBOUND:                -2.571
REMARK SMILES CCCCCCCCC=CCCCCCCCC(=O)[O-]
REMARK SMILES IDX 10 1 9 2 11 3 12 4 13 5 14 6 15 7 16 8 17 9 18 10 19 11
REMARK SMILES IDX 20 12 8 13 7 14 6 15 5 16 4 17 3 18 2 19 1 20
REMARK H PARENT
REMARK Flexibility Score: inf
ROOT
ATOM      1  C   UNL     1      -7.379   4.426   0.242  1.00  0.00    -0.031 C 
ATOM      2  C   UNL     1      -7.288   3.887   1.473  1.00  0.00    -0.031 C 
ENDROOT
BRANCH   1   3
ATOM      3  C   UNL     1      -8.363   3.991  -0.814  1.00  0.00     0.027 C 
BRANCH   3   4
ATOM      4  C   UNL     1      -9.447   5.055  -1.022  1.00  0.00     0.004 C 
BRANCH   4   5
ATOM      5  C   UNL     1     -10.419   5.090   0.168  1.00  0.00     0.000 C 
BRANCH   5   6
ATOM      6  C   UNL     1     -11.655   4.204  -0.048  1.00  0.00     0.000 C 
BRANCH   6   7
ATOM      7  C   UNL     1     -11.458   2.769   0.473  1.00  0.00     0.000 C 
BRANCH   7   8
ATOM      8  C   UNL     1     -11.487   1.720  -0.649  1.00  0.00     0.006 C 
BRANCH   8   9
ATOM      9  C   UNL     1     -11.933   2.307  -1.995  1.00  0.00     0.053 C 
BRANCH   9  10
ATOM     10  C   UNL     1     -10.889   2.075  -3.042  1.00  0.00     0.041 C 
ATOM     11  O   UNL     1     -11.029   2.564  -4.194  1.00  0.00    -0.550 OA
ATOM     12  O   UNL     1      -9.750   1.340  -2.739  1.00  0.00    -0.550 OA
ENDBRANCH   9  10
ENDBRANCH   8   9
ENDBRANCH   7   8
ENDBRANCH   6   7
ENDBRANCH   5   6
ENDBRANCH   4   5
ENDBRANCH   3   4
ENDBRANCH   1   3
BRANCH   2  13
ATOM     13  C   UNL     1      -8.206   2.817   2.010  1.00  0.00     0.027 C 
BRANCH  13  14
ATOM     14  C   UNL     1      -8.560   3.090   3.479  1.00  0.00     0.004 C 
BRANCH  14  15
ATOM     15  C   UNL     1      -9.242   4.452   3.675  1.00  0.00     0.000 C 
BRANCH  15  16
ATOM     16  C   UNL     1     -10.771   4.334   3.796  1.00  0.00     0.000 C 
BRANCH  16  17
ATOM     17  C   UNL     1     -11.487   5.686   3.628  1.00  0.00    -0.000 C 
BRANCH  17  18
ATOM     18  C   UNL     1     -10.531   6.899   3.683  1.00  0.00    -0.000 C 
BRANCH  18  19
ATOM     19  C   UNL     1     -11.191   8.216   3.238  1.00  0.00    -0.003 C 
ATOM     20  C   UNL     1     -11.279   8.337   1.717  1.00  0.00     0.004 C 
ENDBRANCH  18  19
ENDBRANCH  17  18
ENDBRANCH  16  17
ENDBRANCH  15  16
ENDBRANCH  14  15
ENDBRANCH  13  14
ENDBRANCH   2  13
TORSDOF 15
ENDMDL
MODEL 4
REMARK VINA RESULT:    -3.672      1.673      3.203
REMARK INTER + INTRA:          -9.463
REMARK INTER:                  -7.033
REMARK INTRA:                  -2.429
REMARK UNBOUND:                -2.571
REMARK SMILES CCCCCCCCC=CCCCCCCCC(=O)[O-]
REMARK SMILES IDX 10 1 9 2 11 3 12 4 13 5 14 6 15 7 16 8 17 9 18 10 19 11
REMARK SMILES IDX 20 12 8 13 7 14 6 15 5 16 4 17 3 18 2 19 1 20
REMARK H PARENT
REMARK Flexibility Score: inf
ROOT
ATOM      1  C   UNL     1       4.287  -6.994   0.287  1.00  0.00    -0.031 C 
ATOM      2  C   UNL     1       3.231  -7.717  -0.134  1.00  0.00    -0.031 C 
ENDROOT
BRANCH   1   3
ATOM      3  C   UNL     1       5.316  -7.475   1.279  1.00  0.00     0.027 C 
BRANCH   3   4
ATOM      4  C   UNL     1       5.845  -6.312   2.126  1.00  0.00     0.004 C 
BRANCH   4   5
ATOM      5  C   UNL     1       7.297  -5.975   1.753  1.00  0.00     0.000 C 
BRANCH   5   6
ATOM      6  C   UNL     1       7.396  -5.015   0.557  1.00  0.00     0.000 C 
BRANCH   6   7
ATOM      7  C   UNL     1       7.994  -5.682  -0.695  1.00  0.00     0.000 C 
BRANCH   7   8
ATOM      8  C   UNL     1       6.998  -5.756  -1.862  1.00  0.00     0.006 C 
BRANCH   8   9
ATOM      9  C   UNL     1       7.496  -5.018  -3.112  1.00  0.00     0.053 C 
BRANCH   9  10
ATOM     10  C   UNL     1       7.000  -3.607  -3.123  1.00  0.00     0.041 C 
ATOM     11  O   UNL     1       6.019  -3.275  -2.407  1.00  0.00    -0.550 OA
ATOM     12  O   UNL     1       7.635  -2.651  -3.907  1.00  0.00    -0.550 OA
ENDBRANCH   9  10
ENDBRANCH   8   9
ENDBRANCH   7   8
ENDBRANCH   6   7
ENDBRANCH   5   6
ENDBRANCH   4   5
ENDBRANCH   3   4
ENDBRANCH   1   3
BRANCH   2  13
ATOM     13  C   UNL     1       2.957  -9.146   0.265  1.00  0.00     0.027 C 
BRANCH  13  14
ATOM     14  C   UNL     1       1.768  -9.223   1.232  1.00  0.00     0.004 C 
BRANCH  14  15
ATOM     15  C   UNL     1       2.063 -10.100   2.458  1.00  0.00     0.000 C 
BRANCH  15  16
ATOM     16  C   UNL     1       3.552 -10.094   2.841  1.00  0.00     0.000 C 
BRANCH  16  17
ATOM     17  C   UNL     1       3.815  -9.410   4.194  1.00  0.00    -0.000 C 
BRANCH  17  18
ATOM     18  C   UNL     1       2.680  -8.460   4.635  1.00  0.00    -0.000 C 
BRANCH  18  19
ATOM     19  C   UNL     1       3.069  -6.973   4.571  1.00  0.00    -0.003 C 
ATOM     20  C   UNL     1       2.421  -6.252   3.388  1.00  0.00     0.004 C 
ENDBRANCH  18  19
ENDBRANCH  17  18
ENDBRANCH  16  17
ENDBRANCH  15  16
ENDBRANCH  14  15
ENDBRANCH  13  14
ENDBRANCH   2  13
TORSDOF 15
ENDMDL
MODEL 5
REMARK VINA RESULT:    -3.651      1.377      3.069
REMARK INTER + INTRA:          -9.424
REMARK INTER:                  -6.773
REMARK INTRA:                  -2.650
REMARK UNBOUND:                -2.571
REMARK SMILES CCCCCCCCC=CCCCCCCCC(=O)[O-]
REMARK SMILES IDX 10 1 9 2 11 3 12 4 13 5 14 6 15 7 16 8 17 9 18 10 19 11
REMARK SMILES IDX 20 12 8 13 7 14 6 15 5 16 4 17 3 18 2 19 1 20
REMARK H PARENT
REMARK Flexibility Score: inf
ROOT
ATOM      1  C   UNL     1       3.997  -7.995  -0.871  1.00  0.00    -0.031 C 
ATOM      2  C   UNL     1       4.327  -7.249   0.202  1.00  0.00    -0.031 C 
ENDROOT
BRANCH   1   3
ATOM      3  C   UNL     1       4.222  -9.481  -0.984  1.00  0.00     0.027 C 
BRANCH   3   4
ATOM      4  C   UNL     1       5.357  -9.788  -1.968  1.00  0.00     0.004 C 
BRANCH   4   5
ATOM      5  C   UNL     1       6.729  -9.622  -1.295  1.00  0.00     0.000 C 
BRANCH   5   6
ATOM      6  C   UNL     1       7.678  -8.719  -2.097  1.00  0.00     0.000 C 
BRANCH   6   7
ATOM      7  C   UNL     1       7.081  -8.277  -3.445  1.00  0.00     0.000 C 
BRANCH   7   8
ATOM      8  C   UNL     1       6.683  -6.793  -3.460  1.00  0.00     0.006 C 
BRANCH   8   9
ATOM      9  C   UNL     1       6.992  -6.085  -2.134  1.00  0.00     0.053 C 
BRANCH   9  10
ATOM     10  C   UNL     1       6.754  -4.613  -2.254  1.00  0.00     0.041 C 
ATOM     11  O   UNL     1       5.916  -4.044  -1.506  1.00  0.00    -0.550 OA
ATOM     12  O   UNL     1       7.475  -3.864  -3.177  1.00  0.00    -0.550 OA
ENDBRANCH   9  10
ENDBRANCH   8   9
ENDBRANCH   7   8
ENDBRANCH   6   7
ENDBRANCH   5   6
ENDBRANCH   4   5
ENDBRANCH   3   4
ENDBRANCH   1   3
BRANCH   2  13
ATOM     13  C   UNL     1       4.903  -7.798   1.483  1.00  0.00     0.027 C 
BRANCH  13  14
ATOM     14  C   UNL     1       4.385  -7.011   2.695  1.00  0.00     0.004 C 
BRANCH  14  15
ATOM     15  C   UNL     1       2.942  -6.520   2.503  1.00  0.00     0.000 C 
BRANCH  15  16
ATOM     16  C   UNL     1       1.906  -7.492   3.091  1.00  0.00     0.000 C 
BRANCH  16  17
ATOM     17  C   UNL     1       1.250  -8.381   2.020  1.00  0.00    -0.000 C 
BRANCH  17  18
ATOM     18  C   UNL     1       1.202  -9.877   2.406  1.00  0.00    -0.000 C 
BRANCH  18  19
ATOM     19  C   UNL     1       2.334 -10.706   1.777  1.00  0.00    -0.003 C 
ATOM     20  C   UNL     1       3.477 -10.970   2.758  1.00  0.00     0.004 C 
ENDBRANCH  18  19
ENDBRANCH  17  18
ENDBRANCH  16  17
ENDBRANCH  15  16
ENDBRANCH  14  15
ENDBRANCH  13  14
ENDBRANCH   2  13
TORSDOF 15
ENDMDL
MODEL 6
REMARK VINA RESULT:    -3.588      1.697      3.899
REMARK INTER + INTRA:          -9.305
REMARK INTER:                  -6.180
REMARK INTRA:                  -3.125
REMARK UNBOUND:                -2.571
REMARK SMILES CCCCCCCCC=CCCCCCCCC(=O)[O-]
REMARK SMILES IDX 10 1 9 2 11 3 12 4 13 5 14 6 15 7 16 8 17 9 18 10 19 11
REMARK SMILES IDX 20 12 8 13 7 14 6 15 5 16 4 17 3 18 2 19 1 20
REMARK H PARENT
REMARK Flexibility Score: inf
ROOT
ATOM      1  C   UNL     1       3.619  -6.674   1.730  1.00  0.00    -0.031 C 
ATOM      2  C   UNL     1       4.620  -6.942   2.591  1.00  0.00    -0.031 C 
ENDROOT
BRANCH   1   3
ATOM      3  C   UNL     1       3.680  -6.911   0.243  1.00  0.00     0.027 C 
BRANCH   3   4
ATOM      4  C   UNL     1       3.027  -8.249  -0.124  1.00  0.00     0.004 C 
BRANCH   4   5
ATOM      5  C   UNL     1       4.031  -9.177  -0.826  1.00  0.00     0.000 C 
BRANCH   5   6
ATOM      6  C   UNL     1       5.046  -8.410  -1.687  1.00  0.00     0.000 C 
BRANCH   6   7
ATOM      7  C   UNL     1       6.494  -8.577  -1.190  1.00  0.00     0.000 C 
BRANCH   7   8
ATOM      8  C   UNL     1       7.366  -7.345  -1.479  1.00  0.00     0.006 C 
BRANCH   8   9
ATOM      9  C   UNL     1       6.579  -6.205  -2.139  1.00  0.00     0.053 C 
BRANCH   9  10
ATOM     10  C   UNL     1       6.492  -5.026  -1.223  1.00  0.00     0.041 C 
ATOM     11  O   UNL     1       6.992  -5.083  -0.069  1.00  0.00    -0.550 OA
ATOM     12  O   UNL     1       5.881  -3.854  -1.652  1.00  0.00    -0.550 OA
ENDBRANCH   9  10
ENDBRANCH   8   9
ENDBRANCH   7   8
ENDBRANCH   6   7
ENDBRANCH   5   6
ENDBRANCH   4   5
ENDBRANCH   3   4
ENDBRANCH   1   3
BRANCH   2  13
ATOM     13  C   UNL     1       5.927  -7.591   2.209  1.00  0.00     0.027 C 
BRANCH  13  14
ATOM     14  C   UNL     1       6.110  -8.924   2.947  1.00  0.00     0.004 C 
BRANCH  14  15
ATOM     15  C   UNL     1       4.964  -9.909   2.672  1.00  0.00     0.000 C 
BRANCH  15  16
ATOM     16  C   UNL     1       4.315 -10.433   3.964  1.00  0.00     0.000 C 
BRANCH  16  17
ATOM     17  C   UNL     1       2.910  -9.853   4.201  1.00  0.00    -0.000 C 
BRANCH  17  18
ATOM     18  C   UNL     1       2.013  -9.878   2.943  1.00  0.00    -0.000 C 
BRANCH  18  19
ATOM     19  C   UNL     1       0.898  -8.819   2.967  1.00  0.00    -0.003 C 
ATOM     20  C   UNL     1       1.050  -7.839   4.131  1.00  0.00     0.004 C 
ENDBRANCH  18  19
ENDBRANCH  17  18
ENDBRANCH  16  17
ENDBRANCH  15  16
ENDBRANCH  14  15
ENDBRANCH  13  14
ENDBRANCH   2  13
TORSDOF 15
ENDMDL
MODEL 7
REMARK VINA RESULT:    -3.585      2.919      6.326
REMARK INTER + INTRA:          -9.300
REMARK INTER:                  -6.722
REMARK INTRA:                  -2.577
REMARK UNBOUND:                -2.571
REMARK SMILES CCCCCCCCC=CCCCCCCCC(=O)[O-]
REMARK SMILES IDX 10 1 9 2 11 3 12 4 13 5 14 6 15 7 16 8 17 9 18 10 19 11
REMARK SMILES IDX 20 12 8 13 7 14 6 15 5 16 4 17 3 18 2 19 1 20
REMARK H PARENT
REMARK Flexibility Score: inf
ROOT
ATOM      1  C   UNL     1       6.868  -4.297  -2.251  1.00  0.00    -0.031 C 
ATOM      2  C   UNL     1       7.634  -4.914  -3.172  1.00  0.00    -0.031 C 
ENDROOT
BRANCH   1   3
ATOM      3  C   UNL     1       6.101  -5.001  -1.161  1.00  0.00     0.027 C 
BRANCH   3   4
ATOM      4  C   UNL     1       6.940  -5.106   0.118  1.00  0.00     0.004 C 
BRANCH   4   5
ATOM      5  C   UNL     1       6.802  -6.498   0.754  1.00  0.00     0.000 C 
BRANCH   5   6
ATOM      6  C   UNL     1       6.404  -6.436   2.237  1.00  0.00     0.000 C 
BRANCH   6   7
ATOM      7  C   UNL     1       5.795  -7.756   2.745  1.00  0.00     0.000 C 
BRANCH   7   8
ATOM      8  C   UNL     1       4.582  -7.535   3.661  1.00  0.00     0.006 C 
BRANCH   8   9
ATOM      9  C   UNL     1       3.545  -6.583   3.050  1.00  0.00     0.053 C 
BRANCH   9  10
ATOM     10  C   UNL     1       2.157  -7.035   3.377  1.00  0.00     0.041 C 
ATOM     11  O   UNL     1       1.582  -6.613   4.414  1.00  0.00    -0.550 OA
ATOM     12  O   UNL     1       1.488  -7.905   2.524  1.00  0.00    -0.550 OA
ENDBRANCH   9  10
ENDBRANCH   8   9
ENDBRANCH   7   8
ENDBRANCH   6   7
ENDBRANCH   5   6
ENDBRANCH   4   5
ENDBRANCH   3   4
ENDBRANCH   1   3
BRANCH   2  13
ATOM     13  C   UNL     1       7.901  -6.398  -3.208  1.00  0.00     0.027 C 
BRANCH  13  14
ATOM     14  C   UNL     1       6.841  -7.123  -4.049  1.00  0.00     0.004 C 
BRANCH  14  15
ATOM     15  C   UNL     1       6.020  -8.124  -3.222  1.00  0.00     0.000 C 
BRANCH  15  16
ATOM     16  C   UNL     1       6.898  -8.988  -2.302  1.00  0.00     0.000 C 
BRANCH  16  17
ATOM     17  C   UNL     1       6.093  -9.669  -1.181  1.00  0.00    -0.000 C 
BRANCH  17  18
ATOM     18  C   UNL     1       4.563  -9.567  -1.372  1.00  0.00    -0.000 C 
BRANCH  18  19
ATOM     19  C   UNL     1       3.835  -8.957  -0.163  1.00  0.00    -0.003 C 
ATOM     20  C   UNL     1       3.411  -7.509  -0.409  1.00  0.00     0.004 C 
ENDBRANCH  18  19
ENDBRANCH  17  18
ENDBRANCH  16  17
ENDBRANCH  15  16
ENDBRANCH  14  15
ENDBRANCH  13  14
ENDBRANCH   2  13
TORSDOF 15
ENDMDL
MODEL 8
REMARK VINA RESULT:    -3.561      2.892      6.033
REMARK INTER + INTRA:          -9.255
REMARK INTER:                  -6.655
REMARK INTRA:                  -2.599
REMARK UNBOUND:                -2.571
REMARK SMILES CCCCCCCCC=CCCCCCCCC(=O)[O-]
REMARK SMILES IDX 10 1 9 2 11 3 12 4 13 5 14 6 15 7 16 8 17 9 18 10 19 11
REMARK SMILES IDX 20 12 8 13 7 14 6 15 5 16 4 17 3 18 2 19 1 20
REMARK H PARENT
REMARK Flexibility Score: inf
ROOT
ATOM      1  C   UNL     1       4.006  -8.410  -0.825  1.00  0.00    -0.031 C 
ATOM      2  C   UNL     1       4.745  -7.869  -1.812  1.00  0.00    -0.031 C 
ENDROOT
BRANCH   1   3
ATOM      3  C   UNL     1       4.078  -9.852  -0.390  1.00  0.00     0.027 C 
BRANCH   3   4
ATOM      4  C   UNL     1       4.396  -9.956   1.107  1.00  0.00     0.004 C 
BRANCH   4   5
ATOM      5  C   UNL     1       5.566  -9.035   1.486  1.00  0.00     0.000 C 
BRANCH   5   6
ATOM      6  C   UNL     1       5.276  -8.191   2.736  1.00  0.00     0.000 C 
BRANCH   6   7
ATOM      7  C   UNL     1       4.878  -6.743   2.398  1.00  0.00     0.000 C 
BRANCH   7   8
ATOM      8  C   UNL     1       3.358  -6.559   2.270  1.00  0.00     0.006 C 
BRANCH   8   9
ATOM      9  C   UNL     1       2.587  -7.181   3.442  1.00  0.00     0.053 C 
BRANCH   9  10
ATOM     10  C   UNL     1       1.462  -8.031   2.942  1.00  0.00     0.041 C 
ATOM     11  O   UNL     1       0.627  -8.516   3.750  1.00  0.00    -0.550 OA
ATOM     12  O   UNL     1       1.321  -8.269   1.580  1.00  0.00    -0.550 OA
ENDBRANCH   9  10
ENDBRANCH   8   9
ENDBRANCH   7   8
ENDBRANCH   6   7
ENDBRANCH   5   6
ENDBRANCH   4   5
ENDBRANCH   3   4
ENDBRANCH   1   3
BRANCH   2  13
ATOM     13  C   UNL     1       5.812  -8.604  -2.584  1.00  0.00     0.027 C 
BRANCH  13  14
ATOM     14  C   UNL     1       7.200  -8.338  -1.984  1.00  0.00     0.004 C 
BRANCH  14  15
ATOM     15  C   UNL     1       8.109  -7.546  -2.936  1.00  0.00     0.000 C 
BRANCH  15  16
ATOM     16  C   UNL     1       7.411  -6.308  -3.523  1.00  0.00     0.000 C 
BRANCH  16  17
ATOM     17  C   UNL     1       7.855  -4.999  -2.848  1.00  0.00    -0.000 C 
BRANCH  17  18
ATOM     18  C   UNL     1       6.701  -4.243  -2.153  1.00  0.00    -0.000 C 
BRANCH  18  19
ATOM     19  C   UNL     1       6.268  -4.880  -0.821  1.00  0.00    -0.003 C 
ATOM     20  C   UNL     1       7.460  -5.235   0.068  1.00  0.00     0.004 C 
ENDBRANCH  18  19
ENDBRANCH  17  18
ENDBRANCH  16  17
ENDBRANCH  15  16
ENDBRANCH  14  15
ENDBRANCH  13  14
ENDBRANCH   2  13
TORSDOF 15
ENDMDL
MODEL 9
REMARK VINA RESULT:    -3.545      1.461      2.333
REMARK INTER + INTRA:          -9.225
REMARK INTER:                  -6.765
REMARK INTRA:                  -2.460
REMARK UNBOUND:                -2.571
REMARK SMILES CCCCCCCCC=CCCCCCCCC(=O)[O-]
REMARK SMILES IDX 10 1 9 2 11 3 12 4 13 5 14 6 15 7 16 8 17 9 18 10 19 11
REMARK SMILES IDX 20 12 8 13 7 14 6 15 5 16 4 17 3 18 2 19 1 20
REMARK H PARENT
REMARK Flexibility Score: inf
ROOT
ATOM      1  C   UNL     1       2.137  -9.084   0.666  1.00  0.00    -0.031 C 
ATOM      2  C   UNL     1       1.279  -8.736   1.646  1.00  0.00    -0.031 C 
ENDROOT
BRANCH   1   3
ATOM      3  C   UNL     1       3.116 -10.227   0.750  1.00  0.00     0.027 C 
BRANCH   3   4
ATOM      4  C   UNL     1       4.493  -9.807   0.224  1.00  0.00     0.004 C 
BRANCH   4   5
ATOM      5  C   UNL     1       4.389  -9.245  -1.203  1.00  0.00     0.000 C 
BRANCH   5   6
ATOM      6  C   UNL     1       5.190  -7.947  -1.390  1.00  0.00     0.000 C 
BRANCH   6   7
ATOM      7  C   UNL     1       5.530  -7.665  -2.865  1.00  0.00     0.000 C 
BRANCH   7   8
ATOM      8  C   UNL     1       6.894  -6.978  -3.038  1.00  0.00     0.006 C 
BRANCH   8   9
ATOM      9  C   UNL     1       7.251  -6.065  -1.858  1.00  0.00     0.053 C 
BRANCH   9  10
ATOM     10  C   UNL     1       6.825  -4.658  -2.133  1.00  0.00     0.041 C 
ATOM     11  O   UNL     1       5.870  -4.148  -1.490  1.00  0.00    -0.550 OA
ATOM     12  O   UNL     1       7.498  -3.899  -3.083  1.00  0.00    -0.550 OA
ENDBRANCH   9  10
ENDBRANCH   8   9
ENDBRANCH   7   8
ENDBRANCH   6   7
ENDBRANCH   5   6
ENDBRANCH   4   5
ENDBRANCH   3   4
ENDBRANCH   1   3
BRANCH   2  13
ATOM     13  C   UNL     1       1.115  -9.483   2.946  1.00  0.00     0.027 C 
BRANCH  13  14
ATOM     14  C   UNL     1       1.720  -8.688   4.111  1.00  0.00     0.004 C 
BRANCH  14  15
ATOM     15  C   UNL     1       3.215  -8.983   4.308  1.00  0.00     0.000 C 
BRANCH  15  16
ATOM     16  C   UNL     1       4.070  -7.705   4.331  1.00  0.00     0.000 C 
BRANCH  16  17
ATOM     17  C   UNL     1       3.565  -6.635   3.347  1.00  0.00    -0.000 C 
BRANCH  17  18
ATOM     18  C   UNL     1       4.389  -6.561   2.042  1.00  0.00    -0.000 C 
BRANCH  18  19
ATOM     19  C   UNL     1       5.857  -6.983   2.222  1.00  0.00    -0.003 C 
ATOM     20  C   UNL     1       6.834  -5.891   1.786  1.00  0.00     0.004 C 
ENDBRANCH  18  19
ENDBRANCH  17  18
ENDBRANCH  16  17
ENDBRANCH  15  16
ENDBRANCH  14  15
ENDBRANCH  13  14
ENDBRANCH   2  13
TORSDOF 15
ENDMDL
