MODEL 1
REMARK VINA RESULT:    -3.896      0.000      0.000
REMARK INTER + INTRA:         -11.374
REMARK INTER:                  -8.223
REMARK INTRA:                  -3.151
REMARK UNBOUND:                -3.151
REMARK SMILES CCC(=O)CCCCC[C@@H]1NC(=O)[C@H]2CCCCN2C(=O)[C@H]([C@@H](C)CC)NC(=O)[C@@H](Cc2cn(OC)c3ccccc23)NC1=O
REMARK SMILES IDX 9 1 10 2 44 3 43 4 45 6 30 7 28 8 27 9 29 11 22 12 23 14
REMARK SMILES IDX 24 15 25 16 26 17 31 18 32 19 33 20 42 21 34 22 37 23 41 24
REMARK SMILES IDX 38 25 40 26 39 27 35 28 36 29 11 30 12 31 13 33 14 34 19 35
REMARK SMILES IDX 15 36 18 37 16 38 17 39 20 40 21 41 8 43 7 44 6 45 5 46 3 47
REMARK SMILES IDX 4 48 2 49 1 50
REMARK H PARENT 43 5 27 10 11 32
REMARK Flexibility Score: 80.00
ROOT
ATOM      1  C   UNL     1      52.626  48.152  51.748  1.00  0.00     0.035 C 
ENDROOT
BRANCH   1   2
ATOM      2  C   UNL     1      53.660  49.266  51.457  1.00  0.00     0.171 C 
BRANCH   2   3
ATOM      3  C   UNL     1      54.802  48.784  50.598  1.00  0.00     0.243 C 
ATOM      4  N   UNL     1      54.626  48.546  49.193  1.00  0.00    -0.342 N 
ATOM      5  H   UNL     1      53.644  48.478  48.845  1.00  0.00     0.164 HD
ATOM      6  O   UNL     1      55.911  48.556  51.147  1.00  0.00    -0.273 OA
BRANCH   4   7
ATOM      7  C   UNL     1      55.651  48.709  48.156  1.00  0.00     0.175 C 
BRANCH   7   8
ATOM      8  C   UNL     1      56.123  50.136  48.151  1.00  0.00     0.243 C 
ATOM      9  N   UNL     1      55.301  51.132  47.518  1.00  0.00    -0.342 N 
ATOM     10  H   UNL     1      54.477  50.768  46.991  1.00  0.00     0.164 HD
ATOM     11  O   UNL     1      57.213  50.459  48.712  1.00  0.00    -0.273 OA
BRANCH   9  12
ATOM     12  C   UNL     1      55.245  52.521  47.993  1.00  0.00     0.174 CG0
ATOM     13  G   UNL     1      53.821  52.878  48.322  1.00  0.00     0.000 G0
BRANCH  12  14
ATOM     14  C   UNL     1      55.861  53.531  46.964  1.00  0.00     0.018 C 
ATOM     15  C   UNL     1      57.035  54.299  47.618  1.00  0.00     0.010 C 
BRANCH  14  16
ATOM     16  C   UNL     1      56.287  52.879  45.619  1.00  0.00     0.002 C 
ATOM     17  C   UNL     1      56.912  53.882  44.639  1.00  0.00     0.004 C 
ENDBRANCH  14  16
ENDBRANCH  12  14
ENDBRANCH   9  12
ENDBRANCH   7   8
BRANCH   7  18
ATOM     18  C   UNL     1      56.796  47.674  48.239  1.00  0.00     0.073 C 
BRANCH  18  19
ATOM     19  C   UNL     1      56.352  46.332  47.738  1.00  0.00    -0.016 A 
ATOM     20  C   UNL     1      55.930  46.026  46.449  1.00  0.00     0.134 A 
ATOM     21  C   UNL     1      56.120  45.189  48.483  1.00  0.00     0.006 A 
ATOM     22  N   UNL     1      55.477  44.750  46.382  1.00  0.00    -0.191 N 
ATOM     23  C   UNL     1      55.592  44.234  47.634  1.00  0.00     0.087 A 
ATOM     24  C   UNL     1      56.300  44.963  49.849  1.00  0.00     0.011 A 
ATOM     25  C   UNL     1      55.220  42.978  48.130  1.00  0.00     0.030 A 
ATOM     26  C   UNL     1      55.926  43.706  50.357  1.00  0.00     0.001 A 
ATOM     27  C   UNL     1      55.397  42.722  49.505  1.00  0.00     0.002 A 
BRANCH  22  28
ATOM     28  O   UNL     1      54.956  44.208  45.219  1.00  0.00    -0.417 OA
ATOM     29  C   UNL     1      53.666  44.469  44.707  1.00  0.00     0.313 C 
ENDBRANCH  22  28
ENDBRANCH  18  19
ENDBRANCH   7  18
ENDBRANCH   4   7
ENDBRANCH   2   3
BRANCH   2  30
ATOM     30  N   UNL     1      53.034  50.471  50.887  1.00  0.00    -0.343 N 
ATOM     31  C   UNL     1      53.635  51.770  51.012  1.00  0.00     0.243 C 
ATOM     32  H   UNL     1      52.053  50.420  50.534  1.00  0.00     0.164 HD
ATOM     33  O   UNL     1      54.824  51.872  51.422  1.00  0.00    -0.273 OA
BRANCH  31  34
ATOM     34  C   UNL     1      52.868  53.025  50.655  1.00  0.00     0.174 C 
ATOM     35  N   UNL     1      53.450  53.680  49.466  1.00  0.00    -0.329 N 
ATOM     36  C   UNL     1      52.867  53.956  51.891  1.00  0.00     0.035 C 
ATOM     37  C   UNL     1      53.125  55.089  49.186  1.00  0.00     0.120 C 
ATOM     38  C   UNL     1      52.356  55.355  51.560  1.00  0.00     0.004 C 
ATOM     39  C   UNL     1      53.217  55.950  50.450  1.00  0.00     0.022 C 
BRANCH  35  40
ATOM     40  C   UNL     1      53.786  52.858  48.333  1.00  0.00     0.246 CG0
ATOM     41  O   UNL     1      52.869  52.375  47.609  1.00  0.00    -0.272 OA
ATOM     42  G   UNL     1      55.225  52.542  48.027  1.00  0.00     0.000 G0
ENDBRANCH  35  40
ENDBRANCH  31  34
ENDBRANCH   2  30
ENDBRANCH   1   2
BRANCH   1  43
ATOM     43  C   UNL     1      53.237  46.756  51.986  1.00  0.00     0.003 C 
BRANCH  43  44
ATOM     44  C   UNL     1      52.821  45.735  50.918  1.00  0.00     0.001 C 
BRANCH  44  45
ATOM     45  C   UNL     1      52.564  44.341  51.504  1.00  0.00     0.008 C 
BRANCH  45  46
ATOM     46  C   UNL     1      52.173  44.396  52.989  1.00  0.00     0.075 C 
BRANCH  46  47
ATOM     47  C   UNL     1      53.252  43.874  53.912  1.00  0.00     0.132 C 
ATOM     48  O   UNL     1      54.397  44.305  53.820  1.00  0.00    -0.300 OA
BRANCH  47  49
ATOM     49  C   UNL     1      52.892  42.934  55.043  1.00  0.00     0.072 C 
ATOM     50  C   UNL     1      51.625  42.121  54.746  1.00  0.00     0.012 C 
ENDBRANCH  47  49
ENDBRANCH  46  47
ENDBRANCH  45  46
ENDBRANCH  44  45
ENDBRANCH  43  44
ENDBRANCH   1  43
TORSDOF 12
ENDMDL
MODEL 2
REMARK VINA RESULT:    -3.765      3.986      9.681
REMARK INTER + INTRA:         -11.099
REMARK INTER:                  -8.185
REMARK INTRA:                  -2.914
REMARK UNBOUND:                -3.151
REMARK SMILES CCC(=O)CCCCC[C@@H]1NC(=O)[C@H]2CCCCN2C(=O)[C@H]([C@@H](C)CC)NC(=O)[C@@H](Cc2cn(OC)c3ccccc23)NC1=O
REMARK SMILES IDX 9 1 10 2 44 3 43 4 45 6 30 7 28 8 27 9 29 11 22 12 23 14
REMARK SMILES IDX 24 15 25 16 26 17 31 18 32 19 33 20 42 21 34 22 37 23 41 24
REMARK SMILES IDX 38 25 40 26 39 27 35 28 36 29 11 30 12 31 13 33 14 34 19 35
REMARK SMILES IDX 15 36 18 37 16 38 17 39 20 40 21 41 8 43 7 44 6 45 5 46 3 47
REMARK SMILES IDX 4 48 2 49 1 50
REMARK H PARENT 43 5 27 10 11 32
REMARK Flexibility Score: 80.00
ROOT
ATOM      1  C   UNL     1      53.931  51.174  49.474  1.00  0.00     0.035 C 
ENDROOT
BRANCH   1   2
ATOM      2  C   UNL     1      54.736  49.944  49.958  1.00  0.00     0.171 C 
BRANCH   2   3
ATOM      3  C   UNL     1      55.112  50.037  51.415  1.00  0.00     0.243 C 
ATOM      4  N   UNL     1      54.121  49.911  52.448  1.00  0.00    -0.342 N 
ATOM      5  H   UNL     1      53.123  50.004  52.157  1.00  0.00     0.164 HD
ATOM      6  O   UNL     1      56.313  50.265  51.712  1.00  0.00    -0.273 OA
BRANCH   4   7
ATOM      7  C   UNL     1      54.338  49.355  53.787  1.00  0.00     0.175 C 
BRANCH   7   8
ATOM      8  C   UNL     1      54.762  47.918  53.660  1.00  0.00     0.243 C 
ATOM      9  N   UNL     1      53.787  46.944  53.250  1.00  0.00    -0.342 N 
ATOM     10  H   UNL     1      52.804  47.290  53.184  1.00  0.00     0.164 HD
ATOM     11  O   UNL     1      55.961  47.575  53.889  1.00  0.00    -0.273 OA
BRANCH   9  12
ATOM     12  C   UNL     1      54.144  45.760  52.457  1.00  0.00     0.174 CG0
ATOM     13  G   UNL     1      53.286  45.710  51.223  1.00  0.00     0.000 G0
BRANCH  12  14
ATOM     14  C   UNL     1      54.034  44.433  53.282  1.00  0.00     0.018 C 
ATOM     15  C   UNL     1      55.427  44.029  53.820  1.00  0.00     0.010 C 
BRANCH  14  16
ATOM     16  C   UNL     1      52.977  44.483  54.420  1.00  0.00     0.002 C 
ATOM     17  C   UNL     1      51.975  43.322  54.359  1.00  0.00     0.004 C 
ENDBRANCH  14  16
ENDBRANCH  12  14
ENDBRANCH   9  12
ENDBRANCH   7   8
BRANCH   7  18
ATOM     18  C   UNL     1      55.274  50.205  54.675  1.00  0.00     0.073 C 
BRANCH  18  19
ATOM     19  C   UNL     1      54.662  50.460  56.021  1.00  0.00    -0.016 A 
ATOM     20  C   UNL     1      54.163  51.669  56.489  1.00  0.00     0.134 A 
ATOM     21  C   UNL     1      54.623  49.599  57.105  1.00  0.00     0.006 A 
ATOM     22  N   UNL     1      53.807  51.569  57.794  1.00  0.00    -0.191 N 
ATOM     23  C   UNL     1      54.092  50.296  58.174  1.00  0.00     0.087 A 
ATOM     24  C   UNL     1      55.065  48.279  57.212  1.00  0.00     0.011 A 
ATOM     25  C   UNL     1      53.970  49.679  59.426  1.00  0.00     0.030 A 
ATOM     26  C   UNL     1      54.950  47.653  58.467  1.00  0.00     0.001 A 
ATOM     27  C   UNL     1      54.403  48.345  59.560  1.00  0.00     0.002 A 
BRANCH  22  28
ATOM     28  O   UNL     1      53.321  52.647  58.514  1.00  0.00    -0.417 OA
ATOM     29  C   UNL     1      54.111  53.677  59.068  1.00  0.00     0.313 C 
ENDBRANCH  22  28
ENDBRANCH  18  19
ENDBRANCH   7  18
ENDBRANCH   4   7
ENDBRANCH   2   3
BRANCH   2  30
ATOM     30  N   UNL     1      54.046  48.677  49.663  1.00  0.00    -0.343 N 
ATOM     31  C   UNL     1      54.768  47.458  49.422  1.00  0.00     0.243 C 
ATOM     32  H   UNL     1      53.023  48.688  49.453  1.00  0.00     0.164 HD
ATOM     33  O   UNL     1      56.002  47.402  49.677  1.00  0.00    -0.273 OA
BRANCH  31  34
ATOM     34  C   UNL     1      54.071  46.233  48.871  1.00  0.00     0.174 C 
ATOM     35  N   UNL     1      53.823  45.242  49.937  1.00  0.00    -0.329 N 
ATOM     36  C   UNL     1      54.945  45.656  47.731  1.00  0.00     0.035 C 
ATOM     37  C   UNL     1      53.528  43.846  49.571  1.00  0.00     0.120 C 
ATOM     38  C   UNL     1      54.475  44.274  47.286  1.00  0.00     0.004 C 
ATOM     39  C   UNL     1      54.484  43.334  48.488  1.00  0.00     0.022 C 
BRANCH  35  40
ATOM     40  C   UNL     1      53.281  45.709  51.187  1.00  0.00     0.246 CG0
ATOM     41  O   UNL     1      52.081  46.103  51.247  1.00  0.00    -0.272 OA
ATOM     42  G   UNL     1      54.149  45.762  52.415  1.00  0.00     0.000 G0
ENDBRANCH  35  40
ENDBRANCH  31  34
ENDBRANCH   2  30
ENDBRANCH   1   2
BRANCH   1  43
ATOM     43  C   UNL     1      54.554  51.918  48.275  1.00  0.00     0.003 C 
BRANCH  43  44
ATOM     44  C   UNL     1      54.823  53.400  48.569  1.00  0.00     0.001 C 
BRANCH  44  45
ATOM     45  C   UNL     1      53.543  54.246  48.552  1.00  0.00     0.008 C 
BRANCH  45  46
ATOM     46  C   UNL     1      53.404  55.117  49.810  1.00  0.00     0.075 C 
BRANCH  46  47
ATOM     47  C   UNL     1      53.227  54.313  51.079  1.00  0.00     0.132 C 
ATOM     48  O   UNL     1      52.209  53.650  51.245  1.00  0.00    -0.300 OA
BRANCH  47  49
ATOM     49  C   UNL     1      54.363  54.208  52.075  1.00  0.00     0.072 C 
ATOM     50  C   UNL     1      53.917  53.587  53.406  1.00  0.00     0.012 C 
ENDBRANCH  47  49
ENDBRANCH  46  47
ENDBRANCH  45  46
ENDBRANCH  44  45
ENDBRANCH  43  44
ENDBRANCH   1  43
TORSDOF 12
ENDMDL
MODEL 3
REMARK VINA RESULT:    -3.758      2.211      2.850
REMARK INTER + INTRA:         -11.084
REMARK INTER:                  -7.196
REMARK INTRA:                  -3.887
REMARK UNBOUND:                -3.151
REMARK SMILES CCC(=O)CCCCC[C@@H]1NC(=O)[C@H]2CCCCN2C(=O)[C@H]([C@@H](C)CC)NC(=O)[C@@H](Cc2cn(OC)c3ccccc23)NC1=O
REMARK SMILES IDX 9 1 10 2 44 3 43 4 45 6 30 7 28 8 27 9 29 11 22 12 23 14
REMARK SMILES IDX 24 15 25 16 26 17 31 18 32 19 33 20 42 21 34 22 37 23 41 24
REMARK SMILES IDX 38 25 40 26 39 27 35 28 36 29 11 30 12 31 13 33 14 34 19 35
REMARK SMILES IDX 15 36 18 37 16 38 17 39 20 40 21 41 8 43 7 44 6 45 5 46 3 47
REMARK SMILES IDX 4 48 2 49 1 50
REMARK H PARENT 43 5 27 10 11 32
REMARK Flexibility Score: 80.00
ROOT
ATOM      1  C   UNL     1      54.905  49.065  54.185  1.00  0.00     0.035 C 
ENDROOT
BRANCH   1   2
ATOM      2  C   UNL     1      55.472  50.327  53.493  1.00  0.00     0.171 C 
BRANCH   2   3
ATOM      3  C   UNL     1      55.959  50.048  52.093  1.00  0.00     0.243 C 
ATOM      4  N   UNL     1      55.037  49.797  51.021  1.00  0.00    -0.342 N 
ATOM      5  H   UNL     1      54.053  49.570  51.289  1.00  0.00     0.164 HD
ATOM      6  O   UNL     1      57.199  50.002  51.887  1.00  0.00    -0.273 OA
BRANCH   4   7
ATOM      7  C   UNL     1      55.242  50.136  49.609  1.00  0.00     0.175 C 
BRANCH   7   8
ATOM      8  C   UNL     1      55.412  51.624  49.481  1.00  0.00     0.243 C 
ATOM      9  N   UNL     1      54.240  52.457  49.497  1.00  0.00    -0.342 N 
ATOM     10  H   UNL     1      53.327  51.950  49.476  1.00  0.00     0.164 HD
ATOM     11  O   UNL     1      56.568  52.137  49.380  1.00  0.00    -0.273 OA
BRANCH   9  12
ATOM     12  C   UNL     1      54.251  53.816  50.054  1.00  0.00     0.174 CG0
ATOM     13  G   UNL     1      53.308  53.882  51.224  1.00  0.00     0.000 G0
BRANCH  12  14
ATOM     14  C   UNL     1      53.903  54.904  48.981  1.00  0.00     0.018 C 
ATOM     15  C   UNL     1      55.191  55.638  48.537  1.00  0.00     0.010 C 
BRANCH  14  16
ATOM     16  C   UNL     1      53.112  54.356  47.760  1.00  0.00     0.002 C 
ATOM     17  C   UNL     1      53.108  55.322  46.567  1.00  0.00     0.004 C 
ENDBRANCH  14  16
ENDBRANCH  12  14
ENDBRANCH   9  12
ENDBRANCH   7   8
BRANCH   7  18
ATOM     18  C   UNL     1      56.362  49.319  48.926  1.00  0.00     0.073 C 
BRANCH  18  19
ATOM     19  C   UNL     1      56.014  47.861  48.870  1.00  0.00    -0.016 A 
ATOM     20  C   UNL     1      55.010  47.277  48.107  1.00  0.00     0.134 A 
ATOM     21  C   UNL     1      56.503  46.847  49.675  1.00  0.00     0.006 A 
ATOM     22  N   UNL     1      54.888  45.958  48.401  1.00  0.00    -0.191 N 
ATOM     23  C   UNL     1      55.806  45.694  49.367  1.00  0.00     0.087 A 
ATOM     24  C   UNL     1      57.475  46.893  50.677  1.00  0.00     0.011 A 
ATOM     25  C   UNL     1      56.066  44.506  50.063  1.00  0.00     0.030 A 
ATOM     26  C   UNL     1      57.741  45.706  51.384  1.00  0.00     0.001 A 
ATOM     27  C   UNL     1      57.047  44.524  51.075  1.00  0.00     0.002 A 
BRANCH  22  28
ATOM     28  O   UNL     1      53.928  45.153  47.811  1.00  0.00    -0.417 OA
ATOM     29  C   UNL     1      53.618  45.134  46.434  1.00  0.00     0.313 C 
ENDBRANCH  22  28
ENDBRANCH  18  19
ENDBRANCH   7  18
ENDBRANCH   4   7
ENDBRANCH   2   3
BRANCH   2  30
ATOM     30  N   UNL     1      54.518  51.449  53.514  1.00  0.00    -0.343 N 
ATOM     31  C   UNL     1      54.949  52.813  53.381  1.00  0.00     0.243 C 
ATOM     32  H   UNL     1      53.530  51.275  53.801  1.00  0.00     0.164 HD
ATOM     33  O   UNL     1      56.132  53.063  53.022  1.00  0.00    -0.273 OA
BRANCH  31  34
ATOM     34  C   UNL     1      54.004  53.962  53.660  1.00  0.00     0.174 C 
ATOM     35  N   UNL     1      53.664  54.681  52.415  1.00  0.00    -0.329 N 
ATOM     36  C   UNL     1      54.671  54.890  54.704  1.00  0.00     0.035 C 
ATOM     37  C   UNL     1      53.097  56.038  52.497  1.00  0.00     0.120 C 
ATOM     38  C   UNL     1      53.928  56.214  54.859  1.00  0.00     0.004 C 
ATOM     39  C   UNL     1      53.860  56.907  53.502  1.00  0.00     0.022 C 
BRANCH  35  40
ATOM     40  C   UNL     1      53.312  53.904  51.256  1.00  0.00     0.246 CG0
ATOM     41  O   UNL     1      52.216  53.275  51.227  1.00  0.00    -0.272 OA
ATOM     42  G   UNL     1      54.260  53.809  50.092  1.00  0.00     0.000 G0
ENDBRANCH  35  40
ENDBRANCH  31  34
ENDBRANCH   2  30
ENDBRANCH   1   2
BRANCH   1  43
ATOM     43  C   UNL     1      55.666  47.762  53.868  1.00  0.00     0.003 C 
BRANCH  43  44
ATOM     44  C   UNL     1      54.737  46.622  53.429  1.00  0.00     0.001 C 
BRANCH  44  45
ATOM     45  C   UNL     1      53.801  47.032  52.285  1.00  0.00     0.008 C 
BRANCH  45  46
ATOM     46  C   UNL     1      52.383  46.467  52.464  1.00  0.00     0.075 C 
BRANCH  46  47
ATOM     47  C   UNL     1      52.258  45.018  52.049  1.00  0.00     0.132 C 
ATOM     48  O   UNL     1      52.730  44.645  50.979  1.00  0.00    -0.300 OA
BRANCH  47  49
ATOM     49  C   UNL     1      51.685  44.000  53.012  1.00  0.00     0.072 C 
ATOM     50  C   UNL     1      51.855  44.423  54.478  1.00  0.00     0.012 C 
ENDBRANCH  47  49
ENDBRANCH  46  47
ENDBRANCH  45  46
ENDBRANCH  44  45
ENDBRANCH  43  44
ENDBRANCH   1  43
TORSDOF 12
ENDMDL
MODEL 4
REMARK VINA RESULT:    -3.704      4.459      9.471
REMARK INTER + INTRA:         -10.968
REMARK INTER:                  -8.022
REMARK INTRA:                  -2.946
REMARK UNBOUND:                -3.151
REMARK SMILES CCC(=O)CCCCC[C@@H]1NC(=O)[C@H]2CCCCN2C(=O)[C@H]([C@@H](C)CC)NC(=O)[C@@H](Cc2cn(OC)c3ccccc23)NC1=O
REMARK SMILES IDX 9 1 10 2 44 3 43 4 45 6 30 7 28 8 27 9 29 11 22 12 23 14
REMARK SMILES IDX 24 15 25 16 26 17 31 18 32 19 33 20 42 21 34 22 37 23 41 24
REMARK SMILES IDX 38 25 40 26 39 27 35 28 36 29 11 30 12 31 13 33 14 34 19 35
REMARK SMILES IDX 15 36 18 37 16 38 17 39 20 40 21 41 8 43 7 44 6 45 5 46 3 47
REMARK SMILES IDX 4 48 2 49 1 50
REMARK H PARENT 43 5 27 10 11 32
REMARK Flexibility Score: 80.00
ROOT
ATOM      1  C   UNL     1      54.194  54.622  53.880  1.00  0.00     0.035 C 
ENDROOT
BRANCH   1   2
ATOM      2  C   UNL     1      55.141  53.429  53.609  1.00  0.00     0.171 C 
BRANCH   2   3
ATOM      3  C   UNL     1      55.254  52.501  54.792  1.00  0.00     0.243 C 
ATOM      4  N   UNL     1      54.143  51.692  55.211  1.00  0.00    -0.342 N 
ATOM      5  H   UNL     1      53.204  51.950  54.835  1.00  0.00     0.164 HD
ATOM      6  O   UNL     1      56.336  52.474  55.434  1.00  0.00    -0.273 OA
BRANCH   4   7
ATOM      7  C   UNL     1      54.228  50.370  55.841  1.00  0.00     0.175 C 
BRANCH   7   8
ATOM      8  C   UNL     1      54.719  49.374  54.828  1.00  0.00     0.243 C 
ATOM      9  N   UNL     1      53.956  49.179  53.625  1.00  0.00    -0.342 N 
ATOM     10  H   UNL     1      53.033  49.666  53.593  1.00  0.00     0.164 HD
ATOM     11  O   UNL     1      55.795  48.732  55.022  1.00  0.00    -0.273 OA
BRANCH   9  12
ATOM     12  C   UNL     1      54.585  48.830  52.344  1.00  0.00     0.174 CG0
ATOM     13  G   UNL     1      54.115  49.787  51.282  1.00  0.00     0.000 G0
BRANCH  12  14
ATOM     14  C   UNL     1      54.315  47.343  51.931  1.00  0.00     0.018 C 
ATOM     15  C   UNL     1      55.621  46.520  52.039  1.00  0.00     0.010 C 
BRANCH  14  16
ATOM     16  C   UNL     1      53.153  46.671  52.714  1.00  0.00     0.002 C 
ATOM     17  C   UNL     1      52.314  45.723  51.846  1.00  0.00     0.004 C 
ENDBRANCH  14  16
ENDBRANCH  12  14
ENDBRANCH   9  12
ENDBRANCH   7   8
BRANCH   7  18
ATOM     18  C   UNL     1      55.024  50.358  57.165  1.00  0.00     0.073 C 
BRANCH  18  19
ATOM     19  C   UNL     1      54.191  49.828  58.295  1.00  0.00    -0.016 A 
ATOM     20  C   UNL     1      53.484  50.579  59.226  1.00  0.00     0.134 A 
ATOM     21  C   UNL     1      54.094  48.517  58.727  1.00  0.00     0.006 A 
ATOM     22  N   UNL     1      52.950  49.779  60.183  1.00  0.00    -0.191 N 
ATOM     23  C   UNL     1      53.327  48.510  59.878  1.00  0.00     0.087 A 
ATOM     24  C   UNL     1      54.671  47.359  58.202  1.00  0.00     0.011 A 
ATOM     25  C   UNL     1      53.094  47.310  60.562  1.00  0.00     0.030 A 
ATOM     26  C   UNL     1      54.446  46.150  58.885  1.00  0.00     0.001 A 
ATOM     27  C   UNL     1      53.661  46.126  60.050  1.00  0.00     0.002 A 
BRANCH  22  28
ATOM     28  O   UNL     1      52.234  50.284  61.256  1.00  0.00    -0.417 OA
ATOM     29  C   UNL     1      52.188  51.643  61.635  1.00  0.00     0.313 C 
ENDBRANCH  22  28
ENDBRANCH  18  19
ENDBRANCH   7  18
ENDBRANCH   4   7
ENDBRANCH   2   3
BRANCH   2  30
ATOM     30  N   UNL     1      54.774  52.695  52.386  1.00  0.00    -0.343 N 
ATOM     31  C   UNL     1      55.767  52.141  51.507  1.00  0.00     0.243 C 
ATOM     32  H   UNL     1      53.786  52.719  52.052  1.00  0.00     0.164 HD
ATOM     33  O   UNL     1      56.970  52.082  51.882  1.00  0.00    -0.273 OA
BRANCH  31  34
ATOM     34  C   UNL     1      55.395  51.620  50.136  1.00  0.00     0.174 C 
ATOM     35  N   UNL     1      55.013  50.195  50.198  1.00  0.00    -0.329 N 
ATOM     36  C   UNL     1      56.595  51.861  49.188  1.00  0.00     0.035 C 
ATOM     37  C   UNL     1      55.000  49.397  48.960  1.00  0.00     0.120 C 
ATOM     38  C   UNL     1      56.432  51.137  47.855  1.00  0.00     0.004 C 
ATOM     39  C   UNL     1      56.256  49.644  48.118  1.00  0.00     0.022 C 
BRANCH  35  40
ATOM     40  C   UNL     1      54.118  49.776  51.245  1.00  0.00     0.246 CG0
ATOM     41  O   UNL     1      52.931  50.210  51.272  1.00  0.00    -0.272 OA
ATOM     42  G   UNL     1      54.600  48.850  52.328  1.00  0.00     0.000 G0
ENDBRANCH  35  40
ENDBRANCH  31  34
ENDBRANCH   2  30
ENDBRANCH   1   2
BRANCH   1  43
ATOM     43  C   UNL     1      54.462  55.866  53.010  1.00  0.00     0.003 C 
BRANCH  43  44
ATOM     44  C   UNL     1      53.186  56.437  52.378  1.00  0.00     0.001 C 
BRANCH  44  45
ATOM     45  C   UNL     1      53.235  56.435  50.844  1.00  0.00     0.008 C 
BRANCH  45  46
ATOM     46  C   UNL     1      52.964  55.041  50.255  1.00  0.00     0.075 C 
BRANCH  46  47
ATOM     47  C   UNL     1      53.603  54.829  48.901  1.00  0.00     0.132 C 
ATOM     48  O   UNL     1      54.767  55.167  48.714  1.00  0.00    -0.300 OA
BRANCH  47  49
ATOM     49  C   UNL     1      52.859  54.068  47.822  1.00  0.00     0.072 C 
ATOM     50  C   UNL     1      52.468  52.653  48.270  1.00  0.00     0.012 C 
ENDBRANCH  47  49
ENDBRANCH  46  47
ENDBRANCH  45  46
ENDBRANCH  44  45
ENDBRANCH  43  44
ENDBRANCH   1  43
TORSDOF 12
ENDMDL
MODEL 5
REMARK VINA RESULT:    -3.645      3.710      9.928
REMARK INTER + INTRA:         -10.844
REMARK INTER:                  -7.461
REMARK INTRA:                  -3.383
REMARK UNBOUND:                -3.151
REMARK SMILES CCC(=O)CCCCC[C@@H]1NC(=O)[C@H]2CCCCN2C(=O)[C@H]([C@@H](C)CC)NC(=O)[C@@H](Cc2cn(OC)c3ccccc23)NC1=O
REMARK SMILES IDX 9 1 10 2 44 3 43 4 45 6 30 7 28 8 27 9 29 11 22 12 23 14
REMARK SMILES IDX 24 15 25 16 26 17 31 18 32 19 33 20 42 21 34 22 37 23 41 24
REMARK SMILES IDX 38 25 40 26 39 27 35 28 36 29 11 30 12 31 13 33 14 34 19 35
REMARK SMILES IDX 15 36 18 37 16 38 17 39 20 40 21 41 8 43 7 44 6 45 5 46 3 47
REMARK SMILES IDX 4 48 2 49 1 50
REMARK H PARENT 43 5 27 10 11 32
REMARK Flexibility Score: 80.00
ROOT
ATOM      1  C   UNL     1      53.822  50.606  50.019  1.00  0.00     0.035 C 
ENDROOT
BRANCH   1   2
ATOM      2  C   UNL     1      54.693  49.369  50.342  1.00  0.00     0.171 C 
BRANCH   2   3
ATOM      3  C   UNL     1      55.313  49.442  51.714  1.00  0.00     0.243 C 
ATOM      4  N   UNL     1      54.530  49.219  52.897  1.00  0.00    -0.342 N 
ATOM      5  H   UNL     1      53.492  49.254  52.788  1.00  0.00     0.164 HD
ATOM      6  O   UNL     1      56.532  49.741  51.808  1.00  0.00    -0.273 OA
BRANCH   4   7
ATOM      7  C   UNL     1      55.012  48.637  54.154  1.00  0.00     0.175 C 
BRANCH   7   8
ATOM      8  C   UNL     1      55.332  47.185  53.933  1.00  0.00     0.243 C 
ATOM      9  N   UNL     1      54.246  46.256  53.771  1.00  0.00    -0.342 N 
ATOM     10  H   UNL     1      53.292  46.643  53.942  1.00  0.00     0.164 HD
ATOM     11  O   UNL     1      56.535  46.791  53.869  1.00  0.00    -0.273 OA
BRANCH   9  12
ATOM     12  C   UNL     1      54.354  45.064  52.919  1.00  0.00     0.174 CG0
ATOM     13  G   UNL     1      53.373  45.174  51.784  1.00  0.00     0.000 G0
BRANCH  12  14
ATOM     14  C   UNL     1      54.147  43.734  53.722  1.00  0.00     0.018 C 
ATOM     15  C   UNL     1      55.395  42.831  53.576  1.00  0.00     0.010 C 
BRANCH  14  16
ATOM     16  C   UNL     1      53.774  43.950  55.215  1.00  0.00     0.002 C 
ATOM     17  C   UNL     1      54.961  43.741  56.166  1.00  0.00     0.004 C 
ENDBRANCH  14  16
ENDBRANCH  12  14
ENDBRANCH   9  12
ENDBRANCH   7   8
BRANCH   7  18
ATOM     18  C   UNL     1      56.159  49.435  54.815  1.00  0.00     0.073 C 
BRANCH  18  19
ATOM     19  C   UNL     1      55.637  50.654  55.518  1.00  0.00    -0.016 A 
ATOM     20  C   UNL     1      54.742  50.678  56.580  1.00  0.00     0.134 A 
ATOM     21  C   UNL     1      55.812  51.977  55.150  1.00  0.00     0.006 A 
ATOM     22  N   UNL     1      54.388  51.953  56.880  1.00  0.00    -0.191 N 
ATOM     23  C   UNL     1      55.044  52.752  55.999  1.00  0.00     0.087 A 
ATOM     24  C   UNL     1      56.555  52.521  54.101  1.00  0.00     0.011 A 
ATOM     25  C   UNL     1      54.996  54.143  55.833  1.00  0.00     0.030 A 
ATOM     26  C   UNL     1      56.510  53.916  53.924  1.00  0.00     0.001 A 
ATOM     27  C   UNL     1      55.742  54.718  54.785  1.00  0.00     0.002 A 
BRANCH  22  28
ATOM     28  O   UNL     1      53.470  52.253  57.873  1.00  0.00    -0.417 OA
ATOM     29  C   UNL     1      53.752  52.987  59.046  1.00  0.00     0.313 C 
ENDBRANCH  22  28
ENDBRANCH  18  19
ENDBRANCH   7  18
ENDBRANCH   4   7
ENDBRANCH   2   3
BRANCH   2  30
ATOM     30  N   UNL     1      53.959  48.106  50.153  1.00  0.00    -0.343 N 
ATOM     31  C   UNL     1      54.631  46.881  49.820  1.00  0.00     0.243 C 
ATOM     32  H   UNL     1      52.918  48.125  50.088  1.00  0.00     0.164 HD
ATOM     33  O   UNL     1      55.888  46.815  49.900  1.00  0.00    -0.273 OA
BRANCH  31  34
ATOM     34  C   UNL     1      53.855  45.658  49.378  1.00  0.00     0.174 C 
ATOM     35  N   UNL     1      53.740  44.679  50.477  1.00  0.00    -0.329 N 
ATOM     36  C   UNL     1      54.564  45.062  48.138  1.00  0.00     0.035 C 
ATOM     37  C   UNL     1      53.385  43.284  50.167  1.00  0.00     0.120 C 
ATOM     38  C   UNL     1      54.025  43.682  47.773  1.00  0.00     0.004 C 
ATOM     39  C   UNL     1      54.184  42.752  48.972  1.00  0.00     0.022 C 
BRANCH  35  40
ATOM     40  C   UNL     1      53.374  45.163  51.783  1.00  0.00     0.246 CG0
ATOM     41  O   UNL     1      52.249  45.710  51.961  1.00  0.00    -0.272 OA
ATOM     42  G   UNL     1      54.341  45.050  52.930  1.00  0.00     0.000 G0
ENDBRANCH  35  40
ENDBRANCH  31  34
ENDBRANCH   2  30
ENDBRANCH   1   2
BRANCH   1  43
ATOM     43  C   UNL     1      54.490  51.637  49.088  1.00  0.00     0.003 C 
BRANCH  43  44
ATOM     44  C   UNL     1      53.550  52.140  47.984  1.00  0.00     0.001 C 
BRANCH  44  45
ATOM     45  C   UNL     1      53.151  53.609  48.172  1.00  0.00     0.008 C 
BRANCH  45  46
ATOM     46  C   UNL     1      52.359  53.835  49.470  1.00  0.00     0.075 C 
BRANCH  46  47
ATOM     47  C   UNL     1      53.003  54.841  50.398  1.00  0.00     0.132 C 
ATOM     48  O   UNL     1      52.736  56.033  50.288  1.00  0.00    -0.300 OA
BRANCH  47  49
ATOM     49  C   UNL     1      53.860  54.366  51.553  1.00  0.00     0.072 C 
ATOM     50  C   UNL     1      53.106  53.409  52.485  1.00  0.00     0.012 C 
ENDBRANCH  47  49
ENDBRANCH  46  47
ENDBRANCH  45  46
ENDBRANCH  44  45
ENDBRANCH  43  44
ENDBRANCH   1  43
TORSDOF 12
ENDMDL
MODEL 6
REMARK VINA RESULT:    -3.627      3.819      9.879
REMARK INTER + INTRA:         -10.806
REMARK INTER:                  -8.377
REMARK INTRA:                  -2.429
REMARK UNBOUND:                -3.151
REMARK SMILES CCC(=O)CCCCC[C@@H]1NC(=O)[C@H]2CCCCN2C(=O)[C@H]([C@@H](C)CC)NC(=O)[C@@H](Cc2cn(OC)c3ccccc23)NC1=O
REMARK SMILES IDX 9 1 10 2 44 3 43 4 45 6 30 7 28 8 27 9 29 11 22 12 23 14
REMARK SMILES IDX 24 15 25 16 26 17 31 18 32 19 33 20 42 21 34 22 37 23 41 24
REMARK SMILES IDX 38 25 40 26 39 27 35 28 36 29 11 30 12 31 13 33 14 34 19 35
REMARK SMILES IDX 15 36 18 37 16 38 17 39 20 40 21 41 8 43 7 44 6 45 5 46 3 47
REMARK SMILES IDX 4 48 2 49 1 50
REMARK H PARENT 43 5 27 10 11 32
REMARK Flexibility Score: 80.00
ROOT
ATOM      1  C   UNL     1      53.769  51.133  49.766  1.00  0.00     0.035 C 
ENDROOT
BRANCH   1   2
ATOM      2  C   UNL     1      54.607  49.892  50.153  1.00  0.00     0.171 C 
BRANCH   2   3
ATOM      3  C   UNL     1      55.083  49.940  51.584  1.00  0.00     0.243 C 
ATOM      4  N   UNL     1      54.206  49.606  52.670  1.00  0.00    -0.342 N 
ATOM      5  H   UNL     1      53.184  49.575  52.459  1.00  0.00     0.164 HD
ATOM      6  O   UNL     1      56.261  50.317  51.812  1.00  0.00    -0.273 OA
BRANCH   4   7
ATOM      7  C   UNL     1      54.604  48.998  53.944  1.00  0.00     0.175 C 
BRANCH   7   8
ATOM      8  C   UNL     1      54.952  47.554  53.712  1.00  0.00     0.243 C 
ATOM      9  N   UNL     1      53.887  46.594  53.612  1.00  0.00    -0.342 N 
ATOM     10  H   UNL     1      52.932  46.955  53.833  1.00  0.00     0.164 HD
ATOM     11  O   UNL     1      56.161  47.193  53.585  1.00  0.00    -0.273 OA
BRANCH   9  12
ATOM     12  C   UNL     1      53.982  45.401  52.760  1.00  0.00     0.174 CG0
ATOM     13  G   UNL     1      53.181  45.619  51.506  1.00  0.00     0.000 G0
BRANCH  12  14
ATOM     14  C   UNL     1      53.530  44.097  53.504  1.00  0.00     0.018 C 
ATOM     15  C   UNL     1      54.771  43.304  53.978  1.00  0.00     0.010 C 
BRANCH  14  16
ATOM     16  C   UNL     1      52.536  44.349  54.672  1.00  0.00     0.002 C 
ATOM     17  C   UNL     1      51.214  43.588  54.507  1.00  0.00     0.004 C 
ENDBRANCH  14  16
ENDBRANCH  12  14
ENDBRANCH   9  12
ENDBRANCH   7   8
BRANCH   7  18
ATOM     18  C   UNL     1      55.694  49.788  54.703  1.00  0.00     0.073 C 
BRANCH  18  19
ATOM     19  C   UNL     1      55.101  50.936  55.465  1.00  0.00    -0.016 A 
ATOM     20  C   UNL     1      55.151  52.279  55.114  1.00  0.00     0.134 A 
ATOM     21  C   UNL     1      54.538  50.906  56.729  1.00  0.00     0.006 A 
ATOM     22  N   UNL     1      54.627  53.053  56.097  1.00  0.00    -0.191 N 
ATOM     23  C   UNL     1      54.252  52.208  57.092  1.00  0.00     0.087 A 
ATOM     24  C   UNL     1      54.313  49.821  57.580  1.00  0.00     0.011 A 
ATOM     25  C   UNL     1      53.706  52.485  58.352  1.00  0.00     0.030 A 
ATOM     26  C   UNL     1      53.769  50.090  58.849  1.00  0.00     0.001 A 
ATOM     27  C   UNL     1      53.464  51.408  59.228  1.00  0.00     0.002 A 
BRANCH  22  28
ATOM     28  O   UNL     1      54.599  54.435  56.016  1.00  0.00    -0.417 OA
ATOM     29  C   UNL     1      55.650  55.294  56.402  1.00  0.00     0.313 C 
ENDBRANCH  22  28
ENDBRANCH  18  19
ENDBRANCH   7  18
ENDBRANCH   4   7
ENDBRANCH   2   3
BRANCH   2  30
ATOM     30  N   UNL     1      53.900  48.632  49.867  1.00  0.00    -0.343 N 
ATOM     31  C   UNL     1      54.603  47.392  49.688  1.00  0.00     0.243 C 
ATOM     32  H   UNL     1      52.887  48.659  49.617  1.00  0.00     0.164 HD
ATOM     33  O   UNL     1      55.825  47.316  49.992  1.00  0.00    -0.273 OA
BRANCH  31  34
ATOM     34  C   UNL     1      53.901  46.166  49.144  1.00  0.00     0.174 C 
ATOM     35  N   UNL     1      53.689  45.163  50.207  1.00  0.00    -0.329 N 
ATOM     36  C   UNL     1      54.748  45.606  47.976  1.00  0.00     0.035 C 
ATOM     37  C   UNL     1      53.395  43.768  49.835  1.00  0.00     0.120 C 
ATOM     38  C   UNL     1      54.276  44.225  47.530  1.00  0.00     0.004 C 
ATOM     39  C   UNL     1      54.325  43.275  48.722  1.00  0.00     0.022 C 
BRANCH  35  40
ATOM     40  C   UNL     1      53.178  45.614  51.475  1.00  0.00     0.246 CG0
ATOM     41  O   UNL     1      52.067  46.215  51.531  1.00  0.00    -0.272 OA
ATOM     42  G   UNL     1      53.978  45.403  52.732  1.00  0.00     0.000 G0
ENDBRANCH  35  40
ENDBRANCH  31  34
ENDBRANCH   2  30
ENDBRANCH   1   2
BRANCH   1  43
ATOM     43  C   UNL     1      54.594  52.409  49.504  1.00  0.00     0.003 C 
BRANCH  43  44
ATOM     44  C   UNL     1      53.731  53.678  49.463  1.00  0.00     0.001 C 
BRANCH  44  45
ATOM     45  C   UNL     1      52.416  53.522  50.237  1.00  0.00     0.008 C 
BRANCH  45  46
ATOM     46  C   UNL     1      52.224  54.629  51.286  1.00  0.00     0.075 C 
BRANCH  46  47
ATOM     47  C   UNL     1      53.324  54.668  52.324  1.00  0.00     0.132 C 
ATOM     48  O   UNL     1      53.907  53.635  52.637  1.00  0.00    -0.300 OA
BRANCH  47  49
ATOM     49  C   UNL     1      53.806  55.997  52.868  1.00  0.00     0.072 C 
ATOM     50  C   UNL     1      53.730  57.118  51.823  1.00  0.00     0.012 C 
ENDBRANCH  47  49
ENDBRANCH  46  47
ENDBRANCH  45  46
ENDBRANCH  44  45
ENDBRANCH  43  44
ENDBRANCH   1  43
TORSDOF 12
ENDMDL
MODEL 7
REMARK VINA RESULT:    -3.598      4.137      4.993
REMARK INTER + INTRA:         -10.745
REMARK INTER:                  -8.662
REMARK INTRA:                  -2.083
REMARK UNBOUND:                -3.151
REMARK SMILES CCC(=O)CCCCC[C@@H]1NC(=O)[C@H]2CCCCN2C(=O)[C@H]([C@@H](C)CC)NC(=O)[C@@H](Cc2cn(OC)c3ccccc23)NC1=O
REMARK SMILES IDX 9 1 10 2 44 3 43 4 45 6 30 7 28 8 27 9 29 11 22 12 23 14
REMARK SMILES IDX 24 15 25 16 26 17 31 18 32 19 33 20 42 21 34 22 37 23 41 24
REMARK SMILES IDX 38 25 40 26 39 27 35 28 36 29 11 30 12 31 13 33 14 34 19 35
REMARK SMILES IDX 15 36 18 37 16 38 17 39 20 40 21 41 8 43 7 44 6 45 5 46 3 47
REMARK SMILES IDX 4 48 2 49 1 50
REMARK H PARENT 43 5 27 10 11 32
REMARK Flexibility Score: 80.00
ROOT
ATOM      1  C   UNL     1      54.165  50.964  56.221  1.00  0.00     0.035 C 
ENDROOT
BRANCH   1   2
ATOM      2  C   UNL     1      54.785  51.696  55.007  1.00  0.00     0.171 C 
BRANCH   2   3
ATOM      3  C   UNL     1      55.252  50.743  53.936  1.00  0.00     0.243 C 
ATOM      4  N   UNL     1      54.313  50.028  53.117  1.00  0.00    -0.342 N 
ATOM      5  H   UNL     1      53.324  49.999  53.449  1.00  0.00     0.164 HD
ATOM      6  O   UNL     1      56.488  50.556  53.796  1.00  0.00    -0.273 OA
BRANCH   4   7
ATOM      7  C   UNL     1      54.523  49.615  51.725  1.00  0.00     0.175 C 
BRANCH   7   8
ATOM      8  C   UNL     1      54.760  50.837  50.881  1.00  0.00     0.243 C 
ATOM      9  N   UNL     1      53.626  51.609  50.450  1.00  0.00    -0.342 N 
ATOM     10  H   UNL     1      52.692  51.192  50.657  1.00  0.00     0.164 HD
ATOM     11  O   UNL     1      55.938  51.190  50.572  1.00  0.00    -0.273 OA
BRANCH   9  12
ATOM     12  C   UNL     1      53.694  53.064  50.260  1.00  0.00     0.174 CG0
ATOM     13  G   UNL     1      52.766  53.737  51.233  1.00  0.00     0.000 G0
BRANCH  12  14
ATOM     14  C   UNL     1      53.378  53.490  48.785  1.00  0.00     0.018 C 
ATOM     15  C   UNL     1      54.382  54.573  48.323  1.00  0.00     0.010 C 
BRANCH  14  16
ATOM     16  C   UNL     1      53.322  52.303  47.784  1.00  0.00     0.002 C 
ATOM     17  C   UNL     1      54.624  52.126  46.990  1.00  0.00     0.004 C 
ENDBRANCH  14  16
ENDBRANCH  12  14
ENDBRANCH   9  12
ENDBRANCH   7   8
BRANCH   7  18
ATOM     18  C   UNL     1      55.598  48.519  51.551  1.00  0.00     0.073 C 
BRANCH  18  19
ATOM     19  C   UNL     1      55.023  47.293  50.904  1.00  0.00    -0.016 A 
ATOM     20  C   UNL     1      55.250  46.858  49.604  1.00  0.00     0.134 A 
ATOM     21  C   UNL     1      54.041  46.457  51.407  1.00  0.00     0.006 A 
ATOM     22  N   UNL     1      54.468  45.789  49.311  1.00  0.00    -0.191 N 
ATOM     23  C   UNL     1      53.723  45.543  50.420  1.00  0.00     0.087 A 
ATOM     24  C   UNL     1      53.393  46.486  52.643  1.00  0.00     0.011 A 
ATOM     25  C   UNL     1      52.720  44.590  50.640  1.00  0.00     0.030 A 
ATOM     26  C   UNL     1      52.382  45.534  52.872  1.00  0.00     0.001 A 
ATOM     27  C   UNL     1      52.053  44.593  51.881  1.00  0.00     0.002 A 
BRANCH  22  28
ATOM     28  O   UNL     1      54.469  45.191  48.062  1.00  0.00    -0.417 OA
ATOM     29  C   UNL     1      53.577  45.500  47.013  1.00  0.00     0.313 C 
ENDBRANCH  22  28
ENDBRANCH  18  19
ENDBRANCH   7  18
ENDBRANCH   4   7
ENDBRANCH   2   3
BRANCH   2  30
ATOM     30  N   UNL     1      53.883  52.721  54.456  1.00  0.00    -0.343 N 
ATOM     31  C   UNL     1      54.371  53.808  53.653  1.00  0.00     0.243 C 
ATOM     32  H   UNL     1      52.895  52.766  54.789  1.00  0.00     0.164 HD
ATOM     33  O   UNL     1      55.555  53.782  53.220  1.00  0.00    -0.273 OA
BRANCH  31  34
ATOM     34  C   UNL     1      53.485  54.986  53.310  1.00  0.00     0.174 C 
ATOM     35  N   UNL     1      53.163  55.004  51.869  1.00  0.00    -0.329 N 
ATOM     36  C   UNL     1      54.208  56.278  53.762  1.00  0.00     0.035 C 
ATOM     37  C   UNL     1      52.661  56.246  51.257  1.00  0.00     0.120 C 
ATOM     38  C   UNL     1      53.530  57.537  53.227  1.00  0.00     0.004 C 
ATOM     39  C   UNL     1      53.478  57.463  51.704  1.00  0.00     0.022 C 
BRANCH  35  40
ATOM     40  C   UNL     1      52.760  53.770  51.247  1.00  0.00     0.246 CG0
ATOM     41  O   UNL     1      51.644  53.252  51.537  1.00  0.00    -0.272 OA
ATOM     42  G   UNL     1      53.677  53.076  50.278  1.00  0.00     0.000 G0
ENDBRANCH  35  40
ENDBRANCH  31  34
ENDBRANCH   2  30
ENDBRANCH   1   2
BRANCH   1  43
ATOM     43  C   UNL     1      55.142  50.715  57.389  1.00  0.00     0.003 C 
BRANCH  43  44
ATOM     44  C   UNL     1      54.696  49.565  58.302  1.00  0.00     0.001 C 
BRANCH  44  45
ATOM     45  C   UNL     1      53.764  50.033  59.427  1.00  0.00     0.008 C 
BRANCH  45  46
ATOM     46  C   UNL     1      53.249  48.864  60.281  1.00  0.00     0.075 C 
BRANCH  46  47
ATOM     47  C   UNL     1      52.617  49.305  61.583  1.00  0.00     0.132 C 
ATOM     48  O   UNL     1      53.128  48.981  62.650  1.00  0.00    -0.300 OA
BRANCH  47  49
ATOM     49  C   UNL     1      51.445  50.264  61.570  1.00  0.00     0.072 C 
ATOM     50  C   UNL     1      50.096  49.536  61.509  1.00  0.00     0.012 C 
ENDBRANCH  47  49
ENDBRANCH  46  47
ENDBRANCH  45  46
ENDBRANCH  44  45
ENDBRANCH  43  44
ENDBRANCH   1  43
TORSDOF 12
ENDMDL
MODEL 8
REMARK VINA RESULT:    -3.595      4.525      6.228
REMARK INTER + INTRA:         -10.738
REMARK INTER:                  -8.486
REMARK INTRA:                  -2.252
REMARK UNBOUND:                -3.151
REMARK SMILES CCC(=O)CCCCC[C@@H]1NC(=O)[C@H]2CCCCN2C(=O)[C@H]([C@@H](C)CC)NC(=O)[C@@H](Cc2cn(OC)c3ccccc23)NC1=O
REMARK SMILES IDX 9 1 10 2 44 3 43 4 45 6 30 7 28 8 27 9 29 11 22 12 23 14
REMARK SMILES IDX 24 15 25 16 26 17 31 18 32 19 33 20 42 21 34 22 37 23 41 24
REMARK SMILES IDX 38 25 40 26 39 27 35 28 36 29 11 30 12 31 13 33 14 34 19 35
REMARK SMILES IDX 15 36 18 37 16 38 17 39 20 40 21 41 8 43 7 44 6 45 5 46 3 47
REMARK SMILES IDX 4 48 2 49 1 50
REMARK H PARENT 43 5 27 10 11 32
REMARK Flexibility Score: 80.00
ROOT
ATOM      1  C   UNL     1      53.768  51.220  57.132  1.00  0.00     0.035 C 
ENDROOT
BRANCH   1   2
ATOM      2  C   UNL     1      54.672  51.679  55.963  1.00  0.00     0.171 C 
BRANCH   2   3
ATOM      3  C   UNL     1      55.168  50.524  55.130  1.00  0.00     0.243 C 
ATOM      4  N   UNL     1      54.282  49.798  54.264  1.00  0.00    -0.342 N 
ATOM      5  H   UNL     1      53.258  49.931  54.418  1.00  0.00     0.164 HD
ATOM      6  O   UNL     1      56.374  50.181  55.236  1.00  0.00    -0.273 OA
BRANCH   4   7
ATOM      7  C   UNL     1      54.650  49.151  52.999  1.00  0.00     0.175 C 
BRANCH   7   8
ATOM      8  C   UNL     1      55.074  50.205  52.014  1.00  0.00     0.243 C 
ATOM      9  N   UNL     1      54.094  51.150  51.549  1.00  0.00    -0.342 N 
ATOM     10  H   UNL     1      53.110  50.960  51.842  1.00  0.00     0.164 HD
ATOM     11  O   UNL     1      56.276  50.272  51.616  1.00  0.00    -0.273 OA
BRANCH   9  12
ATOM     12  C   UNL     1      54.443  52.532  51.194  1.00  0.00     0.174 CG0
ATOM     13  G   UNL     1      53.508  53.477  51.897  1.00  0.00     0.000 G0
BRANCH  12  14
ATOM     14  C   UNL     1      54.436  52.771  49.646  1.00  0.00     0.018 C 
ATOM     15  C   UNL     1      55.888  52.856  49.119  1.00  0.00     0.010 C 
BRANCH  14  16
ATOM     16  C   UNL     1      53.603  51.729  48.850  1.00  0.00     0.002 C 
ATOM     17  C   UNL     1      52.859  52.342  47.655  1.00  0.00     0.004 C 
ENDBRANCH  14  16
ENDBRANCH  12  14
ENDBRANCH   9  12
ENDBRANCH   7   8
BRANCH   7  18
ATOM     18  C   UNL     1      55.668  47.999  53.157  1.00  0.00     0.073 C 
BRANCH  18  19
ATOM     19  C   UNL     1      55.037  46.803  53.805  1.00  0.00    -0.016 A 
ATOM     20  C   UNL     1      55.365  46.260  55.042  1.00  0.00     0.134 A 
ATOM     21  C   UNL     1      54.133  45.919  53.242  1.00  0.00     0.006 A 
ATOM     22  N   UNL     1      54.686  45.105  55.255  1.00  0.00    -0.191 N 
ATOM     23  C   UNL     1      53.929  44.894  54.147  1.00  0.00     0.087 A 
ATOM     24  C   UNL     1      53.529  45.941  51.983  1.00  0.00     0.011 A 
ATOM     25  C   UNL     1      53.083  43.825  53.823  1.00  0.00     0.030 A 
ATOM     26  C   UNL     1      52.681  44.870  51.647  1.00  0.00     0.001 A 
ATOM     27  C   UNL     1      52.457  43.826  52.560  1.00  0.00     0.002 A 
BRANCH  22  28
ATOM     28  O   UNL     1      54.865  44.340  56.395  1.00  0.00    -0.417 OA
ATOM     29  C   UNL     1      55.035  44.852  57.700  1.00  0.00     0.313 C 
ENDBRANCH  22  28
ENDBRANCH  18  19
ENDBRANCH   7  18
ENDBRANCH   4   7
ENDBRANCH   2   3
BRANCH   2  30
ATOM     30  N   UNL     1      54.024  52.703  55.127  1.00  0.00    -0.343 N 
ATOM     31  C   UNL     1      54.773  53.760  54.505  1.00  0.00     0.243 C 
ATOM     32  H   UNL     1      52.983  52.772  55.117  1.00  0.00     0.164 HD
ATOM     33  O   UNL     1      56.033  53.704  54.483  1.00  0.00    -0.273 OA
BRANCH  31  34
ATOM     34  C   UNL     1      54.075  54.942  53.868  1.00  0.00     0.174 C 
ATOM     35  N   UNL     1      53.946  54.756  52.408  1.00  0.00    -0.329 N 
ATOM     36  C   UNL     1      54.874  56.220  54.224  1.00  0.00     0.035 C 
ATOM     37  C   UNL     1      53.669  55.923  51.554  1.00  0.00     0.120 C 
ATOM     38  C   UNL     1      54.415  57.431  53.417  1.00  0.00     0.004 C 
ATOM     39  C   UNL     1      54.551  57.118  51.930  1.00  0.00     0.022 C 
BRANCH  35  40
ATOM     40  C   UNL     1      53.492  53.479  51.923  1.00  0.00     0.246 CG0
ATOM     41  O   UNL     1      52.298  53.115  52.126  1.00  0.00    -0.272 OA
ATOM     42  G   UNL     1      54.442  52.560  51.206  1.00  0.00     0.000 G0
ENDBRANCH  35  40
ENDBRANCH  31  34
ENDBRANCH   2  30
ENDBRANCH   1   2
BRANCH   1  43
ATOM     43  C   UNL     1      54.217  49.914  57.817  1.00  0.00     0.003 C 
BRANCH  43  44
ATOM     44  C   UNL     1      54.580  50.111  59.295  1.00  0.00     0.001 C 
BRANCH  44  45
ATOM     45  C   UNL     1      53.346  50.133  60.207  1.00  0.00     0.008 C 
BRANCH  45  46
ATOM     46  C   UNL     1      52.492  48.864  60.060  1.00  0.00     0.075 C 
BRANCH  46  47
ATOM     47  C   UNL     1      51.512  48.667  61.196  1.00  0.00     0.132 C 
ATOM     48  O   UNL     1      51.873  48.101  62.223  1.00  0.00    -0.300 OA
BRANCH  47  49
ATOM     49  C   UNL     1      50.136  49.294  61.127  1.00  0.00     0.072 C 
ATOM     50  C   UNL     1      50.144  50.769  61.550  1.00  0.00     0.012 C 
ENDBRANCH  47  49
ENDBRANCH  46  47
ENDBRANCH  45  46
ENDBRANCH  44  45
ENDBRANCH  43  44
ENDBRANCH   1  43
TORSDOF 12
ENDMDL
MODEL 9
REMARK VINA RESULT:    -3.525      3.245      6.209
REMARK INTER + INTRA:         -10.591
REMARK INTER:                  -8.930
REMARK INTRA:                  -1.661
REMARK UNBOUND:                -3.151
REMARK SMILES CCC(=O)CCCCC[C@@H]1NC(=O)[C@H]2CCCCN2C(=O)[C@H]([C@@H](C)CC)NC(=O)[C@@H](Cc2cn(OC)c3ccccc23)NC1=O
REMARK SMILES IDX 9 1 10 2 44 3 43 4 45 6 30 7 28 8 27 9 29 11 22 12 23 14
REMARK SMILES IDX 24 15 25 16 26 17 31 18 32 19 33 20 42 21 34 22 37 23 41 24
REMARK SMILES IDX 38 25 40 26 39 27 35 28 36 29 11 30 12 31 13 33 14 34 19 35
REMARK SMILES IDX 15 36 18 37 16 38 17 39 20 40 21 41 8 43 7 44 6 45 5 46 3 47
REMARK SMILES IDX 4 48 2 49 1 50
REMARK H PARENT 43 5 27 10 11 32
REMARK Flexibility Score: 80.00
ROOT
ATOM      1  C   UNL     1      53.183  48.039  51.138  1.00  0.00     0.035 C 
ENDROOT
BRANCH   1   2
ATOM      2  C   UNL     1      54.252  49.135  51.362  1.00  0.00     0.171 C 
BRANCH   2   3
ATOM      3  C   UNL     1      54.674  49.801  50.077  1.00  0.00     0.243 C 
ATOM      4  N   UNL     1      53.845  50.789  49.445  1.00  0.00    -0.342 N 
ATOM      5  H   UNL     1      52.853  50.845  49.763  1.00  0.00     0.164 HD
ATOM      6  O   UNL     1      55.757  49.446  49.543  1.00  0.00    -0.273 OA
BRANCH   4   7
ATOM      7  C   UNL     1      54.315  51.926  48.647  1.00  0.00     0.175 C 
BRANCH   7   8
ATOM      8  C   UNL     1      55.112  52.849  49.527  1.00  0.00     0.243 C 
ATOM      9  N   UNL     1      54.408  53.788  50.358  1.00  0.00    -0.342 N 
ATOM     10  H   UNL     1      53.378  53.847  50.200  1.00  0.00     0.164 HD
ATOM     11  O   UNL     1      56.378  52.786  49.551  1.00  0.00    -0.273 OA
BRANCH   9  12
ATOM     12  C   UNL     1      54.920  54.215  51.667  1.00  0.00     0.174 CG0
ATOM     13  G   UNL     1      53.989  53.735  52.746  1.00  0.00     0.000 G0
BRANCH  12  14
ATOM     14  C   UNL     1      55.135  55.765  51.749  1.00  0.00     0.018 C 
ATOM     15  C   UNL     1      56.647  56.085  51.825  1.00  0.00     0.010 C 
BRANCH  14  16
ATOM     16  C   UNL     1      54.443  56.559  50.606  1.00  0.00     0.002 C 
ATOM     17  C   UNL     1      53.171  57.286  51.065  1.00  0.00     0.004 C 
ENDBRANCH  14  16
ENDBRANCH  12  14
ENDBRANCH   9  12
ENDBRANCH   7   8
BRANCH   7  18
ATOM     18  C   UNL     1      55.046  51.520  47.347  1.00  0.00     0.073 C 
BRANCH  18  19
ATOM     19  C   UNL     1      55.331  52.717  46.488  1.00  0.00    -0.016 A 
ATOM     20  C   UNL     1      56.513  52.987  45.810  1.00  0.00     0.134 A 
ATOM     21  C   UNL     1      54.550  53.849  46.336  1.00  0.00     0.006 A 
ATOM     22  N   UNL     1      56.470  54.218  45.240  1.00  0.00    -0.191 N 
ATOM     23  C   UNL     1      55.262  54.749  45.566  1.00  0.00     0.087 A 
ATOM     24  C   UNL     1      53.292  54.144  46.867  1.00  0.00     0.011 A 
ATOM     25  C   UNL     1      54.727  56.012  45.281  1.00  0.00     0.030 A 
ATOM     26  C   UNL     1      52.748  55.411  46.589  1.00  0.00     0.001 A 
ATOM     27  C   UNL     1      53.456  56.333  45.800  1.00  0.00     0.002 A 
BRANCH  22  28
ATOM     28  O   UNL     1      57.541  54.750  44.542  1.00  0.00    -0.417 OA
ATOM     29  C   UNL     1      58.871  54.282  44.615  1.00  0.00     0.313 C 
ENDBRANCH  22  28
ENDBRANCH  18  19
ENDBRANCH   7  18
ENDBRANCH   4   7
ENDBRANCH   2   3
BRANCH   2  30
ATOM     30  N   UNL     1      53.831  50.127  52.366  1.00  0.00    -0.343 N 
ATOM     31  C   UNL     1      54.781  50.946  53.067  1.00  0.00     0.243 C 
ATOM     32  H   UNL     1      52.845  50.123  52.706  1.00  0.00     0.164 HD
ATOM     33  O   UNL     1      55.979  50.987  52.677  1.00  0.00    -0.273 OA
BRANCH  31  34
ATOM     34  C   UNL     1      54.366  51.769  54.268  1.00  0.00     0.174 C 
ATOM     35  N   UNL     1      54.496  53.214  53.989  1.00  0.00    -0.329 N 
ATOM     36  C   UNL     1      55.232  51.329  55.474  1.00  0.00     0.035 C 
ATOM     37  C   UNL     1      54.531  54.166  55.113  1.00  0.00     0.120 C 
ATOM     38  C   UNL     1      55.086  52.272  56.664  1.00  0.00     0.004 C 
ATOM     39  C   UNL     1      55.465  53.685  56.228  1.00  0.00     0.022 C 
BRANCH  35  40
ATOM     40  C   UNL     1      53.990  53.712  52.737  1.00  0.00     0.246 CG0
ATOM     41  O   UNL     1      52.746  53.708  52.512  1.00  0.00    -0.272 OA
ATOM     42  G   UNL     1      54.940  54.207  51.680  1.00  0.00     0.000 G0
ENDBRANCH  35  40
ENDBRANCH  31  34
ENDBRANCH   2  30
ENDBRANCH   1   2
BRANCH   1  43
ATOM     43  C   UNL     1      53.032  47.041  52.304  1.00  0.00     0.003 C 
BRANCH  43  44
ATOM     44  C   UNL     1      52.264  45.774  51.907  1.00  0.00     0.001 C 
BRANCH  44  45
ATOM     45  C   UNL     1      51.453  45.187  53.069  1.00  0.00     0.008 C 
BRANCH  45  46
ATOM     46  C   UNL     1      51.858  43.739  53.389  1.00  0.00     0.075 C 
BRANCH  46  47
ATOM     47  C   UNL     1      52.849  43.632  54.527  1.00  0.00     0.132 C 
ATOM     48  O   UNL     1      53.528  44.605  54.841  1.00  0.00    -0.300 OA
BRANCH  47  49
ATOM     49  C   UNL     1      52.899  42.377  55.373  1.00  0.00     0.072 C 
ATOM     50  C   UNL     1      51.984  41.271  54.832  1.00  0.00     0.012 C 
ENDBRANCH  47  49
ENDBRANCH  46  47
ENDBRANCH  45  46
ENDBRANCH  44  45
ENDBRANCH  43  44
ENDBRANCH   1  43
TORSDOF 12
ENDMDL
