MODEL 1
REMARK VINA RESULT:    -5.502      0.000      0.000
REMARK INTER + INTRA:         -10.053
REMARK INTER:                  -9.361
REMARK INTRA:                  -0.692
REMARK UNBOUND:                -0.692
REMARK SMILES CCCCCCCCCCCCCC(=O)[O-]
REMARK SMILES IDX 8 1 9 2 10 3 11 4 12 5 13 6 14 7 15 8 16 9 7 10 6 11 5 12
REMARK SMILES IDX 4 13 3 14 2 15 1 16
REMARK H PARENT
REMARK Flexibility Score: inf
ROOT
ATOM      1  C   UNL     1      12.489 -18.522 -27.228  1.00  0.00     0.000 C 
ENDROOT
BRANCH   1   2
ATOM      2  C   UNL     1      11.181 -18.095 -26.539  1.00  0.00     0.000 C 
BRANCH   2   3
ATOM      3  C   UNL     1       9.986 -18.073 -27.504  1.00  0.00     0.000 C 
BRANCH   3   4
ATOM      4  C   UNL     1       8.701 -17.544 -26.846  1.00  0.00     0.000 C 
BRANCH   4   5
ATOM      5  C   UNL     1       7.859 -16.744 -27.854  1.00  0.00     0.006 C 
BRANCH   5   6
ATOM      6  C   UNL     1       8.375 -16.895 -29.291  1.00  0.00     0.053 C 
BRANCH   6   7
ATOM      7  C   UNL     1       7.772 -15.873 -30.205  1.00  0.00     0.041 C 
ATOM      8  O   UNL     1       7.324 -14.791 -29.741  1.00  0.00    -0.550 OA
ATOM      9  O   UNL     1       7.676 -16.129 -31.567  1.00  0.00    -0.550 OA
ENDBRANCH   6   7
ENDBRANCH   5   6
ENDBRANCH   4   5
ENDBRANCH   3   4
ENDBRANCH   2   3
ENDBRANCH   1   2
BRANCH   1  10
ATOM     10  C   UNL     1      13.012 -19.873 -26.714  1.00  0.00     0.000 C 
BRANCH  10  11
ATOM     11  C   UNL     1      11.892 -20.913 -26.531  1.00  0.00    -0.000 C 
BRANCH  11  12
ATOM     12  C   UNL     1      12.418 -22.356 -26.542  1.00  0.00    -0.000 C 
BRANCH  12  13
ATOM     13  C   UNL     1      11.344 -23.374 -26.970  1.00  0.00    -0.000 C 
BRANCH  13  14
ATOM     14  C   UNL     1      11.575 -23.895 -28.404  1.00  0.00    -0.000 C 
BRANCH  14  15
ATOM     15  C   UNL     1      11.344 -22.829 -29.489  1.00  0.00    -0.003 C 
ATOM     16  C   UNL     1      12.638 -22.349 -30.142  1.00  0.00     0.004 C 
ENDBRANCH  14  15
ENDBRANCH  13  14
ENDBRANCH  12  13
ENDBRANCH  11  12
ENDBRANCH  10  11
ENDBRANCH   1  10
TORSDOF 12
ENDMDL
MODEL 2
REMARK VINA RESULT:    -5.258      2.139      3.333
REMARK INTER + INTRA:          -9.638
REMARK INTER:                  -8.768
REMARK INTRA:                  -0.870
REMARK UNBOUND:                -0.692
REMARK SMILES CCCCCCCCCCCCCC(=O)[O-]
REMARK SMILES IDX 8 1 9 2 10 3 11 4 12 5 13 6 14 7 15 8 16 9 7 10 6 11 5 12
REMARK SMILES IDX 4 13 3 14 2 15 1 16
REMARK H PARENT
REMARK Flexibility Score: inf
ROOT
ATOM      1  C   UNL     1      11.679 -21.250 -26.699  1.00  0.00     0.000 C 
ENDROOT
BRANCH   1   2
ATOM      2  C   UNL     1      12.849 -20.255 -26.802  1.00  0.00     0.000 C 
BRANCH   2   3
ATOM      3  C   UNL     1      12.475 -18.851 -26.303  1.00  0.00     0.000 C 
BRANCH   3   4
ATOM      4  C   UNL     1      11.003 -18.746 -25.874  1.00  0.00     0.000 C 
BRANCH   4   5
ATOM      5  C   UNL     1      10.260 -17.697 -26.717  1.00  0.00     0.006 C 
BRANCH   5   6
ATOM      6  C   UNL     1      10.088 -18.141 -28.175  1.00  0.00     0.053 C 
BRANCH   6   7
ATOM      7  C   UNL     1       8.699 -17.877 -28.674  1.00  0.00     0.041 C 
ATOM      8  O   UNL     1       8.488 -17.714 -29.905  1.00  0.00    -0.550 OA
ATOM      9  O   UNL     1       7.645 -17.777 -27.776  1.00  0.00    -0.550 OA
ENDBRANCH   6   7
ENDBRANCH   5   6
ENDBRANCH   4   5
ENDBRANCH   3   4
ENDBRANCH   2   3
ENDBRANCH   1   2
BRANCH   1  10
ATOM     10  C   UNL     1      12.153 -22.700 -26.506  1.00  0.00     0.000 C 
BRANCH  10  11
ATOM     11  C   UNL     1      11.504 -23.674 -27.505  1.00  0.00    -0.000 C 
BRANCH  11  12
ATOM     12  C   UNL     1      12.487 -24.155 -28.584  1.00  0.00    -0.000 C 
BRANCH  12  13
ATOM     13  C   UNL     1      13.613 -23.140 -28.853  1.00  0.00    -0.000 C 
BRANCH  13  14
ATOM     14  C   UNL     1      14.993 -23.670 -28.409  1.00  0.00    -0.000 C 
BRANCH  14  15
ATOM     15  C   UNL     1      15.631 -22.848 -27.277  1.00  0.00    -0.003 C 
ATOM     16  C   UNL     1      17.150 -22.997 -27.212  1.00  0.00     0.004 C 
ENDBRANCH  14  15
ENDBRANCH  13  14
ENDBRANCH  12  13
ENDBRANCH  11  12
ENDBRANCH  10  11
ENDBRANCH   1  10
TORSDOF 12
ENDMDL
MODEL 3
REMARK VINA RESULT:    -5.220      1.965      2.384
REMARK INTER + INTRA:          -9.574
REMARK INTER:                  -8.999
REMARK INTRA:                  -0.575
REMARK UNBOUND:                -0.692
REMARK SMILES CCCCCCCCCCCCCC(=O)[O-]
REMARK SMILES IDX 8 1 9 2 10 3 11 4 12 5 13 6 14 7 15 8 16 9 7 10 6 11 5 12
REMARK SMILES IDX 4 13 3 14 2 15 1 16
REMARK H PARENT
REMARK Flexibility Score: inf
ROOT
ATOM      1  C   UNL     1      11.873 -19.419 -25.879  1.00  0.00     0.000 C 
ENDROOT
BRANCH   1   2
ATOM      2  C   UNL     1      11.018 -18.139 -25.864  1.00  0.00     0.000 C 
BRANCH   2   3
ATOM      3  C   UNL     1      10.248 -17.928 -27.177  1.00  0.00     0.000 C 
BRANCH   3   4
ATOM      4  C   UNL     1       8.763 -17.605 -26.947  1.00  0.00     0.000 C 
BRANCH   4   5
ATOM      5  C   UNL     1       8.035 -17.394 -28.285  1.00  0.00     0.006 C 
BRANCH   5   6
ATOM      6  C   UNL     1       9.009 -17.285 -29.465  1.00  0.00     0.053 C 
BRANCH   6   7
ATOM      7  C   UNL     1       8.348 -16.703 -30.677  1.00  0.00     0.041 C 
ATOM      8  O   UNL     1       7.536 -15.747 -30.559  1.00  0.00    -0.550 OA
ATOM      9  O   UNL     1       8.604 -17.237 -31.933  1.00  0.00    -0.550 OA
ENDBRANCH   6   7
ENDBRANCH   5   6
ENDBRANCH   4   5
ENDBRANCH   3   4
ENDBRANCH   2   3
ENDBRANCH   1   2
BRANCH   1  10
ATOM     10  C   UNL     1      11.722 -20.211 -27.188  1.00  0.00     0.000 C 
BRANCH  10  11
ATOM     11  C   UNL     1      12.401 -21.591 -27.128  1.00  0.00    -0.000 C 
BRANCH  11  12
ATOM     12  C   UNL     1      12.923 -22.053 -28.497  1.00  0.00    -0.000 C 
BRANCH  12  13
ATOM     13  C   UNL     1      13.557 -23.455 -28.447  1.00  0.00    -0.000 C 
BRANCH  13  14
ATOM     14  C   UNL     1      15.099 -23.397 -28.430  1.00  0.00    -0.000 C 
BRANCH  14  15
ATOM     15  C   UNL     1      15.683 -22.970 -27.073  1.00  0.00    -0.003 C 
ATOM     16  C   UNL     1      17.141 -22.524 -27.162  1.00  0.00     0.004 C 
ENDBRANCH  14  15
ENDBRANCH  13  14
ENDBRANCH  12  13
ENDBRANCH  11  12
ENDBRANCH  10  11
ENDBRANCH   1  10
TORSDOF 12
ENDMDL
MODEL 4
REMARK VINA RESULT:    -5.132      3.329      4.889
REMARK INTER + INTRA:          -9.423
REMARK INTER:                  -8.637
REMARK INTRA:                  -0.786
REMARK UNBOUND:                -0.692
REMARK SMILES CCCCCCCCCCCCCC(=O)[O-]
REMARK SMILES IDX 8 1 9 2 10 3 11 4 12 5 13 6 14 7 15 8 16 9 7 10 6 11 5 12
REMARK SMILES IDX 4 13 3 14 2 15 1 16
REMARK H PARENT
REMARK Flexibility Score: inf
ROOT
ATOM      1  C   UNL     1      12.602 -23.202 -27.561  1.00  0.00     0.000 C 
ENDROOT
BRANCH   1   2
ATOM      2  C   UNL     1      12.007 -22.055 -26.725  1.00  0.00     0.000 C 
BRANCH   2   3
ATOM      3  C   UNL     1      12.196 -20.681 -27.388  1.00  0.00     0.000 C 
BRANCH   3   4
ATOM      4  C   UNL     1      12.247 -19.532 -26.369  1.00  0.00     0.000 C 
BRANCH   4   5
ATOM      5  C   UNL     1      11.779 -18.214 -27.006  1.00  0.00     0.006 C 
BRANCH   5   6
ATOM      6  C   UNL     1      10.252 -18.143 -27.138  1.00  0.00     0.053 C 
BRANCH   6   7
ATOM      7  C   UNL     1       9.824 -18.037 -28.570  1.00  0.00     0.041 C 
ATOM      8  O   UNL     1      10.675 -17.811 -29.471  1.00  0.00    -0.550 OA
ATOM      9  O   UNL     1       8.482 -18.156 -28.906  1.00  0.00    -0.550 OA
ENDBRANCH   6   7
ENDBRANCH   5   6
ENDBRANCH   4   5
ENDBRANCH   3   4
ENDBRANCH   2   3
ENDBRANCH   1   2
BRANCH   1  10
ATOM     10  C   UNL     1      13.831 -22.763 -28.373  1.00  0.00     0.000 C 
BRANCH  10  11
ATOM     11  C   UNL     1      15.120 -23.482 -27.935  1.00  0.00    -0.000 C 
BRANCH  11  12
ATOM     12  C   UNL     1      15.970 -22.637 -26.974  1.00  0.00    -0.000 C 
BRANCH  12  13
ATOM     13  C   UNL     1      17.388 -23.205 -26.783  1.00  0.00    -0.000 C 
BRANCH  13  14
ATOM     14  C   UNL     1      17.386 -24.511 -25.960  1.00  0.00    -0.000 C 
BRANCH  14  15
ATOM     15  C   UNL     1      17.471 -24.280 -24.442  1.00  0.00    -0.003 C 
ATOM     16  C   UNL     1      16.148 -24.531 -23.723  1.00  0.00     0.004 C 
ENDBRANCH  14  15
ENDBRANCH  13  14
ENDBRANCH  12  13
ENDBRANCH  11  12
ENDBRANCH  10  11
ENDBRANCH   1  10
TORSDOF 12
ENDMDL
MODEL 5
REMARK VINA RESULT:    -5.001      6.456      9.674
REMARK INTER + INTRA:          -9.202
REMARK INTER:                  -8.453
REMARK INTRA:                  -0.748
REMARK UNBOUND:                -0.692
REMARK SMILES CCCCCCCCCCCCCC(=O)[O-]
REMARK SMILES IDX 8 1 9 2 10 3 11 4 12 5 13 6 14 7 15 8 16 9 7 10 6 11 5 12
REMARK SMILES IDX 4 13 3 14 2 15 1 16
REMARK H PARENT
REMARK Flexibility Score: inf
ROOT
ATOM      1  C   UNL     1      14.232 -22.905 -27.346  1.00  0.00     0.000 C 
ENDROOT
BRANCH   1   2
ATOM      2  C   UNL     1      15.766 -22.981 -27.453  1.00  0.00     0.000 C 
BRANCH   2   3
ATOM      3  C   UNL     1      16.234 -23.645 -28.758  1.00  0.00     0.000 C 
BRANCH   3   4
ATOM      4  C   UNL     1      16.534 -25.143 -28.586  1.00  0.00     0.000 C 
BRANCH   4   5
ATOM      5  C   UNL     1      15.867 -25.966 -29.699  1.00  0.00     0.006 C 
BRANCH   5   6
ATOM      6  C   UNL     1      16.746 -27.135 -30.163  1.00  0.00     0.053 C 
BRANCH   6   7
ATOM      7  C   UNL     1      16.200 -28.454 -29.705  1.00  0.00     0.041 C 
ATOM      8  O   UNL     1      15.966 -29.367 -30.539  1.00  0.00    -0.550 OA
ATOM      9  O   UNL     1      15.921 -28.661 -28.361  1.00  0.00    -0.550 OA
ENDBRANCH   6   7
ENDBRANCH   5   6
ENDBRANCH   4   5
ENDBRANCH   3   4
ENDBRANCH   2   3
ENDBRANCH   1   2
BRANCH   1  10
ATOM     10  C   UNL     1      13.545 -22.896 -28.721  1.00  0.00     0.000 C 
BRANCH  10  11
ATOM     11  C   UNL     1      12.336 -21.945 -28.775  1.00  0.00    -0.000 C 
BRANCH  11  12
ATOM     12  C   UNL     1      12.141 -21.164 -27.466  1.00  0.00    -0.000 C 
BRANCH  12  13
ATOM     13  C   UNL     1      12.073 -19.642 -27.690  1.00  0.00    -0.000 C 
BRANCH  13  14
ATOM     14  C   UNL     1      12.779 -18.856 -26.565  1.00  0.00    -0.000 C 
BRANCH  14  15
ATOM     15  C   UNL     1      12.072 -18.963 -25.204  1.00  0.00    -0.003 C 
ATOM     16  C   UNL     1      12.817 -18.240 -24.084  1.00  0.00     0.004 C 
ENDBRANCH  14  15
ENDBRANCH  13  14
ENDBRANCH  12  13
ENDBRANCH  11  12
ENDBRANCH  10  11
ENDBRANCH   1  10
TORSDOF 12
ENDMDL
MODEL 6
REMARK VINA RESULT:    -4.993      9.130     11.065
REMARK INTER + INTRA:          -9.188
REMARK INTER:                  -7.697
REMARK INTRA:                  -1.491
REMARK UNBOUND:                -0.692
REMARK SMILES CCCCCCCCCCCCCC(=O)[O-]
REMARK SMILES IDX 8 1 9 2 10 3 11 4 12 5 13 6 14 7 15 8 16 9 7 10 6 11 5 12
REMARK SMILES IDX 4 13 3 14 2 15 1 16
REMARK H PARENT
REMARK Flexibility Score: inf
ROOT
ATOM      1  C   UNL     1      17.707 -23.403 -28.322  1.00  0.00     0.000 C 
ENDROOT
BRANCH   1   2
ATOM      2  C   UNL     1      19.213 -23.684 -28.471  1.00  0.00     0.000 C 
BRANCH   2   3
ATOM      3  C   UNL     1      19.618 -25.049 -27.892  1.00  0.00     0.000 C 
BRANCH   3   4
ATOM      4  C   UNL     1      18.449 -25.774 -27.207  1.00  0.00     0.000 C 
BRANCH   4   5
ATOM      5  C   UNL     1      18.227 -27.162 -27.828  1.00  0.00     0.006 C 
BRANCH   5   6
ATOM      6  C   UNL     1      17.234 -27.124 -28.997  1.00  0.00     0.053 C 
BRANCH   6   7
ATOM      7  C   UNL     1      16.241 -28.243 -28.916  1.00  0.00     0.041 C 
ATOM      8  O   UNL     1      16.361 -29.137 -28.037  1.00  0.00    -0.550 OA
ATOM      9  O   UNL     1      15.201 -28.317 -29.833  1.00  0.00    -0.550 OA
ENDBRANCH   6   7
ENDBRANCH   5   6
ENDBRANCH   4   5
ENDBRANCH   3   4
ENDBRANCH   2   3
ENDBRANCH   1   2
BRANCH   1  10
ATOM     10  C   UNL     1      17.412 -22.312 -27.279  1.00  0.00     0.000 C 
BRANCH  10  11
ATOM     11  C   UNL     1      18.683 -21.584 -26.805  1.00  0.00    -0.000 C 
BRANCH  11  12
ATOM     12  C   UNL     1      18.828 -21.585 -25.276  1.00  0.00    -0.000 C 
BRANCH  12  13
ATOM     13  C   UNL     1      19.069 -22.995 -24.705  1.00  0.00    -0.000 C 
BRANCH  13  14
ATOM     14  C   UNL     1      18.068 -23.348 -23.585  1.00  0.00    -0.000 C 
BRANCH  14  15
ATOM     15  C   UNL     1      16.883 -24.201 -24.066  1.00  0.00    -0.003 C 
ATOM     16  C   UNL     1      16.095 -24.833 -22.921  1.00  0.00     0.004 C 
ENDBRANCH  14  15
ENDBRANCH  13  14
ENDBRANCH  12  13
ENDBRANCH  11  12
ENDBRANCH  10  11
ENDBRANCH   1  10
TORSDOF 12
ENDMDL
MODEL 7
REMARK VINA RESULT:    -4.981      4.699      6.522
REMARK INTER + INTRA:          -9.166
REMARK INTER:                  -8.214
REMARK INTRA:                  -0.953
REMARK UNBOUND:                -0.692
REMARK SMILES CCCCCCCCCCCCCC(=O)[O-]
REMARK SMILES IDX 8 1 9 2 10 3 11 4 12 5 13 6 14 7 15 8 16 9 7 10 6 11 5 12
REMARK SMILES IDX 4 13 3 14 2 15 1 16
REMARK H PARENT
REMARK Flexibility Score: inf
ROOT
ATOM      1  C   UNL     1      14.934 -22.822 -26.917  1.00  0.00     0.000 C 
ENDROOT
BRANCH   1   2
ATOM      2  C   UNL     1      13.798 -22.565 -27.923  1.00  0.00     0.000 C 
BRANCH   2   3
ATOM      3  C   UNL     1      12.405 -22.716 -27.292  1.00  0.00     0.000 C 
BRANCH   3   4
ATOM      4  C   UNL     1      12.046 -21.547 -26.360  1.00  0.00     0.000 C 
BRANCH   4   5
ATOM      5  C   UNL     1      12.168 -20.204 -27.097  1.00  0.00     0.006 C 
BRANCH   5   6
ATOM      6  C   UNL     1      12.824 -19.123 -26.227  1.00  0.00     0.053 C 
BRANCH   6   7
ATOM      7  C   UNL     1      11.836 -18.483 -25.300  1.00  0.00     0.041 C 
ATOM      8  O   UNL     1      10.604 -18.522 -25.561  1.00  0.00    -0.550 OA
ATOM      9  O   UNL     1      12.278 -17.817 -24.165  1.00  0.00    -0.550 OA
ENDBRANCH   6   7
ENDBRANCH   5   6
ENDBRANCH   4   5
ENDBRANCH   3   4
ENDBRANCH   2   3
ENDBRANCH   1   2
BRANCH   1  10
ATOM     10  C   UNL     1      16.248 -23.228 -27.603  1.00  0.00     0.000 C 
BRANCH  10  11
ATOM     11  C   UNL     1      17.436 -22.344 -27.182  1.00  0.00    -0.000 C 
BRANCH  11  12
ATOM     12  C   UNL     1      18.638 -23.166 -26.691  1.00  0.00    -0.000 C 
BRANCH  12  13
ATOM     13  C   UNL     1      18.256 -24.611 -26.322  1.00  0.00    -0.000 C 
BRANCH  13  14
ATOM     14  C   UNL     1      18.253 -24.841 -24.796  1.00  0.00    -0.000 C 
BRANCH  14  15
ATOM     15  C   UNL     1      16.842 -24.934 -24.191  1.00  0.00    -0.003 C 
ATOM     16  C   UNL     1      16.703 -24.172 -22.875  1.00  0.00     0.004 C 
ENDBRANCH  14  15
ENDBRANCH  13  14
ENDBRANCH  12  13
ENDBRANCH  11  12
ENDBRANCH  10  11
ENDBRANCH   1  10
TORSDOF 12
ENDMDL
MODEL 8
REMARK VINA RESULT:    -4.932      9.613     11.413
REMARK INTER + INTRA:          -9.083
REMARK INTER:                  -7.474
REMARK INTRA:                  -1.609
REMARK UNBOUND:                -0.692
REMARK SMILES CCCCCCCCCCCCCC(=O)[O-]
REMARK SMILES IDX 8 1 9 2 10 3 11 4 12 5 13 6 14 7 15 8 16 9 7 10 6 11 5 12
REMARK SMILES IDX 4 13 3 14 2 15 1 16
REMARK H PARENT
REMARK Flexibility Score: inf
ROOT
ATOM      1  C   UNL     1      16.762 -23.905 -25.964  1.00  0.00     0.000 C 
ENDROOT
BRANCH   1   2
ATOM      2  C   UNL     1      17.387 -24.301 -27.314  1.00  0.00     0.000 C 
BRANCH   2   3
ATOM      3  C   UNL     1      18.890 -24.601 -27.204  1.00  0.00     0.000 C 
BRANCH   3   4
ATOM      4  C   UNL     1      19.277 -25.938 -27.854  1.00  0.00     0.000 C 
BRANCH   4   5
ATOM      5  C   UNL     1      18.141 -26.964 -27.715  1.00  0.00     0.006 C 
BRANCH   5   6
ATOM      6  C   UNL     1      17.742 -27.575 -29.064  1.00  0.00     0.053 C 
BRANCH   6   7
ATOM      7  C   UNL     1      16.691 -28.631 -28.905  1.00  0.00     0.041 C 
ATOM      8  O   UNL     1      16.432 -29.102 -27.766  1.00  0.00    -0.550 OA
ATOM      9  O   UNL     1      16.020 -29.118 -30.019  1.00  0.00    -0.550 OA
ENDBRANCH   6   7
ENDBRANCH   5   6
ENDBRANCH   4   5
ENDBRANCH   3   4
ENDBRANCH   2   3
ENDBRANCH   1   2
BRANCH   1  10
ATOM     10  C   UNL     1      17.257 -24.786 -24.805  1.00  0.00     0.000 C 
BRANCH  10  11
ATOM     11  C   UNL     1      17.058 -24.125 -23.430  1.00  0.00    -0.000 C 
BRANCH  11  12
ATOM     12  C   UNL     1      18.324 -23.415 -22.927  1.00  0.00    -0.000 C 
BRANCH  12  13
ATOM     13  C   UNL     1      19.580 -23.807 -23.728  1.00  0.00    -0.000 C 
BRANCH  13  14
ATOM     14  C   UNL     1      20.270 -22.583 -24.365  1.00  0.00    -0.000 C 
BRANCH  14  15
ATOM     15  C   UNL     1      19.294 -21.456 -24.744  1.00  0.00    -0.003 C 
ATOM     16  C   UNL     1      19.380 -21.059 -26.216  1.00  0.00     0.004 C 
ENDBRANCH  14  15
ENDBRANCH  13  14
ENDBRANCH  12  13
ENDBRANCH  11  12
ENDBRANCH  10  11
ENDBRANCH   1  10
TORSDOF 12
ENDMDL
MODEL 9
REMARK VINA RESULT:    -4.927      7.152     10.185
REMARK INTER + INTRA:          -9.075
REMARK INTER:                  -7.817
REMARK INTRA:                  -1.259
REMARK UNBOUND:                -0.692
REMARK SMILES CCCCCCCCCCCCCC(=O)[O-]
REMARK SMILES IDX 8 1 9 2 10 3 11 4 12 5 13 6 14 7 15 8 16 9 7 10 6 11 5 12
REMARK SMILES IDX 4 13 3 14 2 15 1 16
REMARK H PARENT
REMARK Flexibility Score: inf
ROOT
ATOM      1  C   UNL     1      17.369 -24.914 -26.417  1.00  0.00     0.000 C 
ENDROOT
BRANCH   1   2
ATOM      2  C   UNL     1      18.746 -25.554 -26.666  1.00  0.00     0.000 C 
BRANCH   2   3
ATOM      3  C   UNL     1      18.751 -26.490 -27.886  1.00  0.00     0.000 C 
BRANCH   3   4
ATOM      4  C   UNL     1      18.456 -25.751 -29.201  1.00  0.00     0.000 C 
BRANCH   4   5
ATOM      5  C   UNL     1      17.705 -26.663 -30.184  1.00  0.00     0.006 C 
BRANCH   5   6
ATOM      6  C   UNL     1      16.201 -26.721 -29.889  1.00  0.00     0.053 C 
BRANCH   6   7
ATOM      7  C   UNL     1      15.747 -28.118 -29.596  1.00  0.00     0.041 C 
ATOM      8  O   UNL     1      15.819 -28.576 -28.424  1.00  0.00    -0.550 OA
ATOM      9  O   UNL     1      15.276 -28.926 -30.622  1.00  0.00    -0.550 OA
ENDBRANCH   6   7
ENDBRANCH   5   6
ENDBRANCH   4   5
ENDBRANCH   3   4
ENDBRANCH   2   3
ENDBRANCH   1   2
BRANCH   1  10
ATOM     10  C   UNL     1      17.449 -23.387 -26.261  1.00  0.00     0.000 C 
BRANCH  10  11
ATOM     11  C   UNL     1      16.308 -22.655 -26.991  1.00  0.00    -0.000 C 
BRANCH  11  12
ATOM     12  C   UNL     1      15.702 -23.492 -28.128  1.00  0.00    -0.000 C 
BRANCH  12  13
ATOM     13  C   UNL     1      14.174 -23.337 -28.228  1.00  0.00    -0.000 C 
BRANCH  13  14
ATOM     14  C   UNL     1      13.637 -22.237 -27.288  1.00  0.00    -0.000 C 
BRANCH  14  15
ATOM     15  C   UNL     1      12.103 -22.127 -27.283  1.00  0.00    -0.003 C 
ATOM     16  C   UNL     1      11.410 -23.439 -26.920  1.00  0.00     0.004 C 
ENDBRANCH  14  15
ENDBRANCH  13  14
ENDBRANCH  12  13
ENDBRANCH  11  12
ENDBRANCH  10  11
ENDBRANCH   1  10
TORSDOF 12
ENDMDL
