MODEL 1
REMARK VINA RESULT:    -2.843      0.000      0.000
REMARK INTER + INTRA:          -3.443
REMARK INTER:                  -3.341
REMARK INTRA:                  -0.102
REMARK UNBOUND:                -0.102
REMARK SMILES O=C([O-])CCC(=O)[O-]
REMARK SMILES IDX 4 1 2 2 1 3 3 4 5 5 6 6 7 7 8 8
REMARK H PARENT
REMARK Flexibility Score: inf
ROOT
ATOM      1  C   UNL     1     -42.277 -46.016  40.546  1.00  0.00     0.059 C 
ENDROOT
BRANCH   1   2
ATOM      2  C   UNL     1     -43.729 -46.234  40.262  1.00  0.00     0.042 C 
ATOM      3  O   UNL     1     -44.567 -45.328  40.513  1.00  0.00    -0.550 OA
ATOM      4  O   UNL     1     -44.165 -47.457  39.764  1.00  0.00    -0.550 OA
ENDBRANCH   1   2
BRANCH   1   5
ATOM      5  C   UNL     1     -42.095 -45.324  41.897  1.00  0.00     0.059 C 
BRANCH   5   6
ATOM      6  C   UNL     1     -41.298 -44.068  41.738  1.00  0.00     0.042 C 
ATOM      7  O   UNL     1     -41.164 -43.542  40.601  1.00  0.00    -0.550 OA
ATOM      8  O   UNL     1     -40.741 -43.451  42.852  1.00  0.00    -0.550 OA
ENDBRANCH   5   6
ENDBRANCH   1   5
TORSDOF 3
ENDMDL
MODEL 2
REMARK VINA RESULT:    -2.826      9.104      9.982
REMARK INTER + INTRA:          -3.424
REMARK INTER:                  -3.308
REMARK INTRA:                  -0.116
REMARK UNBOUND:                -0.102
REMARK SMILES O=C([O-])CCC(=O)[O-]
REMARK SMILES IDX 4 1 2 2 1 3 3 4 5 5 6 6 7 7 8 8
REMARK H PARENT
REMARK Flexibility Score: inf
ROOT
ATOM      1  C   UNL     1     -49.308 -53.066  40.985  1.00  0.00     0.059 C 
ENDROOT
BRANCH   1   2
ATOM      2  C   UNL     1     -48.763 -52.085  41.975  1.00  0.00     0.042 C 
ATOM      3  O   UNL     1     -48.789 -50.851  41.723  1.00  0.00    -0.550 OA
ATOM      4  O   UNL     1     -48.183 -52.536  43.154  1.00  0.00    -0.550 OA
ENDBRANCH   1   2
BRANCH   1   5
ATOM      5  C   UNL     1     -48.167 -53.807  40.285  1.00  0.00     0.059 C 
BRANCH   5   6
ATOM      6  C   UNL     1     -47.841 -53.150  38.981  1.00  0.00     0.042 C 
ATOM      7  O   UNL     1     -48.338 -53.587  37.909  1.00  0.00    -0.550 OA
ATOM      8  O   UNL     1     -47.027 -52.024  38.953  1.00  0.00    -0.550 OA
ENDBRANCH   5   6
ENDBRANCH   1   5
TORSDOF 3
ENDMDL
MODEL 3
REMARK VINA RESULT:    -2.825      0.942      4.015
REMARK INTER + INTRA:          -3.422
REMARK INTER:                  -3.312
REMARK INTRA:                  -0.110
REMARK UNBOUND:                -0.102
REMARK SMILES O=C([O-])CCC(=O)[O-]
REMARK SMILES IDX 4 1 2 2 1 3 3 4 5 5 6 6 7 7 8 8
REMARK H PARENT
REMARK Flexibility Score: inf
ROOT
ATOM      1  C   UNL     1     -42.013 -45.350  41.974  1.00  0.00     0.059 C 
ENDROOT
BRANCH   1   2
ATOM      2  C   UNL     1     -41.252 -44.072  41.816  1.00  0.00     0.042 C 
ATOM      3  O   UNL     1     -40.763 -43.496  42.824  1.00  0.00    -0.550 OA
ATOM      4  O   UNL     1     -41.124 -43.489  40.560  1.00  0.00    -0.550 OA
ENDBRANCH   1   2
BRANCH   1   5
ATOM      5  C   UNL     1     -43.189 -45.396  40.997  1.00  0.00     0.059 C 
BRANCH   5   6
ATOM      6  C   UNL     1     -43.089 -46.601  40.116  1.00  0.00     0.042 C 
ATOM      7  O   UNL     1     -41.961 -47.030  39.755  1.00  0.00    -0.550 OA
ATOM      8  O   UNL     1     -44.240 -47.279  39.732  1.00  0.00    -0.550 OA
ENDBRANCH   5   6
ENDBRANCH   1   5
TORSDOF 3
ENDMDL
MODEL 4
REMARK VINA RESULT:    -2.742      8.999      9.685
REMARK INTER + INTRA:          -3.325
REMARK INTER:                  -3.199
REMARK INTRA:                  -0.126
REMARK UNBOUND:                -0.102
REMARK SMILES O=C([O-])CCC(=O)[O-]
REMARK SMILES IDX 4 1 2 2 1 3 3 4 5 5 6 6 7 7 8 8
REMARK H PARENT
REMARK Flexibility Score: inf
ROOT
ATOM      1  C   UNL     1     -47.942 -53.693  40.202  1.00  0.00     0.059 C 
ENDROOT
BRANCH   1   2
ATOM      2  C   UNL     1     -47.679 -52.915  38.952  1.00  0.00     0.042 C 
ATOM      3  O   UNL     1     -48.153 -53.304  37.851  1.00  0.00    -0.550 OA
ATOM      4  O   UNL     1     -46.869 -51.786  38.992  1.00  0.00    -0.550 OA
ENDBRANCH   1   2
BRANCH   1   5
ATOM      5  C   UNL     1     -49.149 -53.117  40.945  1.00  0.00     0.059 C 
BRANCH   5   6
ATOM      6  C   UNL     1     -48.704 -52.126  41.974  1.00  0.00     0.042 C 
ATOM      7  O   UNL     1     -48.260 -52.522  43.084  1.00  0.00    -0.550 OA
ATOM      8  O   UNL     1     -48.734 -50.766  41.690  1.00  0.00    -0.550 OA
ENDBRANCH   5   6
ENDBRANCH   1   5
TORSDOF 3
ENDMDL
MODEL 5
REMARK VINA RESULT:    -2.739      2.138      4.782
REMARK INTER + INTRA:          -3.321
REMARK INTER:                  -3.239
REMARK INTRA:                  -0.082
REMARK UNBOUND:                -0.102
REMARK SMILES O=C([O-])CCC(=O)[O-]
REMARK SMILES IDX 4 1 2 2 1 3 3 4 5 5 6 6 7 7 8 8
REMARK H PARENT
REMARK Flexibility Score: inf
ROOT
ATOM      1  C   UNL     1     -43.038 -46.990  39.831  1.00  0.00     0.059 C 
ENDROOT
BRANCH   1   2
ATOM      2  C   UNL     1     -43.546 -45.863  40.674  1.00  0.00     0.042 C 
ATOM      3  O   UNL     1     -44.665 -45.341  40.426  1.00  0.00    -0.550 OA
ATOM      4  O   UNL     1     -42.762 -45.357  41.703  1.00  0.00    -0.550 OA
ENDBRANCH   1   2
BRANCH   1   5
ATOM      5  C   UNL     1     -44.109 -48.073  39.686  1.00  0.00     0.059 C 
BRANCH   5   6
ATOM      6  C   UNL     1     -44.463 -48.267  38.246  1.00  0.00     0.042 C 
ATOM      7  O   UNL     1     -43.628 -48.775  37.450  1.00  0.00    -0.550 OA
ATOM      8  O   UNL     1     -45.733 -47.933  37.790  1.00  0.00    -0.550 OA
ENDBRANCH   5   6
ENDBRANCH   1   5
TORSDOF 3
ENDMDL
MODEL 6
REMARK VINA RESULT:    -2.721      2.066      3.297
REMARK INTER + INTRA:          -3.300
REMARK INTER:                  -3.215
REMARK INTRA:                  -0.085
REMARK UNBOUND:                -0.102
REMARK SMILES O=C([O-])CCC(=O)[O-]
REMARK SMILES IDX 4 1 2 2 1 3 3 4 5 5 6 6 7 7 8 8
REMARK H PARENT
REMARK Flexibility Score: inf
ROOT
ATOM      1  C   UNL     1     -44.325 -47.959  39.664  1.00  0.00     0.059 C 
ENDROOT
BRANCH   1   2
ATOM      2  C   UNL     1     -44.644 -48.203  38.223  1.00  0.00     0.042 C 
ATOM      3  O   UNL     1     -45.775 -47.893  37.763  1.00  0.00    -0.550 OA
ATOM      4  O   UNL     1     -43.709 -48.816  37.397  1.00  0.00    -0.550 OA
ENDBRANCH   1   2
BRANCH   1   5
ATOM      5  C   UNL     1     -43.049 -47.126  39.795  1.00  0.00     0.059 C 
BRANCH   5   6
ATOM      6  C   UNL     1     -43.365 -45.765  40.329  1.00  0.00     0.042 C 
ATOM      7  O   UNL     1     -42.437 -44.949  40.574  1.00  0.00    -0.550 OA
ATOM      8  O   UNL     1     -44.688 -45.379  40.510  1.00  0.00    -0.550 OA
ENDBRANCH   5   6
ENDBRANCH   1   5
TORSDOF 3
ENDMDL
MODEL 7
REMARK VINA RESULT:    -2.718      7.246      8.688
REMARK INTER + INTRA:          -3.296
REMARK INTER:                  -3.177
REMARK INTRA:                  -0.119
REMARK UNBOUND:                -0.102
REMARK SMILES O=C([O-])CCC(=O)[O-]
REMARK SMILES IDX 4 1 2 2 1 3 3 4 5 5 6 6 7 7 8 8
REMARK H PARENT
REMARK Flexibility Score: inf
ROOT
ATOM      1  C   UNL     1     -48.020 -50.889  41.572  1.00  0.00     0.059 C 
ENDROOT
BRANCH   1   2
ATOM      2  C   UNL     1     -48.623 -52.195  41.982  1.00  0.00     0.042 C 
ATOM      3  O   UNL     1     -48.276 -52.743  43.062  1.00  0.00    -0.550 OA
ATOM      4  O   UNL     1     -49.534 -52.833  41.148  1.00  0.00    -0.550 OA
ENDBRANCH   1   2
BRANCH   1   5
ATOM      5  C   UNL     1     -46.645 -51.110  40.939  1.00  0.00     0.059 C 
BRANCH   5   6
ATOM      6  C   UNL     1     -46.752 -51.108  39.447  1.00  0.00     0.042 C 
ATOM      7  O   UNL     1     -46.398 -50.094  38.788  1.00  0.00    -0.550 OA
ATOM      8  O   UNL     1     -47.196 -52.242  38.778  1.00  0.00    -0.550 OA
ENDBRANCH   5   6
ENDBRANCH   1   5
TORSDOF 3
ENDMDL
MODEL 8
REMARK VINA RESULT:    -2.702      7.375      8.890
REMARK INTER + INTRA:          -3.277
REMARK INTER:                  -3.163
REMARK INTRA:                  -0.115
REMARK UNBOUND:                -0.102
REMARK SMILES O=C([O-])CCC(=O)[O-]
REMARK SMILES IDX 4 1 2 2 1 3 3 4 5 5 6 6 7 7 8 8
REMARK H PARENT
REMARK Flexibility Score: inf
ROOT
ATOM      1  C   UNL     1     -46.669 -51.107  40.927  1.00  0.00     0.059 C 
ENDROOT
BRANCH   1   2
ATOM      2  C   UNL     1     -46.776 -51.237  39.441  1.00  0.00     0.042 C 
ATOM      3  O   UNL     1     -46.640 -50.224  38.704  1.00  0.00    -0.550 OA
ATOM      4  O   UNL     1     -47.074 -52.468  38.869  1.00  0.00    -0.550 OA
ENDBRANCH   1   2
BRANCH   1   5
ATOM      5  C   UNL     1     -48.053 -50.905  41.546  1.00  0.00     0.059 C 
BRANCH   5   6
ATOM      6  C   UNL     1     -48.635 -52.218  41.965  1.00  0.00     0.042 C 
ATOM      7  O   UNL     1     -49.474 -52.803  41.230  1.00  0.00    -0.550 OA
ATOM      8  O   UNL     1     -48.214 -52.821  43.144  1.00  0.00    -0.550 OA
ENDBRANCH   5   6
ENDBRANCH   1   5
TORSDOF 3
ENDMDL
MODEL 9
REMARK VINA RESULT:    -2.678      9.191      9.873
REMARK INTER + INTRA:          -3.249
REMARK INTER:                  -3.129
REMARK INTRA:                  -0.120
REMARK UNBOUND:                -0.102
REMARK SMILES O=C([O-])CCC(=O)[O-]
REMARK SMILES IDX 4 1 2 2 1 3 3 4 5 5 6 6 7 7 8 8
REMARK H PARENT
REMARK Flexibility Score: inf
ROOT
ATOM      1  C   UNL     1     -47.722 -53.783  39.511  1.00  0.00     0.059 C 
ENDROOT
BRANCH   1   2
ATOM      2  C   UNL     1     -48.367 -52.834  40.470  1.00  0.00     0.042 C 
ATOM      3  O   UNL     1     -47.780 -51.768  40.799  1.00  0.00    -0.550 OA
ATOM      4  O   UNL     1     -49.595 -53.147  41.039  1.00  0.00    -0.550 OA
ENDBRANCH   1   2
BRANCH   1   5
ATOM      5  C   UNL     1     -48.129 -53.451  38.075  1.00  0.00     0.059 C 
BRANCH   5   6
ATOM      6  C   UNL     1     -47.072 -52.630  37.408  1.00  0.00     0.042 C 
ATOM      7  O   UNL     1     -47.238 -51.391  37.250  1.00  0.00    -0.550 OA
ATOM      8  O   UNL     1     -45.882 -53.222  37.004  1.00  0.00    -0.550 OA
ENDBRANCH   5   6
ENDBRANCH   1   5
TORSDOF 3
ENDMDL
