MODEL 1
REMARK VINA RESULT:    -3.903      0.000      0.000
REMARK INTER + INTRA:          -7.326
REMARK INTER:                  -5.957
REMARK INTRA:                  -1.369
REMARK UNBOUND:                -1.369
REMARK SMILES CCCCCCCCCCC(=O)[O-]
REMARK SMILES IDX 7 1 8 2 9 3 10 4 11 5 12 6 13 7 6 8 5 9 4 10 3 11 2 12 1 13
REMARK H PARENT
REMARK Flexibility Score: inf
ROOT
ATOM      1  C   UNL     1      -2.721   5.782 -59.770  1.00  0.00     0.000 C 
ENDROOT
BRANCH   1   2
ATOM      2  C   UNL     1      -1.662   6.849 -59.473  1.00  0.00     0.000 C 
BRANCH   2   3
ATOM      3  C   UNL     1      -0.744   6.409 -58.322  1.00  0.00     0.006 C 
BRANCH   3   4
ATOM      4  C   UNL     1      -1.521   5.728 -57.188  1.00  0.00     0.053 C 
BRANCH   4   5
ATOM      5  C   UNL     1      -1.080   6.212 -55.841  1.00  0.00     0.041 C 
ATOM      6  O   UNL     1      -1.927   6.414 -54.932  1.00  0.00    -0.550 OA
ATOM      7  O   UNL     1       0.263   6.473 -55.600  1.00  0.00    -0.550 OA
ENDBRANCH   4   5
ENDBRANCH   3   4
ENDBRANCH   2   3
ENDBRANCH   1   2
BRANCH   1   8
ATOM      8  C   UNL     1      -4.106   6.419 -59.961  1.00  0.00     0.000 C 
BRANCH   8   9
ATOM      9  C   UNL     1      -4.982   6.346 -58.697  1.00  0.00    -0.000 C 
BRANCH   9  10
ATOM     10  C   UNL     1      -5.286   7.703 -58.037  1.00  0.00    -0.000 C 
BRANCH  10  11
ATOM     11  C   UNL     1      -4.498   7.927 -56.738  1.00  0.00    -0.000 C 
BRANCH  11  12
ATOM     12  C   UNL     1      -3.407   8.987 -56.934  1.00  0.00    -0.003 C 
ATOM     13  C   UNL     1      -3.560   9.694 -58.278  1.00  0.00     0.004 C 
ENDBRANCH  11  12
ENDBRANCH  10  11
ENDBRANCH   9  10
ENDBRANCH   8   9
ENDBRANCH   1   8
TORSDOF 9
ENDMDL
MODEL 2
REMARK VINA RESULT:    -3.856      1.105      2.212
REMARK INTER + INTRA:          -7.254
REMARK INTER:                  -6.365
REMARK INTRA:                  -0.889
REMARK UNBOUND:                -1.369
REMARK SMILES CCCCCCCCCCC(=O)[O-]
REMARK SMILES IDX 7 1 8 2 9 3 10 4 11 5 12 6 13 7 6 8 5 9 4 10 3 11 2 12 1 13
REMARK H PARENT
REMARK Flexibility Score: inf
ROOT
ATOM      1  C   UNL     1      -1.738   7.132 -59.203  1.00  0.00     0.000 C 
ENDROOT
BRANCH   1   2
ATOM      2  C   UNL     1      -0.772   6.315 -58.337  1.00  0.00     0.000 C 
BRANCH   2   3
ATOM      3  C   UNL     1      -1.494   5.721 -57.118  1.00  0.00     0.006 C 
BRANCH   3   4
ATOM      4  C   UNL     1      -1.883   6.795 -56.094  1.00  0.00     0.053 C 
BRANCH   4   5
ATOM      5  C   UNL     1      -0.974   6.786 -54.905  1.00  0.00     0.041 C 
ATOM      6  O   UNL     1       0.274   6.726 -55.062  1.00  0.00    -0.550 OA
ATOM      7  O   UNL     1      -1.505   6.811 -53.621  1.00  0.00    -0.550 OA
ENDBRANCH   4   5
ENDBRANCH   3   4
ENDBRANCH   2   3
ENDBRANCH   1   2
BRANCH   1   8
ATOM      8  C   UNL     1      -2.884   6.255 -59.728  1.00  0.00     0.000 C 
BRANCH   8   9
ATOM      9  C   UNL     1      -4.261   6.934 -59.617  1.00  0.00    -0.000 C 
BRANCH   9  10
ATOM     10  C   UNL     1      -4.249   8.329 -58.965  1.00  0.00    -0.000 C 
BRANCH  10  11
ATOM     11  C   UNL     1      -5.250   8.459 -57.809  1.00  0.00    -0.000 C 
BRANCH  11  12
ATOM     12  C   UNL     1      -6.132   7.210 -57.703  1.00  0.00    -0.003 C 
ATOM     13  C   UNL     1      -7.601   7.550 -57.936  1.00  0.00     0.004 C 
ENDBRANCH  11  12
ENDBRANCH  10  11
ENDBRANCH   9  10
ENDBRANCH   8   9
ENDBRANCH   1   8
TORSDOF 9
ENDMDL
MODEL 3
REMARK VINA RESULT:    -3.817      0.746      1.607
REMARK INTER + INTRA:          -7.193
REMARK INTER:                  -5.953
REMARK INTRA:                  -1.240
REMARK UNBOUND:                -1.369
REMARK SMILES CCCCCCCCCCC(=O)[O-]
REMARK SMILES IDX 7 1 8 2 9 3 10 4 11 5 12 6 13 7 6 8 5 9 4 10 3 11 2 12 1 13
REMARK H PARENT
REMARK Flexibility Score: inf
ROOT
ATOM      1  C   UNL     1      -1.655   6.777 -59.491  1.00  0.00     0.000 C 
ENDROOT
BRANCH   1   2
ATOM      2  C   UNL     1      -0.711   6.310 -58.377  1.00  0.00     0.000 C 
BRANCH   2   3
ATOM      3  C   UNL     1      -1.501   5.772 -57.174  1.00  0.00     0.006 C 
BRANCH   3   4
ATOM      4  C   UNL     1      -1.868   6.880 -56.178  1.00  0.00     0.053 C 
BRANCH   4   5
ATOM      5  C   UNL     1      -0.964   6.877 -54.984  1.00  0.00     0.041 C 
ATOM      6  O   UNL     1       0.282   6.774 -55.134  1.00  0.00    -0.550 OA
ATOM      7  O   UNL     1      -1.499   6.955 -53.705  1.00  0.00    -0.550 OA
ENDBRANCH   4   5
ENDBRANCH   3   4
ENDBRANCH   2   3
ENDBRANCH   1   2
BRANCH   1   8
ATOM      8  C   UNL     1      -2.840   5.813 -59.648  1.00  0.00     0.000 C 
BRANCH   8   9
ATOM      9  C   UNL     1      -4.201   6.533 -59.680  1.00  0.00    -0.000 C 
BRANCH   9  10
ATOM     10  C   UNL     1      -4.967   6.537 -58.344  1.00  0.00    -0.000 C 
BRANCH  10  11
ATOM     11  C   UNL     1      -5.107   7.940 -57.737  1.00  0.00    -0.000 C 
BRANCH  11  12
ATOM     12  C   UNL     1      -4.540   9.005 -58.683  1.00  0.00    -0.003 C 
ATOM     13  C   UNL     1      -3.358   9.734 -58.048  1.00  0.00     0.004 C 
ENDBRANCH  11  12
ENDBRANCH  10  11
ENDBRANCH   9  10
ENDBRANCH   8   9
ENDBRANCH   1   8
TORSDOF 9
ENDMDL
MODEL 4
REMARK VINA RESULT:    -3.804      3.069      4.687
REMARK INTER + INTRA:          -7.174
REMARK INTER:                  -5.857
REMARK INTRA:                  -1.318
REMARK UNBOUND:                -1.369
REMARK SMILES CCCCCCCCCCC(=O)[O-]
REMARK SMILES IDX 7 1 8 2 9 3 10 4 11 5 12 6 13 7 6 8 5 9 4 10 3 11 2 12 1 13
REMARK H PARENT
REMARK Flexibility Score: inf
ROOT
ATOM      1  C   UNL     1      -2.770   8.651 -58.743  1.00  0.00     0.000 C 
ENDROOT
BRANCH   1   2
ATOM      2  C   UNL     1      -4.227   8.230 -58.961  1.00  0.00     0.000 C 
BRANCH   2   3
ATOM      3  C   UNL     1      -5.026   8.311 -57.651  1.00  0.00     0.006 C 
BRANCH   3   4
ATOM      4  C   UNL     1      -5.574   6.945 -57.219  1.00  0.00     0.053 C 
BRANCH   4   5
ATOM      5  C   UNL     1      -7.022   6.790 -57.567  1.00  0.00     0.041 C 
ATOM      6  O   UNL     1      -7.572   5.659 -57.502  1.00  0.00    -0.550 OA
ATOM      7  O   UNL     1      -7.757   7.888 -57.995  1.00  0.00    -0.550 OA
ENDBRANCH   4   5
ENDBRANCH   3   4
ENDBRANCH   2   3
ENDBRANCH   1   2
BRANCH   1   8
ATOM      8  C   UNL     1      -1.807   7.517 -59.123  1.00  0.00     0.000 C 
BRANCH   8   9
ATOM      9  C   UNL     1      -2.523   6.177 -59.373  1.00  0.00    -0.000 C 
BRANCH   9  10
ATOM     10  C   UNL     1      -2.189   5.062 -58.365  1.00  0.00    -0.000 C 
BRANCH  10  11
ATOM     11  C   UNL     1      -1.287   5.542 -57.218  1.00  0.00    -0.000 C 
BRANCH  11  12
ATOM     12  C   UNL     1      -2.076   5.646 -55.907  1.00  0.00    -0.003 C 
ATOM     13  C   UNL     1      -2.156   7.093 -55.426  1.00  0.00     0.004 C 
ENDBRANCH  11  12
ENDBRANCH  10  11
ENDBRANCH   9  10
ENDBRANCH   8   9
ENDBRANCH   1   8
TORSDOF 9
ENDMDL
MODEL 5
REMARK VINA RESULT:    -3.769      1.253      2.275
REMARK INTER + INTRA:          -7.120
REMARK INTER:                  -6.183
REMARK INTRA:                  -0.937
REMARK UNBOUND:                -1.369
REMARK SMILES CCCCCCCCCCC(=O)[O-]
REMARK SMILES IDX 7 1 8 2 9 3 10 4 11 5 12 6 13 7 6 8 5 9 4 10 3 11 2 12 1 13
REMARK H PARENT
REMARK Flexibility Score: inf
ROOT
ATOM      1  C   UNL     1      -1.672   7.565 -59.101  1.00  0.00     0.000 C 
ENDROOT
BRANCH   1   2
ATOM      2  C   UNL     1      -2.301   6.167 -59.109  1.00  0.00     0.000 C 
BRANCH   2   3
ATOM      3  C   UNL     1      -2.007   5.423 -57.797  1.00  0.00     0.006 C 
BRANCH   3   4
ATOM      4  C   UNL     1      -0.656   5.826 -57.191  1.00  0.00     0.053 C 
BRANCH   4   5
ATOM      5  C   UNL     1      -0.808   6.363 -55.802  1.00  0.00     0.041 C 
ATOM      6  O   UNL     1      -1.842   7.005 -55.480  1.00  0.00    -0.550 OA
ATOM      7  O   UNL     1       0.207   6.183 -54.870  1.00  0.00    -0.550 OA
ENDBRANCH   4   5
ENDBRANCH   3   4
ENDBRANCH   2   3
ENDBRANCH   1   2
BRANCH   1   8
ATOM      8  C   UNL     1      -2.689   8.624 -58.652  1.00  0.00     0.000 C 
BRANCH   8   9
ATOM      9  C   UNL     1      -4.145   8.227 -58.956  1.00  0.00    -0.000 C 
BRANCH   9  10
ATOM     10  C   UNL     1      -5.129   8.418 -57.787  1.00  0.00    -0.000 C 
BRANCH  10  11
ATOM     11  C   UNL     1      -5.339   7.138 -56.965  1.00  0.00    -0.000 C 
BRANCH  11  12
ATOM     12  C   UNL     1      -6.415   6.249 -57.599  1.00  0.00    -0.003 C 
ATOM     13  C   UNL     1      -7.720   7.017 -57.793  1.00  0.00     0.004 C 
ENDBRANCH  11  12
ENDBRANCH  10  11
ENDBRANCH   9  10
ENDBRANCH   8   9
ENDBRANCH   1   8
TORSDOF 9
ENDMDL
MODEL 6
REMARK VINA RESULT:    -3.739      2.571      4.770
REMARK INTER + INTRA:          -7.074
REMARK INTER:                  -5.833
REMARK INTRA:                  -1.241
REMARK UNBOUND:                -1.369
REMARK SMILES CCCCCCCCCCC(=O)[O-]
REMARK SMILES IDX 7 1 8 2 9 3 10 4 11 5 12 6 13 7 6 8 5 9 4 10 3 11 2 12 1 13
REMARK H PARENT
REMARK Flexibility Score: inf
ROOT
ATOM      1  C   UNL     1      -1.874   6.901 -55.739  1.00  0.00     0.000 C 
ENDROOT
BRANCH   1   2
ATOM      2  C   UNL     1      -3.231   6.307 -56.136  1.00  0.00     0.000 C 
BRANCH   2   3
ATOM      3  C   UNL     1      -4.289   7.408 -56.298  1.00  0.00     0.006 C 
BRANCH   3   4
ATOM      4  C   UNL     1      -3.768   8.599 -57.113  1.00  0.00     0.053 C 
BRANCH   4   5
ATOM      5  C   UNL     1      -4.540   8.786 -58.382  1.00  0.00     0.041 C 
ATOM      6  O   UNL     1      -4.189   9.663 -59.214  1.00  0.00    -0.550 OA
ATOM      7  O   UNL     1      -5.668   8.013 -58.631  1.00  0.00    -0.550 OA
ENDBRANCH   4   5
ENDBRANCH   3   4
ENDBRANCH   2   3
ENDBRANCH   1   2
BRANCH   1   8
ATOM      8  C   UNL     1      -0.726   5.953 -56.118  1.00  0.00     0.000 C 
BRANCH   8   9
ATOM      9  C   UNL     1      -0.801   5.470 -57.578  1.00  0.00    -0.000 C 
BRANCH   9  10
ATOM     10  C   UNL     1      -0.520   6.553 -58.637  1.00  0.00    -0.000 C 
BRANCH  10  11
ATOM     11  C   UNL     1      -1.728   6.833 -59.542  1.00  0.00    -0.000 C 
BRANCH  11  12
ATOM     12  C   UNL     1      -2.671   5.625 -59.590  1.00  0.00    -0.003 C 
ATOM     13  C   UNL     1      -3.724   5.789 -60.682  1.00  0.00     0.004 C 
ENDBRANCH  11  12
ENDBRANCH  10  11
ENDBRANCH   9  10
ENDBRANCH   8   9
ENDBRANCH   1   8
TORSDOF 9
ENDMDL
MODEL 7
REMARK VINA RESULT:    -3.627      2.004      4.144
REMARK INTER + INTRA:          -6.904
REMARK INTER:                  -6.056
REMARK INTRA:                  -0.849
REMARK UNBOUND:                -1.369
REMARK SMILES CCCCCCCCCCC(=O)[O-]
REMARK SMILES IDX 7 1 8 2 9 3 10 4 11 5 12 6 13 7 6 8 5 9 4 10 3 11 2 12 1 13
REMARK H PARENT
REMARK Flexibility Score: inf
ROOT
ATOM      1  C   UNL     1      -2.749   5.994 -60.020  1.00  0.00     0.000 C 
ENDROOT
BRANCH   1   2
ATOM      2  C   UNL     1      -4.143   6.625 -60.106  1.00  0.00     0.000 C 
BRANCH   2   3
ATOM      3  C   UNL     1      -4.655   7.024 -58.713  1.00  0.00     0.006 C 
BRANCH   3   4
ATOM      4  C   UNL     1      -4.807   8.543 -58.564  1.00  0.00     0.053 C 
BRANCH   4   5
ATOM      5  C   UNL     1      -3.551   9.181 -58.056  1.00  0.00     0.041 C 
ATOM      6  O   UNL     1      -2.754   9.736 -58.858  1.00  0.00    -0.550 OA
ATOM      7  O   UNL     1      -3.243   9.134 -56.702  1.00  0.00    -0.550 OA
ENDBRANCH   4   5
ENDBRANCH   3   4
ENDBRANCH   2   3
ENDBRANCH   1   2
BRANCH   1   8
ATOM      8  C   UNL     1      -2.363   5.708 -58.561  1.00  0.00     0.000 C 
BRANCH   8   9
ATOM      9  C   UNL     1      -1.042   6.382 -58.145  1.00  0.00    -0.000 C 
BRANCH   9  10
ATOM     10  C   UNL     1      -0.538   6.011 -56.738  1.00  0.00    -0.000 C 
BRANCH  10  11
ATOM     11  C   UNL     1      -1.639   6.081 -55.669  1.00  0.00    -0.000 C 
BRANCH  11  12
ATOM     12  C   UNL     1      -1.272   7.083 -54.569  1.00  0.00    -0.003 C 
ATOM     13  C   UNL     1       0.219   7.029 -54.247  1.00  0.00     0.004 C 
ENDBRANCH  11  12
ENDBRANCH  10  11
ENDBRANCH   9  10
ENDBRANCH   8   9
ENDBRANCH   1   8
TORSDOF 9
ENDMDL
MODEL 8
REMARK VINA RESULT:    -3.538      1.314      2.068
REMARK INTER + INTRA:          -6.768
REMARK INTER:                  -5.854
REMARK INTRA:                  -0.914
REMARK UNBOUND:                -1.369
REMARK SMILES CCCCCCCCCCC(=O)[O-]
REMARK SMILES IDX 7 1 8 2 9 3 10 4 11 5 12 6 13 7 6 8 5 9 4 10 3 11 2 12 1 13
REMARK H PARENT
REMARK Flexibility Score: inf
ROOT
ATOM      1  C   UNL     1      -1.970   5.475 -58.418  1.00  0.00     0.000 C 
ENDROOT
BRANCH   1   2
ATOM      2  C   UNL     1      -0.559   5.810 -57.921  1.00  0.00     0.000 C 
BRANCH   2   3
ATOM      3  C   UNL     1      -0.412   5.495 -56.425  1.00  0.00     0.006 C 
BRANCH   3   4
ATOM      4  C   UNL     1      -0.582   6.743 -55.549  1.00  0.00     0.053 C 
BRANCH   4   5
ATOM      5  C   UNL     1       0.122   6.601 -54.235  1.00  0.00     0.041 C 
ATOM      6  O   UNL     1       0.635   5.499 -53.907  1.00  0.00    -0.550 OA
ATOM      7  O   UNL     1       0.184   7.676 -53.358  1.00  0.00    -0.550 OA
ENDBRANCH   4   5
ENDBRANCH   3   4
ENDBRANCH   2   3
ENDBRANCH   1   2
BRANCH   1   8
ATOM      8  C   UNL     1      -2.351   6.346 -59.623  1.00  0.00     0.000 C 
BRANCH   8   9
ATOM      9  C   UNL     1      -3.873   6.468 -59.822  1.00  0.00    -0.000 C 
BRANCH   9  10
ATOM     10  C   UNL     1      -4.528   7.666 -59.110  1.00  0.00    -0.000 C 
BRANCH  10  11
ATOM     11  C   UNL     1      -3.521   8.760 -58.727  1.00  0.00    -0.000 C 
BRANCH  11  12
ATOM     12  C   UNL     1      -3.505   8.985 -57.211  1.00  0.00    -0.003 C 
ATOM     13  C   UNL     1      -4.245   7.869 -56.479  1.00  0.00     0.004 C 
ENDBRANCH  11  12
ENDBRANCH  10  11
ENDBRANCH   9  10
ENDBRANCH   8   9
ENDBRANCH   1   8
TORSDOF 9
ENDMDL
MODEL 9
REMARK VINA RESULT:    -3.537      2.734      5.349
REMARK INTER + INTRA:          -6.767
REMARK INTER:                  -5.971
REMARK INTRA:                  -0.796
REMARK UNBOUND:                -1.369
REMARK SMILES CCCCCCCCCCC(=O)[O-]
REMARK SMILES IDX 7 1 8 2 9 3 10 4 11 5 12 6 13 7 6 8 5 9 4 10 3 11 2 12 1 13
REMARK H PARENT
REMARK Flexibility Score: inf
ROOT
ATOM      1  C   UNL     1      -3.134   8.188 -56.418  1.00  0.00     0.000 C 
ENDROOT
BRANCH   1   2
ATOM      2  C   UNL     1      -3.185   8.627 -57.885  1.00  0.00     0.000 C 
BRANCH   2   3
ATOM      3  C   UNL     1      -4.611   9.031 -58.290  1.00  0.00     0.006 C 
BRANCH   3   4
ATOM      4  C   UNL     1      -5.406   7.854 -58.869  1.00  0.00     0.053 C 
BRANCH   4   5
ATOM      5  C   UNL     1      -6.481   7.394 -57.933  1.00  0.00     0.041 C 
ATOM      6  O   UNL     1      -6.227   6.530 -57.053  1.00  0.00    -0.550 OA
ATOM      7  O   UNL     1      -7.771   7.895 -58.053  1.00  0.00    -0.550 OA
ENDBRANCH   4   5
ENDBRANCH   3   4
ENDBRANCH   2   3
ENDBRANCH   1   2
BRANCH   1   8
ATOM      8  C   UNL     1      -2.709   6.717 -56.298  1.00  0.00     0.000 C 
BRANCH   8   9
ATOM      9  C   UNL     1      -1.507   6.363 -57.194  1.00  0.00    -0.000 C 
BRANCH   9  10
ATOM     10  C   UNL     1      -0.275   5.823 -56.445  1.00  0.00    -0.000 C 
BRANCH  10  11
ATOM     11  C   UNL     1      -0.004   6.561 -55.126  1.00  0.00    -0.000 C 
BRANCH  11  12
ATOM     12  C   UNL     1       0.287   5.570 -53.993  1.00  0.00    -0.003 C 
ATOM     13  C   UNL     1      -0.990   4.875 -53.526  1.00  0.00     0.004 C 
ENDBRANCH  11  12
ENDBRANCH  10  11
ENDBRANCH   9  10
ENDBRANCH   8   9
ENDBRANCH   1   8
TORSDOF 9
ENDMDL
