MODEL 1
REMARK VINA RESULT:    -3.206      0.000      0.000
REMARK INTER + INTRA:          -4.318
REMARK INTER:                  -4.143
REMARK INTRA:                  -0.175
REMARK UNBOUND:                -0.175
REMARK SMILES CCCCCCC(=O)[O-]
REMARK SMILES IDX 5 1 6 2 7 3 8 4 9 5 4 6 3 7 2 8 1 9
REMARK H PARENT
REMARK Flexibility Score: inf
ROOT
ATOM      1  C   UNL     1     -96.914 150.602 240.537  1.00  0.00     0.006 C 
ENDROOT
BRANCH   1   2
ATOM      2  C   UNL     1     -98.355 150.406 241.027  1.00  0.00     0.053 C 
BRANCH   2   3
ATOM      3  C   UNL     1     -98.366 149.977 242.460  1.00  0.00     0.041 C 
ATOM      4  O   UNL     1     -98.071 148.792 242.769  1.00  0.00    -0.550 OA
ATOM      5  O   UNL     1     -98.751 150.871 243.451  1.00  0.00    -0.550 OA
ENDBRANCH   2   3
ENDBRANCH   1   2
BRANCH   1   6
ATOM      6  C   UNL     1     -96.446 149.466 239.613  1.00  0.00     0.000 C 
BRANCH   6   7
ATOM      7  C   UNL     1     -94.969 149.096 239.835  1.00  0.00    -0.000 C 
BRANCH   7   8
ATOM      8  C   UNL     1     -94.198 148.938 238.514  1.00  0.00    -0.003 C 
ATOM      9  C   UNL     1     -94.998 149.416 237.303  1.00  0.00     0.004 C 
ENDBRANCH   7   8
ENDBRANCH   6   7
ENDBRANCH   1   6
TORSDOF 5
ENDMDL
MODEL 2
REMARK VINA RESULT:    -3.150      1.599      2.058
REMARK INTER + INTRA:          -4.246
REMARK INTER:                  -3.988
REMARK INTRA:                  -0.258
REMARK UNBOUND:                -0.175
REMARK SMILES CCCCCCC(=O)[O-]
REMARK SMILES IDX 5 1 6 2 7 3 8 4 9 5 4 6 3 7 2 8 1 9
REMARK H PARENT
REMARK Flexibility Score: inf
ROOT
ATOM      1  C   UNL     1     -96.381 148.684 240.454  1.00  0.00     0.006 C 
ENDROOT
BRANCH   1   2
ATOM      2  C   UNL     1     -96.473 150.213 240.369  1.00  0.00     0.053 C 
BRANCH   2   3
ATOM      3  C   UNL     1     -97.876 150.667 240.624  1.00  0.00     0.041 C 
ATOM      4  O   UNL     1     -98.372 150.574 241.778  1.00  0.00    -0.550 OA
ATOM      5  O   UNL     1     -98.653 151.146 239.577  1.00  0.00    -0.550 OA
ENDBRANCH   2   3
ENDBRANCH   1   2
BRANCH   1   6
ATOM      6  C   UNL     1     -95.019 148.147 239.985  1.00  0.00     0.000 C 
BRANCH   6   7
ATOM      7  C   UNL     1     -94.327 149.089 238.985  1.00  0.00    -0.000 C 
BRANCH   7   8
ATOM      8  C   UNL     1     -94.446 148.596 237.534  1.00  0.00    -0.003 C 
ATOM      9  C   UNL     1     -95.370 149.470 236.688  1.00  0.00     0.004 C 
ENDBRANCH   7   8
ENDBRANCH   6   7
ENDBRANCH   1   6
TORSDOF 5
ENDMDL
MODEL 3
REMARK VINA RESULT:    -3.149      1.717      2.501
REMARK INTER + INTRA:          -4.245
REMARK INTER:                  -4.061
REMARK INTRA:                  -0.184
REMARK UNBOUND:                -0.175
REMARK SMILES CCCCCCC(=O)[O-]
REMARK SMILES IDX 5 1 6 2 7 3 8 4 9 5 4 6 3 7 2 8 1 9
REMARK H PARENT
REMARK Flexibility Score: inf
ROOT
ATOM      1  C   UNL     1     -96.261 149.408 238.517  1.00  0.00     0.006 C 
ENDROOT
BRANCH   1   2
ATOM      2  C   UNL     1     -95.961 149.874 239.947  1.00  0.00     0.053 C 
BRANCH   2   3
ATOM      3  C   UNL     1     -97.229 150.230 240.657  1.00  0.00     0.041 C 
ATOM      4  O   UNL     1     -97.943 151.181 240.241  1.00  0.00    -0.550 OA
ATOM      5  O   UNL     1     -97.597 149.546 241.808  1.00  0.00    -0.550 OA
ENDBRANCH   2   3
ENDBRANCH   1   2
BRANCH   1   6
ATOM      6  C   UNL     1     -94.988 149.233 237.674  1.00  0.00     0.000 C 
BRANCH   6   7
ATOM      7  C   UNL     1     -93.833 148.606 238.473  1.00  0.00    -0.000 C 
BRANCH   7   8
ATOM      8  C   UNL     1     -93.249 147.361 237.785  1.00  0.00    -0.003 C 
ATOM      9  C   UNL     1     -93.783 147.167 236.366  1.00  0.00     0.004 C 
ENDBRANCH   7   8
ENDBRANCH   6   7
ENDBRANCH   1   6
TORSDOF 5
ENDMDL
MODEL 4
REMARK VINA RESULT:    -3.123      3.893      5.276
REMARK INTER + INTRA:          -4.211
REMARK INTER:                  -3.949
REMARK INTRA:                  -0.261
REMARK UNBOUND:                -0.175
REMARK SMILES CCCCCCC(=O)[O-]
REMARK SMILES IDX 5 1 6 2 7 3 8 4 9 5 4 6 3 7 2 8 1 9
REMARK H PARENT
REMARK Flexibility Score: inf
ROOT
ATOM      1  C   UNL     1     -94.616 149.157 239.516  1.00  0.00     0.006 C 
ENDROOT
BRANCH   1   2
ATOM      2  C   UNL     1     -94.501 149.066 237.989  1.00  0.00     0.053 C 
BRANCH   2   3
ATOM      3  C   UNL     1     -93.989 147.719 237.583  1.00  0.00     0.041 C 
ATOM      4  O   UNL     1     -94.676 146.982 236.828  1.00  0.00    -0.550 OA
ATOM      5  O   UNL     1     -92.777 147.258 238.080  1.00  0.00    -0.550 OA
ENDBRANCH   2   3
ENDBRANCH   1   2
BRANCH   1   6
ATOM      6  C   UNL     1     -95.641 148.166 240.090  1.00  0.00     0.000 C 
BRANCH   6   7
ATOM      7  C   UNL     1     -96.824 148.872 240.775  1.00  0.00    -0.000 C 
BRANCH   7   8
ATOM      8  C   UNL     1     -96.823 150.390 240.535  1.00  0.00    -0.003 C 
ATOM      9  C   UNL     1     -98.196 150.923 240.126  1.00  0.00     0.004 C 
ENDBRANCH   7   8
ENDBRANCH   6   7
ENDBRANCH   1   6
TORSDOF 5
ENDMDL
MODEL 5
REMARK VINA RESULT:    -3.103      3.287      5.296
REMARK INTER + INTRA:          -4.185
REMARK INTER:                  -4.039
REMARK INTRA:                  -0.146
REMARK UNBOUND:                -0.175
REMARK SMILES CCCCCCC(=O)[O-]
REMARK SMILES IDX 5 1 6 2 7 3 8 4 9 5 4 6 3 7 2 8 1 9
REMARK H PARENT
REMARK Flexibility Score: inf
ROOT
ATOM      1  C   UNL     1     -96.179 149.176 239.945  1.00  0.00     0.006 C 
ENDROOT
BRANCH   1   2
ATOM      2  C   UNL     1     -94.661 149.187 239.720  1.00  0.00     0.053 C 
BRANCH   2   3
ATOM      3  C   UNL     1     -94.343 148.904 238.286  1.00  0.00     0.041 C 
ATOM      4  O   UNL     1     -93.508 148.010 237.987  1.00  0.00    -0.550 OA
ATOM      5  O   UNL     1     -94.932 149.660 237.281  1.00  0.00    -0.550 OA
ENDBRANCH   2   3
ENDBRANCH   1   2
BRANCH   1   6
ATOM      6  C   UNL     1     -96.713 150.532 240.435  1.00  0.00     0.000 C 
BRANCH   6   7
ATOM      7  C   UNL     1     -98.157 150.443 240.959  1.00  0.00    -0.000 C 
BRANCH   7   8
ATOM      8  C   UNL     1     -98.260 149.645 242.269  1.00  0.00    -0.003 C 
ATOM      9  C   UNL     1     -98.836 150.472 243.418  1.00  0.00     0.004 C 
ENDBRANCH   7   8
ENDBRANCH   6   7
ENDBRANCH   1   6
TORSDOF 5
ENDMDL
MODEL 6
REMARK VINA RESULT:    -3.098      1.386      1.891
REMARK INTER + INTRA:          -4.179
REMARK INTER:                  -4.026
REMARK INTRA:                  -0.153
REMARK UNBOUND:                -0.175
REMARK SMILES CCCCCCC(=O)[O-]
REMARK SMILES IDX 5 1 6 2 7 3 8 4 9 5 4 6 3 7 2 8 1 9
REMARK H PARENT
REMARK Flexibility Score: inf
ROOT
ATOM      1  C   UNL     1     -95.589 149.498 239.986  1.00  0.00     0.006 C 
ENDROOT
BRANCH   1   2
ATOM      2  C   UNL     1     -96.822 150.323 240.377  1.00  0.00     0.053 C 
BRANCH   2   3
ATOM      3  C   UNL     1     -97.621 149.605 241.419  1.00  0.00     0.041 C 
ATOM      4  O   UNL     1     -97.516 148.356 241.549  1.00  0.00    -0.550 OA
ATOM      5  O   UNL     1     -98.519 150.307 242.213  1.00  0.00    -0.550 OA
ENDBRANCH   2   3
ENDBRANCH   1   2
BRANCH   1   6
ATOM      6  C   UNL     1     -95.641 149.014 238.529  1.00  0.00     0.000 C 
BRANCH   6   7
ATOM      7  C   UNL     1     -94.281 149.127 237.819  1.00  0.00    -0.000 C 
BRANCH   7   8
ATOM      8  C   UNL     1     -93.851 147.808 237.156  1.00  0.00    -0.003 C 
ATOM      9  C   UNL     1     -93.119 146.875 238.120  1.00  0.00     0.004 C 
ENDBRANCH   7   8
ENDBRANCH   6   7
ENDBRANCH   1   6
TORSDOF 5
ENDMDL
MODEL 7
REMARK VINA RESULT:    -3.075      3.458      5.300
REMARK INTER + INTRA:          -4.149
REMARK INTER:                  -3.942
REMARK INTRA:                  -0.207
REMARK UNBOUND:                -0.175
REMARK SMILES CCCCCCC(=O)[O-]
REMARK SMILES IDX 5 1 6 2 7 3 8 4 9 5 4 6 3 7 2 8 1 9
REMARK H PARENT
REMARK Flexibility Score: inf
ROOT
ATOM      1  C   UNL     1     -95.205 148.092 240.049  1.00  0.00     0.006 C 
ENDROOT
BRANCH   1   2
ATOM      2  C   UNL     1     -94.384 149.129 239.271  1.00  0.00     0.053 C 
BRANCH   2   3
ATOM      3  C   UNL     1     -94.254 148.723 237.837  1.00  0.00     0.041 C 
ATOM      4  O   UNL     1     -94.937 149.301 236.950  1.00  0.00    -0.550 OA
ATOM      5  O   UNL     1     -93.417 147.672 237.485  1.00  0.00    -0.550 OA
ENDBRANCH   2   3
ENDBRANCH   1   2
BRANCH   1   6
ATOM      6  C   UNL     1     -96.507 148.677 240.619  1.00  0.00     0.000 C 
BRANCH   6   7
ATOM      7  C   UNL     1     -96.643 150.186 240.351  1.00  0.00    -0.000 C 
BRANCH   7   8
ATOM      8  C   UNL     1     -98.032 150.728 240.725  1.00  0.00    -0.003 C 
ATOM      9  C   UNL     1     -98.476 150.297 242.123  1.00  0.00     0.004 C 
ENDBRANCH   7   8
ENDBRANCH   6   7
ENDBRANCH   1   6
TORSDOF 5
ENDMDL
MODEL 8
REMARK VINA RESULT:    -3.045      3.533      5.017
REMARK INTER + INTRA:          -4.110
REMARK INTER:                  -3.883
REMARK INTRA:                  -0.227
REMARK UNBOUND:                -0.175
REMARK SMILES CCCCCCC(=O)[O-]
REMARK SMILES IDX 5 1 6 2 7 3 8 4 9 5 4 6 3 7 2 8 1 9
REMARK H PARENT
REMARK Flexibility Score: inf
ROOT
ATOM      1  C   UNL     1     -95.133 148.182 239.995  1.00  0.00     0.006 C 
ENDROOT
BRANCH   1   2
ATOM      2  C   UNL     1     -94.297 149.140 239.136  1.00  0.00     0.053 C 
BRANCH   2   3
ATOM      3  C   UNL     1     -94.384 148.757 237.692  1.00  0.00     0.041 C 
ATOM      4  O   UNL     1     -93.713 147.786 237.253  1.00  0.00    -0.550 OA
ATOM      5  O   UNL     1     -95.167 149.503 236.821  1.00  0.00    -0.550 OA
ENDBRANCH   2   3
ENDBRANCH   1   2
BRANCH   1   6
ATOM      6  C   UNL     1     -96.497 148.775 240.383  1.00  0.00     0.000 C 
BRANCH   6   7
ATOM      7  C   UNL     1     -96.504 150.313 240.345  1.00  0.00    -0.000 C 
BRANCH   7   8
ATOM      8  C   UNL     1     -97.918 150.899 240.487  1.00  0.00    -0.003 C 
ATOM      9  C   UNL     1     -98.774 150.683 239.239  1.00  0.00     0.004 C 
ENDBRANCH   7   8
ENDBRANCH   6   7
ENDBRANCH   1   6
TORSDOF 5
ENDMDL
MODEL 9
REMARK VINA RESULT:    -2.839      1.866      2.295
REMARK INTER + INTRA:          -3.844
REMARK INTER:                  -3.495
REMARK INTRA:                  -0.349
REMARK UNBOUND:                -0.175
REMARK SMILES CCCCCCC(=O)[O-]
REMARK SMILES IDX 5 1 6 2 7 3 8 4 9 5 4 6 3 7 2 8 1 9
REMARK H PARENT
REMARK Flexibility Score: inf
ROOT
ATOM      1  C   UNL     1     -96.392 150.101 240.026  1.00  0.00     0.006 C 
ENDROOT
BRANCH   1   2
ATOM      2  C   UNL     1     -97.263 149.515 241.145  1.00  0.00     0.053 C 
BRANCH   2   3
ATOM      3  C   UNL     1     -97.504 148.057 240.910  1.00  0.00     0.041 C 
ATOM      4  O   UNL     1     -98.099 147.674 239.868  1.00  0.00    -0.550 OA
ATOM      5  O   UNL     1     -97.118 147.126 241.865  1.00  0.00    -0.550 OA
ENDBRANCH   2   3
ENDBRANCH   1   2
BRANCH   1   6
ATOM      6  C   UNL     1     -94.995 149.462 239.969  1.00  0.00     0.000 C 
BRANCH   6   7
ATOM      7  C   UNL     1     -94.589 149.057 238.542  1.00  0.00    -0.000 C 
BRANCH   7   8
ATOM      8  C   UNL     1     -95.775 149.073 237.565  1.00  0.00    -0.003 C 
ATOM      9  C   UNL     1     -95.384 149.559 236.170  1.00  0.00     0.004 C 
ENDBRANCH   7   8
ENDBRANCH   6   7
ENDBRANCH   1   6
TORSDOF 5
ENDMDL
