MODEL 1
REMARK VINA RESULT:    -5.899      0.000      0.000
REMARK INTER + INTRA:          -6.072
REMARK INTER:                  -6.072
REMARK INTRA:                   0.000
REMARK UNBOUND:                 0.000
REMARK SMILES O=c1ccc2ccc(O)cc2o1
REMARK SMILES IDX 6 1 7 2 8 3 10 4 11 5 5 6 4 7 3 8 2 9 1 10 12 11 9 12
REMARK H PARENT 9 13
REMARK Flexibility Score: inf
ROOT
ATOM      1  C   UNL     1       1.266  47.139  24.678  1.00  0.00     0.016 A 
ATOM      2  C   UNL     1       0.561  47.108  23.471  1.00  0.00     0.047 A 
ATOM      3  C   UNL     1       1.190  47.481  22.274  1.00  0.00     0.119 A 
ATOM      4  C   UNL     1       2.530  47.887  22.286  1.00  0.00     0.094 A 
ATOM      5  C   UNL     1       3.243  47.922  23.489  1.00  0.00     0.142 A 
ATOM      6  C   UNL     1       2.608  47.545  24.693  1.00  0.00     0.018 A 
ATOM      7  C   UNL     1       3.348  47.591  25.880  1.00  0.00     0.019 A 
ATOM      8  C   UNL     1       4.680  48.001  25.840  1.00  0.00     0.094 A 
ATOM      9  C   UNL     1       5.243  48.359  24.611  1.00  0.00     0.336 A 
ATOM     10  O   UNL     1       6.444  48.733  24.555  1.00  0.00    -0.246 OA
ATOM     11  O   UNL     1       4.518  48.308  23.496  1.00  0.00    -0.423 OA
ENDROOT
BRANCH   3  12
ATOM     12  O   UNL     1       0.493  47.452  21.068  1.00  0.00    -0.508 OA
ATOM     13  H   UNL     1       0.234  46.578  20.627  1.00  0.00     0.293 HD
ENDBRANCH   3  12
TORSDOF 1
ENDMDL
MODEL 2
REMARK VINA RESULT:    -5.896      2.183      5.332
REMARK INTER + INTRA:          -6.068
REMARK INTER:                  -6.068
REMARK INTRA:                   0.000
REMARK UNBOUND:                 0.000
REMARK SMILES O=c1ccc2ccc(O)cc2o1
REMARK SMILES IDX 6 1 7 2 8 3 10 4 11 5 5 6 4 7 3 8 2 9 1 10 12 11 9 12
REMARK H PARENT 9 13
REMARK Flexibility Score: inf
ROOT
ATOM      1  C   UNL     1       6.716  48.369  26.911  1.00  0.00     0.016 A 
ATOM      2  C   UNL     1       7.921  49.010  26.612  1.00  0.00     0.047 A 
ATOM      3  C   UNL     1       8.260  49.297  25.282  1.00  0.00     0.119 A 
ATOM      4  C   UNL     1       7.388  48.940  24.246  1.00  0.00     0.094 A 
ATOM      5  C   UNL     1       6.180  48.297  24.535  1.00  0.00     0.142 A 
ATOM      6  C   UNL     1       5.840  48.010  25.877  1.00  0.00     0.018 A 
ATOM      7  C   UNL     1       4.625  47.366  26.134  1.00  0.00     0.019 A 
ATOM      8  C   UNL     1       3.790  47.031  25.069  1.00  0.00     0.094 A 
ATOM      9  C   UNL     1       4.191  47.347  23.767  1.00  0.00     0.336 A 
ATOM     10  O   UNL     1       3.450  47.051  22.792  1.00  0.00    -0.246 OA
ATOM     11  O   UNL     1       5.352  47.959  23.549  1.00  0.00    -0.423 OA
ENDROOT
BRANCH   3  12
ATOM     12  O   UNL     1       9.461  49.936  24.977  1.00  0.00    -0.508 OA
ATOM     13  H   UNL     1       9.576  50.467  24.123  1.00  0.00     0.293 HD
ENDBRANCH   3  12
TORSDOF 1
ENDMDL
MODEL 3
REMARK VINA RESULT:    -5.853     11.371     11.754
REMARK INTER + INTRA:          -6.024
REMARK INTER:                  -6.024
REMARK INTRA:                   0.000
REMARK UNBOUND:                 0.000
REMARK SMILES O=c1ccc2ccc(O)cc2o1
REMARK SMILES IDX 6 1 7 2 8 3 10 4 11 5 5 6 4 7 3 8 2 9 1 10 12 11 9 12
REMARK H PARENT 9 13
REMARK Flexibility Score: inf
ROOT
ATOM      1  C   UNL     1       3.177  58.137  22.634  1.00  0.00     0.016 A 
ATOM      2  C   UNL     1       2.713  56.819  22.592  1.00  0.00     0.047 A 
ATOM      3  C   UNL     1       1.408  56.514  23.009  1.00  0.00     0.119 A 
ATOM      4  C   UNL     1       0.566  57.533  23.470  1.00  0.00     0.094 A 
ATOM      5  C   UNL     1       1.022  58.854  23.517  1.00  0.00     0.142 A 
ATOM      6  C   UNL     1       2.336  59.160  23.096  1.00  0.00     0.018 A 
ATOM      7  C   UNL     1       2.762  60.490  23.154  1.00  0.00     0.019 A 
ATOM      8  C   UNL     1       1.886  61.470  23.621  1.00  0.00     0.094 A 
ATOM      9  C   UNL     1       0.599  61.094  24.021  1.00  0.00     0.336 A 
ATOM     10  O   UNL     1      -0.206  61.964  24.446  1.00  0.00    -0.246 OA
ATOM     11  O   UNL     1       0.218  59.821  23.956  1.00  0.00    -0.423 OA
ENDROOT
BRANCH   3  12
ATOM     12  O   UNL     1       0.940  55.202  22.969  1.00  0.00    -0.508 OA
ATOM     13  H   UNL     1       0.025  54.977  22.599  1.00  0.00     0.293 HD
ENDBRANCH   3  12
TORSDOF 1
ENDMDL
MODEL 4
REMARK VINA RESULT:    -5.834     11.139     11.396
REMARK INTER + INTRA:          -6.004
REMARK INTER:                  -6.004
REMARK INTRA:                   0.000
REMARK UNBOUND:                 0.000
REMARK SMILES O=c1ccc2ccc(O)cc2o1
REMARK SMILES IDX 6 1 7 2 8 3 10 4 11 5 5 6 4 7 3 8 2 9 1 10 12 11 9 12
REMARK H PARENT 9 13
REMARK Flexibility Score: inf
ROOT
ATOM      1  C   UNL     1       0.345  57.574  23.542  1.00  0.00     0.016 A 
ATOM      2  C   UNL     1       0.895  56.446  22.925  1.00  0.00     0.047 A 
ATOM      3  C   UNL     1       2.131  56.530  22.268  1.00  0.00     0.119 A 
ATOM      4  C   UNL     1       2.820  57.748  22.228  1.00  0.00     0.094 A 
ATOM      5  C   UNL     1       2.278  58.883  22.841  1.00  0.00     0.142 A 
ATOM      6  C   UNL     1       1.032  58.795  23.503  1.00  0.00     0.018 A 
ATOM      7  C   UNL     1       0.516  59.947  24.107  1.00  0.00     0.019 A 
ATOM      8  C   UNL     1       1.240  61.137  24.041  1.00  0.00     0.094 A 
ATOM      9  C   UNL     1       2.467  61.149  23.369  1.00  0.00     0.336 A 
ATOM     10  O   UNL     1       3.134  62.214  23.298  1.00  0.00    -0.246 OA
ATOM     11  O   UNL     1       2.935  60.040  22.802  1.00  0.00    -0.423 OA
ENDROOT
BRANCH   3  12
ATOM     12  O   UNL     1       2.684  55.409  21.651  1.00  0.00    -0.508 OA
ATOM     13  H   UNL     1       2.249  54.982  20.843  1.00  0.00     0.293 HD
ENDBRANCH   3  12
TORSDOF 1
ENDMDL
MODEL 5
REMARK VINA RESULT:    -5.780      0.793      4.220
REMARK INTER + INTRA:          -5.949
REMARK INTER:                  -5.949
REMARK INTRA:                   0.000
REMARK UNBOUND:                 0.000
REMARK SMILES O=c1ccc2ccc(O)cc2o1
REMARK SMILES IDX 6 1 7 2 8 3 10 4 11 5 5 6 4 7 3 8 2 9 1 10 12 11 9 12
REMARK H PARENT 9 13
REMARK Flexibility Score: inf
ROOT
ATOM      1  C   UNL     1       3.365  47.605  25.872  1.00  0.00     0.016 A 
ATOM      2  C   UNL     1       4.705  48.001  25.831  1.00  0.00     0.047 A 
ATOM      3  C   UNL     1       5.303  48.353  24.612  1.00  0.00     0.119 A 
ATOM      4  C   UNL     1       4.557  48.307  23.429  1.00  0.00     0.094 A 
ATOM      5  C   UNL     1       3.215  47.911  23.459  1.00  0.00     0.142 A 
ATOM      6  C   UNL     1       2.615  47.558  24.688  1.00  0.00     0.018 A 
ATOM      7  C   UNL     1       1.272  47.166  24.686  1.00  0.00     0.019 A 
ATOM      8  C   UNL     1       0.570  47.137  23.482  1.00  0.00     0.094 A 
ATOM      9  C   UNL     1       1.230  47.501  22.303  1.00  0.00     0.336 A 
ATOM     10  O   UNL     1       0.612  47.480  21.205  1.00  0.00    -0.246 OA
ATOM     11  O   UNL     1       2.508  47.869  22.332  1.00  0.00    -0.423 OA
ENDROOT
BRANCH   3  12
ATOM     12  O   UNL     1       6.639  48.749  24.565  1.00  0.00    -0.508 OA
ATOM     13  H   UNL     1       7.301  48.462  25.276  1.00  0.00     0.293 HD
ENDBRANCH   3  12
TORSDOF 1
ENDMDL
MODEL 6
REMARK VINA RESULT:    -5.764      1.644      5.013
REMARK INTER + INTRA:          -5.932
REMARK INTER:                  -5.932
REMARK INTRA:                   0.000
REMARK UNBOUND:                 0.000
REMARK SMILES O=c1ccc2ccc(O)cc2o1
REMARK SMILES IDX 6 1 7 2 8 3 10 4 11 5 5 6 4 7 3 8 2 9 1 10 12 11 9 12
REMARK H PARENT 9 13
REMARK Flexibility Score: inf
ROOT
ATOM      1  C   UNL     1       6.492  47.937  22.490  1.00  0.00     0.016 A 
ATOM      2  C   UNL     1       7.137  48.408  23.637  1.00  0.00     0.047 A 
ATOM      3  C   UNL     1       6.397  48.720  24.788  1.00  0.00     0.119 A 
ATOM      4  C   UNL     1       5.006  48.560  24.789  1.00  0.00     0.094 A 
ATOM      5  C   UNL     1       4.352  48.090  23.645  1.00  0.00     0.142 A 
ATOM      6  C   UNL     1       5.099  47.776  22.488  1.00  0.00     0.018 A 
ATOM      7  C   UNL     1       4.417  47.308  21.360  1.00  0.00     0.019 A 
ATOM      8  C   UNL     1       3.030  47.164  21.410  1.00  0.00     0.094 A 
ATOM      9  C   UNL     1       2.356  47.495  22.591  1.00  0.00     0.336 A 
ATOM     10  O   UNL     1       1.105  47.373  22.655  1.00  0.00    -0.246 OA
ATOM     11  O   UNL     1       3.029  47.939  23.649  1.00  0.00    -0.423 OA
ENDROOT
BRANCH   3  12
ATOM     12  O   UNL     1       7.034  49.190  25.935  1.00  0.00    -0.508 OA
ATOM     13  H   UNL     1       7.229  48.581  26.720  1.00  0.00     0.293 HD
ENDBRANCH   3  12
TORSDOF 1
ENDMDL
MODEL 7
REMARK VINA RESULT:    -5.622      9.336     10.069
REMARK INTER + INTRA:          -5.787
REMARK INTER:                  -5.787
REMARK INTRA:                   0.000
REMARK UNBOUND:                 0.000
REMARK SMILES O=c1ccc2ccc(O)cc2o1
REMARK SMILES IDX 6 1 7 2 8 3 10 4 11 5 5 6 4 7 3 8 2 9 1 10 12 11 9 12
REMARK H PARENT 9 13
REMARK Flexibility Score: inf
ROOT
ATOM      1  C   UNL     1       2.353  55.420  23.146  1.00  0.00     0.016 A 
ATOM      2  C   UNL     1       3.071  54.660  24.073  1.00  0.00     0.047 A 
ATOM      3  C   UNL     1       3.225  55.113  25.392  1.00  0.00     0.119 A 
ATOM      4  C   UNL     1       2.658  56.332  25.783  1.00  0.00     0.094 A 
ATOM      5  C   UNL     1       1.938  57.100  24.862  1.00  0.00     0.142 A 
ATOM      6  C   UNL     1       1.784  56.641  23.534  1.00  0.00     0.018 A 
ATOM      7  C   UNL     1       1.059  57.431  22.636  1.00  0.00     0.019 A 
ATOM      8  C   UNL     1       0.512  58.638  23.072  1.00  0.00     0.094 A 
ATOM      9  C   UNL     1       0.706  59.028  24.402  1.00  0.00     0.336 A 
ATOM     10  O   UNL     1       0.220  60.114  24.815  1.00  0.00    -0.246 OA
ATOM     11  O   UNL     1       1.400  58.259  25.237  1.00  0.00    -0.423 OA
ENDROOT
BRANCH   3  12
ATOM     12  O   UNL     1       3.940  54.360  26.322  1.00  0.00    -0.508 OA
ATOM     13  H   UNL     1       4.130  53.376  26.172  1.00  0.00     0.293 HD
ENDBRANCH   3  12
TORSDOF 1
ENDMDL
MODEL 8
REMARK VINA RESULT:    -5.620      8.723      9.100
REMARK INTER + INTRA:          -5.785
REMARK INTER:                  -5.785
REMARK INTRA:                   0.000
REMARK UNBOUND:                 0.000
REMARK SMILES O=c1ccc2ccc(O)cc2o1
REMARK SMILES IDX 6 1 7 2 8 3 10 4 11 5 5 6 4 7 3 8 2 9 1 10 12 11 9 12
REMARK H PARENT 9 13
REMARK Flexibility Score: inf
ROOT
ATOM      1  C   UNL     1       2.352  57.426  25.071  1.00  0.00     0.016 A 
ATOM      2  C   UNL     1       1.526  58.490  24.696  1.00  0.00     0.047 A 
ATOM      3  C   UNL     1       0.779  58.422  23.511  1.00  0.00     0.119 A 
ATOM      4  C   UNL     1       0.860  57.286  22.697  1.00  0.00     0.094 A 
ATOM      5  C   UNL     1       1.684  56.217  23.064  1.00  0.00     0.142 A 
ATOM      6  C   UNL     1       2.435  56.287  24.259  1.00  0.00     0.018 A 
ATOM      7  C   UNL     1       3.250  55.202  24.598  1.00  0.00     0.019 A 
ATOM      8  C   UNL     1       3.297  54.091  23.756  1.00  0.00     0.094 A 
ATOM      9  C   UNL     1       2.525  54.092  22.589  1.00  0.00     0.336 A 
ATOM     10  O   UNL     1       2.555  53.098  21.816  1.00  0.00    -0.246 OA
ATOM     11  O   UNL     1       1.758  55.137  22.288  1.00  0.00    -0.423 OA
ENDROOT
BRANCH   3  12
ATOM     12  O   UNL     1      -0.046  59.480  23.131  1.00  0.00    -0.508 OA
ATOM     13  H   UNL     1      -0.432  60.122  23.814  1.00  0.00     0.293 HD
ENDBRANCH   3  12
TORSDOF 1
ENDMDL
