MODEL 1
REMARK VINA RESULT:    -4.288      0.000      0.000
REMARK INTER + INTRA:          -5.685
REMARK INTER:                  -6.043
REMARK INTRA:                   0.358
REMARK UNBOUND:                 0.358
REMARK SMILES CC1=CCC(=C(C)C)C(=O)CC(C)=CCC1
REMARK SMILES IDX 12 1 14 2 13 3 15 4 16 5 2 6 1 7 3 8 11 10 9 11 10 12 5 13
REMARK SMILES IDX 6 14 7 15 8 16 4 17
REMARK H PARENT
REMARK Flexibility Score: 60.00
ROOT
ATOM      1  C   UNL     1     -16.162  12.498 -32.728  1.00  0.00    -0.070 C 
ATOM      2  C   UNL     1     -17.395  12.608 -32.184  1.00  0.00    -0.027 C 
ATOM      3  C   UNL     1     -15.800  13.428 -33.858  1.00  0.00     0.039 C 
ENDROOT
BRANCH   2   4
ATOM      4  C   UNL     1     -17.972  11.670 -31.154  1.00  0.00     0.032 C 
BRANCH   4   5
ATOM      5  C   UNL     1     -17.942  12.332 -29.772  1.00  0.00     0.034 C 
BRANCH   5   6
ATOM      6  C   UNL     1     -16.775  11.860 -28.929  1.00  0.00    -0.077 C 
ATOM      7  C   UNL     1     -16.951  10.628 -28.076  1.00  0.00     0.039 C 
ATOM      8  C   UNL     1     -15.550  12.442 -28.950  1.00  0.00    -0.023 CG0
ATOM      9  G   UNL     1     -15.145  13.712 -29.676  1.00  0.00     0.000 G0
ENDBRANCH   5   6
ENDBRANCH   4   5
ENDBRANCH   2   4
BRANCH   1  10
ATOM     10  C   UNL     1     -15.124  11.505 -32.247  1.00  0.00     0.111 C 
BRANCH  10  11
ATOM     11  C   UNL     1     -14.028  12.173 -31.455  1.00  0.00     0.163 C 
ATOM     12  O   UNL     1     -12.944  11.542 -31.328  1.00  0.00    -0.294 OA
BRANCH  11  13
ATOM     13  C   UNL     1     -14.155  13.537 -30.840  1.00  0.00    -0.002 C 
ATOM     14  C   UNL     1     -13.535  14.617 -31.409  1.00  0.00    -0.069 C 
ATOM     15  C   UNL     1     -13.822  16.033 -30.963  1.00  0.00     0.039 C 
ATOM     16  C   UNL     1     -12.484  14.449 -32.483  1.00  0.00     0.039 C 
BRANCH  13  17
ATOM     17  C   UNL     1     -15.135  13.709 -29.686  1.00  0.00     0.066 CG0
ATOM     18  G   UNL     1     -15.550  12.443 -28.955  1.00  0.00     0.000 G0
ENDBRANCH  13  17
ENDBRANCH  11  13
ENDBRANCH  10  11
ENDBRANCH   1  10
TORSDOF 0
ENDMDL
MODEL 2
REMARK VINA RESULT:    -4.256      2.149      4.415
REMARK INTER + INTRA:          -5.639
REMARK INTER:                  -5.583
REMARK INTRA:                  -0.056
REMARK UNBOUND:                 0.358
REMARK SMILES CC1=CCC(=C(C)C)C(=O)CC(C)=CCC1
REMARK SMILES IDX 12 1 14 2 13 3 15 4 16 5 2 6 1 7 3 8 11 10 9 11 10 12 5 13
REMARK SMILES IDX 6 14 7 15 8 16 4 17
REMARK H PARENT
REMARK Flexibility Score: 60.00
ROOT
ATOM      1  C   UNL     1     -17.994  12.336 -30.345  1.00  0.00    -0.070 C 
ATOM      2  C   UNL     1     -17.740  12.813 -31.585  1.00  0.00    -0.027 C 
ATOM      3  C   UNL     1     -19.391  11.860 -30.040  1.00  0.00     0.039 C 
ENDROOT
BRANCH   2   4
ATOM      4  C   UNL     1     -16.448  13.462 -32.014  1.00  0.00     0.032 C 
BRANCH   4   5
ATOM      5  C   UNL     1     -15.450  12.387 -32.459  1.00  0.00     0.034 C 
BRANCH   5   6
ATOM      6  C   UNL     1     -14.052  12.640 -31.934  1.00  0.00    -0.077 C 
ATOM      7  C   UNL     1     -13.306  13.857 -32.421  1.00  0.00     0.039 C 
ATOM      8  C   UNL     1     -13.455  11.872 -30.989  1.00  0.00    -0.023 CG0
ATOM      9  G   UNL     1     -13.974  10.576 -30.390  1.00  0.00     0.000 G0
ENDBRANCH   5   6
ENDBRANCH   4   5
ENDBRANCH   2   4
BRANCH   1  10
ATOM     10  C   UNL     1     -16.943  12.239 -29.258  1.00  0.00     0.111 C 
BRANCH  10  11
ATOM     11  C   UNL     1     -16.266  10.889 -29.247  1.00  0.00     0.163 C 
ATOM     12  O   UNL     1     -17.004   9.876 -29.379  1.00  0.00    -0.294 OA
BRANCH  11  13
ATOM     13  C   UNL     1     -14.783  10.701 -29.110  1.00  0.00    -0.002 C 
ATOM     14  C   UNL     1     -14.220  10.487 -27.880  1.00  0.00    -0.069 C 
ATOM     15  C   UNL     1     -12.776  10.065 -27.722  1.00  0.00     0.039 C 
ATOM     16  C   UNL     1     -14.999  10.714 -26.604  1.00  0.00     0.039 C 
BRANCH  13  17
ATOM     17  C   UNL     1     -13.961  10.573 -30.386  1.00  0.00     0.066 CG0
ATOM     18  G   UNL     1     -13.439  11.865 -30.989  1.00  0.00     0.000 G0
ENDBRANCH  13  17
ENDBRANCH  11  13
ENDBRANCH  10  11
ENDBRANCH   1  10
TORSDOF 0
ENDMDL
MODEL 3
REMARK VINA RESULT:    -4.156     10.421     11.987
REMARK INTER + INTRA:          -5.499
REMARK INTER:                  -5.460
REMARK INTRA:                  -0.039
REMARK UNBOUND:                 0.358
REMARK SMILES CC1=CCC(=C(C)C)C(=O)CC(C)=CCC1
REMARK SMILES IDX 12 1 14 2 13 3 15 4 16 5 2 6 1 7 3 8 11 10 9 11 10 12 5 13
REMARK SMILES IDX 6 14 7 15 8 16 4 17
REMARK H PARENT
REMARK Flexibility Score: 60.00
ROOT
ATOM      1  C   UNL     1     -24.279  19.680 -33.440  1.00  0.00    -0.070 C 
ATOM      2  C   UNL     1     -25.486  20.199 -33.762  1.00  0.00    -0.027 C 
ATOM      3  C   UNL     1     -23.159  20.637 -33.119  1.00  0.00     0.039 C 
ENDROOT
BRANCH   2   4
ATOM      4  C   UNL     1     -26.668  19.399 -34.250  1.00  0.00     0.032 C 
BRANCH   4   5
ATOM      5  C   UNL     1     -27.655  19.175 -33.099  1.00  0.00     0.034 C 
BRANCH   5   6
ATOM      6  C   UNL     1     -28.083  17.727 -32.977  1.00  0.00    -0.077 C 
ATOM      7  C   UNL     1     -29.179  17.219 -33.880  1.00  0.00     0.039 C 
ATOM      8  C   UNL     1     -27.486  16.835 -32.148  1.00  0.00    -0.023 CG0
ATOM      9  G   UNL     1     -26.410  17.115 -31.113  1.00  0.00     0.000 G0
ENDBRANCH   5   6
ENDBRANCH   4   5
ENDBRANCH   2   4
BRANCH   1  10
ATOM     10  C   UNL     1     -24.004  18.192 -33.367  1.00  0.00     0.111 C 
BRANCH  10  11
ATOM     11  C   UNL     1     -24.027  17.683 -31.947  1.00  0.00     0.163 C 
ATOM     12  O   UNL     1     -23.189  18.178 -31.146  1.00  0.00    -0.294 OA
BRANCH  11  13
ATOM     13  C   UNL     1     -24.996  16.652 -31.446  1.00  0.00    -0.002 C 
ATOM     14  C   UNL     1     -24.571  15.386 -31.146  1.00  0.00    -0.069 C 
ATOM     15  C   UNL     1     -25.455  14.392 -30.426  1.00  0.00     0.039 C 
ATOM     16  C   UNL     1     -23.205  14.890 -31.568  1.00  0.00     0.039 C 
BRANCH  13  17
ATOM     17  C   UNL     1     -26.411  17.108 -31.111  1.00  0.00     0.066 CG0
ATOM     18  G   UNL     1     -27.478  16.827 -32.155  1.00  0.00     0.000 G0
ENDBRANCH  13  17
ENDBRANCH  11  13
ENDBRANCH  10  11
ENDBRANCH   1  10
TORSDOF 0
ENDMDL
MODEL 4
REMARK VINA RESULT:    -4.121      1.564      2.142
REMARK INTER + INTRA:          -5.449
REMARK INTER:                  -5.768
REMARK INTRA:                   0.319
REMARK UNBOUND:                 0.358
REMARK SMILES CC1=CCC(=C(C)C)C(=O)CC(C)=CCC1
REMARK SMILES IDX 12 1 14 2 13 3 15 4 16 5 2 6 1 7 3 8 11 10 9 11 10 12 5 13
REMARK SMILES IDX 6 14 7 15 8 16 4 17
REMARK H PARENT
REMARK Flexibility Score: 60.00
ROOT
ATOM      1  C   UNL     1     -14.324  11.031 -31.169  1.00  0.00    -0.070 C 
ATOM      2  C   UNL     1     -15.095  10.319 -30.315  1.00  0.00    -0.027 C 
ATOM      3  C   UNL     1     -12.893  11.297 -30.777  1.00  0.00     0.039 C 
ENDROOT
BRANCH   2   4
ATOM      4  C   UNL     1     -16.577  10.088 -30.477  1.00  0.00     0.032 C 
BRANCH   4   5
ATOM      5  C   UNL     1     -17.354  11.285 -29.917  1.00  0.00     0.034 C 
BRANCH   5   6
ATOM      6  C   UNL     1     -16.586  12.020 -28.838  1.00  0.00    -0.077 C 
ATOM      7  C   UNL     1     -16.338  11.321 -27.524  1.00  0.00     0.039 C 
ATOM      8  C   UNL     1     -16.042  13.251 -29.009  1.00  0.00    -0.023 CG0
ATOM      9  G   UNL     1     -16.201  14.170 -30.207  1.00  0.00     0.000 G0
ENDBRANCH   5   6
ENDBRANCH   4   5
ENDBRANCH   2   4
BRANCH   1  10
ATOM     10  C   UNL     1     -14.820  11.555 -32.501  1.00  0.00     0.111 C 
BRANCH  10  11
ATOM     11  C   UNL     1     -15.617  12.827 -32.345  1.00  0.00     0.163 C 
ATOM     12  O   UNL     1     -16.651  12.947 -33.055  1.00  0.00    -0.294 OA
BRANCH  11  13
ATOM     13  C   UNL     1     -15.256  13.926 -31.388  1.00  0.00    -0.002 C 
ATOM     14  C   UNL     1     -14.213  14.770 -31.661  1.00  0.00    -0.069 C 
ATOM     15  C   UNL     1     -13.962  16.022 -30.849  1.00  0.00     0.039 C 
ATOM     16  C   UNL     1     -13.219  14.469 -32.760  1.00  0.00     0.039 C 
BRANCH  13  17
ATOM     17  C   UNL     1     -16.191  14.181 -30.212  1.00  0.00     0.066 CG0
ATOM     18  G   UNL     1     -16.041  13.258 -29.015  1.00  0.00     0.000 G0
ENDBRANCH  13  17
ENDBRANCH  11  13
ENDBRANCH  10  11
ENDBRANCH   1  10
TORSDOF 0
ENDMDL
MODEL 5
REMARK VINA RESULT:    -4.096      1.753      2.802
REMARK INTER + INTRA:          -5.413
REMARK INTER:                  -5.925
REMARK INTRA:                   0.511
REMARK UNBOUND:                 0.358
REMARK SMILES CC1=CCC(=C(C)C)C(=O)CC(C)=CCC1
REMARK SMILES IDX 12 1 14 2 13 3 15 4 16 5 2 6 1 7 3 8 11 10 9 11 10 12 5 13
REMARK SMILES IDX 6 14 7 15 8 16 4 17
REMARK H PARENT
REMARK Flexibility Score: 60.00
ROOT
ATOM      1  C   UNL     1     -15.798  13.780 -30.771  1.00  0.00    -0.070 C 
ATOM      2  C   UNL     1     -16.413  13.771 -29.566  1.00  0.00    -0.027 C 
ATOM      3  C   UNL     1     -14.603  14.683 -30.950  1.00  0.00     0.039 C 
ENDROOT
BRANCH   2   4
ATOM      4  C   UNL     1     -17.699  13.045 -29.258  1.00  0.00     0.032 C 
BRANCH   4   5
ATOM      5  C   UNL     1     -17.496  11.535 -29.426  1.00  0.00     0.034 C 
BRANCH   5   6
ATOM      6  C   UNL     1     -16.292  11.024 -28.663  1.00  0.00    -0.077 C 
ATOM      7  C   UNL     1     -16.248  11.216 -27.167  1.00  0.00     0.039 C 
ATOM      8  C   UNL     1     -15.276  10.334 -29.239  1.00  0.00    -0.023 CG0
ATOM      9  G   UNL     1     -15.066  10.065 -30.719  1.00  0.00     0.000 G0
ENDBRANCH   5   6
ENDBRANCH   4   5
ENDBRANCH   2   4
BRANCH   1  10
ATOM     10  C   UNL     1     -16.236  12.919 -31.938  1.00  0.00     0.111 C 
BRANCH  10  11
ATOM     11  C   UNL     1     -15.128  12.014 -32.418  1.00  0.00     0.163 C 
ATOM     12  O   UNL     1     -14.871  12.026 -33.652  1.00  0.00    -0.294 OA
BRANCH  11  13
ATOM     13  C   UNL     1     -14.317  11.134 -31.512  1.00  0.00    -0.002 C 
ATOM     14  C   UNL     1     -12.995  11.404 -31.282  1.00  0.00    -0.069 C 
ATOM     15  C   UNL     1     -12.207  10.690 -30.206  1.00  0.00     0.039 C 
ATOM     16  C   UNL     1     -12.231  12.396 -32.130  1.00  0.00     0.039 C 
BRANCH  13  17
ATOM     17  C   UNL     1     -15.051  10.057 -30.723  1.00  0.00     0.066 CG0
ATOM     18  G   UNL     1     -15.284  10.337 -29.248  1.00  0.00     0.000 G0
ENDBRANCH  13  17
ENDBRANCH  11  13
ENDBRANCH  10  11
ENDBRANCH   1  10
TORSDOF 0
ENDMDL
MODEL 6
REMARK VINA RESULT:    -4.084      9.680     11.965
REMARK INTER + INTRA:          -5.397
REMARK INTER:                  -6.155
REMARK INTRA:                   0.758
REMARK UNBOUND:                 0.358
REMARK SMILES CC1=CCC(=C(C)C)C(=O)CC(C)=CCC1
REMARK SMILES IDX 12 1 14 2 13 3 15 4 16 5 2 6 1 7 3 8 11 10 9 11 10 12 5 13
REMARK SMILES IDX 6 14 7 15 8 16 4 17
REMARK H PARENT
REMARK Flexibility Score: 60.00
ROOT
ATOM      1  C   UNL     1     -28.987  11.981 -29.774  1.00  0.00    -0.070 C 
ATOM      2  C   UNL     1     -29.152  12.851 -30.796  1.00  0.00    -0.027 C 
ATOM      3  C   UNL     1     -29.671  10.641 -29.865  1.00  0.00     0.039 C 
ENDROOT
BRANCH   2   4
ATOM      4  C   UNL     1     -28.665  14.279 -30.803  1.00  0.00     0.032 C 
BRANCH   4   5
ATOM      5  C   UNL     1     -27.383  14.386 -31.637  1.00  0.00     0.034 C 
BRANCH   5   6
ATOM      6  C   UNL     1     -26.161  14.667 -30.787  1.00  0.00    -0.077 C 
ATOM      7  C   UNL     1     -25.772  16.102 -30.531  1.00  0.00     0.039 C 
ATOM      8  C   UNL     1     -25.432  13.699 -30.177  1.00  0.00    -0.023 CG0
ATOM      9  G   UNL     1     -25.588  12.196 -30.324  1.00  0.00     0.000 G0
ENDBRANCH   5   6
ENDBRANCH   4   5
ENDBRANCH   2   4
BRANCH   1  10
ATOM     10  C   UNL     1     -28.135  12.277 -28.556  1.00  0.00     0.111 C 
BRANCH  10  11
ATOM     11  C   UNL     1     -27.030  11.265 -28.381  1.00  0.00     0.163 C 
ATOM     12  O   UNL     1     -27.277  10.266 -27.653  1.00  0.00    -0.294 OA
BRANCH  11  13
ATOM     13  C   UNL     1     -25.684  11.377 -29.037  1.00  0.00    -0.002 C 
ATOM     14  C   UNL     1     -24.625  10.638 -28.582  1.00  0.00    -0.069 C 
ATOM     15  C   UNL     1     -23.325  10.544 -29.348  1.00  0.00     0.039 C 
ATOM     16  C   UNL     1     -24.679   9.913 -27.255  1.00  0.00     0.039 C 
BRANCH  13  17
ATOM     17  C   UNL     1     -25.584  12.189 -30.322  1.00  0.00     0.066 CG0
ATOM     18  G   UNL     1     -25.432  13.692 -30.164  1.00  0.00     0.000 G0
ENDBRANCH  13  17
ENDBRANCH  11  13
ENDBRANCH  10  11
ENDBRANCH   1  10
TORSDOF 0
ENDMDL
MODEL 7
REMARK VINA RESULT:    -4.007      1.884      3.072
REMARK INTER + INTRA:          -5.288
REMARK INTER:                  -5.316
REMARK INTRA:                   0.028
REMARK UNBOUND:                 0.358
REMARK SMILES CC1=CCC(=C(C)C)C(=O)CC(C)=CCC1
REMARK SMILES IDX 12 1 14 2 13 3 15 4 16 5 2 6 1 7 3 8 11 10 9 11 10 12 5 13
REMARK SMILES IDX 6 14 7 15 8 16 4 17
REMARK H PARENT
REMARK Flexibility Score: 60.00
ROOT
ATOM      1  C   UNL     1     -18.083  11.779 -29.939  1.00  0.00    -0.070 C 
ATOM      2  C   UNL     1     -17.776  11.427 -28.670  1.00  0.00    -0.027 C 
ATOM      3  C   UNL     1     -19.360  12.547 -30.171  1.00  0.00     0.039 C 
ENDROOT
BRANCH   2   4
ATOM      4  C   UNL     1     -16.623  10.537 -28.276  1.00  0.00     0.032 C 
BRANCH   4   5
ATOM      5  C   UNL     1     -15.490  11.385 -27.687  1.00  0.00     0.034 C 
BRANCH   5   6
ATOM      6  C   UNL     1     -14.157  11.114 -28.355  1.00  0.00    -0.077 C 
ATOM      7  C   UNL     1     -13.301   9.989 -27.830  1.00  0.00     0.039 C 
ATOM      8  C   UNL     1     -13.717  11.782 -29.450  1.00  0.00    -0.023 CG0
ATOM      9  G   UNL     1     -14.366  12.980 -30.123  1.00  0.00     0.000 G0
ENDBRANCH   5   6
ENDBRANCH   4   5
ENDBRANCH   2   4
BRANCH   1  10
ATOM     10  C   UNL     1     -17.204  11.459 -31.130  1.00  0.00     0.111 C 
BRANCH  10  11
ATOM     11  C   UNL     1     -16.446  12.672 -31.613  1.00  0.00     0.163 C 
ATOM     12  O   UNL     1     -17.122  13.609 -32.116  1.00  0.00    -0.294 OA
BRANCH  11  13
ATOM     13  C   UNL     1     -14.956  12.821 -31.507  1.00  0.00    -0.002 C 
ATOM     14  C   UNL     1     -14.188  12.952 -32.633  1.00  0.00    -0.069 C 
ATOM     15  C   UNL     1     -12.726  13.335 -32.566  1.00  0.00     0.039 C 
ATOM     16  C   UNL     1     -14.748  12.668 -34.008  1.00  0.00     0.039 C 
BRANCH  13  17
ATOM     17  C   UNL     1     -14.357  13.006 -30.118  1.00  0.00     0.066 CG0
ATOM     18  G   UNL     1     -13.727  11.779 -29.482  1.00  0.00     0.000 G0
ENDBRANCH  13  17
ENDBRANCH  11  13
ENDBRANCH  10  11
ENDBRANCH   1  10
TORSDOF 0
ENDMDL
MODEL 8
REMARK VINA RESULT:    -3.684      1.961      4.751
REMARK INTER + INTRA:          -4.833
REMARK INTER:                  -4.926
REMARK INTRA:                   0.093
REMARK UNBOUND:                 0.358
REMARK SMILES CC1=CCC(=C(C)C)C(=O)CC(C)=CCC1
REMARK SMILES IDX 12 1 14 2 13 3 15 4 16 5 2 6 1 7 3 8 11 10 9 11 10 12 5 13
REMARK SMILES IDX 6 14 7 15 8 16 4 17
REMARK H PARENT
REMARK Flexibility Score: 60.00
ROOT
ATOM      1  C   UNL     1     -15.383  14.351 -31.250  1.00  0.00    -0.070 C 
ATOM      2  C   UNL     1     -14.306  15.169 -31.289  1.00  0.00    -0.027 C 
ATOM      3  C   UNL     1     -16.248  14.376 -30.016  1.00  0.00     0.039 C 
ENDROOT
BRANCH   2   4
ATOM      4  C   UNL     1     -13.258  15.167 -32.373  1.00  0.00     0.032 C 
BRANCH   4   5
ATOM      5  C   UNL     1     -12.008  14.424 -31.887  1.00  0.00     0.034 C 
BRANCH   5   6
ATOM      6  C   UNL     1     -11.863  13.056 -32.522  1.00  0.00    -0.077 C 
ATOM      7  C   UNL     1     -11.106  12.939 -33.821  1.00  0.00     0.039 C 
ATOM      8  C   UNL     1     -12.315  11.912 -31.950  1.00  0.00    -0.023 CG0
ATOM      9  G   UNL     1     -13.147  11.778 -30.687  1.00  0.00     0.000 G0
ENDBRANCH   5   6
ENDBRANCH   4   5
ENDBRANCH   2   4
BRANCH   1  10
ATOM     10  C   UNL     1     -15.771  13.430 -32.389  1.00  0.00     0.111 C 
BRANCH  10  11
ATOM     11  C   UNL     1     -15.267  12.024 -32.173  1.00  0.00     0.163 C 
ATOM     12  O   UNL     1     -15.363  11.225 -33.143  1.00  0.00    -0.294 OA
BRANCH  11  13
ATOM     13  C   UNL     1     -14.648  11.547 -30.892  1.00  0.00    -0.002 C 
ATOM     14  C   UNL     1     -15.376  10.802 -30.003  1.00  0.00    -0.069 C 
ATOM     15  C   UNL     1     -14.733  10.110 -28.822  1.00  0.00     0.039 C 
ATOM     16  C   UNL     1     -16.877  10.672 -30.125  1.00  0.00     0.039 C 
BRANCH  13  17
ATOM     17  C   UNL     1     -13.151  11.759 -30.702  1.00  0.00     0.066 CG0
ATOM     18  G   UNL     1     -12.322  11.908 -31.966  1.00  0.00     0.000 G0
ENDBRANCH  13  17
ENDBRANCH  11  13
ENDBRANCH  10  11
ENDBRANCH   1  10
TORSDOF 0
ENDMDL
MODEL 9
REMARK VINA RESULT:    -3.616      2.017      3.569
REMARK INTER + INTRA:          -4.738
REMARK INTER:                  -5.336
REMARK INTRA:                   0.598
REMARK UNBOUND:                 0.358
REMARK SMILES CC1=CCC(=C(C)C)C(=O)CC(C)=CCC1
REMARK SMILES IDX 12 1 14 2 13 3 15 4 16 5 2 6 1 7 3 8 11 10 9 11 10 12 5 13
REMARK SMILES IDX 6 14 7 15 8 16 4 17
REMARK H PARENT
REMARK Flexibility Score: 60.00
ROOT
ATOM      1  C   UNL     1     -15.938  11.852 -28.455  1.00  0.00    -0.070 C 
ATOM      2  C   UNL     1     -16.549  10.695 -28.797  1.00  0.00    -0.027 C 
ATOM      3  C   UNL     1     -16.251  12.448 -27.106  1.00  0.00     0.039 C 
ENDROOT
BRANCH   2   4
ATOM      4  C   UNL     1     -16.466  10.042 -30.154  1.00  0.00     0.032 C 
BRANCH   4   5
ATOM      5  C   UNL     1     -17.858  10.001 -30.797  1.00  0.00     0.034 C 
BRANCH   5   6
ATOM      6  C   UNL     1     -18.594  11.318 -30.669  1.00  0.00    -0.077 C 
ATOM      7  C   UNL     1     -19.768  11.402 -29.726  1.00  0.00     0.039 C 
ATOM      8  C   UNL     1     -18.213  12.456 -31.303  1.00  0.00    -0.023 CG0
ATOM      9  G   UNL     1     -17.109  12.610 -32.335  1.00  0.00     0.000 G0
ENDBRANCH   5   6
ENDBRANCH   4   5
ENDBRANCH   2   4
BRANCH   1  10
ATOM     10  C   UNL     1     -14.944  12.566 -29.349  1.00  0.00     0.111 C 
BRANCH  10  11
ATOM     11  C   UNL     1     -15.630  13.446 -30.365  1.00  0.00     0.163 C 
ATOM     12  O   UNL     1     -16.114  14.533 -29.950  1.00  0.00    -0.294 OA
BRANCH  11  13
ATOM     13  C   UNL     1     -15.742  13.105 -31.823  1.00  0.00    -0.002 C 
ATOM     14  C   UNL     1     -14.628  13.076 -32.618  1.00  0.00    -0.069 C 
ATOM     15  C   UNL     1     -14.660  12.517 -34.023  1.00  0.00     0.039 C 
ATOM     16  C   UNL     1     -13.310  13.652 -32.152  1.00  0.00     0.039 C 
BRANCH  13  17
ATOM     17  C   UNL     1     -17.092  12.619 -32.338  1.00  0.00     0.066 CG0
ATOM     18  G   UNL     1     -18.193  12.456 -31.305  1.00  0.00     0.000 G0
ENDBRANCH  13  17
ENDBRANCH  11  13
ENDBRANCH  10  11
ENDBRANCH   1  10
TORSDOF 0
ENDMDL
