MODEL 1
REMARK VINA RESULT:     2.883      0.000      0.000
REMARK INTER + INTRA:           3.931
REMARK INTER:                   3.473
REMARK INTRA:                   0.458
REMARK UNBOUND:                 0.458
REMARK SMILES O=c1c(O)c(-c2ccc(O)c(O)c2)oc2cc(O)cc(O)c12
REMARK SMILES IDX 5 1 3 2 2 3 1 4 22 5 20 6 19 7 17 8 16 9 15 10 14 11 6 12
REMARK SMILES IDX 7 13 8 14 9 15 13 16 11 17 10 18 12 20 4 22 21 24 18 26
REMARK H PARENT 10 19 12 21 4 23 21 25 18 27
REMARK Flexibility Score: inf
ROOT
ATOM      1  C   UNL     1      21.039   8.553   6.285  1.00  0.00     0.180 A 
ATOM      2  C   UNL     1      20.445   7.435   6.896  1.00  0.00     0.208 A 
ATOM      3  C   UNL     1      21.159   6.228   6.946  1.00  0.00     0.238 A 
ATOM      4  O   UNL     1      20.644   5.246   7.542  1.00  0.00    -0.285 OA
ATOM      5  C   UNL     1      22.450   6.148   6.372  1.00  0.00     0.111 A 
ATOM      6  C   UNL     1      23.248   4.965   6.330  1.00  0.00     0.134 A 
ATOM      7  C   UNL     1      24.562   5.035   5.854  1.00  0.00     0.093 A 
ATOM      8  C   UNL     1      25.086   6.227   5.357  1.00  0.00     0.123 A 
ATOM      9  C   UNL     1      24.296   7.377   5.338  1.00  0.00     0.094 A 
ATOM     10  C   UNL     1      22.992   7.348   5.841  1.00  0.00     0.146 A 
ATOM     11  O   UNL     1      22.276   8.465   5.814  1.00  0.00    -0.452 OA
ENDROOT
BRANCH   1  12
ATOM     12  C   UNL     1      20.339   9.854   6.171  1.00  0.00     0.025 A 
ATOM     13  C   UNL     1      21.046  11.048   5.947  1.00  0.00     0.016 A 
ATOM     14  C   UNL     1      20.367  12.267   5.869  1.00  0.00     0.051 A 
ATOM     15  C   UNL     1      18.975  12.313   6.026  1.00  0.00     0.157 A 
ATOM     16  C   UNL     1      18.947   9.908   6.349  1.00  0.00     0.062 A 
ATOM     17  C   UNL     1      18.263  11.127   6.271  1.00  0.00     0.158 A 
BRANCH  15  18
ATOM     18  O   UNL     1      18.300  13.530   5.945  1.00  0.00    -0.504 OA
ATOM     19  H   UNL     1      18.196  14.021   5.064  1.00  0.00     0.293 HD
ENDBRANCH  15  18
BRANCH  17  20
ATOM     20  O   UNL     1      16.879  11.139   6.438  1.00  0.00    -0.504 OA
ATOM     21  H   UNL     1      16.295  11.860   6.034  1.00  0.00     0.293 HD
ENDBRANCH  17  20
ENDBRANCH   1  12
BRANCH   2  22
ATOM     22  O   UNL     1      19.177   7.541   7.475  1.00  0.00    -0.502 OA
ATOM     23  H   UNL     1      18.874   6.943   8.235  1.00  0.00     0.293 HD
ENDBRANCH   2  22
BRANCH   6  24
ATOM     24  O   UNL     1      22.790   3.702   6.716  1.00  0.00    -0.507 OA
ATOM     25  H   UNL     1      22.517   3.451   7.654  1.00  0.00     0.293 HD
ENDBRANCH   6  24
BRANCH   8  26
ATOM     26  O   UNL     1      26.394   6.257   4.876  1.00  0.00    -0.508 OA
ATOM     27  H   UNL     1      27.130   6.745   5.373  1.00  0.00     0.293 HD
ENDBRANCH   8  26
TORSDOF 6
ENDMDL
MODEL 2
REMARK VINA RESULT:     4.595      1.073      1.695
REMARK INTER + INTRA:           5.994
REMARK INTER:                   5.523
REMARK INTRA:                   0.471
REMARK UNBOUND:                 0.458
REMARK SMILES O=c1c(O)c(-c2ccc(O)c(O)c2)oc2cc(O)cc(O)c12
REMARK SMILES IDX 5 1 3 2 2 3 1 4 22 5 20 6 19 7 17 8 16 9 15 10 14 11 6 12
REMARK SMILES IDX 7 13 8 14 9 15 13 16 11 17 10 18 12 20 4 22 21 24 18 26
REMARK H PARENT 10 19 12 21 4 23 21 25 18 27
REMARK Flexibility Score: inf
ROOT
ATOM      1  C   UNL     1      21.118   8.340   5.824  1.00  0.00     0.180 A 
ATOM      2  C   UNL     1      20.590   7.038   5.883  1.00  0.00     0.208 A 
ATOM      3  C   UNL     1      21.446   5.946   5.671  1.00  0.00     0.238 A 
ATOM      4  O   UNL     1      20.979   4.782   5.779  1.00  0.00    -0.285 OA
ATOM      5  C   UNL     1      22.815   6.169   5.387  1.00  0.00     0.111 A 
ATOM      6  C   UNL     1      23.765   5.138   5.116  1.00  0.00     0.134 A 
ATOM      7  C   UNL     1      25.119   5.466   4.978  1.00  0.00     0.093 A 
ATOM      8  C   UNL     1      25.548   6.791   5.034  1.00  0.00     0.123 A 
ATOM      9  C   UNL     1      24.621   7.813   5.239  1.00  0.00     0.094 A 
ATOM     10  C   UNL     1      23.267   7.514   5.418  1.00  0.00     0.146 A 
ATOM     11  O   UNL     1      22.418   8.513   5.621  1.00  0.00    -0.452 OA
ENDROOT
BRANCH   1  12
ATOM     12  C   UNL     1      20.273   9.542   6.013  1.00  0.00     0.025 A 
ATOM     13  C   UNL     1      18.882   9.437   6.195  1.00  0.00     0.016 A 
ATOM     14  C   UNL     1      18.102  10.586   6.346  1.00  0.00     0.051 A 
ATOM     15  C   UNL     1      18.695  11.856   6.304  1.00  0.00     0.157 A 
ATOM     16  C   UNL     1      20.859  10.816   5.951  1.00  0.00     0.062 A 
ATOM     17  C   UNL     1      20.080  11.969   6.101  1.00  0.00     0.158 A 
BRANCH  15  18
ATOM     18  O   UNL     1      17.914  13.000   6.457  1.00  0.00    -0.504 OA
ATOM     19  H   UNL     1      17.837  13.692   5.720  1.00  0.00     0.293 HD
ENDBRANCH  15  18
BRANCH  17  20
ATOM     20  O   UNL     1      20.701  13.217   6.048  1.00  0.00    -0.504 OA
ATOM     21  H   UNL     1      21.638  13.336   5.683  1.00  0.00     0.293 HD
ENDBRANCH  17  20
ENDBRANCH   1  12
BRANCH   2  22
ATOM     22  O   UNL     1      19.240   6.840   6.186  1.00  0.00    -0.502 OA
ATOM     23  H   UNL     1      18.631   7.595   6.478  1.00  0.00     0.293 HD
ENDBRANCH   2  22
BRANCH   6  24
ATOM     24  O   UNL     1      23.428   3.792   4.948  1.00  0.00    -0.507 OA
ATOM     25  H   UNL     1      24.064   3.020   5.076  1.00  0.00     0.293 HD
ENDBRANCH   6  24
BRANCH   8  26
ATOM     26  O   UNL     1      26.902   7.083   4.876  1.00  0.00    -0.508 OA
ATOM     27  H   UNL     1      27.284   7.985   5.135  1.00  0.00     0.293 HD
ENDBRANCH   8  26
TORSDOF 6
ENDMDL
MODEL 3
REMARK VINA RESULT:     4.842      1.286      3.106
REMARK INTER + INTRA:           6.291
REMARK INTER:                   5.824
REMARK INTRA:                   0.467
REMARK UNBOUND:                 0.458
REMARK SMILES O=c1c(O)c(-c2ccc(O)c(O)c2)oc2cc(O)cc(O)c12
REMARK SMILES IDX 5 1 3 2 2 3 1 4 22 5 20 6 19 7 17 8 16 9 15 10 14 11 6 12
REMARK SMILES IDX 7 13 8 14 9 15 13 16 11 17 10 18 12 20 4 22 21 24 18 26
REMARK H PARENT 10 19 12 21 4 23 21 25 18 27
REMARK Flexibility Score: inf
ROOT
ATOM      1  C   UNL     1      20.906   8.910   6.012  1.00  0.00     0.180 A 
ATOM      2  C   UNL     1      22.179   9.156   5.469  1.00  0.00     0.208 A 
ATOM      3  C   UNL     1      23.108   8.106   5.411  1.00  0.00     0.238 A 
ATOM      4  O   UNL     1      24.227   8.319   4.875  1.00  0.00    -0.285 OA
ATOM      5  C   UNL     1      22.761   6.829   5.911  1.00  0.00     0.111 A 
ATOM      6  C   UNL     1      23.638   5.702   5.940  1.00  0.00     0.134 A 
ATOM      7  C   UNL     1      23.145   4.453   6.336  1.00  0.00     0.093 A 
ATOM      8  C   UNL     1      21.828   4.302   6.766  1.00  0.00     0.123 A 
ATOM      9  C   UNL     1      20.977   5.408   6.799  1.00  0.00     0.094 A 
ATOM     10  C   UNL     1      21.430   6.660   6.375  1.00  0.00     0.146 A 
ATOM     11  O   UNL     1      20.587   7.685   6.412  1.00  0.00    -0.452 OA
ENDROOT
BRANCH   1  12
ATOM     12  C   UNL     1      19.880   9.973   6.128  1.00  0.00     0.025 A 
ATOM     13  C   UNL     1      18.521   9.661   6.306  1.00  0.00     0.016 A 
ATOM     14  C   UNL     1      17.567  10.679   6.389  1.00  0.00     0.051 A 
ATOM     15  C   UNL     1      17.955  12.022   6.282  1.00  0.00     0.157 A 
ATOM     16  C   UNL     1      20.260  11.318   6.001  1.00  0.00     0.062 A 
ATOM     17  C   UNL     1      19.308  12.341   6.084  1.00  0.00     0.158 A 
BRANCH  15  18
ATOM     18  O   UNL     1      17.002  13.035   6.367  1.00  0.00    -0.504 OA
ATOM     19  H   UNL     1      16.012  12.843   6.259  1.00  0.00     0.293 HD
ENDBRANCH  15  18
BRANCH  17  20
ATOM     20  O   UNL     1      19.726  13.666   5.967  1.00  0.00    -0.504 OA
ATOM     21  H   UNL     1      19.889  14.101   5.066  1.00  0.00     0.293 HD
ENDBRANCH  17  20
ENDBRANCH   1  12
BRANCH   2  22
ATOM     22  O   UNL     1      22.495  10.420   4.962  1.00  0.00    -0.502 OA
ATOM     23  H   UNL     1      23.447  10.707   4.769  1.00  0.00     0.293 HD
ENDBRANCH   2  22
BRANCH   6  24
ATOM     24  O   UNL     1      24.997   5.764   5.618  1.00  0.00    -0.507 OA
ATOM     25  H   UNL     1      25.436   6.525   5.124  1.00  0.00     0.293 HD
ENDBRANCH   6  24
BRANCH   8  26
ATOM     26  O   UNL     1      21.376   3.047   7.169  1.00  0.00    -0.508 OA
ATOM     27  H   UNL     1      20.406   2.773   7.060  1.00  0.00     0.293 HD
ENDBRANCH   8  26
TORSDOF 6
ENDMDL
