MODEL 1
REMARK VINA RESULT:    -3.750      0.000      0.000
REMARK INTER + INTRA:          -4.228
REMARK INTER:                  -5.285
REMARK INTRA:                   1.057
REMARK UNBOUND:                 1.057
REMARK SMILES CC1=CCC(=C(C)C)C(=O)CC(C)=CCC1
REMARK SMILES IDX 12 1 14 2 13 3 15 4 16 5 2 6 1 7 3 8 11 10 9 11 10 12 5 13
REMARK SMILES IDX 6 14 7 15 8 16 4 17
REMARK H PARENT
REMARK Flexibility Score: 60.00
ROOT
ATOM      1  C   UNL     1     165.486 199.956 304.281  1.00  0.00    -0.070 C 
ATOM      2  C   UNL     1     164.762 200.943 304.859  1.00  0.00    -0.027 C 
ATOM      3  C   UNL     1     166.566 199.309 305.111  1.00  0.00     0.039 C 
ENDROOT
BRANCH   2   4
ATOM      4  C   UNL     1     163.712 201.794 304.186  1.00  0.00     0.032 C 
BRANCH   4   5
ATOM      5  C   UNL     1     164.321 202.954 303.375  1.00  0.00     0.034 C 
BRANCH   5   6
ATOM      6  C   UNL     1     164.147 202.761 301.881  1.00  0.00    -0.077 C 
ATOM      7  C   UNL     1     162.796 203.048 301.275  1.00  0.00     0.039 C 
ATOM      8  C   UNL     1     165.142 202.370 301.054  1.00  0.00    -0.023 CG0
ATOM      9  G   UNL     1     166.564 202.070 301.465  1.00  0.00     0.000 G0
ENDBRANCH   5   6
ENDBRANCH   4   5
ENDBRANCH   2   4
BRANCH   1  10
ATOM     10  C   UNL     1     165.312 199.517 302.836  1.00  0.00     0.111 C 
BRANCH  10  11
ATOM     11  C   UNL     1     166.617 199.558 302.083  1.00  0.00     0.163 C 
ATOM     12  O   UNL     1     167.442 198.624 302.273  1.00  0.00    -0.294 OA
BRANCH  11  13
ATOM     13  C   UNL     1     166.926 200.636 301.092  1.00  0.00    -0.002 C 
ATOM     14  C   UNL     1     167.571 200.368 299.915  1.00  0.00    -0.069 C 
ATOM     15  C   UNL     1     168.070 198.980 299.583  1.00  0.00     0.039 C 
ATOM     16  C   UNL     1     167.845 201.458 298.902  1.00  0.00     0.039 C 
BRANCH  13  17
ATOM     17  C   UNL     1     166.562 202.057 301.482  1.00  0.00     0.066 CG0
ATOM     18  G   UNL     1     165.147 202.359 301.051  1.00  0.00     0.000 G0
ENDBRANCH  13  17
ENDBRANCH  11  13
ENDBRANCH  10  11
ENDBRANCH   1  10
TORSDOF 0
ENDMDL
MODEL 2
REMARK VINA RESULT:    -3.370      1.647      3.615
REMARK INTER + INTRA:          -3.693
REMARK INTER:                  -4.431
REMARK INTRA:                   0.738
REMARK UNBOUND:                 1.057
REMARK SMILES CC1=CCC(=C(C)C)C(=O)CC(C)=CCC1
REMARK SMILES IDX 12 1 14 2 13 3 15 4 16 5 2 6 1 7 3 8 11 10 9 11 10 12 5 13
REMARK SMILES IDX 6 14 7 15 8 16 4 17
REMARK H PARENT
REMARK Flexibility Score: 60.00
ROOT
ATOM      1  C   UNL     1     164.013 202.769 302.044  1.00  0.00    -0.070 C 
ATOM      2  C   UNL     1     163.517 202.356 303.234  1.00  0.00    -0.027 C 
ATOM      3  C   UNL     1     163.021 203.125 300.964  1.00  0.00     0.039 C 
ENDROOT
BRANCH   2   4
ATOM      4  C   UNL     1     164.318 201.853 304.411  1.00  0.00     0.032 C 
BRANCH   4   5
ATOM      5  C   UNL     1     164.492 200.322 304.397  1.00  0.00     0.034 C 
BRANCH   5   6
ATOM      6  C   UNL     1     165.944 199.912 304.242  1.00  0.00    -0.077 C 
ATOM      7  C   UNL     1     166.790 199.794 305.484  1.00  0.00     0.039 C 
ATOM      8  C   UNL     1     166.519 199.620 303.054  1.00  0.00    -0.023 CG0
ATOM      9  G   UNL     1     165.830 199.648 301.710  1.00  0.00     0.000 G0
ENDBRANCH   5   6
ENDBRANCH   4   5
ENDBRANCH   2   4
BRANCH   1  10
ATOM     10  C   UNL     1     165.496 202.829 301.722  1.00  0.00     0.111 C 
BRANCH  10  11
ATOM     11  C   UNL     1     165.849 201.934 300.560  1.00  0.00     0.163 C 
ATOM     12  O   UNL     1     165.614 202.355 299.395  1.00  0.00    -0.294 OA
BRANCH  11  13
ATOM     13  C   UNL     1     166.509 200.606 300.755  1.00  0.00    -0.002 C 
ATOM     14  C   UNL     1     167.638 200.256 300.066  1.00  0.00    -0.069 C 
ATOM     15  C   UNL     1     168.239 201.162 299.017  1.00  0.00     0.039 C 
ATOM     16  C   UNL     1     168.320 198.925 300.297  1.00  0.00     0.039 C 
BRANCH  13  17
ATOM     17  C   UNL     1     165.829 199.629 301.697  1.00  0.00     0.066 CG0
ATOM     18  G   UNL     1     166.524 199.643 303.038  1.00  0.00     0.000 G0
ENDBRANCH  13  17
ENDBRANCH  11  13
ENDBRANCH  10  11
ENDBRANCH   1  10
TORSDOF 0
ENDMDL
MODEL 3
REMARK VINA RESULT:    -3.310      1.783      4.300
REMARK INTER + INTRA:          -3.608
REMARK INTER:                  -3.967
REMARK INTRA:                   0.359
REMARK UNBOUND:                 1.057
REMARK SMILES CC1=CCC(=C(C)C)C(=O)CC(C)=CCC1
REMARK SMILES IDX 12 1 14 2 13 3 15 4 16 5 2 6 1 7 3 8 11 10 9 11 10 12 5 13
REMARK SMILES IDX 6 14 7 15 8 16 4 17
REMARK H PARENT
REMARK Flexibility Score: 60.00
ROOT
ATOM      1  C   UNL     1     166.944 199.170 301.574  1.00  0.00    -0.070 C 
ATOM      2  C   UNL     1     167.426 198.666 302.736  1.00  0.00    -0.027 C 
ATOM      3  C   UNL     1     167.868 199.168 300.381  1.00  0.00     0.039 C 
ENDROOT
BRANCH   2   4
ATOM      4  C   UNL     1     166.719 198.665 304.070  1.00  0.00     0.032 C 
BRANCH   4   5
ATOM      5  C   UNL     1     166.789 200.033 304.777  1.00  0.00     0.034 C 
BRANCH   5   6
ATOM      6  C   UNL     1     165.441 200.467 305.318  1.00  0.00    -0.077 C 
ATOM      7  C   UNL     1     164.831 199.669 306.443  1.00  0.00     0.039 C 
ATOM      8  C   UNL     1     164.764 201.547 304.868  1.00  0.00    -0.023 CG0
ATOM      9  G   UNL     1     165.224 202.486 303.779  1.00  0.00     0.000 G0
ENDBRANCH   5   6
ENDBRANCH   4   5
ENDBRANCH   2   4
BRANCH   1  10
ATOM     10  C   UNL     1     165.564 199.787 301.429  1.00  0.00     0.111 C 
BRANCH  10  11
ATOM     11  C   UNL     1     165.614 201.291 301.539  1.00  0.00     0.163 C 
ATOM     12  O   UNL     1     166.441 201.911 300.817  1.00  0.00    -0.294 OA
BRANCH  11  13
ATOM     13  C   UNL     1     164.684 202.052 302.430  1.00  0.00    -0.002 C 
ATOM     14  C   UNL     1     163.420 202.388 302.030  1.00  0.00    -0.069 C 
ATOM     15  C   UNL     1     162.918 202.072 300.640  1.00  0.00     0.039 C 
ATOM     16  C   UNL     1     162.472 203.125 302.952  1.00  0.00     0.039 C 
BRANCH  13  17
ATOM     17  C   UNL     1     165.230 202.503 303.773  1.00  0.00     0.066 CG0
ATOM     18  G   UNL     1     164.782 201.549 304.854  1.00  0.00     0.000 G0
ENDBRANCH  13  17
ENDBRANCH  11  13
ENDBRANCH  10  11
ENDBRANCH   1  10
TORSDOF 0
ENDMDL
MODEL 4
REMARK VINA RESULT:    -3.178      1.592      3.672
REMARK INTER + INTRA:          -3.422
REMARK INTER:                  -4.586
REMARK INTRA:                   1.164
REMARK UNBOUND:                 1.057
REMARK SMILES CC1=CCC(=C(C)C)C(=O)CC(C)=CCC1
REMARK SMILES IDX 12 1 14 2 13 3 15 4 16 5 2 6 1 7 3 8 11 10 9 11 10 12 5 13
REMARK SMILES IDX 6 14 7 15 8 16 4 17
REMARK H PARENT
REMARK Flexibility Score: 60.00
ROOT
ATOM      1  C   UNL     1     165.908 200.072 304.299  1.00  0.00    -0.070 C 
ATOM      2  C   UNL     1     166.658 199.185 303.602  1.00  0.00    -0.027 C 
ATOM      3  C   UNL     1     165.970 200.001 305.805  1.00  0.00     0.039 C 
ENDROOT
BRANCH   2   4
ATOM      4  C   UNL     1     166.668 199.007 302.102  1.00  0.00     0.032 C 
BRANCH   4   5
ATOM      5  C   UNL     1     167.936 199.587 301.446  1.00  0.00     0.034 C 
BRANCH   5   6
ATOM      6  C   UNL     1     167.650 200.197 300.087  1.00  0.00    -0.077 C 
ATOM      7  C   UNL     1     167.705 199.300 298.876  1.00  0.00     0.039 C 
ATOM      8  C   UNL     1     167.321 201.495 299.901  1.00  0.00    -0.023 CG0
ATOM      9  G   UNL     1     167.182 202.534 300.987  1.00  0.00     0.000 G0
ENDBRANCH   5   6
ENDBRANCH   4   5
ENDBRANCH   2   4
BRANCH   1  10
ATOM     10  C   UNL     1     164.970 201.077 303.652  1.00  0.00     0.111 C 
BRANCH  10  11
ATOM     11  C   UNL     1     165.726 202.242 303.064  1.00  0.00     0.163 C 
ATOM     12  O   UNL     1     166.342 203.009 303.852  1.00  0.00    -0.294 OA
BRANCH  11  13
ATOM     13  C   UNL     1     165.802 202.472 301.587  1.00  0.00    -0.002 C 
ATOM     14  C   UNL     1     164.678 202.543 300.811  1.00  0.00    -0.069 C 
ATOM     15  C   UNL     1     163.300 202.322 301.391  1.00  0.00     0.039 C 
ATOM     16  C   UNL     1     164.763 202.814 299.325  1.00  0.00     0.039 C 
BRANCH  13  17
ATOM     17  C   UNL     1     167.188 202.548 300.972  1.00  0.00     0.066 CG0
ATOM     18  G   UNL     1     167.322 201.509 299.884  1.00  0.00     0.000 G0
ENDBRANCH  13  17
ENDBRANCH  11  13
ENDBRANCH  10  11
ENDBRANCH   1  10
TORSDOF 0
ENDMDL
MODEL 5
REMARK VINA RESULT:    -2.664      1.346      4.021
REMARK INTER + INTRA:          -2.697
REMARK INTER:                  -4.103
REMARK INTRA:                   1.406
REMARK UNBOUND:                 1.057
REMARK SMILES CC1=CCC(=C(C)C)C(=O)CC(C)=CCC1
REMARK SMILES IDX 12 1 14 2 13 3 15 4 16 5 2 6 1 7 3 8 11 10 9 11 10 12 5 13
REMARK SMILES IDX 6 14 7 15 8 16 4 17
REMARK H PARENT
REMARK Flexibility Score: 60.00
ROOT
ATOM      1  C   UNL     1     167.404 200.409 299.975  1.00  0.00    -0.070 C 
ATOM      2  C   UNL     1     166.868 201.411 299.238  1.00  0.00    -0.027 C 
ATOM      3  C   UNL     1     167.970 199.225 299.231  1.00  0.00     0.039 C 
ENDROOT
BRANCH   2   4
ATOM      4  C   UNL     1     166.156 202.631 299.770  1.00  0.00     0.032 C 
BRANCH   4   5
ATOM      5  C   UNL     1     164.794 202.866 299.089  1.00  0.00     0.034 C 
BRANCH   5   6
ATOM      6  C   UNL     1     163.644 202.294 299.895  1.00  0.00    -0.077 C 
ATOM      7  C   UNL     1     162.395 201.876 299.162  1.00  0.00     0.039 C 
ATOM      8  C   UNL     1     163.684 202.112 301.234  1.00  0.00    -0.023 CG0
ATOM      9  G   UNL     1     164.853 202.435 302.134  1.00  0.00     0.000 G0
ENDBRANCH   5   6
ENDBRANCH   4   5
ENDBRANCH   2   4
BRANCH   1  10
ATOM     10  C   UNL     1     167.404 200.387 301.494  1.00  0.00     0.111 C 
BRANCH  10  11
ATOM     11  C   UNL     1     166.023 200.134 302.046  1.00  0.00     0.163 C 
ATOM     12  O   UNL     1     165.499 199.006 301.841  1.00  0.00    -0.294 OA
BRANCH  11  13
ATOM     13  C   UNL     1     165.298 201.157 302.863  1.00  0.00    -0.002 C 
ATOM     14  C   UNL     1     164.982 200.937 304.176  1.00  0.00    -0.069 C 
ATOM     15  C   UNL     1     165.285 199.620 304.853  1.00  0.00     0.039 C 
ATOM     16  C   UNL     1     164.282 201.992 305.004  1.00  0.00     0.039 C 
BRANCH  13  17
ATOM     17  C   UNL     1     164.857 202.423 302.150  1.00  0.00     0.066 CG0
ATOM     18  G   UNL     1     163.699 202.116 301.232  1.00  0.00     0.000 G0
ENDBRANCH  13  17
ENDBRANCH  11  13
ENDBRANCH  10  11
ENDBRANCH   1  10
TORSDOF 0
ENDMDL
MODEL 6
REMARK VINA RESULT:    -2.560      1.893      4.395
REMARK INTER + INTRA:          -2.551
REMARK INTER:                  -3.590
REMARK INTRA:                   1.039
REMARK UNBOUND:                 1.057
REMARK SMILES CC1=CCC(=C(C)C)C(=O)CC(C)=CCC1
REMARK SMILES IDX 12 1 14 2 13 3 15 4 16 5 2 6 1 7 3 8 11 10 9 11 10 12 5 13
REMARK SMILES IDX 6 14 7 15 8 16 4 17
REMARK H PARENT
REMARK Flexibility Score: 60.00
ROOT
ATOM      1  C   UNL     1     163.140 202.825 302.776  1.00  0.00    -0.070 C 
ATOM      2  C   UNL     1     163.119 202.946 301.427  1.00  0.00    -0.027 C 
ATOM      3  C   UNL     1     161.811 202.771 303.489  1.00  0.00     0.039 C 
ENDROOT
BRANCH   2   4
ATOM      4  C   UNL     1     164.318 203.124 300.527  1.00  0.00     0.032 C 
BRANCH   4   5
ATOM      5  C   UNL     1     164.937 201.782 300.092  1.00  0.00     0.034 C 
BRANCH   5   6
ATOM      6  C   UNL     1     166.254 201.505 300.791  1.00  0.00    -0.077 C 
ATOM      7  C   UNL     1     167.500 202.163 300.256  1.00  0.00     0.039 C 
ATOM      8  C   UNL     1     166.371 200.721 301.886  1.00  0.00    -0.023 CG0
ATOM      9  G   UNL     1     165.240 200.007 302.586  1.00  0.00     0.000 G0
ENDBRANCH   5   6
ENDBRANCH   4   5
ENDBRANCH   2   4
BRANCH   1  10
ATOM     10  C   UNL     1     164.414 202.809 303.602  1.00  0.00     0.111 C 
BRANCH  10  11
ATOM     11  C   UNL     1     164.496 201.580 304.473  1.00  0.00     0.163 C 
ATOM     12  O   UNL     1     163.868 201.585 305.567  1.00  0.00    -0.294 OA
BRANCH  11  13
ATOM     13  C   UNL     1     165.247 200.357 304.049  1.00  0.00    -0.002 C 
ATOM     14  C   UNL     1     165.970 199.612 304.940  1.00  0.00    -0.069 C 
ATOM     15  C   UNL     1     166.108 200.024 306.388  1.00  0.00     0.039 C 
ATOM     16  C   UNL     1     166.696 198.356 304.509  1.00  0.00     0.039 C 
BRANCH  13  17
ATOM     17  C   UNL     1     165.236 200.020 302.569  1.00  0.00     0.066 CG0
ATOM     18  G   UNL     1     166.374 200.728 301.874  1.00  0.00     0.000 G0
ENDBRANCH  13  17
ENDBRANCH  11  13
ENDBRANCH  10  11
ENDBRANCH   1  10
TORSDOF 0
ENDMDL
MODEL 7
REMARK VINA RESULT:    -2.515      1.818      2.657
REMARK INTER + INTRA:          -2.487
REMARK INTER:                  -3.284
REMARK INTRA:                   0.797
REMARK UNBOUND:                 1.057
REMARK SMILES CC1=CCC(=C(C)C)C(=O)CC(C)=CCC1
REMARK SMILES IDX 12 1 14 2 13 3 15 4 16 5 2 6 1 7 3 8 11 10 9 11 10 12 5 13
REMARK SMILES IDX 6 14 7 15 8 16 4 17
REMARK H PARENT
REMARK Flexibility Score: 60.00
ROOT
ATOM      1  C   UNL     1     166.274 199.217 302.536  1.00  0.00    -0.070 C 
ATOM      2  C   UNL     1     166.365 199.342 303.882  1.00  0.00    -0.027 C 
ATOM      3  C   UNL     1     167.552 198.969 301.773  1.00  0.00     0.039 C 
ENDROOT
BRANCH   2   4
ATOM      4  C   UNL     1     165.241 199.696 304.825  1.00  0.00     0.032 C 
BRANCH   4   5
ATOM      5  C   UNL     1     165.356 201.133 305.369  1.00  0.00     0.034 C 
BRANCH   5   6
ATOM      6  C   UNL     1     164.460 202.101 304.621  1.00  0.00    -0.077 C 
ATOM      7  C   UNL     1     163.118 202.441 305.218  1.00  0.00     0.039 C 
ATOM      8  C   UNL     1     164.807 202.700 303.459  1.00  0.00    -0.023 CG0
ATOM      9  G   UNL     1     166.115 202.515 302.728  1.00  0.00     0.000 G0
ENDBRANCH   5   6
ENDBRANCH   4   5
ENDBRANCH   2   4
BRANCH   1  10
ATOM     10  C   UNL     1     164.979 199.379 301.759  1.00  0.00     0.111 C 
BRANCH  10  11
ATOM     11  C   UNL     1     164.758 200.811 301.340  1.00  0.00     0.163 C 
ATOM     12  O   UNL     1     163.595 201.155 300.994  1.00  0.00    -0.294 OA
BRANCH  11  13
ATOM     13  C   UNL     1     165.857 201.826 301.378  1.00  0.00    -0.002 C 
ATOM     14  C   UNL     1     166.648 202.069 300.289  1.00  0.00    -0.069 C 
ATOM     15  C   UNL     1     166.504 201.275 299.011  1.00  0.00     0.039 C 
ATOM     16  C   UNL     1     167.733 203.124 300.324  1.00  0.00     0.039 C 
BRANCH  13  17
ATOM     17  C   UNL     1     166.107 202.523 302.703  1.00  0.00     0.066 CG0
ATOM     18  G   UNL     1     164.804 202.685 303.449  1.00  0.00     0.000 G0
ENDBRANCH  13  17
ENDBRANCH  11  13
ENDBRANCH  10  11
ENDBRANCH   1  10
TORSDOF 0
ENDMDL
MODEL 8
REMARK VINA RESULT:    -2.419      1.571      4.150
REMARK INTER + INTRA:          -2.352
REMARK INTER:                  -3.234
REMARK INTRA:                   0.882
REMARK UNBOUND:                 1.057
REMARK SMILES CC1=CCC(=C(C)C)C(=O)CC(C)=CCC1
REMARK SMILES IDX 12 1 14 2 13 3 15 4 16 5 2 6 1 7 3 8 11 10 9 11 10 12 5 13
REMARK SMILES IDX 6 14 7 15 8 16 4 17
REMARK H PARENT
REMARK Flexibility Score: 60.00
ROOT
ATOM      1  C   UNL     1     165.752 199.575 303.747  1.00  0.00    -0.070 C 
ATOM      2  C   UNL     1     166.222 199.081 302.577  1.00  0.00    -0.027 C 
ATOM      3  C   UNL     1     164.627 198.825 304.416  1.00  0.00     0.039 C 
ENDROOT
BRANCH   2   4
ATOM      4  C   UNL     1     167.262 199.722 301.689  1.00  0.00     0.032 C 
BRANCH   4   5
ATOM      5  C   UNL     1     166.693 200.142 300.320  1.00  0.00     0.034 C 
BRANCH   5   6
ATOM      6  C   UNL     1     166.612 201.649 300.170  1.00  0.00    -0.077 C 
ATOM      7  C   UNL     1     167.695 202.349 299.389  1.00  0.00     0.039 C 
ATOM      8  C   UNL     1     165.609 202.401 300.676  1.00  0.00    -0.023 CG0
ATOM      9  G   UNL     1     164.424 201.882 301.454  1.00  0.00     0.000 G0
ENDBRANCH   5   6
ENDBRANCH   4   5
ENDBRANCH   2   4
BRANCH   1  10
ATOM     10  C   UNL     1     166.248 200.865 304.378  1.00  0.00     0.111 C 
BRANCH  10  11
ATOM     11  C   UNL     1     165.885 202.068 303.543  1.00  0.00     0.163 C 
ATOM     12  O   UNL     1     166.774 202.936 303.335  1.00  0.00    -0.294 OA
BRANCH  11  13
ATOM     13  C   UNL     1     164.531 202.222 302.923  1.00  0.00    -0.002 C 
ATOM     14  C   UNL     1     163.438 202.579 303.662  1.00  0.00    -0.069 C 
ATOM     15  C   UNL     1     163.521 202.769 305.160  1.00  0.00     0.039 C 
ATOM     16  C   UNL     1     162.081 202.770 303.020  1.00  0.00     0.039 C 
BRANCH  13  17
ATOM     17  C   UNL     1     164.407 201.889 301.446  1.00  0.00     0.066 CG0
ATOM     18  G   UNL     1     165.616 202.403 300.703  1.00  0.00     0.000 G0
ENDBRANCH  13  17
ENDBRANCH  11  13
ENDBRANCH  10  11
ENDBRANCH   1  10
TORSDOF 0
ENDMDL
MODEL 9
REMARK VINA RESULT:    -2.165      2.080      2.984
REMARK INTER + INTRA:          -1.994
REMARK INTER:                  -2.628
REMARK INTRA:                   0.634
REMARK UNBOUND:                 1.057
REMARK SMILES CC1=CCC(=C(C)C)C(=O)CC(C)=CCC1
REMARK SMILES IDX 12 1 14 2 13 3 15 4 16 5 2 6 1 7 3 8 11 10 9 11 10 12 5 13
REMARK SMILES IDX 6 14 7 15 8 16 4 17
REMARK H PARENT
REMARK Flexibility Score: 60.00
ROOT
ATOM      1  C   UNL     1     164.924 200.079 306.799  1.00  0.00    -0.070 C 
ATOM      2  C   UNL     1     164.210 200.923 307.582  1.00  0.00    -0.027 C 
ATOM      3  C   UNL     1     166.129 199.412 307.414  1.00  0.00     0.039 C 
ENDROOT
BRANCH   2   4
ATOM      4  C   UNL     1     163.040 201.773 307.147  1.00  0.00     0.032 C 
BRANCH   4   5
ATOM      5  C   UNL     1     163.467 202.955 306.256  1.00  0.00     0.034 C 
BRANCH   5   6
ATOM      6  C   UNL     1     162.774 202.935 304.907  1.00  0.00    -0.077 C 
ATOM      7  C   UNL     1     161.272 203.060 304.873  1.00  0.00     0.039 C 
ATOM      8  C   UNL     1     163.430 202.839 303.729  1.00  0.00    -0.023 CG0
ATOM      9  G   UNL     1     164.926 202.741 303.557  1.00  0.00     0.000 G0
ENDBRANCH   5   6
ENDBRANCH   4   5
ENDBRANCH   2   4
BRANCH   1  10
ATOM     10  C   UNL     1     164.615 199.824 305.333  1.00  0.00     0.111 C 
BRANCH  10  11
ATOM     11  C   UNL     1     165.669 200.420 304.433  1.00  0.00     0.163 C 
ATOM     12  O   UNL     1     166.875 200.135 304.660  1.00  0.00    -0.294 OA
BRANCH  11  13
ATOM     13  C   UNL     1     165.314 201.284 303.263  1.00  0.00    -0.002 C 
ATOM     14  C   UNL     1     165.393 200.822 301.978  1.00  0.00    -0.069 C 
ATOM     15  C   UNL     1     165.910 199.437 301.664  1.00  0.00     0.039 C 
ATOM     16  C   UNL     1     164.996 201.690 300.804  1.00  0.00     0.039 C 
BRANCH  13  17
ATOM     17  C   UNL     1     164.935 202.724 303.559  1.00  0.00     0.066 CG0
ATOM     18  G   UNL     1     163.440 202.833 303.737  1.00  0.00     0.000 G0
ENDBRANCH  13  17
ENDBRANCH  11  13
ENDBRANCH  10  11
ENDBRANCH   1  10
TORSDOF 0
ENDMDL
