MODEL 1
REMARK VINA RESULT:    -2.667      0.000      0.000
REMARK INTER + INTRA:          -2.897
REMARK INTER:                  -2.823
REMARK INTRA:                  -0.074
REMARK UNBOUND:                -0.074
REMARK SMILES CC(=O)c1cccc(C)c1
REMARK SMILES IDX 9 1 8 2 10 3 4 4 5 5 6 6 7 7 2 8 3 9 1 10
REMARK H PARENT
REMARK Flexibility Score: inf
ROOT
ATOM      1  C   UNL     1     141.343 128.491 129.747  1.00  0.00     0.044 C 
ATOM      2  C   UNL     1     140.013 128.243 130.395  1.00  0.00    -0.050 A 
ATOM      3  C   UNL     1     138.873 128.025 129.606  1.00  0.00     0.015 A 
ATOM      4  C   UNL     1     137.624 127.756 130.204  1.00  0.00     0.017 A 
ATOM      5  C   UNL     1     137.546 127.695 131.608  1.00  0.00     0.012 A 
ATOM      6  C   UNL     1     138.685 127.894 132.392  1.00  0.00     0.001 A 
ATOM      7  C   UNL     1     139.914 128.161 131.790  1.00  0.00     0.003 A 
ENDROOT
BRANCH   4   8
ATOM      8  C   UNL     1     136.404 127.533 129.381  1.00  0.00     0.159 C 
ATOM      9  O   UNL     1     136.490 126.906 128.290  1.00  0.00    -0.295 OA
ATOM     10  C   UNL     1     135.056 128.033 129.809  1.00  0.00     0.093 C 
ENDBRANCH   4   8
TORSDOF 1
ENDMDL
MODEL 2
REMARK VINA RESULT:    -2.400      1.865      3.931
REMARK INTER + INTRA:          -2.615
REMARK INTER:                  -2.540
REMARK INTRA:                  -0.075
REMARK UNBOUND:                -0.074
REMARK SMILES CC(=O)c1cccc(C)c1
REMARK SMILES IDX 9 1 8 2 10 3 4 4 5 5 6 6 7 7 2 8 3 9 1 10
REMARK H PARENT
REMARK Flexibility Score: inf
ROOT
ATOM      1  C   UNL     1     136.269 127.145 128.589  1.00  0.00     0.044 C 
ATOM      2  C   UNL     1     137.219 127.453 129.709  1.00  0.00    -0.050 A 
ATOM      3  C   UNL     1     138.570 127.719 129.435  1.00  0.00     0.015 A 
ATOM      4  C   UNL     1     139.465 128.044 130.475  1.00  0.00     0.017 A 
ATOM      5  C   UNL     1     138.974 128.110 131.793  1.00  0.00     0.012 A 
ATOM      6  C   UNL     1     137.626 127.863 132.063  1.00  0.00     0.001 A 
ATOM      7  C   UNL     1     136.750 127.541 131.026  1.00  0.00     0.003 A 
ENDROOT
BRANCH   4   8
ATOM      8  C   UNL     1     140.902 128.320 130.203  1.00  0.00     0.159 C 
ATOM      9  O   UNL     1     141.237 128.888 129.128  1.00  0.00    -0.295 OA
ATOM     10  C   UNL     1     141.980 127.941 131.173  1.00  0.00     0.093 C 
ENDBRANCH   4   8
TORSDOF 1
ENDMDL
MODEL 3
REMARK VINA RESULT:    -1.496      2.163      3.898
REMARK INTER + INTRA:          -1.657
REMARK INTER:                  -1.584
REMARK INTRA:                  -0.073
REMARK UNBOUND:                -0.074
REMARK SMILES CC(=O)c1cccc(C)c1
REMARK SMILES IDX 9 1 8 2 10 3 4 4 5 5 6 6 7 7 2 8 3 9 1 10
REMARK H PARENT
REMARK Flexibility Score: inf
ROOT
ATOM      1  C   UNL     1     137.607 128.830 126.932  1.00  0.00     0.044 C 
ATOM      2  C   UNL     1     137.567 128.165 128.277  1.00  0.00    -0.050 A 
ATOM      3  C   UNL     1     138.589 128.397 129.210  1.00  0.00     0.015 A 
ATOM      4  C   UNL     1     138.544 127.807 130.490  1.00  0.00     0.017 A 
ATOM      5  C   UNL     1     137.445 126.990 130.819  1.00  0.00     0.012 A 
ATOM      6  C   UNL     1     136.419 126.774 129.896  1.00  0.00     0.001 A 
ATOM      7  C   UNL     1     136.475 127.363 128.633  1.00  0.00     0.003 A 
ENDROOT
BRANCH   4   8
ATOM      8  C   UNL     1     139.625 128.035 131.487  1.00  0.00     0.159 C 
ATOM      9  O   UNL     1     139.335 128.147 132.710  1.00  0.00    -0.295 OA
ATOM     10  C   UNL     1     141.066 128.140 131.086  1.00  0.00     0.093 C 
ENDBRANCH   4   8
TORSDOF 1
ENDMDL
MODEL 4
REMARK VINA RESULT:    -1.396      1.924      4.460
REMARK INTER + INTRA:          -1.552
REMARK INTER:                  -1.475
REMARK INTRA:                  -0.077
REMARK UNBOUND:                -0.074
REMARK SMILES CC(=O)c1cccc(C)c1
REMARK SMILES IDX 9 1 8 2 10 3 4 4 5 5 6 6 7 7 2 8 3 9 1 10
REMARK H PARENT
REMARK Flexibility Score: inf
ROOT
ATOM      1  C   UNL     1     134.278 128.122 130.531  1.00  0.00     0.044 C 
ATOM      2  C   UNL     1     135.702 127.869 130.130  1.00  0.00    -0.050 A 
ATOM      3  C   UNL     1     136.736 128.026 131.065  1.00  0.00     0.015 A 
ATOM      4  C   UNL     1     138.074 127.756 130.710  1.00  0.00     0.017 A 
ATOM      5  C   UNL     1     138.351 127.313 129.403  1.00  0.00     0.012 A 
ATOM      6  C   UNL     1     137.318 127.140 128.478  1.00  0.00     0.001 A 
ATOM      7  C   UNL     1     135.999 127.411 128.840  1.00  0.00     0.003 A 
ENDROOT
BRANCH   4   8
ATOM      8  C   UNL     1     139.184 127.927 131.687  1.00  0.00     0.159 C 
ATOM      9  O   UNL     1     138.952 127.828 132.923  1.00  0.00    -0.295 OA
ATOM     10  C   UNL     1     140.589 128.218 131.249  1.00  0.00     0.093 C 
ENDBRANCH   4   8
TORSDOF 1
ENDMDL
MODEL 5
REMARK VINA RESULT:    -0.634      0.612      2.128
REMARK INTER + INTRA:          -0.746
REMARK INTER:                  -0.675
REMARK INTRA:                  -0.071
REMARK UNBOUND:                -0.074
REMARK SMILES CC(=O)c1cccc(C)c1
REMARK SMILES IDX 9 1 8 2 10 3 4 4 5 5 6 6 7 7 2 8 3 9 1 10
REMARK H PARENT
REMARK Flexibility Score: inf
ROOT
ATOM      1  C   UNL     1     138.925 127.351 133.453  1.00  0.00     0.044 C 
ATOM      2  C   UNL     1     138.832 127.624 131.980  1.00  0.00    -0.050 A 
ATOM      3  C   UNL     1     137.614 127.449 131.304  1.00  0.00     0.015 A 
ATOM      4  C   UNL     1     137.506 127.736 129.928  1.00  0.00     0.017 A 
ATOM      5  C   UNL     1     138.641 128.216 129.246  1.00  0.00     0.012 A 
ATOM      6  C   UNL     1     139.848 128.407 129.923  1.00  0.00     0.001 A 
ATOM      7  C   UNL     1     139.943 128.119 131.284  1.00  0.00     0.003 A 
ENDROOT
BRANCH   4   8
ATOM      8  C   UNL     1     136.225 127.546 129.196  1.00  0.00     0.159 C 
ATOM      9  O   UNL     1     136.215 126.914 128.104  1.00  0.00    -0.295 OA
ATOM     10  C   UNL     1     134.926 128.087 129.715  1.00  0.00     0.093 C 
ENDBRANCH   4   8
TORSDOF 1
ENDMDL
MODEL 6
REMARK VINA RESULT:    -0.282      2.111      4.438
REMARK INTER + INTRA:          -0.372
REMARK INTER:                  -0.299
REMARK INTRA:                  -0.073
REMARK UNBOUND:                -0.074
REMARK SMILES CC(=O)c1cccc(C)c1
REMARK SMILES IDX 9 1 8 2 10 3 4 4 5 5 6 6 7 7 2 8 3 9 1 10
REMARK H PARENT
REMARK Flexibility Score: inf
ROOT
ATOM      1  C   UNL     1     135.437 126.328 130.872  1.00  0.00     0.044 C 
ATOM      2  C   UNL     1     136.619 127.032 130.273  1.00  0.00    -0.050 A 
ATOM      3  C   UNL     1     137.720 127.372 131.074  1.00  0.00     0.015 A 
ATOM      4  C   UNL     1     138.851 128.001 130.515  1.00  0.00     0.017 A 
ATOM      5  C   UNL     1     138.861 128.270 129.133  1.00  0.00     0.012 A 
ATOM      6  C   UNL     1     137.772 127.915 128.333  1.00  0.00     0.001 A 
ATOM      7  C   UNL     1     136.658 127.294 128.897  1.00  0.00     0.003 A 
ENDROOT
BRANCH   4   8
ATOM      8  C   UNL     1     140.022 128.376 131.353  1.00  0.00     0.159 C 
ATOM      9  O   UNL     1     139.840 128.940 132.467  1.00  0.00    -0.295 OA
ATOM     10  C   UNL     1     141.431 128.106 130.915  1.00  0.00     0.093 C 
ENDBRANCH   4   8
TORSDOF 1
ENDMDL
MODEL 7
REMARK VINA RESULT:     0.118      1.869      2.810
REMARK INTER + INTRA:           0.051
REMARK INTER:                   0.126
REMARK INTRA:                  -0.075
REMARK UNBOUND:                -0.074
REMARK SMILES CC(=O)c1cccc(C)c1
REMARK SMILES IDX 9 1 8 2 10 3 4 4 5 5 6 6 7 7 2 8 3 9 1 10
REMARK H PARENT
REMARK Flexibility Score: inf
ROOT
ATOM      1  C   UNL     1     138.934 128.055 132.364  1.00  0.00     0.044 C 
ATOM      2  C   UNL     1     138.087 127.724 131.170  1.00  0.00    -0.050 A 
ATOM      3  C   UNL     1     136.782 128.229 131.069  1.00  0.00     0.015 A 
ATOM      4  C   UNL     1     135.989 127.954 129.935  1.00  0.00     0.017 A 
ATOM      5  C   UNL     1     136.539 127.174 128.899  1.00  0.00     0.012 A 
ATOM      6  C   UNL     1     137.844 126.686 128.993  1.00  0.00     0.001 A 
ATOM      7  C   UNL     1     138.619 126.964 130.120  1.00  0.00     0.003 A 
ENDROOT
BRANCH   4   8
ATOM      8  C   UNL     1     134.600 128.474 129.816  1.00  0.00     0.159 C 
ATOM      9  O   UNL     1     133.876 128.567 130.845  1.00  0.00    -0.295 OA
ATOM     10  C   UNL     1     134.020 128.896 128.499  1.00  0.00     0.093 C 
ENDBRANCH   4   8
TORSDOF 1
ENDMDL
