MODEL 1
REMARK VINA RESULT:    -6.159      0.000      0.000
REMARK INTER + INTRA:         -11.976
REMARK INTER:                  -9.759
REMARK INTRA:                  -2.216
REMARK UNBOUND:                -2.216
REMARK SMILES C[C@H]1O[C@H](O[C@H]2[C@@H](Oc3cc(O)c4c(c3)O[C@@H](c3ccc(O)cc3)CC4=O)O[C@@H](CO)[C@H](O)[C@@H]2O)[C@H](O)[C@H](O)[C@H]1O
REMARK SMILES IDX 6 1 34 2 32 3 29 4 28 5 7 6 5 7 4 8 1 9 2 10 40 11 3 12
REMARK SMILES IDX 38 13 36 14 41 15 39 17 37 19 35 21 8 23 9 24 10 25 15 26
REMARK SMILES IDX 11 27 14 28 13 29 16 30 26 31 17 32 27 33 25 34 12 35 18 37
REMARK SMILES IDX 19 38 24 39 20 40 23 41 21 42 22 43 33 45 30 47 31 48
REMARK H PARENT 41 16 39 18 37 20 35 22 12 36 22 44 33 46 31 49
REMARK Flexibility Score: inf
ROOT
ATOM      1  C   UNL     1     -16.226  -1.837 -33.426  1.00  0.00     0.221 C 
ATOM      2  C   UNL     1     -15.869  -0.499 -34.188  1.00  0.00     0.181 C 
ATOM      3  C   UNL     1     -17.164   0.280 -34.511  1.00  0.00     0.177 C 
ATOM      4  C   UNL     1     -18.395   0.128 -33.430  1.00  0.00     0.179 C 
ATOM      5  O   UNL     1     -18.325  -0.405 -32.199  1.00  0.00    -0.332 OA
ATOM      6  C   UNL     1     -17.239  -1.287 -32.198  1.00  0.00     0.339 C 
ENDROOT
BRANCH   1   7
ATOM      7  O   UNL     1     -14.999  -2.599 -32.959  1.00  0.00    -0.337 OA
BRANCH   7   8
ATOM      8  C   UNL     1     -13.477  -2.808 -33.062  1.00  0.00     0.282 C 
ATOM      9  C   UNL     1     -11.556  -3.221 -30.743  1.00  0.00     0.041 C 
ATOM     10  C   UNL     1     -11.517  -3.868 -32.188  1.00  0.00     0.150 C 
ATOM     11  C   UNL     1     -10.651  -3.078 -33.265  1.00  0.00     0.174 C 
ATOM     12  O   UNL     1     -12.801  -4.090 -32.811  1.00  0.00    -0.344 OA
ATOM     13  C   UNL     1     -11.193  -1.717 -33.957  1.00  0.00     0.179 C 
ATOM     14  C   UNL     1     -12.671  -1.957 -34.328  1.00  0.00     0.202 C 
BRANCH  11  15
ATOM     15  O   UNL     1      -9.333  -2.799 -32.838  1.00  0.00    -0.388 OA
ATOM     16  H   UNL     1      -9.283  -2.696 -31.839  1.00  0.00     0.211 HD
ENDBRANCH  11  15
BRANCH  13  17
ATOM     17  O   UNL     1     -10.397  -1.434 -35.097  1.00  0.00    -0.387 OA
ATOM     18  H   UNL     1      -9.534  -0.941 -34.956  1.00  0.00     0.211 HD
ENDBRANCH  13  17
BRANCH  14  19
ATOM     19  O   UNL     1     -12.609  -2.576 -35.620  1.00  0.00    -0.385 OA
ATOM     20  H   UNL     1     -13.456  -3.150 -35.775  1.00  0.00     0.211 HD
ENDBRANCH  14  19
ENDBRANCH   7   8
ENDBRANCH   1   7
BRANCH   2  21
ATOM     21  O   UNL     1     -15.215  -0.858 -35.347  1.00  0.00    -0.387 OA
ATOM     22  H   UNL     1     -14.756  -1.725 -35.203  1.00  0.00     0.211 HD
ENDBRANCH   2  21
BRANCH   6  23
ATOM     23  O   UNL     1     -16.356  -0.464 -31.662  1.00  0.00    -0.462 OA
BRANCH  23  24
ATOM     24  C   UNL     1     -16.039  -0.505 -30.318  1.00  0.00     0.130 A 
ATOM     25  C   UNL     1     -14.698  -0.718 -30.127  1.00  0.00     0.093 A 
ATOM     26  C   UNL     1     -16.545   0.565 -29.602  1.00  0.00     0.094 A 
ATOM     27  C   UNL     1     -14.170   0.444 -30.900  1.00  0.00     0.133 A 
ATOM     28  C   UNL     1     -16.025   1.780 -29.924  1.00  0.00     0.138 A 
ATOM     29  C   UNL     1     -14.945   1.809 -30.740  1.00  0.00     0.102 A 
ATOM     30  O   UNL     1     -16.854   2.868 -29.609  1.00  0.00    -0.484 OA
ATOM     31  C   UNL     1     -14.965   2.974 -31.706  1.00  0.00     0.174 C 
ATOM     32  C   UNL     1     -17.317   3.731 -30.580  1.00  0.00     0.211 C 
ATOM     33  O   UNL     1     -13.968   3.208 -32.500  1.00  0.00    -0.294 OA
ATOM     34  C   UNL     1     -16.132   4.079 -31.493  1.00  0.00     0.131 C 
BRANCH  27  35
ATOM     35  O   UNL     1     -13.241   0.258 -31.980  1.00  0.00    -0.507 OA
ATOM     36  H   UNL     1     -12.217   0.374 -32.045  1.00  0.00     0.293 HD
ENDBRANCH  27  35
BRANCH  32  37
ATOM     37  C   UNL     1     -17.853   4.889 -29.833  1.00  0.00    -0.007 A 
ATOM     38  C   UNL     1     -17.535   6.152 -30.295  1.00  0.00     0.011 A 
ATOM     39  C   UNL     1     -18.584   4.724 -28.674  1.00  0.00     0.011 A 
ATOM     40  C   UNL     1     -17.939   7.283 -29.609  1.00  0.00     0.046 A 
ATOM     41  C   UNL     1     -19.020   5.865 -27.955  1.00  0.00     0.046 A 
ATOM     42  C   UNL     1     -18.657   7.153 -28.412  1.00  0.00     0.115 A 
BRANCH  42  43
ATOM     43  O   UNL     1     -18.962   8.318 -27.641  1.00  0.00    -0.508 OA
ATOM     44  H   UNL     1     -19.920   8.517 -27.436  1.00  0.00     0.293 HD
ENDBRANCH  42  43
ENDBRANCH  32  37
ENDBRANCH  23  24
ENDBRANCH   6  23
BRANCH   3  45
ATOM     45  O   UNL     1     -17.659  -0.159 -35.760  1.00  0.00    -0.387 OA
ATOM     46  H   UNL     1     -16.949  -0.538 -36.366  1.00  0.00     0.211 HD
ENDBRANCH   3  45
BRANCH   4  47
ATOM     47  C   UNL     1     -19.052   1.482 -33.034  1.00  0.00     0.191 C 
BRANCH  47  48
ATOM     48  O   UNL     1     -18.641   2.369 -34.051  1.00  0.00    -0.394 OA
ATOM     49  H   UNL     1     -17.999   3.090 -33.717  1.00  0.00     0.210 HD
ENDBRANCH  47  48
ENDBRANCH   4  47
TORSDOF 14
ENDMDL
MODEL 2
REMARK VINA RESULT:    -6.017      2.394      6.063
REMARK INTER + INTRA:         -11.751
REMARK INTER:                  -9.279
REMARK INTRA:                  -2.472
REMARK UNBOUND:                -2.216
REMARK SMILES C[C@H]1O[C@H](O[C@H]2[C@@H](Oc3cc(O)c4c(c3)O[C@@H](c3ccc(O)cc3)CC4=O)O[C@@H](CO)[C@H](O)[C@@H]2O)[C@H](O)[C@H](O)[C@H]1O
REMARK SMILES IDX 6 1 34 2 32 3 29 4 28 5 7 6 5 7 4 8 1 9 2 10 40 11 3 12
REMARK SMILES IDX 38 13 36 14 41 15 39 17 37 19 35 21 8 23 9 24 10 25 15 26
REMARK SMILES IDX 11 27 14 28 13 29 16 30 26 31 17 32 27 33 25 34 12 35 18 37
REMARK SMILES IDX 19 38 24 39 20 40 23 41 21 42 22 43 33 45 30 47 31 48
REMARK H PARENT 41 16 39 18 37 20 35 22 12 36 22 44 33 46 31 49
REMARK Flexibility Score: inf
ROOT
ATOM      1  C   UNL     1     -14.012  -2.104 -31.592  1.00  0.00     0.221 C 
ATOM      2  C   UNL     1     -13.021  -0.879 -31.731  1.00  0.00     0.181 C 
ATOM      3  C   UNL     1     -11.868  -1.246 -32.691  1.00  0.00     0.177 C 
ATOM      4  C   UNL     1     -12.240  -2.282 -33.915  1.00  0.00     0.179 C 
ATOM      5  O   UNL     1     -13.469  -2.661 -34.305  1.00  0.00    -0.332 OA
ATOM      6  C   UNL     1     -14.313  -2.500 -33.201  1.00  0.00     0.339 C 
ENDROOT
BRANCH   1   7
ATOM      7  O   UNL     1     -15.242  -1.780 -30.764  1.00  0.00    -0.337 OA
BRANCH   7   8
ATOM      8  C   UNL     1     -15.838  -1.053 -29.545  1.00  0.00     0.282 C 
ATOM      9  C   UNL     1     -18.578  -1.540 -28.323  1.00  0.00     0.041 C 
ATOM     10  C   UNL     1     -17.220  -1.175 -27.594  1.00  0.00     0.150 C 
ATOM     11  C   UNL     1     -16.968   0.380 -27.360  1.00  0.00     0.174 C 
ATOM     12  O   UNL     1     -16.019  -1.672 -28.222  1.00  0.00    -0.344 OA
ATOM     13  C   UNL     1     -16.510   1.357 -28.570  1.00  0.00     0.179 C 
ATOM     14  C   UNL     1     -15.417   0.610 -29.363  1.00  0.00     0.202 C 
BRANCH  11  15
ATOM     15  O   UNL     1     -18.040   1.037 -26.715  1.00  0.00    -0.388 OA
ATOM     16  H   UNL     1     -18.910   0.885 -27.196  1.00  0.00     0.211 HD
ENDBRANCH  11  15
BRANCH  13  17
ATOM     17  O   UNL     1     -16.031   2.573 -28.019  1.00  0.00    -0.387 OA
ATOM     18  H   UNL     1     -15.748   2.573 -27.056  1.00  0.00     0.211 HD
ENDBRANCH  13  17
BRANCH  14  19
ATOM     19  O   UNL     1     -14.205   0.924 -28.665  1.00  0.00    -0.385 OA
ATOM     20  H   UNL     1     -13.610   0.080 -28.599  1.00  0.00     0.211 HD
ENDBRANCH  14  19
ENDBRANCH   7   8
ENDBRANCH   1   7
BRANCH   2  21
ATOM     21  O   UNL     1     -12.536  -0.609 -30.469  1.00  0.00    -0.387 OA
ATOM     22  H   UNL     1     -11.873  -1.303 -30.223  1.00  0.00     0.211 HD
ENDBRANCH   2  21
BRANCH   6  23
ATOM     23  O   UNL     1     -14.802  -1.319 -33.535  1.00  0.00    -0.462 OA
BRANCH  23  24
ATOM     24  C   UNL     1     -15.266  -1.053 -34.808  1.00  0.00     0.130 A 
ATOM     25  C   UNL     1     -16.397  -1.776 -35.090  1.00  0.00     0.093 A 
ATOM     26  C   UNL     1     -15.382   0.299 -35.079  1.00  0.00     0.094 A 
ATOM     27  C   UNL     1     -17.252  -1.310 -33.958  1.00  0.00     0.133 A 
ATOM     28  C   UNL     1     -16.320   0.961 -34.350  1.00  0.00     0.138 A 
ATOM     29  C   UNL     1     -17.172   0.224 -33.599  1.00  0.00     0.102 A 
ATOM     30  O   UNL     1     -16.096   2.342 -34.234  1.00  0.00    -0.484 OA
ATOM     31  C   UNL     1     -17.512   0.878 -32.277  1.00  0.00     0.174 C 
ATOM     32  C   UNL     1     -15.911   2.945 -33.008  1.00  0.00     0.211 C 
ATOM     33  O   UNL     1     -18.383   0.355 -31.471  1.00  0.00    -0.294 OA
ATOM     34  C   UNL     1     -16.980   2.393 -32.054  1.00  0.00     0.131 C 
BRANCH  27  35
ATOM     35  O   UNL     1     -17.839  -2.243 -33.037  1.00  0.00    -0.507 OA
ATOM     36  H   UNL     1     -18.063  -3.249 -33.113  1.00  0.00     0.293 HD
ENDBRANCH  27  35
BRANCH  32  37
ATOM     37  C   UNL     1     -16.043   4.393 -33.275  1.00  0.00    -0.007 A 
ATOM     38  C   UNL     1     -16.366   5.214 -32.210  1.00  0.00     0.011 A 
ATOM     39  C   UNL     1     -15.921   4.906 -34.551  1.00  0.00     0.011 A 
ATOM     40  C   UNL     1     -16.577   6.569 -32.396  1.00  0.00     0.046 A 
ATOM     41  C   UNL     1     -16.122   6.292 -34.768  1.00  0.00     0.046 A 
ATOM     42  C   UNL     1     -16.491   7.118 -33.682  1.00  0.00     0.115 A 
BRANCH  42  43
ATOM     43  O   UNL     1     -16.834   8.491 -33.888  1.00  0.00    -0.508 OA
ATOM     44  H   UNL     1     -16.700   9.135 -33.134  1.00  0.00     0.293 HD
ENDBRANCH  42  43
ENDBRANCH  32  37
ENDBRANCH  23  24
ENDBRANCH   6  23
BRANCH   3  45
ATOM     45  O   UNL     1     -10.829  -1.849 -31.946  1.00  0.00    -0.387 OA
ATOM     46  H   UNL     1     -11.158  -2.440 -31.200  1.00  0.00     0.211 HD
ENDBRANCH   3  45
BRANCH   4  47
ATOM     47  C   UNL     1     -11.712  -1.825 -35.305  1.00  0.00     0.191 C 
BRANCH  47  48
ATOM     48  O   UNL     1     -10.464  -1.231 -35.017  1.00  0.00    -0.394 OA
ATOM     49  H   UNL     1     -10.549  -0.361 -34.489  1.00  0.00     0.210 HD
ENDBRANCH  47  48
ENDBRANCH   4  47
TORSDOF 14
ENDMDL
MODEL 3
REMARK VINA RESULT:    -5.722      2.909      6.063
REMARK INTER + INTRA:         -11.284
REMARK INTER:                  -8.926
REMARK INTRA:                  -2.358
REMARK UNBOUND:                -2.216
REMARK SMILES C[C@H]1O[C@H](O[C@H]2[C@@H](Oc3cc(O)c4c(c3)O[C@@H](c3ccc(O)cc3)CC4=O)O[C@@H](CO)[C@H](O)[C@@H]2O)[C@H](O)[C@H](O)[C@H]1O
REMARK SMILES IDX 6 1 34 2 32 3 29 4 28 5 7 6 5 7 4 8 1 9 2 10 40 11 3 12
REMARK SMILES IDX 38 13 36 14 41 15 39 17 37 19 35 21 8 23 9 24 10 25 15 26
REMARK SMILES IDX 11 27 14 28 13 29 16 30 26 31 17 32 27 33 25 34 12 35 18 37
REMARK SMILES IDX 19 38 24 39 20 40 23 41 21 42 22 43 33 45 30 47 31 48
REMARK H PARENT 41 16 39 18 37 20 35 22 12 36 22 44 33 46 31 49
REMARK Flexibility Score: inf
ROOT
ATOM      1  C   UNL     1     -13.655  -2.435 -31.604  1.00  0.00     0.221 C 
ATOM      2  C   UNL     1     -12.821  -1.092 -31.640  1.00  0.00     0.181 C 
ATOM      3  C   UNL     1     -11.612  -1.254 -32.587  1.00  0.00     0.177 C 
ATOM      4  C   UNL     1     -11.827  -2.248 -33.882  1.00  0.00     0.179 C 
ATOM      5  O   UNL     1     -12.990  -2.748 -34.328  1.00  0.00    -0.332 OA
ATOM      6  C   UNL     1     -13.871  -2.762 -33.241  1.00  0.00     0.339 C 
ENDROOT
BRANCH   1   7
ATOM      7  O   UNL     1     -14.933  -2.317 -30.793  1.00  0.00    -0.337 OA
BRANCH   7   8
ATOM      8  C   UNL     1     -15.791  -2.843 -29.628  1.00  0.00     0.282 C 
ATOM      9  C   UNL     1     -16.569  -1.302 -27.127  1.00  0.00     0.041 C 
ATOM     10  C   UNL     1     -17.417  -2.367 -27.938  1.00  0.00     0.150 C 
ATOM     11  C   UNL     1     -17.283  -3.871 -27.433  1.00  0.00     0.174 C 
ATOM     12  O   UNL     1     -17.172  -2.412 -29.359  1.00  0.00    -0.344 OA
ATOM     13  C   UNL     1     -15.969  -4.762 -27.758  1.00  0.00     0.179 C 
ATOM     14  C   UNL     1     -15.612  -4.515 -29.238  1.00  0.00     0.202 C 
BRANCH  11  15
ATOM     15  O   UNL     1     -17.528  -4.029 -26.050  1.00  0.00    -0.388 OA
ATOM     16  H   UNL     1     -18.496  -4.233 -25.867  1.00  0.00     0.211 HD
ENDBRANCH  11  15
BRANCH  13  17
ATOM     17  O   UNL     1     -16.265  -6.125 -27.502  1.00  0.00    -0.387 OA
ATOM     18  H   UNL     1     -16.294  -6.754 -28.285  1.00  0.00     0.211 HD
ENDBRANCH  13  17
BRANCH  14  19
ATOM     19  O   UNL     1     -16.416  -5.461 -29.953  1.00  0.00    -0.385 OA
ATOM     20  H   UNL     1     -15.913  -5.782 -30.799  1.00  0.00     0.211 HD
ENDBRANCH  14  19
ENDBRANCH   7   8
ENDBRANCH   1   7
BRANCH   2  21
ATOM     21  O   UNL     1     -12.400  -0.845 -30.351  1.00  0.00    -0.387 OA
ATOM     22  H   UNL     1     -12.339   0.136 -30.214  1.00  0.00     0.211 HD
ENDBRANCH   2  21
BRANCH   6  23
ATOM     23  O   UNL     1     -14.495  -1.632 -33.517  1.00  0.00    -0.462 OA
BRANCH  23  24
ATOM     24  C   UNL     1     -15.170  -1.440 -34.707  1.00  0.00     0.130 A 
ATOM     25  C   UNL     1     -16.300  -2.214 -34.771  1.00  0.00     0.093 A 
ATOM     26  C   UNL     1     -15.386  -0.107 -35.008  1.00  0.00     0.094 A 
ATOM     27  C   UNL     1     -16.980  -1.729 -33.534  1.00  0.00     0.133 A 
ATOM     28  C   UNL     1     -16.221   0.554 -34.161  1.00  0.00     0.138 A 
ATOM     29  C   UNL     1     -16.908  -0.178 -33.252  1.00  0.00     0.102 A 
ATOM     30  O   UNL     1     -16.040   1.946 -34.137  1.00  0.00    -0.484 OA
ATOM     31  C   UNL     1     -17.057   0.523 -31.919  1.00  0.00     0.174 C 
ATOM     32  C   UNL     1     -15.684   2.610 -32.982  1.00  0.00     0.211 C 
ATOM     33  O   UNL     1     -17.763   0.007 -30.962  1.00  0.00    -0.294 OA
ATOM     34  C   UNL     1     -16.561   2.064 -31.845  1.00  0.00     0.131 C 
BRANCH  27  35
ATOM     35  O   UNL     1     -17.370  -2.640 -32.494  1.00  0.00    -0.507 OA
ATOM     36  H   UNL     1     -16.951  -2.872 -31.579  1.00  0.00     0.293 HD
ENDBRANCH  27  35
BRANCH  32  37
ATOM     37  C   UNL     1     -15.919   4.039 -33.280  1.00  0.00    -0.007 A 
ATOM     38  C   UNL     1     -15.723   4.463 -34.581  1.00  0.00     0.011 A 
ATOM     39  C   UNL     1     -16.250   4.938 -32.286  1.00  0.00     0.011 A 
ATOM     40  C   UNL     1     -15.853   5.798 -34.921  1.00  0.00     0.046 A 
ATOM     41  C   UNL     1     -16.399   6.311 -32.607  1.00  0.00     0.046 A 
ATOM     42  C   UNL     1     -16.158   6.743 -33.932  1.00  0.00     0.115 A 
BRANCH  42  43
ATOM     43  O   UNL     1     -16.166   8.134 -34.263  1.00  0.00    -0.508 OA
ATOM     44  H   UNL     1     -16.048   8.397 -35.221  1.00  0.00     0.293 HD
ENDBRANCH  42  43
ENDBRANCH  32  37
ENDBRANCH  23  24
ENDBRANCH   6  23
BRANCH   3  45
ATOM     45  O   UNL     1     -10.522  -1.771 -31.851  1.00  0.00    -0.387 OA
ATOM     46  H   UNL     1     -10.190  -2.659 -32.191  1.00  0.00     0.211 HD
ENDBRANCH   3  45
BRANCH   4  47
ATOM     47  C   UNL     1     -11.330  -1.642 -35.226  1.00  0.00     0.191 C 
BRANCH  47  48
ATOM     48  O   UNL     1      -9.998  -1.264 -34.957  1.00  0.00    -0.394 OA
ATOM     49  H   UNL     1      -9.930  -0.409 -34.401  1.00  0.00     0.210 HD
ENDBRANCH  47  48
ENDBRANCH   4  47
TORSDOF 14
ENDMDL
MODEL 4
REMARK VINA RESULT:    -5.477      2.631      7.944
REMARK INTER + INTRA:         -10.895
REMARK INTER:                  -8.256
REMARK INTRA:                  -2.639
REMARK UNBOUND:                -2.216
REMARK SMILES C[C@H]1O[C@H](O[C@H]2[C@@H](Oc3cc(O)c4c(c3)O[C@@H](c3ccc(O)cc3)CC4=O)O[C@@H](CO)[C@H](O)[C@@H]2O)[C@H](O)[C@H](O)[C@H]1O
REMARK SMILES IDX 6 1 34 2 32 3 29 4 28 5 7 6 5 7 4 8 1 9 2 10 40 11 3 12
REMARK SMILES IDX 38 13 36 14 41 15 39 17 37 19 35 21 8 23 9 24 10 25 15 26
REMARK SMILES IDX 11 27 14 28 13 29 16 30 26 31 17 32 27 33 25 34 12 35 18 37
REMARK SMILES IDX 19 38 24 39 20 40 23 41 21 42 22 43 33 45 30 47 31 48
REMARK H PARENT 41 16 39 18 37 20 35 22 12 36 22 44 33 46 31 49
REMARK Flexibility Score: inf
ROOT
ATOM      1  C   UNL     1     -18.507   1.337 -30.163  1.00  0.00     0.221 C 
ATOM      2  C   UNL     1     -17.138   1.239 -29.377  1.00  0.00     0.181 C 
ATOM      3  C   UNL     1     -17.355   0.496 -28.040  1.00  0.00     0.177 C 
ATOM      4  C   UNL     1     -18.513  -0.674 -28.035  1.00  0.00     0.179 C 
ATOM      5  O   UNL     1     -19.125  -1.205 -29.106  1.00  0.00    -0.332 OA
ATOM      6  C   UNL     1     -19.048  -0.257 -30.132  1.00  0.00     0.339 C 
ENDROOT
BRANCH   1   7
ATOM      7  O   UNL     1     -18.353   1.942 -31.546  1.00  0.00    -0.337 OA
BRANCH   7   8
ATOM      8  C   UNL     1     -17.789   3.080 -32.416  1.00  0.00     0.282 C 
ATOM      9  C   UNL     1     -18.870   3.996 -35.105  1.00  0.00     0.041 C 
ATOM     10  C   UNL     1     -18.232   4.867 -33.946  1.00  0.00     0.150 C 
ATOM     11  C   UNL     1     -16.663   5.111 -34.062  1.00  0.00     0.174 C 
ATOM     12  O   UNL     1     -18.450   4.381 -32.604  1.00  0.00    -0.344 OA
ATOM     13  C   UNL     1     -15.594   3.951 -33.694  1.00  0.00     0.179 C 
ATOM     14  C   UNL     1     -16.077   3.291 -32.386  1.00  0.00     0.202 C 
BRANCH  11  15
ATOM     15  O   UNL     1     -16.261   5.627 -35.315  1.00  0.00    -0.388 OA
ATOM     16  H   UNL     1     -16.427   4.968 -36.056  1.00  0.00     0.211 HD
ENDBRANCH  11  15
BRANCH  13  17
ATOM     17  O   UNL     1     -14.311   4.538 -33.552  1.00  0.00    -0.387 OA
ATOM     18  H   UNL     1     -14.179   5.468 -33.908  1.00  0.00     0.211 HD
ENDBRANCH  13  17
BRANCH  14  19
ATOM     19  O   UNL     1     -15.520   4.116 -31.354  1.00  0.00    -0.385 OA
ATOM     20  H   UNL     1     -16.217   4.817 -31.049  1.00  0.00     0.211 HD
ENDBRANCH  14  19
ENDBRANCH   7   8
ENDBRANCH   1   7
BRANCH   2  21
ATOM     21  O   UNL     1     -16.709   2.530 -29.152  1.00  0.00    -0.387 OA
ATOM     22  H   UNL     1     -16.033   2.523 -28.427  1.00  0.00     0.211 HD
ENDBRANCH   2  21
BRANCH   6  23
ATOM     23  O   UNL     1     -17.994  -0.762 -30.747  1.00  0.00    -0.462 OA
BRANCH  23  24
ATOM     24  C   UNL     1     -17.915  -2.100 -31.085  1.00  0.00     0.130 A 
ATOM     25  C   UNL     1     -18.754  -2.403 -32.127  1.00  0.00     0.093 A 
ATOM     26  C   UNL     1     -16.617  -2.546 -31.261  1.00  0.00     0.094 A 
ATOM     27  C   UNL     1     -18.230  -1.430 -33.131  1.00  0.00     0.133 A 
ATOM     28  C   UNL     1     -15.952  -2.004 -32.316  1.00  0.00     0.138 A 
ATOM     29  C   UNL     1     -16.663  -1.257 -33.195  1.00  0.00     0.102 A 
ATOM     30  O   UNL     1     -14.554  -2.037 -32.200  1.00  0.00    -0.484 OA
ATOM     31  C   UNL     1     -15.889  -0.068 -33.722  1.00  0.00     0.174 C 
ATOM     32  C   UNL     1     -13.800  -0.883 -32.192  1.00  0.00     0.211 C 
ATOM     33  O   UNL     1     -16.383   0.704 -34.639  1.00  0.00    -0.294 OA
ATOM     34  C   UNL     1     -14.322   0.019 -33.321  1.00  0.00     0.131 C 
BRANCH  27  35
ATOM     35  O   UNL     1     -19.094  -0.465 -33.752  1.00  0.00    -0.507 OA
ATOM     36  H   UNL     1     -20.083  -0.213 -33.593  1.00  0.00     0.293 HD
ENDBRANCH  27  35
BRANCH  32  37
ATOM     37  C   UNL     1     -12.407  -1.339 -32.391  1.00  0.00    -0.007 A 
ATOM     38  C   UNL     1     -12.039  -1.737 -33.662  1.00  0.00     0.011 A 
ATOM     39  C   UNL     1     -11.523  -1.436 -31.335  1.00  0.00     0.011 A 
ATOM     40  C   UNL     1     -10.775  -2.244 -33.910  1.00  0.00     0.046 A 
ATOM     41  C   UNL     1     -10.218  -1.942 -31.562  1.00  0.00     0.046 A 
ATOM     42  C   UNL     1      -9.862  -2.385 -32.857  1.00  0.00     0.115 A 
BRANCH  42  43
ATOM     43  O   UNL     1      -8.605  -3.026 -33.093  1.00  0.00    -0.508 OA
ATOM     44  H   UNL     1      -7.840  -2.470 -33.418  1.00  0.00     0.293 HD
ENDBRANCH  42  43
ENDBRANCH  32  37
ENDBRANCH  23  24
ENDBRANCH   6  23
BRANCH   3  45
ATOM     45  O   UNL     1     -17.719   1.436 -27.050  1.00  0.00    -0.387 OA
ATOM     46  H   UNL     1     -18.420   1.099 -26.411  1.00  0.00     0.211 HD
ENDBRANCH   3  45
BRANCH   4  47
ATOM     47  C   UNL     1     -18.057  -2.005 -27.372  1.00  0.00     0.191 C 
BRANCH  47  48
ATOM     48  O   UNL     1     -16.658  -2.014 -27.555  1.00  0.00    -0.394 OA
ATOM     49  H   UNL     1     -16.189  -1.234 -27.091  1.00  0.00     0.210 HD
ENDBRANCH  47  48
ENDBRANCH   4  47
TORSDOF 14
ENDMDL
MODEL 5
REMARK VINA RESULT:    -4.943      2.422      3.336
REMARK INTER + INTRA:         -10.048
REMARK INTER:                  -7.495
REMARK INTRA:                  -2.553
REMARK UNBOUND:                -2.216
REMARK SMILES C[C@H]1O[C@H](O[C@H]2[C@@H](Oc3cc(O)c4c(c3)O[C@@H](c3ccc(O)cc3)CC4=O)O[C@@H](CO)[C@H](O)[C@@H]2O)[C@H](O)[C@H](O)[C@H]1O
REMARK SMILES IDX 6 1 34 2 32 3 29 4 28 5 7 6 5 7 4 8 1 9 2 10 40 11 3 12
REMARK SMILES IDX 38 13 36 14 41 15 39 17 37 19 35 21 8 23 9 24 10 25 15 26
REMARK SMILES IDX 11 27 14 28 13 29 16 30 26 31 17 32 27 33 25 34 12 35 18 37
REMARK SMILES IDX 19 38 24 39 20 40 23 41 21 42 22 43 33 45 30 47 31 48
REMARK H PARENT 41 16 39 18 37 20 35 22 12 36 22 44 33 46 31 49
REMARK Flexibility Score: inf
ROOT
ATOM      1  C   UNL     1     -18.387  -1.561 -31.860  1.00  0.00     0.221 C 
ATOM      2  C   UNL     1     -17.384  -1.717 -33.072  1.00  0.00     0.181 C 
ATOM      3  C   UNL     1     -17.661  -0.621 -34.124  1.00  0.00     0.177 C 
ATOM      4  C   UNL     1     -18.203   0.823 -33.548  1.00  0.00     0.179 C 
ATOM      5  O   UNL     1     -18.214   1.225 -32.267  1.00  0.00    -0.332 OA
ATOM      6  C   UNL     1     -18.229   0.071 -31.477  1.00  0.00     0.339 C 
ENDROOT
BRANCH   1   7
ATOM      7  O   UNL     1     -18.097  -2.524 -30.723  1.00  0.00    -0.337 OA
BRANCH   7   8
ATOM      8  C   UNL     1     -17.189  -3.627 -30.149  1.00  0.00     0.282 C 
ATOM      9  C   UNL     1     -17.075  -4.535 -27.250  1.00  0.00     0.041 C 
ATOM     10  C   UNL     1     -16.917  -5.402 -28.566  1.00  0.00     0.150 C 
ATOM     11  C   UNL     1     -15.423  -5.589 -29.084  1.00  0.00     0.174 C 
ATOM     12  O   UNL     1     -17.670  -4.947 -29.711  1.00  0.00    -0.344 OA
ATOM     13  C   UNL     1     -14.635  -4.398 -29.849  1.00  0.00     0.179 C 
ATOM     14  C   UNL     1     -15.624  -3.778 -30.858  1.00  0.00     0.202 C 
BRANCH  11  15
ATOM     15  O   UNL     1     -14.536  -6.070 -28.094  1.00  0.00    -0.388 OA
ATOM     16  H   UNL     1     -14.709  -5.637 -27.203  1.00  0.00     0.211 HD
ENDBRANCH  11  15
BRANCH  13  17
ATOM     17  O   UNL     1     -13.492  -4.943 -30.490  1.00  0.00    -0.387 OA
ATOM     18  H   UNL     1     -12.593  -4.572 -30.240  1.00  0.00     0.211 HD
ENDBRANCH  13  17
BRANCH  14  19
ATOM     19  O   UNL     1     -15.491  -4.600 -32.025  1.00  0.00    -0.385 OA
ATOM     20  H   UNL     1     -15.782  -4.068 -32.863  1.00  0.00     0.211 HD
ENDBRANCH  14  19
ENDBRANCH   7   8
ENDBRANCH   1   7
BRANCH   2  21
ATOM     21  O   UNL     1     -17.592  -2.970 -33.608  1.00  0.00    -0.387 OA
ATOM     22  H   UNL     1     -17.750  -3.614 -32.871  1.00  0.00     0.211 HD
ENDBRANCH   2  21
BRANCH   6  23
ATOM     23  O   UNL     1     -16.933   0.020 -31.229  1.00  0.00    -0.462 OA
BRANCH  23  24
ATOM     24  C   UNL     1     -16.432   0.057 -29.942  1.00  0.00     0.130 A 
ATOM     25  C   UNL     1     -15.111  -0.308 -29.910  1.00  0.00     0.093 A 
ATOM     26  C   UNL     1     -16.704   1.241 -29.280  1.00  0.00     0.094 A 
ATOM     27  C   UNL     1     -14.571   0.706 -30.864  1.00  0.00     0.133 A 
ATOM     28  C   UNL     1     -16.101   2.347 -29.793  1.00  0.00     0.138 A 
ATOM     29  C   UNL     1     -15.155   2.167 -30.745  1.00  0.00     0.102 A 
ATOM     30  O   UNL     1     -16.747   3.555 -29.485  1.00  0.00    -0.484 OA
ATOM     31  C   UNL     1     -15.182   3.237 -31.815  1.00  0.00     0.174 C 
ATOM     32  C   UNL     1     -17.244   4.382 -30.471  1.00  0.00     0.211 C 
ATOM     33  O   UNL     1     -14.290   3.271 -32.755  1.00  0.00    -0.294 OA
ATOM     34  C   UNL     1     -16.172   4.495 -31.564  1.00  0.00     0.131 C 
BRANCH  27  35
ATOM     35  O   UNL     1     -13.835   0.309 -32.032  1.00  0.00    -0.507 OA
ATOM     36  H   UNL     1     -14.121   0.141 -33.011  1.00  0.00     0.293 HD
ENDBRANCH  27  35
BRANCH  32  37
ATOM     37  C   UNL     1     -17.531   5.659 -29.784  1.00  0.00    -0.007 A 
ATOM     38  C   UNL     1     -17.140   6.826 -30.413  1.00  0.00     0.011 A 
ATOM     39  C   UNL     1     -18.102   5.690 -28.527  1.00  0.00     0.011 A 
ATOM     40  C   UNL     1     -17.309   8.055 -29.799  1.00  0.00     0.046 A 
ATOM     41  C   UNL     1     -18.296   6.936 -27.879  1.00  0.00     0.046 A 
ATOM     42  C   UNL     1     -17.857   8.122 -28.512  1.00  0.00     0.115 A 
BRANCH  42  43
ATOM     43  O   UNL     1     -17.913   9.379 -27.832  1.00  0.00    -0.508 OA
ATOM     44  H   UNL     1     -18.728   9.948 -27.948  1.00  0.00     0.293 HD
ENDBRANCH  42  43
ENDBRANCH  32  37
ENDBRANCH  23  24
ENDBRANCH   6  23
BRANCH   3  45
ATOM     45  O   UNL     1     -18.640  -1.094 -35.028  1.00  0.00    -0.387 OA
ATOM     46  H   UNL     1     -18.489  -0.796 -35.978  1.00  0.00     0.211 HD
ENDBRANCH   3  45
BRANCH   4  47
ATOM     47  C   UNL     1     -17.465   2.054 -34.148  1.00  0.00     0.191 C 
BRANCH  47  48
ATOM     48  O   UNL     1     -16.183   1.559 -34.469  1.00  0.00    -0.394 OA
ATOM     49  H   UNL     1     -16.168   0.546 -34.603  1.00  0.00     0.210 HD
ENDBRANCH  47  48
ENDBRANCH   4  47
TORSDOF 14
ENDMDL
MODEL 6
REMARK VINA RESULT:    -4.806      3.381      5.832
REMARK INTER + INTRA:          -9.831
REMARK INTER:                  -7.329
REMARK INTRA:                  -2.503
REMARK UNBOUND:                -2.216
REMARK SMILES C[C@H]1O[C@H](O[C@H]2[C@@H](Oc3cc(O)c4c(c3)O[C@@H](c3ccc(O)cc3)CC4=O)O[C@@H](CO)[C@H](O)[C@@H]2O)[C@H](O)[C@H](O)[C@H]1O
REMARK SMILES IDX 6 1 34 2 32 3 29 4 28 5 7 6 5 7 4 8 1 9 2 10 40 11 3 12
REMARK SMILES IDX 38 13 36 14 41 15 39 17 37 19 35 21 8 23 9 24 10 25 15 26
REMARK SMILES IDX 11 27 14 28 13 29 16 30 26 31 17 32 27 33 25 34 12 35 18 37
REMARK SMILES IDX 19 38 24 39 20 40 23 41 21 42 22 43 33 45 30 47 31 48
REMARK H PARENT 41 16 39 18 37 20 35 22 12 36 22 44 33 46 31 49
REMARK Flexibility Score: inf
ROOT
ATOM      1  C   UNL     1     -15.191  -1.480 -30.589  1.00  0.00     0.221 C 
ATOM      2  C   UNL     1     -14.505  -0.059 -30.691  1.00  0.00     0.181 C 
ATOM      3  C   UNL     1     -14.057   0.200 -32.147  1.00  0.00     0.177 C 
ATOM      4  C   UNL     1     -14.990  -0.467 -33.327  1.00  0.00     0.179 C 
ATOM      5  O   UNL     1     -16.208  -1.013 -33.179  1.00  0.00    -0.332 OA
ATOM      6  C   UNL     1     -16.310  -1.425 -31.846  1.00  0.00     0.339 C 
ENDROOT
BRANCH   1   7
ATOM      7  O   UNL     1     -15.774  -1.758 -29.215  1.00  0.00    -0.337 OA
BRANCH   7   8
ATOM      8  C   UNL     1     -16.722  -2.606 -28.349  1.00  0.00     0.282 C 
ATOM      9  C   UNL     1     -16.321  -3.336 -25.425  1.00  0.00     0.041 C 
ATOM     10  C   UNL     1     -17.671  -3.010 -26.188  1.00  0.00     0.150 C 
ATOM     11  C   UNL     1     -18.432  -4.270 -26.795  1.00  0.00     0.174 C 
ATOM     12  O   UNL     1     -17.565  -2.062 -27.272  1.00  0.00    -0.344 OA
ATOM     13  C   UNL     1     -17.918  -5.002 -28.147  1.00  0.00     0.179 C 
ATOM     14  C   UNL     1     -17.551  -3.890 -29.151  1.00  0.00     0.202 C 
BRANCH  11  15
ATOM     15  O   UNL     1     -18.659  -5.301 -25.856  1.00  0.00    -0.388 OA
ATOM     16  H   UNL     1     -17.847  -5.885 -25.746  1.00  0.00     0.211 HD
ENDBRANCH  11  15
BRANCH  13  17
ATOM     17  O   UNL     1     -18.952  -5.841 -28.635  1.00  0.00    -0.387 OA
ATOM     18  H   UNL     1     -19.296  -5.669 -29.563  1.00  0.00     0.211 HD
ENDBRANCH  13  17
BRANCH  14  19
ATOM     19  O   UNL     1     -18.792  -3.585 -29.801  1.00  0.00    -0.385 OA
ATOM     20  H   UNL     1     -18.734  -2.655 -30.249  1.00  0.00     0.211 HD
ENDBRANCH  14  19
ENDBRANCH   7   8
ENDBRANCH   1   7
BRANCH   2  21
ATOM     21  O   UNL     1     -13.418  -0.075 -29.843  1.00  0.00    -0.387 OA
ATOM     22  H   UNL     1     -13.198  -1.015 -29.618  1.00  0.00     0.211 HD
ENDBRANCH   2  21
BRANCH   6  23
ATOM     23  O   UNL     1     -16.960  -0.369 -31.393  1.00  0.00    -0.462 OA
BRANCH  23  24
ATOM     24  C   UNL     1     -18.255  -0.085 -31.780  1.00  0.00     0.130 A 
ATOM     25  C   UNL     1     -19.125  -0.177 -30.724  1.00  0.00     0.093 A 
ATOM     26  C   UNL     1     -18.369   1.092 -32.499  1.00  0.00     0.094 A 
ATOM     27  C   UNL     1     -18.474   0.805 -29.807  1.00  0.00     0.133 A 
ATOM     28  C   UNL     1     -18.082   2.227 -31.807  1.00  0.00     0.138 A 
ATOM     29  C   UNL     1     -17.921   2.127 -30.466  1.00  0.00     0.102 A 
ATOM     30  O   UNL     1     -17.695   3.313 -32.609  1.00  0.00    -0.484 OA
ATOM     31  C   UNL     1     -16.838   3.038 -29.931  1.00  0.00     0.174 C 
ATOM     32  C   UNL     1     -16.457   3.906 -32.475  1.00  0.00     0.211 C 
ATOM     33  O   UNL     1     -16.609   3.137 -28.659  1.00  0.00    -0.294 OA
ATOM     34  C   UNL     1     -16.195   4.099 -30.974  1.00  0.00     0.131 C 
BRANCH  27  35
ATOM     35  O   UNL     1     -18.066   0.426 -28.482  1.00  0.00    -0.507 OA
ATOM     36  H   UNL     1     -18.527   0.507 -27.562  1.00  0.00     0.293 HD
ENDBRANCH  27  35
BRANCH  32  37
ATOM     37  C   UNL     1     -16.561   5.173 -33.229  1.00  0.00    -0.007 A 
ATOM     38  C   UNL     1     -16.507   5.105 -34.609  1.00  0.00     0.011 A 
ATOM     39  C   UNL     1     -16.636   6.392 -32.584  1.00  0.00     0.011 A 
ATOM     40  C   UNL     1     -16.526   6.254 -35.379  1.00  0.00     0.046 A 
ATOM     41  C   UNL     1     -16.667   7.585 -33.349  1.00  0.00     0.046 A 
ATOM     42  C   UNL     1     -16.571   7.509 -34.757  1.00  0.00     0.115 A 
BRANCH  42  43
ATOM     43  O   UNL     1     -16.462   8.694 -35.550  1.00  0.00    -0.508 OA
ATOM     44  H   UNL     1     -15.790   9.386 -35.283  1.00  0.00     0.293 HD
ENDBRANCH  42  43
ENDBRANCH  32  37
ENDBRANCH  23  24
ENDBRANCH   6  23
BRANCH   3  45
ATOM     45  O   UNL     1     -12.750  -0.311 -32.320  1.00  0.00    -0.387 OA
ATOM     46  H   UNL     1     -12.033   0.395 -32.287  1.00  0.00     0.211 HD
ENDBRANCH   3  45
BRANCH   4  47
ATOM     47  C   UNL     1     -15.341   0.517 -34.480  1.00  0.00     0.191 C 
BRANCH  47  48
ATOM     48  O   UNL     1     -14.921  -0.160 -35.645  1.00  0.00    -0.394 OA
ATOM     49  H   UNL     1     -14.440   0.449 -36.310  1.00  0.00     0.210 HD
ENDBRANCH  47  48
ENDBRANCH   4  47
TORSDOF 14
ENDMDL
MODEL 7
REMARK VINA RESULT:    -4.492      2.136      4.144
REMARK INTER + INTRA:          -9.335
REMARK INTER:                  -6.450
REMARK INTRA:                  -2.885
REMARK UNBOUND:                -2.216
REMARK SMILES C[C@H]1O[C@H](O[C@H]2[C@@H](Oc3cc(O)c4c(c3)O[C@@H](c3ccc(O)cc3)CC4=O)O[C@@H](CO)[C@H](O)[C@@H]2O)[C@H](O)[C@H](O)[C@H]1O
REMARK SMILES IDX 6 1 34 2 32 3 29 4 28 5 7 6 5 7 4 8 1 9 2 10 40 11 3 12
REMARK SMILES IDX 38 13 36 14 41 15 39 17 37 19 35 21 8 23 9 24 10 25 15 26
REMARK SMILES IDX 11 27 14 28 13 29 16 30 26 31 17 32 27 33 25 34 12 35 18 37
REMARK SMILES IDX 19 38 24 39 20 40 23 41 21 42 22 43 33 45 30 47 31 48
REMARK H PARENT 41 16 39 18 37 20 35 22 12 36 22 44 33 46 31 49
REMARK Flexibility Score: inf
ROOT
ATOM      1  C   UNL     1     -16.726  -0.851 -30.680  1.00  0.00     0.221 C 
ATOM      2  C   UNL     1     -18.001   0.081 -30.604  1.00  0.00     0.181 C 
ATOM      3  C   UNL     1     -17.948   0.933 -29.316  1.00  0.00     0.177 C 
ATOM      4  C   UNL     1     -16.450   1.364 -28.787  1.00  0.00     0.179 C 
ATOM      5  O   UNL     1     -15.295   1.254 -29.463  1.00  0.00    -0.332 OA
ATOM      6  C   UNL     1     -15.472   0.240 -30.410  1.00  0.00     0.339 C 
ENDROOT
BRANCH   1   7
ATOM      7  O   UNL     1     -16.638  -1.629 -31.981  1.00  0.00    -0.337 OA
BRANCH   7   8
ATOM      8  C   UNL     1     -15.746  -2.301 -33.039  1.00  0.00     0.282 C 
ATOM      9  C   UNL     1     -16.650  -4.289 -35.155  1.00  0.00     0.041 C 
ATOM     10  C   UNL     1     -15.544  -3.159 -35.265  1.00  0.00     0.150 C 
ATOM     11  C   UNL     1     -14.061  -3.621 -34.917  1.00  0.00     0.174 C 
ATOM     12  O   UNL     1     -15.777  -1.974 -34.474  1.00  0.00    -0.344 OA
ATOM     13  C   UNL     1     -13.582  -3.853 -33.386  1.00  0.00     0.179 C 
ATOM     14  C   UNL     1     -14.131  -2.673 -32.558  1.00  0.00     0.202 C 
BRANCH  11  15
ATOM     15  O   UNL     1     -13.640  -4.764 -35.633  1.00  0.00    -0.388 OA
ATOM     16  H   UNL     1     -12.713  -5.048 -35.364  1.00  0.00     0.211 HD
ENDBRANCH  11  15
BRANCH  13  17
ATOM     17  O   UNL     1     -12.166  -3.912 -33.353  1.00  0.00    -0.387 OA
ATOM     18  H   UNL     1     -11.657  -3.051 -33.448  1.00  0.00     0.211 HD
ENDBRANCH  13  17
BRANCH  14  19
ATOM     19  O   UNL     1     -13.135  -1.652 -32.702  1.00  0.00    -0.385 OA
ATOM     20  H   UNL     1     -12.197  -2.084 -32.762  1.00  0.00     0.211 HD
ENDBRANCH  14  19
ENDBRANCH   7   8
ENDBRANCH   1   7
BRANCH   2  21
ATOM     21  O   UNL     1     -19.104  -0.745 -30.596  1.00  0.00    -0.387 OA
ATOM     22  H   UNL     1     -19.055  -1.342 -29.807  1.00  0.00     0.211 HD
ENDBRANCH   2  21
BRANCH   6  23
ATOM     23  O   UNL     1     -15.755   1.018 -31.438  1.00  0.00    -0.462 OA
BRANCH  23  24
ATOM     24  C   UNL     1     -14.768   1.560 -32.239  1.00  0.00     0.130 A 
ATOM     25  C   UNL     1     -14.855   1.092 -33.525  1.00  0.00     0.093 A 
ATOM     26  C   UNL     1     -14.681   2.938 -32.148  1.00  0.00     0.094 A 
ATOM     27  C   UNL     1     -16.258   1.507 -33.824  1.00  0.00     0.133 A 
ATOM     28  C   UNL     1     -15.759   3.622 -32.617  1.00  0.00     0.138 A 
ATOM     29  C   UNL     1     -16.700   2.928 -33.300  1.00  0.00     0.102 A 
ATOM     30  O   UNL     1     -15.909   4.909 -32.077  1.00  0.00    -0.484 OA
ATOM     31  C   UNL     1     -18.108   3.409 -33.022  1.00  0.00     0.174 C 
ATOM     32  C   UNL     1     -17.031   5.268 -31.361  1.00  0.00     0.211 C 
ATOM     33  O   UNL     1     -19.125   2.917 -33.657  1.00  0.00    -0.294 OA
ATOM     34  C   UNL     1     -18.256   4.757 -32.134  1.00  0.00     0.131 C 
BRANCH  27  35
ATOM     35  O   UNL     1     -17.241   0.549 -34.248  1.00  0.00    -0.507 OA
ATOM     36  H   UNL     1     -17.172  -0.325 -34.793  1.00  0.00     0.293 HD
ENDBRANCH  27  35
BRANCH  32  37
ATOM     37  C   UNL     1     -16.963   6.741 -31.262  1.00  0.00    -0.007 A 
ATOM     38  C   UNL     1     -16.490   7.436 -32.360  1.00  0.00     0.011 A 
ATOM     39  C   UNL     1     -17.288   7.402 -30.094  1.00  0.00     0.011 A 
ATOM     40  C   UNL     1     -16.329   8.809 -32.317  1.00  0.00     0.046 A 
ATOM     41  C   UNL     1     -17.142   8.810 -30.025  1.00  0.00     0.046 A 
ATOM     42  C   UNL     1     -16.620   9.508 -31.138  1.00  0.00     0.115 A 
BRANCH  42  43
ATOM     43  O   UNL     1     -16.332  10.907 -31.057  1.00  0.00    -0.508 OA
ATOM     44  H   UNL     1     -15.376  11.200 -31.089  1.00  0.00     0.293 HD
ENDBRANCH  42  43
ENDBRANCH  32  37
ENDBRANCH  23  24
ENDBRANCH   6  23
BRANCH   3  45
ATOM     45  O   UNL     1     -18.561   0.211 -28.267  1.00  0.00    -0.387 OA
ATOM     46  H   UNL     1     -17.910  -0.306 -27.698  1.00  0.00     0.211 HD
ENDBRANCH   3  45
BRANCH   4  47
ATOM     47  C   UNL     1     -16.328   2.867 -28.406  1.00  0.00     0.191 C 
BRANCH  47  48
ATOM     48  O   UNL     1     -17.650   3.351 -28.503  1.00  0.00    -0.394 OA
ATOM     49  H   UNL     1     -17.972   3.807 -27.647  1.00  0.00     0.210 HD
ENDBRANCH  47  48
ENDBRANCH   4  47
TORSDOF 14
ENDMDL
MODEL 8
REMARK VINA RESULT:    -4.343      4.257      6.308
REMARK INTER + INTRA:          -9.098
REMARK INTER:                  -6.696
REMARK INTRA:                  -2.403
REMARK UNBOUND:                -2.216
REMARK SMILES C[C@H]1O[C@H](O[C@H]2[C@@H](Oc3cc(O)c4c(c3)O[C@@H](c3ccc(O)cc3)CC4=O)O[C@@H](CO)[C@H](O)[C@@H]2O)[C@H](O)[C@H](O)[C@H]1O
REMARK SMILES IDX 6 1 34 2 32 3 29 4 28 5 7 6 5 7 4 8 1 9 2 10 40 11 3 12
REMARK SMILES IDX 38 13 36 14 41 15 39 17 37 19 35 21 8 23 9 24 10 25 15 26
REMARK SMILES IDX 11 27 14 28 13 29 16 30 26 31 17 32 27 33 25 34 12 35 18 37
REMARK SMILES IDX 19 38 24 39 20 40 23 41 21 42 22 43 33 45 30 47 31 48
REMARK H PARENT 41 16 39 18 37 20 35 22 12 36 22 44 33 46 31 49
REMARK Flexibility Score: inf
ROOT
ATOM      1  C   UNL     1     -17.756  -2.803 -29.481  1.00  0.00     0.221 C 
ATOM      2  C   UNL     1     -16.305  -2.370 -29.935  1.00  0.00     0.181 C 
ATOM      3  C   UNL     1     -16.267  -2.199 -31.470  1.00  0.00     0.177 C 
ATOM      4  C   UNL     1     -17.656  -1.675 -32.180  1.00  0.00     0.179 C 
ATOM      5  O   UNL     1     -18.735  -1.167 -31.562  1.00  0.00    -0.332 OA
ATOM      6  C   UNL     1     -18.724  -1.661 -30.253  1.00  0.00     0.339 C 
ENDROOT
BRANCH   1   7
ATOM      7  O   UNL     1     -17.910  -2.868 -27.973  1.00  0.00    -0.337 OA
BRANCH   7   8
ATOM      8  C   UNL     1     -17.863  -3.723 -26.694  1.00  0.00     0.282 C 
ATOM      9  C   UNL     1     -18.956  -2.943 -23.966  1.00  0.00     0.041 C 
ATOM     10  C   UNL     1     -18.934  -4.371 -24.653  1.00  0.00     0.150 C 
ATOM     11  C   UNL     1     -17.666  -5.271 -24.313  1.00  0.00     0.174 C 
ATOM     12  O   UNL     1     -19.038  -4.376 -26.093  1.00  0.00    -0.344 OA
ATOM     13  C   UNL     1     -16.221  -4.992 -24.990  1.00  0.00     0.179 C 
ATOM     14  C   UNL     1     -16.469  -4.719 -26.488  1.00  0.00     0.202 C 
BRANCH  11  15
ATOM     15  O   UNL     1     -17.426  -5.411 -22.927  1.00  0.00    -0.388 OA
ATOM     16  H   UNL     1     -17.868  -6.236 -22.558  1.00  0.00     0.211 HD
ENDBRANCH  11  15
BRANCH  13  17
ATOM     17  O   UNL     1     -15.392  -6.125 -24.786  1.00  0.00    -0.387 OA
ATOM     18  H   UNL     1     -15.651  -6.983 -25.239  1.00  0.00     0.211 HD
ENDBRANCH  13  17
BRANCH  14  19
ATOM     19  O   UNL     1     -16.483  -6.024 -27.082  1.00  0.00    -0.385 OA
ATOM     20  H   UNL     1     -15.678  -6.575 -26.737  1.00  0.00     0.211 HD
ENDBRANCH  14  19
ENDBRANCH   7   8
ENDBRANCH   1   7
BRANCH   2  21
ATOM     21  O   UNL     1     -15.443  -3.369 -29.536  1.00  0.00    -0.387 OA
ATOM     22  H   UNL     1     -15.660  -3.628 -28.603  1.00  0.00     0.211 HD
ENDBRANCH   2  21
BRANCH   6  23
ATOM     23  O   UNL     1     -18.164  -0.611 -29.682  1.00  0.00    -0.462 OA
BRANCH  23  24
ATOM     24  C   UNL     1     -18.913   0.379 -29.075  1.00  0.00     0.130 A 
ATOM     25  C   UNL     1     -18.641   0.461 -27.734  1.00  0.00     0.093 A 
ATOM     26  C   UNL     1     -18.856   1.594 -29.735  1.00  0.00     0.094 A 
ATOM     27  C   UNL     1     -17.169   0.695 -27.814  1.00  0.00     0.133 A 
ATOM     28  C   UNL     1     -17.637   2.198 -29.738  1.00  0.00     0.138 A 
ATOM     29  C   UNL     1     -16.672   1.678 -28.944  1.00  0.00     0.102 A 
ATOM     30  O   UNL     1     -17.444   3.108 -30.790  1.00  0.00    -0.484 OA
ATOM     31  C   UNL     1     -15.295   1.738 -29.571  1.00  0.00     0.174 C 
ATOM     32  C   UNL     1     -16.442   2.935 -31.721  1.00  0.00     0.211 C 
ATOM     33  O   UNL     1     -14.240   1.365 -28.916  1.00  0.00    -0.294 OA
ATOM     34  C   UNL     1     -15.161   2.562 -30.959  1.00  0.00     0.131 C 
BRANCH  27  35
ATOM     35  O   UNL     1     -16.240  -0.174 -27.145  1.00  0.00    -0.507 OA
ATOM     36  H   UNL     1     -15.820  -1.079 -27.410  1.00  0.00     0.293 HD
ENDBRANCH  27  35
BRANCH  32  37
ATOM     37  C   UNL     1     -16.357   4.229 -32.430  1.00  0.00    -0.007 A 
ATOM     38  C   UNL     1     -15.935   4.212 -33.747  1.00  0.00     0.011 A 
ATOM     39  C   UNL     1     -16.618   5.422 -31.787  1.00  0.00     0.011 A 
ATOM     40  C   UNL     1     -15.761   5.389 -34.453  1.00  0.00     0.046 A 
ATOM     41  C   UNL     1     -16.458   6.643 -32.489  1.00  0.00     0.046 A 
ATOM     42  C   UNL     1     -15.987   6.620 -33.823  1.00  0.00     0.115 A 
BRANCH  42  43
ATOM     43  O   UNL     1     -15.685   7.834 -34.515  1.00  0.00    -0.508 OA
ATOM     44  H   UNL     1     -16.398   8.532 -34.587  1.00  0.00     0.293 HD
ENDBRANCH  42  43
ENDBRANCH  32  37
ENDBRANCH  23  24
ENDBRANCH   6  23
BRANCH   3  45
ATOM     45  O   UNL     1     -15.951  -3.445 -32.060  1.00  0.00    -0.387 OA
ATOM     46  H   UNL     1     -16.303  -4.236 -31.546  1.00  0.00     0.211 HD
ENDBRANCH   3  45
BRANCH   4  47
ATOM     47  C   UNL     1     -17.441  -0.524 -33.205  1.00  0.00     0.191 C 
BRANCH  47  48
ATOM     48  O   UNL     1     -18.607   0.262 -33.084  1.00  0.00    -0.394 OA
ATOM     49  H   UNL     1     -18.410   1.263 -33.026  1.00  0.00     0.210 HD
ENDBRANCH  47  48
ENDBRANCH   4  47
TORSDOF 14
ENDMDL
MODEL 9
REMARK VINA RESULT:    -4.048      5.638     10.327
REMARK INTER + INTRA:          -8.631
REMARK INTER:                  -6.578
REMARK INTRA:                  -2.053
REMARK UNBOUND:                -2.216
REMARK SMILES C[C@H]1O[C@H](O[C@H]2[C@@H](Oc3cc(O)c4c(c3)O[C@@H](c3ccc(O)cc3)CC4=O)O[C@@H](CO)[C@H](O)[C@@H]2O)[C@H](O)[C@H](O)[C@H]1O
REMARK SMILES IDX 6 1 34 2 32 3 29 4 28 5 7 6 5 7 4 8 1 9 2 10 40 11 3 12
REMARK SMILES IDX 38 13 36 14 41 15 39 17 37 19 35 21 8 23 9 24 10 25 15 26
REMARK SMILES IDX 11 27 14 28 13 29 16 30 26 31 17 32 27 33 25 34 12 35 18 37
REMARK SMILES IDX 19 38 24 39 20 40 23 41 21 42 22 43 33 45 30 47 31 48
REMARK H PARENT 41 16 39 18 37 20 35 22 12 36 22 44 33 46 31 49
REMARK Flexibility Score: inf
ROOT
ATOM      1  C   UNL     1     -17.802  10.228 -32.822  1.00  0.00     0.221 C 
ATOM      2  C   UNL     1     -17.052  11.460 -33.470  1.00  0.00     0.181 C 
ATOM      3  C   UNL     1     -17.811  12.765 -33.143  1.00  0.00     0.177 C 
ATOM      4  C   UNL     1     -18.592  12.811 -31.694  1.00  0.00     0.179 C 
ATOM      5  O   UNL     1     -18.456  11.943 -30.679  1.00  0.00    -0.332 OA
ATOM      6  C   UNL     1     -18.010  10.737 -31.231  1.00  0.00     0.339 C 
ENDROOT
BRANCH   1   7
ATOM      7  O   UNL     1     -17.049   8.921 -32.991  1.00  0.00    -0.337 OA
BRANCH   7   8
ATOM      8  C   UNL     1     -17.110   7.387 -33.101  1.00  0.00     0.282 C 
ATOM      9  C   UNL     1     -18.372   5.487 -31.091  1.00  0.00     0.041 C 
ATOM     10  C   UNL     1     -18.334   5.375 -32.671  1.00  0.00     0.150 C 
ATOM     11  C   UNL     1     -17.113   4.545 -33.266  1.00  0.00     0.174 C 
ATOM     12  O   UNL     1     -18.338   6.627 -33.389  1.00  0.00    -0.344 OA
ATOM     13  C   UNL     1     -15.618   5.167 -33.336  1.00  0.00     0.179 C 
ATOM     14  C   UNL     1     -15.756   6.617 -33.844  1.00  0.00     0.202 C 
BRANCH  11  15
ATOM     15  O   UNL     1     -16.972   3.258 -32.700  1.00  0.00    -0.388 OA
ATOM     16  H   UNL     1     -17.490   2.568 -33.217  1.00  0.00     0.211 HD
ENDBRANCH  11  15
BRANCH  13  17
ATOM     17  O   UNL     1     -14.831   4.371 -34.208  1.00  0.00    -0.387 OA
ATOM     18  H   UNL     1     -15.142   3.435 -34.398  1.00  0.00     0.211 HD
ENDBRANCH  13  17
BRANCH  14  19
ATOM     19  O   UNL     1     -15.757   6.488 -35.272  1.00  0.00    -0.385 OA
ATOM     20  H   UNL     1     -15.464   7.380 -35.705  1.00  0.00     0.211 HD
ENDBRANCH  14  19
ENDBRANCH   7   8
ENDBRANCH   1   7
BRANCH   2  21
ATOM     21  O   UNL     1     -17.022  11.243 -34.831  1.00  0.00    -0.387 OA
ATOM     22  H   UNL     1     -17.915  10.932 -35.128  1.00  0.00     0.211 HD
ENDBRANCH   2  21
BRANCH   6  23
ATOM     23  O   UNL     1     -16.725  10.904 -30.980  1.00  0.00    -0.462 OA
BRANCH  23  24
ATOM     24  C   UNL     1     -15.928   9.872 -30.522  1.00  0.00     0.130 A 
ATOM     25  C   UNL     1     -14.596  10.174 -30.650  1.00  0.00     0.093 A 
ATOM     26  C   UNL     1     -16.282   9.421 -29.263  1.00  0.00     0.094 A 
ATOM     27  C   UNL     1     -14.572  11.437 -29.855  1.00  0.00     0.133 A 
ATOM     28  C   UNL     1     -16.105  10.314 -28.253  1.00  0.00     0.138 A 
ATOM     29  C   UNL     1     -15.424  11.451 -28.527  1.00  0.00     0.102 A 
ATOM     30  O   UNL     1     -16.908  10.081 -27.125  1.00  0.00    -0.484 OA
ATOM     31  C   UNL     1     -15.974  12.660 -27.800  1.00  0.00     0.174 C 
ATOM     32  C   UNL     1     -17.821  11.014 -26.681  1.00  0.00     0.211 C 
ATOM     33  O   UNL     1     -15.390  13.815 -27.876  1.00  0.00    -0.294 OA
ATOM     34  C   UNL     1     -17.126  12.384 -26.694  1.00  0.00     0.131 C 
BRANCH  27  35
ATOM     35  O   UNL     1     -14.095  12.666 -30.427  1.00  0.00    -0.507 OA
ATOM     36  H   UNL     1     -14.258  13.118 -31.341  1.00  0.00     0.293 HD
ENDBRANCH  27  35
BRANCH  32  37
ATOM     37  C   UNL     1     -18.204  10.555 -25.329  1.00  0.00    -0.007 A 
ATOM     38  C   UNL     1     -17.866  11.361 -24.258  1.00  0.00     0.011 A 
ATOM     39  C   UNL     1     -18.813   9.332 -25.129  1.00  0.00     0.011 A 
ATOM     40  C   UNL     1     -18.128  10.964 -22.959  1.00  0.00     0.046 A 
ATOM     41  C   UNL     1     -19.101   8.904 -23.808  1.00  0.00     0.046 A 
ATOM     42  C   UNL     1     -18.717   9.716 -22.717  1.00  0.00     0.115 A 
BRANCH  42  43
ATOM     43  O   UNL     1     -18.868   9.255 -21.371  1.00  0.00    -0.508 OA
ATOM     44  H   UNL     1     -18.723   9.906 -20.625  1.00  0.00     0.293 HD
ENDBRANCH  42  43
ENDBRANCH  32  37
ENDBRANCH  23  24
ENDBRANCH   6  23
BRANCH   3  45
ATOM     45  O   UNL     1     -18.787  12.987 -34.141  1.00  0.00    -0.387 OA
ATOM     46  H   UNL     1     -18.553  13.733 -34.776  1.00  0.00     0.211 HD
ENDBRANCH   3  45
BRANCH   4  47
ATOM     47  C   UNL     1     -18.339  14.117 -30.888  1.00  0.00     0.191 C 
BRANCH  47  48
ATOM     48  O   UNL     1     -16.988  14.018 -30.494  1.00  0.00    -0.394 OA
ATOM     49  H   UNL     1     -16.675  14.815 -29.935  1.00  0.00     0.210 HD
ENDBRANCH  47  48
ENDBRANCH   4  47
TORSDOF 14
ENDMDL
