MODEL 1
REMARK VINA RESULT:    -3.491      0.000      0.000
REMARK INTER + INTRA:          -1.894
REMARK INTER:                  -5.430
REMARK INTRA:                   3.537
REMARK UNBOUND:                 3.537
REMARK SMILES C=C(C)[C@@H]1CC=C2C(=CC[C@@]3(C)[C@H]([C@H](CCC=C(C)C)C(=O)[O-])[C@H](O)C[C@]23C)[C@@]1(C)CCC(=O)[O-]
REMARK SMILES IDX 29 1 8 2 4 3 30 4 7 5 9 6 5 7 27 8 6 9 10 10 11 11 26 12
REMARK SMILES IDX 28 13 13 14 12 15 24 16 31 17 32 18 33 19 34 20 35 21 2 22
REMARK SMILES IDX 1 23 3 24 14 25 21 26 22 27 23 28 15 29 16 30 17 31 18 32
REMARK SMILES IDX 19 33 20 34 25 35
REMARK H PARENT 25 36
REMARK Flexibility Score: inf
ROOT
ATOM      1  C   UNL     1       7.270 -53.205 576.331  1.00  0.00    -0.000 C 
ATOM      2  C   UNL     1       7.753 -53.729 574.962  1.00  0.00    -0.042 C 
ATOM      3  C   UNL     1       6.658 -54.386 577.186  1.00  0.00     0.028 C 
ATOM      4  C   UNL     1       8.442 -52.556 577.120  1.00  0.00     0.017 C 
ATOM      5  C   UNL     1       7.169 -54.993 574.385  1.00  0.00    -0.042 C 
ATOM      6  C   UNL     1       8.589 -52.974 574.191  1.00  0.00    -0.022 C 
ATOM      7  C   UNL     1       5.697 -55.270 576.370  1.00  0.00     0.036 C 
ATOM      8  C   UNL     1       7.775 -55.501 573.088  1.00  0.00     0.001 C 
ATOM      9  C   UNL     1       6.294 -55.735 575.080  1.00  0.00    -0.022 C 
ATOM     10  C   UNL     1       8.985 -53.322 572.764  1.00  0.00     0.035 C 
ATOM     11  C   UNL     1       7.960 -54.288 572.126  1.00  0.00    -0.014 C 
ATOM     12  C   UNL     1       6.956 -56.475 572.226  1.00  0.00     0.044 C 
ATOM     13  C   UNL     1       9.098 -56.235 573.483  1.00  0.00     0.017 C 
ATOM     14  C   UNL     1       8.373 -54.989 570.798  1.00  0.00     0.034 C 
ATOM     15  C   UNL     1       6.625 -53.488 571.902  1.00  0.00     0.013 C 
ATOM     16  C   UNL     1       7.490 -56.280 570.786  1.00  0.00     0.119 C 
ENDROOT
BRANCH   1  17
ATOM     17  C   UNL     1       6.186 -52.112 576.026  1.00  0.00     0.018 C 
BRANCH  17  18
ATOM     18  C   UNL     1       4.945 -52.107 576.943  1.00  0.00     0.053 C 
BRANCH  18  19
ATOM     19  C   UNL     1       5.175 -51.213 578.121  1.00  0.00     0.041 C 
ATOM     20  O   UNL     1       4.326 -51.156 579.050  1.00  0.00    -0.550 OA
ATOM     21  O   UNL     1       6.349 -50.473 578.214  1.00  0.00    -0.550 OA
ENDBRANCH  18  19
ENDBRANCH  17  18
ENDBRANCH   1  17
BRANCH   3  22
ATOM     22  C   UNL     1       7.675 -55.246 577.955  1.00  0.00    -0.076 C 
ATOM     23  C   UNL     1       8.979 -55.276 577.641  1.00  0.00     0.008 C 
ATOM     24  C   UNL     1       7.217 -56.097 579.117  1.00  0.00     0.039 C 
ENDBRANCH   3  22
BRANCH  14  25
ATOM     25  C   UNL     1       8.313 -54.145 569.479  1.00  0.00     0.042 C 
BRANCH  25  26
ATOM     26  C   UNL     1       8.859 -52.758 569.703  1.00  0.00     0.045 C 
ATOM     27  O   UNL     1       9.121 -52.011 568.722  1.00  0.00    -0.550 OA
ATOM     28  O   UNL     1       9.124 -52.310 570.993  1.00  0.00    -0.550 OA
ENDBRANCH  25  26
BRANCH  25  29
ATOM     29  C   UNL     1       9.124 -54.827 568.342  1.00  0.00     0.014 C 
BRANCH  29  30
ATOM     30  C   UNL     1       8.399 -54.857 566.983  1.00  0.00     0.028 C 
BRANCH  30  31
ATOM     31  C   UNL     1       8.847 -56.026 566.131  1.00  0.00    -0.028 C 
ATOM     32  C   UNL     1       8.098 -57.122 565.865  1.00  0.00    -0.080 C 
ATOM     33  C   UNL     1       6.714 -57.310 566.437  1.00  0.00     0.039 C 
ATOM     34  C   UNL     1       8.689 -58.242 565.044  1.00  0.00     0.039 C 
ENDBRANCH  30  31
ENDBRANCH  29  30
ENDBRANCH  25  29
ENDBRANCH  14  25
BRANCH  16  35
ATOM     35  O   UNL     1       6.405 -56.160 569.897  1.00  0.00    -0.393 OA
ATOM     36  H   UNL     1       5.836 -56.964 570.033  1.00  0.00     0.210 HD
ENDBRANCH  16  35
TORSDOF 10
ENDMDL
