MODEL 1
REMARK VINA RESULT:    -6.033      0.000      0.000
REMARK INTER + INTRA:         -10.193
REMARK INTER:                  -9.207
REMARK INTRA:                  -0.986
REMARK UNBOUND:                -0.986
REMARK SMILES CC(=O)CCC=C(C)CCC=C(C)CCC=C(C)C
REMARK SMILES IDX 10 1 11 2 12 3 13 4 14 5 15 6 16 7 18 8 17 9 19 10 9 11 7 12
REMARK SMILES IDX 6 13 8 14 5 15 4 16 2 17 3 18 1 19
REMARK H PARENT
REMARK Flexibility Score: inf
ROOT
ATOM      1  C   UNL     1      12.637  14.507  13.892  1.00  0.00     0.032 C 
ENDROOT
BRANCH   1   2
ATOM      2  C   UNL     1      13.528  15.013  12.781  1.00  0.00    -0.028 C 
ATOM      3  C   UNL     1      13.119  15.340  11.533  1.00  0.00    -0.077 C 
ATOM      4  C   UNL     1      14.141  15.887  10.570  1.00  0.00     0.039 C 
BRANCH   3   5
ATOM      5  C   UNL     1      11.693  15.164  11.054  1.00  0.00     0.034 C 
BRANCH   5   6
ATOM      6  C   UNL     1      10.903  16.470  11.196  1.00  0.00     0.032 C 
BRANCH   6   7
ATOM      7  C   UNL     1      10.253  16.553  12.553  1.00  0.00    -0.028 C 
ATOM      8  C   UNL     1       8.767  18.462  11.905  1.00  0.00     0.039 C 
ATOM      9  C   UNL     1       9.311  17.460  12.896  1.00  0.00    -0.080 C 
ATOM     10  C   UNL     1       8.786  17.451  14.308  1.00  0.00     0.039 C 
ENDBRANCH   6   7
ENDBRANCH   5   6
ENDBRANCH   3   5
ENDBRANCH   1   2
BRANCH   1  11
ATOM     11  C   UNL     1      13.099  15.033  15.257  1.00  0.00     0.034 C 
BRANCH  11  12
ATOM     12  C   UNL     1      14.425  14.430  15.672  1.00  0.00    -0.077 C 
ATOM     13  C   UNL     1      14.602  13.094  15.559  1.00  0.00    -0.028 C 
ATOM     14  C   UNL     1      15.494  15.335  16.238  1.00  0.00     0.039 C 
BRANCH  13  15
ATOM     15  C   UNL     1      15.865  12.364  15.940  1.00  0.00     0.035 C 
BRANCH  15  16
ATOM     16  C   UNL     1      16.776  12.177  14.719  1.00  0.00     0.079 C 
BRANCH  16  17
ATOM     17  C   UNL     1      17.467  10.833  14.655  1.00  0.00     0.130 C 
ATOM     18  O   UNL     1      17.106   9.959  15.430  1.00  0.00    -0.300 OA
ATOM     19  C   UNL     1      18.570  10.523  13.681  1.00  0.00     0.087 C 
ENDBRANCH  16  17
ENDBRANCH  15  16
ENDBRANCH  13  15
ENDBRANCH  11  12
ENDBRANCH   1  11
TORSDOF 9
ENDMDL
MODEL 2
REMARK VINA RESULT:    -5.937      1.194      3.235
REMARK INTER + INTRA:         -10.047
REMARK INTER:                  -9.029
REMARK INTRA:                  -1.018
REMARK UNBOUND:                -0.986
REMARK SMILES CC(=O)CCC=C(C)CCC=C(C)CCC=C(C)C
REMARK SMILES IDX 10 1 11 2 12 3 13 4 14 5 15 6 16 7 18 8 17 9 19 10 9 11 7 12
REMARK SMILES IDX 6 13 8 14 5 15 4 16 2 17 3 18 1 19
REMARK H PARENT
REMARK Flexibility Score: inf
ROOT
ATOM      1  C   UNL     1      12.283  14.992  13.917  1.00  0.00     0.032 C 
ENDROOT
BRANCH   1   2
ATOM      2  C   UNL     1      11.364  16.127  13.526  1.00  0.00    -0.028 C 
ATOM      3  C   UNL     1      10.639  16.194  12.385  1.00  0.00    -0.077 C 
ATOM      4  C   UNL     1       9.728  17.377  12.189  1.00  0.00     0.039 C 
BRANCH   3   5
ATOM      5  C   UNL     1      10.716  15.148  11.291  1.00  0.00     0.034 C 
BRANCH   5   6
ATOM      6  C   UNL     1      10.908  15.806   9.920  1.00  0.00     0.032 C 
BRANCH   6   7
ATOM      7  C   UNL     1      12.191  16.596   9.884  1.00  0.00    -0.028 C 
ATOM      8  C   UNL     1      13.641  14.554   9.887  1.00  0.00     0.039 C 
ATOM      9  C   UNL     1      13.427  16.050   9.897  1.00  0.00    -0.080 C 
ATOM     10  C   UNL     1      14.619  16.971   9.906  1.00  0.00     0.039 C 
ENDBRANCH   6   7
ENDBRANCH   5   6
ENDBRANCH   3   5
ENDBRANCH   1   2
BRANCH   1  11
ATOM     11  C   UNL     1      12.334  14.820  15.440  1.00  0.00     0.034 C 
BRANCH  11  12
ATOM     12  C   UNL     1      13.435  13.870  15.862  1.00  0.00    -0.077 C 
ATOM     13  C   UNL     1      14.724  14.221  15.643  1.00  0.00    -0.028 C 
ATOM     14  C   UNL     1      13.060  12.541  16.475  1.00  0.00     0.039 C 
BRANCH  13  15
ATOM     15  C   UNL     1      15.914  13.369  16.006  1.00  0.00     0.035 C 
BRANCH  15  16
ATOM     16  C   UNL     1      16.506  12.699  14.758  1.00  0.00     0.079 C 
BRANCH  16  17
ATOM     17  C   UNL     1      16.804  11.226  14.923  1.00  0.00     0.130 C 
ATOM     18  O   UNL     1      15.990  10.533  15.515  1.00  0.00    -0.300 OA
ATOM     19  C   UNL     1      18.052  10.577  14.388  1.00  0.00     0.087 C 
ENDBRANCH  16  17
ENDBRANCH  15  16
ENDBRANCH  13  15
ENDBRANCH  11  12
ENDBRANCH   1  11
TORSDOF 9
ENDMDL
MODEL 3
REMARK VINA RESULT:    -5.654      3.127      8.307
REMARK INTER + INTRA:          -9.614
REMARK INTER:                  -8.682
REMARK INTRA:                  -0.932
REMARK UNBOUND:                -0.986
REMARK SMILES CC(=O)CCC=C(C)CCC=C(C)CCC=C(C)C
REMARK SMILES IDX 10 1 11 2 12 3 13 4 14 5 15 6 16 7 18 8 17 9 19 10 9 11 7 12
REMARK SMILES IDX 6 13 8 14 5 15 4 16 2 17 3 18 1 19
REMARK H PARENT
REMARK Flexibility Score: inf
ROOT
ATOM      1  C   UNL     1      12.999  15.288  14.368  1.00  0.00     0.032 C 
ENDROOT
BRANCH   1   2
ATOM      2  C   UNL     1      12.666  14.010  15.105  1.00  0.00    -0.028 C 
ATOM      3  C   UNL     1      13.492  13.352  15.950  1.00  0.00    -0.077 C 
ATOM      4  C   UNL     1      12.968  12.123  16.645  1.00  0.00     0.039 C 
BRANCH   3   5
ATOM      5  C   UNL     1      14.922  13.781  16.215  1.00  0.00     0.034 C 
BRANCH   5   6
ATOM      6  C   UNL     1      15.855  12.567  16.265  1.00  0.00     0.032 C 
BRANCH   6   7
ATOM      7  C   UNL     1      16.539  12.366  14.937  1.00  0.00    -0.028 C 
ATOM      8  C   UNL     1      17.355  10.071  15.518  1.00  0.00     0.039 C 
ATOM      9  C   UNL     1      17.240  11.262  14.596  1.00  0.00    -0.080 C 
ATOM     10  C   UNL     1      17.910  11.225  13.247  1.00  0.00     0.039 C 
ENDBRANCH   6   7
ENDBRANCH   5   6
ENDBRANCH   3   5
ENDBRANCH   1   2
BRANCH   1  11
ATOM     11  C   UNL     1      13.617  14.991  12.996  1.00  0.00     0.034 C 
BRANCH  11  12
ATOM     12  C   UNL     1      12.700  15.406  11.865  1.00  0.00    -0.077 C 
ATOM     13  C   UNL     1      11.392  15.629  12.129  1.00  0.00    -0.028 C 
ATOM     14  C   UNL     1      13.265  15.517  10.468  1.00  0.00     0.039 C 
BRANCH  13  15
ATOM     15  C   UNL     1      10.371  16.040  11.099  1.00  0.00     0.035 C 
BRANCH  15  16
ATOM     16  C   UNL     1      10.049  17.536  11.216  1.00  0.00     0.079 C 
BRANCH  16  17
ATOM     17  C   UNL     1       9.014  17.872  12.266  1.00  0.00     0.130 C 
ATOM     18  O   UNL     1       7.989  18.435  11.909  1.00  0.00    -0.300 OA
ATOM     19  C   UNL     1       9.185  17.540  13.723  1.00  0.00     0.087 C 
ENDBRANCH  16  17
ENDBRANCH  15  16
ENDBRANCH  13  15
ENDBRANCH  11  12
ENDBRANCH   1  11
TORSDOF 9
ENDMDL
MODEL 4
REMARK VINA RESULT:    -5.330      1.487      2.444
REMARK INTER + INTRA:          -9.120
REMARK INTER:                  -8.844
REMARK INTRA:                  -0.275
REMARK UNBOUND:                -0.986
REMARK SMILES CC(=O)CCC=C(C)CCC=C(C)CCC=C(C)C
REMARK SMILES IDX 10 1 11 2 12 3 13 4 14 5 15 6 16 7 18 8 17 9 19 10 9 11 7 12
REMARK SMILES IDX 6 13 8 14 5 15 4 16 2 17 3 18 1 19
REMARK H PARENT
REMARK Flexibility Score: inf
ROOT
ATOM      1  C   UNL     1      12.621  13.598  15.759  1.00  0.00     0.032 C 
ENDROOT
BRANCH   1   2
ATOM      2  C   UNL     1      13.155  14.019  14.409  1.00  0.00    -0.028 C 
ATOM      3  C   UNL     1      12.708  15.067  13.679  1.00  0.00    -0.077 C 
ATOM      4  C   UNL     1      13.401  15.376  12.378  1.00  0.00     0.039 C 
BRANCH   3   5
ATOM      5  C   UNL     1      11.534  15.930  14.098  1.00  0.00     0.034 C 
BRANCH   5   6
ATOM      6  C   UNL     1      10.800  16.485  12.873  1.00  0.00     0.032 C 
BRANCH   6   7
ATOM      7  C   UNL     1      10.324  15.363  11.985  1.00  0.00    -0.028 C 
ATOM      8  C   UNL     1      11.028  16.514   9.876  1.00  0.00     0.039 C 
ATOM      9  C   UNL     1      10.394  15.373  10.635  1.00  0.00    -0.080 C 
ATOM     10  C   UNL     1       9.833  14.197   9.879  1.00  0.00     0.039 C 
ENDBRANCH   6   7
ENDBRANCH   5   6
ENDBRANCH   3   5
ENDBRANCH   1   2
BRANCH   1  11
ATOM     11  C   UNL     1      13.761  13.223  16.714  1.00  0.00     0.034 C 
BRANCH  11  12
ATOM     12  C   UNL     1      15.107  13.252  16.021  1.00  0.00    -0.077 C 
ATOM     13  C   UNL     1      15.636  12.092  15.568  1.00  0.00    -0.028 C 
ATOM     14  C   UNL     1      15.837  14.568  15.893  1.00  0.00     0.039 C 
BRANCH  13  15
ATOM     15  C   UNL     1      16.966  11.975  14.868  1.00  0.00     0.035 C 
BRANCH  15  16
ATOM     16  C   UNL     1      17.569  10.578  15.071  1.00  0.00     0.079 C 
BRANCH  16  17
ATOM     17  C   UNL     1      18.627  10.201  14.059  1.00  0.00     0.130 C 
ATOM     18  O   UNL     1      19.587   9.548  14.440  1.00  0.00    -0.300 OA
ATOM     19  C   UNL     1      18.549  10.590  12.607  1.00  0.00     0.087 C 
ENDBRANCH  16  17
ENDBRANCH  15  16
ENDBRANCH  13  15
ENDBRANCH  11  12
ENDBRANCH   1  11
TORSDOF 9
ENDMDL
MODEL 5
REMARK VINA RESULT:    -5.208      1.281      3.228
REMARK INTER + INTRA:          -8.935
REMARK INTER:                  -7.633
REMARK INTRA:                  -1.302
REMARK UNBOUND:                -0.986
REMARK SMILES CC(=O)CCC=C(C)CCC=C(C)CCC=C(C)C
REMARK SMILES IDX 10 1 11 2 12 3 13 4 14 5 15 6 16 7 18 8 17 9 19 10 9 11 7 12
REMARK SMILES IDX 6 13 8 14 5 15 4 16 2 17 3 18 1 19
REMARK H PARENT
REMARK Flexibility Score: inf
ROOT
ATOM      1  C   UNL     1      15.579  15.037  15.678  1.00  0.00     0.032 C 
ENDROOT
BRANCH   1   2
ATOM      2  C   UNL     1      14.107  15.213  15.976  1.00  0.00    -0.028 C 
ATOM      3  C   UNL     1      13.091  14.862  15.154  1.00  0.00    -0.077 C 
ATOM      4  C   UNL     1      11.680  15.058  15.642  1.00  0.00     0.039 C 
BRANCH   3   5
ATOM      5  C   UNL     1      13.306  14.302  13.762  1.00  0.00     0.034 C 
BRANCH   5   6
ATOM      6  C   UNL     1      13.137  15.395  12.701  1.00  0.00     0.032 C 
BRANCH   6   7
ATOM      7  C   UNL     1      12.063  15.016  11.713  1.00  0.00    -0.028 C 
ATOM      8  C   UNL     1      10.435  16.707  12.584  1.00  0.00     0.039 C 
ATOM      9  C   UNL     1      10.835  15.576  11.665  1.00  0.00    -0.080 C 
ATOM     10  C   UNL     1       9.849  15.059  10.650  1.00  0.00     0.039 C 
ENDBRANCH   6   7
ENDBRANCH   5   6
ENDBRANCH   3   5
ENDBRANCH   1   2
BRANCH   1  11
ATOM     11  C   UNL     1      16.172  13.875  16.485  1.00  0.00     0.034 C 
BRANCH  11  12
ATOM     12  C   UNL     1      16.105  12.569  15.723  1.00  0.00    -0.077 C 
ATOM     13  C   UNL     1      17.166  12.192  14.973  1.00  0.00    -0.028 C 
ATOM     14  C   UNL     1      14.840  11.746  15.790  1.00  0.00     0.039 C 
BRANCH  13  15
ATOM     15  C   UNL     1      17.231  10.924  14.160  1.00  0.00     0.035 C 
BRANCH  15  16
ATOM     16  C   UNL     1      18.689  10.523  13.891  1.00  0.00     0.079 C 
BRANCH  16  17
ATOM     17  C   UNL     1      19.096   9.201  14.501  1.00  0.00     0.130 C 
ATOM     18  O   UNL     1      18.505   8.818  15.500  1.00  0.00    -0.300 OA
ATOM     19  C   UNL     1      20.188   8.336  13.932  1.00  0.00     0.087 C 
ENDBRANCH  16  17
ENDBRANCH  15  16
ENDBRANCH  13  15
ENDBRANCH  11  12
ENDBRANCH   1  11
TORSDOF 9
ENDMDL
MODEL 6
REMARK VINA RESULT:    -5.115      3.059      8.894
REMARK INTER + INTRA:          -8.792
REMARK INTER:                  -8.135
REMARK INTRA:                  -0.658
REMARK UNBOUND:                -0.986
REMARK SMILES CC(=O)CCC=C(C)CCC=C(C)CCC=C(C)C
REMARK SMILES IDX 10 1 11 2 12 3 13 4 14 5 15 6 16 7 18 8 17 9 19 10 9 11 7 12
REMARK SMILES IDX 6 13 8 14 5 15 4 16 2 17 3 18 1 19
REMARK H PARENT
REMARK Flexibility Score: inf
ROOT
ATOM      1  C   UNL     1      15.729  13.611  15.563  1.00  0.00     0.032 C 
ENDROOT
BRANCH   1   2
ATOM      2  C   UNL     1      15.853  12.139  15.884  1.00  0.00    -0.028 C 
ATOM      3  C   UNL     1      16.736  11.283  15.320  1.00  0.00    -0.077 C 
ATOM      4  C   UNL     1      16.758   9.858  15.808  1.00  0.00     0.039 C 
BRANCH   3   5
ATOM      5  C   UNL     1      17.687  11.684  14.209  1.00  0.00     0.034 C 
BRANCH   5   6
ATOM      6  C   UNL     1      18.627  10.528  13.852  1.00  0.00     0.032 C 
BRANCH   6   7
ATOM      7  C   UNL     1      18.598  10.258  12.369  1.00  0.00    -0.028 C 
ATOM      8  C   UNL     1      20.093   8.256  12.538  1.00  0.00     0.039 C 
ATOM      9  C   UNL     1      19.273   9.258  11.760  1.00  0.00    -0.080 C 
ATOM     10  C   UNL     1      19.185   9.142  10.260  1.00  0.00     0.039 C 
ENDBRANCH   6   7
ENDBRANCH   5   6
ENDBRANCH   3   5
ENDBRANCH   1   2
BRANCH   1  11
ATOM     11  C   UNL     1      14.908  13.832  14.286  1.00  0.00     0.034 C 
BRANCH  11  12
ATOM     12  C   UNL     1      13.564  14.462  14.584  1.00  0.00    -0.077 C 
ATOM     13  C   UNL     1      12.902  15.096  13.589  1.00  0.00    -0.028 C 
ATOM     14  C   UNL     1      13.022  14.399  15.993  1.00  0.00     0.039 C 
BRANCH  13  15
ATOM     15  C   UNL     1      11.562  15.770  13.748  1.00  0.00     0.035 C 
BRANCH  15  16
ATOM     16  C   UNL     1      11.054  16.298  12.399  1.00  0.00     0.079 C 
BRANCH  16  17
ATOM     17  C   UNL     1       9.732  17.029  12.473  1.00  0.00     0.130 C 
ATOM     18  O   UNL     1       9.055  17.105  11.458  1.00  0.00    -0.300 OA
ATOM     19  C   UNL     1       9.212  17.659  13.736  1.00  0.00     0.087 C 
ENDBRANCH  16  17
ENDBRANCH  15  16
ENDBRANCH  13  15
ENDBRANCH  11  12
ENDBRANCH   1  11
TORSDOF 9
ENDMDL
MODEL 7
REMARK VINA RESULT:    -4.998      2.371      4.937
REMARK INTER + INTRA:          -8.613
REMARK INTER:                  -7.731
REMARK INTRA:                  -0.882
REMARK UNBOUND:                -0.986
REMARK SMILES CC(=O)CCC=C(C)CCC=C(C)CCC=C(C)C
REMARK SMILES IDX 10 1 11 2 12 3 13 4 14 5 15 6 16 7 18 8 17 9 19 10 9 11 7 12
REMARK SMILES IDX 6 13 8 14 5 15 4 16 2 17 3 18 1 19
REMARK H PARENT
REMARK Flexibility Score: inf
ROOT
ATOM      1  C   UNL     1      16.256  11.784  15.391  1.00  0.00     0.032 C 
ENDROOT
BRANCH   1   2
ATOM      2  C   UNL     1      15.844  13.048  16.111  1.00  0.00    -0.028 C 
ATOM      3  C   UNL     1      15.001  13.989  15.627  1.00  0.00    -0.077 C 
ATOM      4  C   UNL     1      14.655  15.158  16.512  1.00  0.00     0.039 C 
BRANCH   3   5
ATOM      5  C   UNL     1      14.406  13.933  14.234  1.00  0.00     0.034 C 
BRANCH   5   6
ATOM      6  C   UNL     1      13.041  14.628  14.195  1.00  0.00     0.032 C 
BRANCH   6   7
ATOM      7  C   UNL     1      12.702  15.056  12.790  1.00  0.00    -0.028 C 
ATOM      8  C   UNL     1      10.742  16.439  13.508  1.00  0.00     0.039 C 
ATOM      9  C   UNL     1      11.657  15.847  12.461  1.00  0.00    -0.080 C 
ATOM     10  C   UNL     1      11.416  16.151  11.006  1.00  0.00     0.039 C 
ENDBRANCH   6   7
ENDBRANCH   5   6
ENDBRANCH   3   5
ENDBRANCH   1   2
BRANCH   1  11
ATOM     11  C   UNL     1      17.587  11.976  14.653  1.00  0.00     0.034 C 
BRANCH  11  12
ATOM     12  C   UNL     1      18.018  10.714  13.935  1.00  0.00    -0.077 C 
ATOM     13  C   UNL     1      17.774  10.598  12.609  1.00  0.00    -0.028 C 
ATOM     14  C   UNL     1      18.669   9.607  14.729  1.00  0.00     0.039 C 
BRANCH  13  15
ATOM     15  C   UNL     1      18.143   9.398  11.774  1.00  0.00     0.035 C 
BRANCH  15  16
ATOM     16  C   UNL     1      19.323   9.721  10.846  1.00  0.00     0.079 C 
BRANCH  16  17
ATOM     17  C   UNL     1      20.446   8.710  10.889  1.00  0.00     0.130 C 
ATOM     18  O   UNL     1      21.134   8.565   9.889  1.00  0.00    -0.300 OA
ATOM     19  C   UNL     1      20.757   7.881  12.105  1.00  0.00     0.087 C 
ENDBRANCH  16  17
ENDBRANCH  15  16
ENDBRANCH  13  15
ENDBRANCH  11  12
ENDBRANCH   1  11
TORSDOF 9
ENDMDL
MODEL 8
REMARK VINA RESULT:    -4.433      2.896      7.706
REMARK INTER + INTRA:          -7.751
REMARK INTER:                  -6.780
REMARK INTRA:                  -0.971
REMARK UNBOUND:                -0.986
REMARK SMILES CC(=O)CCC=C(C)CCC=C(C)CCC=C(C)C
REMARK SMILES IDX 10 1 11 2 12 3 13 4 14 5 15 6 16 7 18 8 17 9 19 10 9 11 7 12
REMARK SMILES IDX 6 13 8 14 5 15 4 16 2 17 3 18 1 19
REMARK H PARENT
REMARK Flexibility Score: inf
ROOT
ATOM      1  C   UNL     1      12.451  15.362  14.668  1.00  0.00     0.032 C 
ENDROOT
BRANCH   1   2
ATOM      2  C   UNL     1      12.282  14.021  15.346  1.00  0.00    -0.028 C 
ATOM      3  C   UNL     1      13.174  13.446  16.185  1.00  0.00    -0.077 C 
ATOM      4  C   UNL     1      12.810  12.129  16.818  1.00  0.00     0.039 C 
BRANCH   3   5
ATOM      5  C   UNL     1      14.526  14.053  16.502  1.00  0.00     0.034 C 
BRANCH   5   6
ATOM      6  C   UNL     1      15.592  13.553  15.521  1.00  0.00     0.032 C 
BRANCH   6   7
ATOM      7  C   UNL     1      16.094  12.191  15.931  1.00  0.00    -0.028 C 
ATOM      8  C   UNL     1      17.204  11.757  13.728  1.00  0.00     0.039 C 
ATOM      9  C   UNL     1      16.796  11.361  15.128  1.00  0.00    -0.080 C 
ATOM     10  C   UNL     1      17.190  10.009  15.662  1.00  0.00     0.039 C 
ENDBRANCH   6   7
ENDBRANCH   5   6
ENDBRANCH   3   5
ENDBRANCH   1   2
BRANCH   1  11
ATOM     11  C   UNL     1      11.117  16.114  14.585  1.00  0.00     0.034 C 
BRANCH  11  12
ATOM     12  C   UNL     1      10.771  16.488  13.159  1.00  0.00    -0.077 C 
ATOM     13  C   UNL     1      11.609  16.120  12.162  1.00  0.00    -0.028 C 
ATOM     14  C   UNL     1       9.523  17.297  12.897  1.00  0.00     0.039 C 
BRANCH  13  15
ATOM     15  C   UNL     1      11.390  16.431  10.703  1.00  0.00     0.035 C 
BRANCH  15  16
ATOM     16  C   UNL     1      11.320  15.141   9.875  1.00  0.00     0.079 C 
BRANCH  16  17
ATOM     17  C   UNL     1      10.014  14.389  10.001  1.00  0.00     0.130 C 
ATOM     18  O   UNL     1       8.993  15.031  10.200  1.00  0.00    -0.300 OA
ATOM     19  C   UNL     1       9.915  12.892   9.888  1.00  0.00     0.087 C 
ENDBRANCH  16  17
ENDBRANCH  15  16
ENDBRANCH  13  15
ENDBRANCH  11  12
ENDBRANCH   1  11
TORSDOF 9
ENDMDL
