MODEL 1
REMARK VINA RESULT:    -6.051      0.000      0.000
REMARK INTER + INTRA:          -7.249
REMARK INTER:                  -6.935
REMARK INTRA:                  -0.313
REMARK UNBOUND:                -0.313
REMARK SMILES O=C1C[C@@H](c2ccc(O)cc2)Oc2cc(O)cc(O)c21
REMARK SMILES IDX 3 1 4 2 12 3 13 4 14 5 15 6 17 7 18 8 20 9 2 10 1 11 5 12
REMARK SMILES IDX 6 13 11 14 7 15 10 16 8 17 9 18 19 20 16 22
REMARK H PARENT 9 19 19 21 16 23
REMARK Flexibility Score: inf
ROOT
ATOM      1  C   UNL     1     115.859 115.961 140.447  1.00  0.00     0.131 C 
ATOM      2  C   UNL     1     115.059 115.015 141.359  1.00  0.00     0.211 C 
ATOM      3  O   UNL     1     115.909 114.435 142.356  1.00  0.00    -0.484 OA
ATOM      4  C   UNL     1     116.947 115.144 142.980  1.00  0.00     0.138 A 
ATOM      5  C   UNL     1     117.563 114.590 144.105  1.00  0.00     0.093 A 
ATOM      6  C   UNL     1     118.602 115.270 144.746  1.00  0.00     0.123 A 
ATOM      7  C   UNL     1     119.043 116.501 144.245  1.00  0.00     0.093 A 
ATOM      8  C   UNL     1     118.457 117.062 143.103  1.00  0.00     0.133 A 
ATOM      9  C   UNL     1     117.372 116.393 142.473  1.00  0.00     0.102 A 
ATOM     10  C   UNL     1     116.640 116.921 141.295  1.00  0.00     0.174 C 
ATOM     11  O   UNL     1     116.611 118.152 141.027  1.00  0.00    -0.294 OA
ENDROOT
BRANCH   2  12
ATOM     12  C   UNL     1     114.399 113.917 140.559  1.00  0.00    -0.007 A 
ATOM     13  C   UNL     1     113.395 114.225 139.621  1.00  0.00     0.011 A 
ATOM     14  C   UNL     1     114.768 112.574 140.752  1.00  0.00     0.011 A 
ATOM     15  C   UNL     1     112.780 113.209 138.882  1.00  0.00     0.046 A 
ATOM     16  C   UNL     1     114.152 111.560 140.011  1.00  0.00     0.046 A 
ATOM     17  C   UNL     1     113.158 111.877 139.072  1.00  0.00     0.115 A 
BRANCH  17  18
ATOM     18  O   UNL     1     112.540 110.875 138.325  1.00  0.00    -0.508 OA
ATOM     19  H   UNL     1     113.074 110.277 137.700  1.00  0.00     0.293 HD
ENDBRANCH  17  18
ENDBRANCH   2  12
BRANCH   8  20
ATOM     20  O   UNL     1     119.005 118.254 142.620  1.00  0.00    -0.507 OA
ATOM     21  H   UNL     1     118.462 119.069 142.380  1.00  0.00     0.293 HD
ENDBRANCH   8  20
BRANCH   6  22
ATOM     22  O   UNL     1     119.198 114.707 145.874  1.00  0.00    -0.508 OA
ATOM     23  H   UNL     1     118.717 114.680 146.769  1.00  0.00     0.293 HD
ENDBRANCH   6  22
TORSDOF 4
ENDMDL
MODEL 2
REMARK VINA RESULT:    -6.017      2.545      6.797
REMARK INTER + INTRA:          -7.210
REMARK INTER:                  -6.927
REMARK INTRA:                  -0.283
REMARK UNBOUND:                -0.313
REMARK SMILES O=C1C[C@@H](c2ccc(O)cc2)Oc2cc(O)cc(O)c21
REMARK SMILES IDX 3 1 4 2 12 3 13 4 14 5 15 6 17 7 18 8 20 9 2 10 1 11 5 12
REMARK SMILES IDX 6 13 11 14 7 15 10 16 8 17 9 18 19 20 16 22
REMARK H PARENT 9 19 19 21 16 23
REMARK Flexibility Score: inf
ROOT
ATOM      1  C   UNL     1     115.140 115.435 142.076  1.00  0.00     0.131 C 
ATOM      2  C   UNL     1     115.388 115.825 140.608  1.00  0.00     0.211 C 
ATOM      3  O   UNL     1     115.225 114.691 139.748  1.00  0.00    -0.484 OA
ATOM      4  C   UNL     1     114.243 113.711 139.956  1.00  0.00     0.138 A 
ATOM      5  C   UNL     1     113.991 112.780 138.946  1.00  0.00     0.093 A 
ATOM      6  C   UNL     1     113.022 111.789 139.125  1.00  0.00     0.123 A 
ATOM      7  C   UNL     1     112.315 111.716 140.331  1.00  0.00     0.093 A 
ATOM      8  C   UNL     1     112.569 112.623 141.367  1.00  0.00     0.133 A 
ATOM      9  C   UNL     1     113.525 113.658 141.173  1.00  0.00     0.102 A 
ATOM     10  C   UNL     1     113.833 114.706 142.178  1.00  0.00     0.174 C 
ATOM     11  O   UNL     1     113.007 115.035 143.070  1.00  0.00    -0.294 OA
ENDROOT
BRANCH   2  12
ATOM     12  C   UNL     1     116.772 116.402 140.425  1.00  0.00    -0.007 A 
ATOM     13  C   UNL     1     117.748 116.244 141.427  1.00  0.00     0.011 A 
ATOM     14  C   UNL     1     117.096 117.118 139.258  1.00  0.00     0.011 A 
ATOM     15  C   UNL     1     119.029 116.781 141.260  1.00  0.00     0.046 A 
ATOM     16  C   UNL     1     118.379 117.653 139.093  1.00  0.00     0.046 A 
ATOM     17  C   UNL     1     119.348 117.483 140.094  1.00  0.00     0.115 A 
BRANCH  17  18
ATOM     18  O   UNL     1     120.630 118.008 139.939  1.00  0.00    -0.508 OA
ATOM     19  H   UNL     1     120.790 118.864 139.416  1.00  0.00     0.293 HD
ENDBRANCH  17  18
ENDBRANCH   2  12
BRANCH   8  20
ATOM     20  O   UNL     1     111.879 112.435 142.569  1.00  0.00    -0.507 OA
ATOM     21  H   UNL     1     111.281 113.129 142.991  1.00  0.00     0.293 HD
ENDBRANCH   8  20
BRANCH   6  22
ATOM     22  O   UNL     1     112.777 110.875 138.100  1.00  0.00    -0.508 OA
ATOM     23  H   UNL     1     113.523 110.309 137.706  1.00  0.00     0.293 HD
ENDBRANCH   6  22
TORSDOF 4
ENDMDL
MODEL 3
REMARK VINA RESULT:    -5.814      2.072      6.660
REMARK INTER + INTRA:          -6.976
REMARK INTER:                  -6.688
REMARK INTRA:                  -0.288
REMARK UNBOUND:                -0.313
REMARK SMILES O=C1C[C@@H](c2ccc(O)cc2)Oc2cc(O)cc(O)c21
REMARK SMILES IDX 3 1 4 2 12 3 13 4 14 5 15 6 17 7 18 8 20 9 2 10 1 11 5 12
REMARK SMILES IDX 6 13 11 14 7 15 10 16 8 17 9 18 19 20 16 22
REMARK H PARENT 9 19 19 21 16 23
REMARK Flexibility Score: inf
ROOT
ATOM      1  C   UNL     1     115.373 117.110 143.229  1.00  0.00     0.131 C 
ATOM      2  C   UNL     1     116.778 116.711 142.746  1.00  0.00     0.211 C 
ATOM      3  O   UNL     1     116.704 115.629 141.810  1.00  0.00    -0.484 OA
ATOM      4  C   UNL     1     115.681 115.516 140.856  1.00  0.00     0.138 A 
ATOM      5  C   UNL     1     115.814 114.577 139.830  1.00  0.00     0.093 A 
ATOM      6  C   UNL     1     114.810 114.437 138.867  1.00  0.00     0.123 A 
ATOM      7  C   UNL     1     113.656 115.226 138.945  1.00  0.00     0.093 A 
ATOM      8  C   UNL     1     113.490 116.155 139.979  1.00  0.00     0.133 A 
ATOM      9  C   UNL     1     114.527 116.329 140.937  1.00  0.00     0.102 A 
ATOM     10  C   UNL     1     114.484 117.321 142.039  1.00  0.00     0.174 C 
ATOM     11  O   UNL     1     113.770 118.357 141.974  1.00  0.00    -0.294 OA
ENDROOT
BRANCH   2  12
ATOM     12  C   UNL     1     117.660 116.313 143.907  1.00  0.00    -0.007 A 
ATOM     13  C   UNL     1     119.043 116.123 143.719  1.00  0.00     0.011 A 
ATOM     14  C   UNL     1     117.107 116.114 145.185  1.00  0.00     0.011 A 
ATOM     15  C   UNL     1     119.859 115.751 144.793  1.00  0.00     0.046 A 
ATOM     16  C   UNL     1     117.927 115.743 146.257  1.00  0.00     0.046 A 
ATOM     17  C   UNL     1     119.305 115.563 146.062  1.00  0.00     0.115 A 
BRANCH  17  18
ATOM     18  O   UNL     1     120.131 115.198 147.124  1.00  0.00    -0.508 OA
ATOM     19  H   UNL     1     120.978 115.717 147.337  1.00  0.00     0.293 HD
ENDBRANCH  17  18
ENDBRANCH   2  12
BRANCH   8  20
ATOM     20  O   UNL     1     112.276 116.847 140.033  1.00  0.00    -0.507 OA
ATOM     21  H   UNL     1     112.030 117.500 140.761  1.00  0.00     0.293 HD
ENDBRANCH   8  20
BRANCH   6  22
ATOM     22  O   UNL     1     114.966 113.503 137.844  1.00  0.00    -0.508 OA
ATOM     23  H   UNL     1     114.170 113.170 137.305  1.00  0.00     0.293 HD
ENDBRANCH   6  22
TORSDOF 4
ENDMDL
MODEL 4
REMARK VINA RESULT:    -5.776      2.074      3.667
REMARK INTER + INTRA:          -6.933
REMARK INTER:                  -6.624
REMARK INTRA:                  -0.309
REMARK UNBOUND:                -0.313
REMARK SMILES O=C1C[C@@H](c2ccc(O)cc2)Oc2cc(O)cc(O)c21
REMARK SMILES IDX 3 1 4 2 12 3 13 4 14 5 15 6 17 7 18 8 20 9 2 10 1 11 5 12
REMARK SMILES IDX 6 13 11 14 7 15 10 16 8 17 9 18 19 20 16 22
REMARK H PARENT 9 19 19 21 16 23
REMARK Flexibility Score: inf
ROOT
ATOM      1  C   UNL     1     116.590 115.056 142.566  1.00  0.00     0.131 C 
ATOM      2  C   UNL     1     116.531 114.230 141.269  1.00  0.00     0.211 C 
ATOM      3  O   UNL     1     116.535 115.088 140.122  1.00  0.00    -0.484 OA
ATOM      4  C   UNL     1     117.292 116.267 140.055  1.00  0.00     0.138 A 
ATOM      5  C   UNL     1     117.432 116.911 138.823  1.00  0.00     0.093 A 
ATOM      6  C   UNL     1     118.177 118.090 138.724  1.00  0.00     0.123 A 
ATOM      7  C   UNL     1     118.766 118.640 139.869  1.00  0.00     0.093 A 
ATOM      8  C   UNL     1     118.616 118.026 141.118  1.00  0.00     0.133 A 
ATOM      9  C   UNL     1     117.894 116.805 141.216  1.00  0.00     0.102 A 
ATOM     10  C   UNL     1     117.721 116.038 142.475  1.00  0.00     0.174 C 
ATOM     11  O   UNL     1     118.527 116.148 143.436  1.00  0.00    -0.294 OA
ENDROOT
BRANCH   2  12
ATOM     12  C   UNL     1     115.302 113.353 141.239  1.00  0.00    -0.007 A 
ATOM     13  C   UNL     1     114.832 112.826 140.020  1.00  0.00     0.011 A 
ATOM     14  C   UNL     1     114.603 113.065 142.425  1.00  0.00     0.011 A 
ATOM     15  C   UNL     1     113.692 112.016 139.991  1.00  0.00     0.046 A 
ATOM     16  C   UNL     1     113.464 112.253 142.392  1.00  0.00     0.046 A 
ATOM     17  C   UNL     1     113.007 111.727 141.175  1.00  0.00     0.115 A 
BRANCH  17  18
ATOM     18  O   UNL     1     111.875 110.914 141.131  1.00  0.00    -0.508 OA
ATOM     19  H   UNL     1     111.195 110.915 141.886  1.00  0.00     0.293 HD
ENDBRANCH  17  18
ENDBRANCH   2  12
BRANCH   8  20
ATOM     20  O   UNL     1     119.166 118.679 142.225  1.00  0.00    -0.507 OA
ATOM     21  H   UNL     1     119.212 118.281 143.151  1.00  0.00     0.293 HD
ENDBRANCH   8  20
BRANCH   6  22
ATOM     22  O   UNL     1     118.315 118.713 137.484  1.00  0.00    -0.508 OA
ATOM     23  H   UNL     1     117.847 118.354 136.656  1.00  0.00     0.293 HD
ENDBRANCH   6  22
TORSDOF 4
ENDMDL
MODEL 5
REMARK VINA RESULT:    -5.633      2.805      4.527
REMARK INTER + INTRA:          -6.770
REMARK INTER:                  -6.481
REMARK INTRA:                  -0.289
REMARK UNBOUND:                -0.313
REMARK SMILES O=C1C[C@@H](c2ccc(O)cc2)Oc2cc(O)cc(O)c21
REMARK SMILES IDX 3 1 4 2 12 3 13 4 14 5 15 6 17 7 18 8 20 9 2 10 1 11 5 12
REMARK SMILES IDX 6 13 11 14 7 15 10 16 8 17 9 18 19 20 16 22
REMARK H PARENT 9 19 19 21 16 23
REMARK Flexibility Score: inf
ROOT
ATOM      1  C   UNL     1     115.179 114.033 141.248  1.00  0.00     0.131 C 
ATOM      2  C   UNL     1     114.826 114.711 142.584  1.00  0.00     0.211 C 
ATOM      3  O   UNL     1     115.820 115.680 142.937  1.00  0.00    -0.484 OA
ATOM      4  C   UNL     1     116.456 116.499 141.992  1.00  0.00     0.138 A 
ATOM      5  C   UNL     1     117.223 117.578 142.439  1.00  0.00     0.093 A 
ATOM      6  C   UNL     1     117.872 118.410 141.522  1.00  0.00     0.123 A 
ATOM      7  C   UNL     1     117.771 118.148 140.150  1.00  0.00     0.093 A 
ATOM      8  C   UNL     1     117.028 117.057 139.681  1.00  0.00     0.133 A 
ATOM      9  C   UNL     1     116.333 116.233 140.608  1.00  0.00     0.102 A 
ATOM     10  C   UNL     1     115.472 115.088 140.222  1.00  0.00     0.174 C 
ATOM     11  O   UNL     1     114.939 115.011 139.083  1.00  0.00    -0.294 OA
ENDROOT
BRANCH   2  12
ATOM     12  C   UNL     1     114.698 113.693 143.692  1.00  0.00    -0.007 A 
ATOM     13  C   UNL     1     114.206 114.073 144.956  1.00  0.00     0.011 A 
ATOM     14  C   UNL     1     115.084 112.357 143.480  1.00  0.00     0.011 A 
ATOM     15  C   UNL     1     114.090 113.132 145.984  1.00  0.00     0.046 A 
ATOM     16  C   UNL     1     114.966 111.417 144.511  1.00  0.00     0.046 A 
ATOM     17  C   UNL     1     114.467 111.804 145.764  1.00  0.00     0.115 A 
BRANCH  17  18
ATOM     18  O   UNL     1     114.341 110.875 146.796  1.00  0.00    -0.508 OA
ATOM     19  H   UNL     1     113.845 111.102 147.654  1.00  0.00     0.293 HD
ENDBRANCH  17  18
ENDBRANCH   2  12
BRANCH   8  20
ATOM     20  O   UNL     1     117.041 116.816 138.304  1.00  0.00    -0.507 OA
ATOM     21  H   UNL     1     116.446 116.144 137.843  1.00  0.00     0.293 HD
ENDBRANCH   8  20
BRANCH   6  22
ATOM     22  O   UNL     1     118.625 119.488 141.986  1.00  0.00    -0.508 OA
ATOM     23  H   UNL     1     119.639 119.444 142.035  1.00  0.00     0.293 HD
ENDBRANCH   6  22
TORSDOF 4
ENDMDL
MODEL 6
REMARK VINA RESULT:    -5.519      1.729      6.570
REMARK INTER + INTRA:          -6.638
REMARK INTER:                  -6.325
REMARK INTRA:                  -0.314
REMARK UNBOUND:                -0.313
REMARK SMILES O=C1C[C@@H](c2ccc(O)cc2)Oc2cc(O)cc(O)c21
REMARK SMILES IDX 3 1 4 2 12 3 13 4 14 5 15 6 17 7 18 8 20 9 2 10 1 11 5 12
REMARK SMILES IDX 6 13 11 14 7 15 10 16 8 17 9 18 19 20 16 22
REMARK H PARENT 9 19 19 21 16 23
REMARK Flexibility Score: inf
ROOT
ATOM      1  C   UNL     1     116.681 116.382 140.964  1.00  0.00     0.131 C 
ATOM      2  C   UNL     1     116.946 115.118 141.801  1.00  0.00     0.211 C 
ATOM      3  O   UNL     1     115.751 114.339 141.932  1.00  0.00    -0.484 OA
ATOM      4  C   UNL     1     114.818 114.193 140.895  1.00  0.00     0.138 A 
ATOM      5  C   UNL     1     113.816 113.228 141.018  1.00  0.00     0.093 A 
ATOM      6  C   UNL     1     112.869 113.061 140.003  1.00  0.00     0.123 A 
ATOM      7  C   UNL     1     112.911 113.882 138.869  1.00  0.00     0.093 A 
ATOM      8  C   UNL     1     113.891 114.873 138.737  1.00  0.00     0.133 A 
ATOM      9  C   UNL     1     114.881 115.018 139.748  1.00  0.00     0.102 A 
ATOM     10  C   UNL     1     115.998 115.993 139.686  1.00  0.00     0.174 C 
ATOM     11  O   UNL     1     116.419 116.453 138.592  1.00  0.00    -0.294 OA
ENDROOT
BRANCH   2  12
ATOM     12  C   UNL     1     117.470 115.474 143.172  1.00  0.00    -0.007 A 
ATOM     13  C   UNL     1     118.675 116.189 143.311  1.00  0.00     0.011 A 
ATOM     14  C   UNL     1     116.767 115.082 144.326  1.00  0.00     0.011 A 
ATOM     15  C   UNL     1     119.162 116.516 144.581  1.00  0.00     0.046 A 
ATOM     16  C   UNL     1     117.257 115.412 145.595  1.00  0.00     0.046 A 
ATOM     17  C   UNL     1     118.455 116.131 145.724  1.00  0.00     0.115 A 
BRANCH  17  18
ATOM     18  O   UNL     1     118.949 116.469 146.983  1.00  0.00    -0.508 OA
ATOM     19  H   UNL     1     118.576 117.257 147.504  1.00  0.00     0.293 HD
ENDBRANCH  17  18
ENDBRANCH   2  12
BRANCH   8  20
ATOM     20  O   UNL     1     113.819 115.703 137.614  1.00  0.00    -0.507 OA
ATOM     21  H   UNL     1     114.505 116.406 137.386  1.00  0.00     0.293 HD
ENDBRANCH   8  20
BRANCH   6  22
ATOM     22  O   UNL     1     111.882 112.085 140.138  1.00  0.00    -0.508 OA
ATOM     23  H   UNL     1     111.934 111.207 139.629  1.00  0.00     0.293 HD
ENDBRANCH   6  22
TORSDOF 4
ENDMDL
MODEL 7
REMARK VINA RESULT:    -5.516      1.736      1.825
REMARK INTER + INTRA:          -6.636
REMARK INTER:                  -6.340
REMARK INTRA:                  -0.296
REMARK UNBOUND:                -0.313
REMARK SMILES O=C1C[C@@H](c2ccc(O)cc2)Oc2cc(O)cc(O)c21
REMARK SMILES IDX 3 1 4 2 12 3 13 4 14 5 15 6 17 7 18 8 20 9 2 10 1 11 5 12
REMARK SMILES IDX 6 13 11 14 7 15 10 16 8 17 9 18 19 20 16 22
REMARK H PARENT 9 19 19 21 16 23
REMARK Flexibility Score: inf
ROOT
ATOM      1  C   UNL     1     117.070 114.976 141.131  1.00  0.00     0.131 C 
ATOM      2  C   UNL     1     115.546 115.157 141.251  1.00  0.00     0.211 C 
ATOM      3  O   UNL     1     115.150 115.211 142.627  1.00  0.00    -0.484 OA
ATOM      4  C   UNL     1     115.915 115.848 143.616  1.00  0.00     0.138 A 
ATOM      5  C   UNL     1     115.346 116.069 144.872  1.00  0.00     0.093 A 
ATOM      6  C   UNL     1     116.084 116.697 145.880  1.00  0.00     0.123 A 
ATOM      7  C   UNL     1     117.407 117.086 145.635  1.00  0.00     0.093 A 
ATOM      8  C   UNL     1     118.006 116.850 144.391  1.00  0.00     0.133 A 
ATOM      9  C   UNL     1     117.245 116.249 143.352  1.00  0.00     0.102 A 
ATOM     10  C   UNL     1     117.757 116.004 141.980  1.00  0.00     0.174 C 
ATOM     11  O   UNL     1     118.708 116.674 141.496  1.00  0.00    -0.294 OA
ENDROOT
BRANCH   2  12
ATOM     12  C   UNL     1     114.809 114.035 140.558  1.00  0.00    -0.007 A 
ATOM     13  C   UNL     1     114.101 114.277 139.366  1.00  0.00     0.011 A 
ATOM     14  C   UNL     1     114.809 112.739 141.105  1.00  0.00     0.011 A 
ATOM     15  C   UNL     1     113.416 113.240 138.725  1.00  0.00     0.046 A 
ATOM     16  C   UNL     1     114.123 111.703 140.461  1.00  0.00     0.046 A 
ATOM     17  C   UNL     1     113.427 111.952 139.269  1.00  0.00     0.115 A 
BRANCH  17  18
ATOM     18  O   UNL     1     112.744 110.926 138.617  1.00  0.00    -0.508 OA
ATOM     19  H   UNL     1     112.488 110.070 139.101  1.00  0.00     0.293 HD
ENDBRANCH  17  18
ENDBRANCH   2  12
BRANCH   8  20
ATOM     20  O   UNL     1     119.353 117.195 144.252  1.00  0.00    -0.507 OA
ATOM     21  H   UNL     1     120.053 117.041 144.962  1.00  0.00     0.293 HD
ENDBRANCH   8  20
BRANCH   6  22
ATOM     22  O   UNL     1     115.496 116.920 147.125  1.00  0.00    -0.508 OA
ATOM     23  H   UNL     1     116.034 116.849 147.985  1.00  0.00     0.293 HD
ENDBRANCH   6  22
TORSDOF 4
ENDMDL
MODEL 8
REMARK VINA RESULT:    -5.350      2.149      7.068
REMARK INTER + INTRA:          -6.445
REMARK INTER:                  -6.140
REMARK INTRA:                  -0.305
REMARK UNBOUND:                -0.313
REMARK SMILES O=C1C[C@@H](c2ccc(O)cc2)Oc2cc(O)cc(O)c21
REMARK SMILES IDX 3 1 4 2 12 3 13 4 14 5 15 6 17 7 18 8 20 9 2 10 1 11 5 12
REMARK SMILES IDX 6 13 11 14 7 15 10 16 8 17 9 18 19 20 16 22
REMARK H PARENT 9 19 19 21 16 23
REMARK Flexibility Score: inf
ROOT
ATOM      1  C   UNL     1     114.799 114.112 144.224  1.00  0.00     0.131 C 
ATOM      2  C   UNL     1     115.731 115.171 143.608  1.00  0.00     0.211 C 
ATOM      3  O   UNL     1     116.083 114.816 142.265  1.00  0.00    -0.484 OA
ATOM      4  C   UNL     1     115.183 114.212 141.376  1.00  0.00     0.138 A 
ATOM      5  C   UNL     1     115.524 114.125 140.024  1.00  0.00     0.093 A 
ATOM      6  C   UNL     1     114.650 113.524 139.113  1.00  0.00     0.123 A 
ATOM      7  C   UNL     1     113.437 112.988 139.561  1.00  0.00     0.093 A 
ATOM      8  C   UNL     1     113.086 113.041 140.916  1.00  0.00     0.133 A 
ATOM      9  C   UNL     1     113.954 113.687 141.839  1.00  0.00     0.102 A 
ATOM     10  C   UNL     1     113.659 113.853 143.284  1.00  0.00     0.174 C 
ATOM     11  O   UNL     1     112.480 113.839 143.727  1.00  0.00    -0.294 OA
ENDROOT
BRANCH   2  12
ATOM     12  C   UNL     1     116.986 115.336 144.432  1.00  0.00    -0.007 A 
ATOM     13  C   UNL     1     118.120 114.542 144.170  1.00  0.00     0.011 A 
ATOM     14  C   UNL     1     117.032 116.273 145.480  1.00  0.00     0.011 A 
ATOM     15  C   UNL     1     119.281 114.691 144.935  1.00  0.00     0.046 A 
ATOM     16  C   UNL     1     118.196 116.420 146.243  1.00  0.00     0.046 A 
ATOM     17  C   UNL     1     119.323 115.630 145.970  1.00  0.00     0.115 A 
BRANCH  17  18
ATOM     18  O   UNL     1     120.490 115.772 146.721  1.00  0.00    -0.508 OA
ATOM     19  H   UNL     1     121.099 116.576 146.603  1.00  0.00     0.293 HD
ENDBRANCH  17  18
ENDBRANCH   2  12
BRANCH   8  20
ATOM     20  O   UNL     1     111.897 112.413 141.297  1.00  0.00    -0.507 OA
ATOM     21  H   UNL     1     111.140 112.879 141.774  1.00  0.00     0.293 HD
ENDBRANCH   8  20
BRANCH   6  22
ATOM     22  O   UNL     1     115.003 113.456 137.765  1.00  0.00    -0.508 OA
ATOM     23  H   UNL     1     114.381 113.042 137.076  1.00  0.00     0.293 HD
ENDBRANCH   6  22
TORSDOF 4
ENDMDL
MODEL 9
REMARK VINA RESULT:    -4.857      2.859      3.680
REMARK INTER + INTRA:          -5.880
REMARK INTER:                  -5.592
REMARK INTRA:                  -0.288
REMARK UNBOUND:                -0.313
REMARK SMILES O=C1C[C@@H](c2ccc(O)cc2)Oc2cc(O)cc(O)c21
REMARK SMILES IDX 3 1 4 2 12 3 13 4 14 5 15 6 17 7 18 8 20 9 2 10 1 11 5 12
REMARK SMILES IDX 6 13 11 14 7 15 10 16 8 17 9 18 19 20 16 22
REMARK H PARENT 9 19 19 21 16 23
REMARK Flexibility Score: inf
ROOT
ATOM      1  C   UNL     1     117.942 115.609 142.936  1.00  0.00     0.131 C 
ATOM      2  C   UNL     1     116.892 116.441 142.178  1.00  0.00     0.211 C 
ATOM      3  O   UNL     1     115.825 116.827 143.052  1.00  0.00    -0.484 OA
ATOM      4  C   UNL     1     116.030 117.188 144.392  1.00  0.00     0.138 A 
ATOM      5  C   UNL     1     114.983 117.783 145.099  1.00  0.00     0.093 A 
ATOM      6  C   UNL     1     115.155 118.150 146.437  1.00  0.00     0.123 A 
ATOM      7  C   UNL     1     116.375 117.899 147.078  1.00  0.00     0.093 A 
ATOM      8  C   UNL     1     117.429 117.280 146.395  1.00  0.00     0.133 A 
ATOM      9  C   UNL     1     117.272 116.943 145.022  1.00  0.00     0.102 A 
ATOM     10  C   UNL     1     118.338 116.337 144.186  1.00  0.00     0.174 C 
ATOM     11  O   UNL     1     119.559 116.469 144.468  1.00  0.00    -0.294 OA
ENDROOT
BRANCH   2  12
ATOM     12  C   UNL     1     116.331 115.669 141.006  1.00  0.00    -0.007 A 
ATOM     13  C   UNL     1     115.528 116.316 140.046  1.00  0.00     0.011 A 
ATOM     14  C   UNL     1     116.591 114.294 140.869  1.00  0.00     0.011 A 
ATOM     15  C   UNL     1     115.005 115.602 138.964  1.00  0.00     0.046 A 
ATOM     16  C   UNL     1     116.067 113.583 139.784  1.00  0.00     0.046 A 
ATOM     17  C   UNL     1     115.274 114.236 138.828  1.00  0.00     0.115 A 
BRANCH  17  18
ATOM     18  O   UNL     1     114.751 113.538 137.741  1.00  0.00    -0.508 OA
ATOM     19  H   UNL     1     113.943 112.930 137.842  1.00  0.00     0.293 HD
ENDBRANCH  17  18
ENDBRANCH   2  12
BRANCH   8  20
ATOM     20  O   UNL     1     118.586 116.992 147.125  1.00  0.00    -0.507 OA
ATOM     21  H   UNL     1     119.169 116.185 146.965  1.00  0.00     0.293 HD
ENDBRANCH   8  20
BRANCH   6  22
ATOM     22  O   UNL     1     114.102 118.753 147.125  1.00  0.00    -0.508 OA
ATOM     23  H   UNL     1     113.691 118.322 147.948  1.00  0.00     0.293 HD
ENDBRANCH   6  22
TORSDOF 4
ENDMDL
