MODEL 1
REMARK VINA RESULT:    -4.606      0.000      0.000
REMARK INTER + INTRA:          -8.971
REMARK INTER:                  -7.029
REMARK INTRA:                  -1.942
REMARK UNBOUND:                -1.942
REMARK SMILES CC(=O)CCC=C(C)CCC=C(C)CCC=C(C)C
REMARK SMILES IDX 10 1 11 2 12 3 13 4 14 5 15 6 16 7 18 8 17 9 19 10 9 11 7 12
REMARK SMILES IDX 6 13 8 14 5 15 4 16 2 17 3 18 1 19
REMARK H PARENT
REMARK Flexibility Score: inf
ROOT
ATOM      1  C   UNL     1      -6.227  28.863  58.075  1.00  0.00     0.032 C 
ENDROOT
BRANCH   1   2
ATOM      2  C   UNL     1      -5.100  29.641  58.714  1.00  0.00    -0.028 C 
ATOM      3  C   UNL     1      -5.231  30.803  59.397  1.00  0.00    -0.077 C 
ATOM      4  C   UNL     1      -3.987  31.434  59.969  1.00  0.00     0.039 C 
BRANCH   3   5
ATOM      5  C   UNL     1      -6.565  31.494  59.614  1.00  0.00     0.034 C 
BRANCH   5   6
ATOM      6  C   UNL     1      -7.023  32.263  58.366  1.00  0.00     0.032 C 
BRANCH   6   7
ATOM      7  C   UNL     1      -8.379  31.783  57.901  1.00  0.00    -0.028 C 
ATOM      8  C   UNL     1      -7.611  31.256  55.575  1.00  0.00     0.039 C 
ATOM      9  C   UNL     1      -8.653  31.312  56.665  1.00  0.00    -0.080 C 
ATOM     10  C   UNL     1     -10.051  30.825  56.379  1.00  0.00     0.039 C 
ENDBRANCH   6   7
ENDBRANCH   5   6
ENDBRANCH   3   5
ENDBRANCH   1   2
BRANCH   1  11
ATOM     11  C   UNL     1      -5.728  28.142  56.819  1.00  0.00     0.034 C 
BRANCH  11  12
ATOM     12  C   UNL     1      -6.887  27.608  56.007  1.00  0.00    -0.077 C 
ATOM     13  C   UNL     1      -6.667  27.177  54.746  1.00  0.00    -0.028 C 
ATOM     14  C   UNL     1      -8.264  27.564  56.626  1.00  0.00     0.039 C 
BRANCH  13  15
ATOM     15  C   UNL     1      -7.761  26.628  53.858  1.00  0.00     0.035 C 
BRANCH  15  16
ATOM     16  C   UNL     1      -7.576  25.134  53.566  1.00  0.00     0.079 C 
BRANCH  16  17
ATOM     17  C   UNL     1      -8.183  24.275  54.643  1.00  0.00     0.130 C 
ATOM     18  O   UNL     1      -9.372  23.997  54.597  1.00  0.00    -0.300 OA
ATOM     19  C   UNL     1      -7.344  23.726  55.758  1.00  0.00     0.087 C 
ENDBRANCH  16  17
ENDBRANCH  15  16
ENDBRANCH  13  15
ENDBRANCH  11  12
ENDBRANCH   1  11
TORSDOF 9
ENDMDL
MODEL 2
REMARK VINA RESULT:    -4.281     13.931     16.227
REMARK INTER + INTRA:          -8.476
REMARK INTER:                  -5.867
REMARK INTRA:                  -2.609
REMARK UNBOUND:                -1.942
REMARK SMILES CC(=O)CCC=C(C)CCC=C(C)CCC=C(C)C
REMARK SMILES IDX 10 1 11 2 12 3 13 4 14 5 15 6 16 7 18 8 17 9 19 10 9 11 7 12
REMARK SMILES IDX 6 13 8 14 5 15 4 16 2 17 3 18 1 19
REMARK H PARENT
REMARK Flexibility Score: inf
ROOT
ATOM      1  C   UNL     1      -4.317  34.035  42.320  1.00  0.00     0.032 C 
ENDROOT
BRANCH   1   2
ATOM      2  C   UNL     1      -5.765  33.630  42.166  1.00  0.00    -0.028 C 
ATOM      3  C   UNL     1      -6.733  33.791  43.099  1.00  0.00    -0.077 C 
ATOM      4  C   UNL     1      -8.127  33.326  42.761  1.00  0.00     0.039 C 
BRANCH   3   5
ATOM      5  C   UNL     1      -6.481  34.414  44.460  1.00  0.00     0.034 C 
BRANCH   5   6
ATOM      6  C   UNL     1      -7.483  35.534  44.774  1.00  0.00     0.032 C 
BRANCH   6   7
ATOM      7  C   UNL     1      -7.092  36.821  44.083  1.00  0.00    -0.028 C 
ATOM      8  C   UNL     1      -8.517  38.268  45.551  1.00  0.00     0.039 C 
ATOM      9  C   UNL     1      -7.528  38.051  44.432  1.00  0.00    -0.080 C 
ATOM     10  C   UNL     1      -6.999  39.240  43.669  1.00  0.00     0.039 C 
ENDBRANCH   6   7
ENDBRANCH   5   6
ENDBRANCH   3   5
ENDBRANCH   1   2
BRANCH   1  11
ATOM     11  C   UNL     1      -3.961  35.127  41.307  1.00  0.00     0.034 C 
BRANCH  11  12
ATOM     12  C   UNL     1      -3.887  36.482  41.978  1.00  0.00    -0.077 C 
ATOM     13  C   UNL     1      -3.650  36.550  43.305  1.00  0.00    -0.028 C 
ATOM     14  C   UNL     1      -4.076  37.728  41.146  1.00  0.00     0.039 C 
BRANCH  13  15
ATOM     15  C   UNL     1      -3.561  37.855  44.062  1.00  0.00     0.035 C 
BRANCH  15  16
ATOM     16  C   UNL     1      -3.720  37.659  45.575  1.00  0.00     0.079 C 
BRANCH  16  17
ATOM     17  C   UNL     1      -4.313  38.876  46.236  1.00  0.00     0.130 C 
ATOM     18  O   UNL     1      -4.055  39.987  45.799  1.00  0.00    -0.300 OA
ATOM     19  C   UNL     1      -5.241  38.744  47.406  1.00  0.00     0.087 C 
ENDBRANCH  16  17
ENDBRANCH  15  16
ENDBRANCH  13  15
ENDBRANCH  11  12
ENDBRANCH   1  11
TORSDOF 9
ENDMDL
MODEL 3
REMARK VINA RESULT:    -4.252      2.960      6.330
REMARK INTER + INTRA:          -8.430
REMARK INTER:                  -6.337
REMARK INTRA:                  -2.093
REMARK UNBOUND:                -1.942
REMARK SMILES CC(=O)CCC=C(C)CCC=C(C)CCC=C(C)C
REMARK SMILES IDX 10 1 11 2 12 3 13 4 14 5 15 6 16 7 18 8 17 9 19 10 9 11 7 12
REMARK SMILES IDX 6 13 8 14 5 15 4 16 2 17 3 18 1 19
REMARK H PARENT
REMARK Flexibility Score: inf
ROOT
ATOM      1  C   UNL     1      -6.768  28.237  57.444  1.00  0.00     0.032 C 
ENDROOT
BRANCH   1   2
ATOM      2  C   UNL     1      -6.302  27.917  56.041  1.00  0.00    -0.028 C 
ATOM      3  C   UNL     1      -6.930  27.091  55.171  1.00  0.00    -0.077 C 
ATOM      4  C   UNL     1      -6.314  26.895  53.809  1.00  0.00     0.039 C 
BRANCH   3   5
ATOM      5  C   UNL     1      -8.218  26.359  55.502  1.00  0.00     0.034 C 
BRANCH   5   6
ATOM      6  C   UNL     1      -9.417  26.929  54.730  1.00  0.00     0.032 C 
BRANCH   6   7
ATOM      7  C   UNL     1     -10.127  27.990  55.539  1.00  0.00    -0.028 C 
ATOM      8  C   UNL     1      -9.029  29.905  54.352  1.00  0.00     0.039 C 
ATOM      9  C   UNL     1      -9.981  29.323  55.368  1.00  0.00    -0.080 C 
ATOM     10  C   UNL     1     -10.804  30.249  56.227  1.00  0.00     0.039 C 
ENDBRANCH   6   7
ENDBRANCH   5   6
ENDBRANCH   3   5
ENDBRANCH   1   2
BRANCH   1  11
ATOM     11  C   UNL     1      -5.751  29.144  58.145  1.00  0.00     0.034 C 
BRANCH  11  12
ATOM     12  C   UNL     1      -6.361  30.491  58.465  1.00  0.00    -0.077 C 
ATOM     13  C   UNL     1      -7.538  30.835  57.899  1.00  0.00    -0.028 C 
ATOM     14  C   UNL     1      -5.643  31.419  59.415  1.00  0.00     0.039 C 
BRANCH  13  15
ATOM     15  C   UNL     1      -8.223  32.157  58.156  1.00  0.00     0.035 C 
BRANCH  15  16
ATOM     16  C   UNL     1      -9.216  32.078  59.323  1.00  0.00     0.079 C 
BRANCH  16  17
ATOM     17  C   UNL     1     -10.500  32.801  59.015  1.00  0.00     0.130 C 
ATOM     18  O   UNL     1     -10.461  33.923  58.530  1.00  0.00    -0.300 OA
ATOM     19  C   UNL     1     -11.829  32.156  59.263  1.00  0.00     0.087 C 
ENDBRANCH  16  17
ENDBRANCH  15  16
ENDBRANCH  13  15
ENDBRANCH  11  12
ENDBRANCH   1  11
TORSDOF 9
ENDMDL
MODEL 4
REMARK VINA RESULT:    -4.227      1.789      4.138
REMARK INTER + INTRA:          -8.393
REMARK INTER:                  -6.113
REMARK INTRA:                  -2.280
REMARK UNBOUND:                -1.942
REMARK SMILES CC(=O)CCC=C(C)CCC=C(C)CCC=C(C)C
REMARK SMILES IDX 10 1 11 2 12 3 13 4 14 5 15 6 16 7 18 8 17 9 19 10 9 11 7 12
REMARK SMILES IDX 6 13 8 14 5 15 4 16 2 17 3 18 1 19
REMARK H PARENT
REMARK Flexibility Score: inf
ROOT
ATOM      1  C   UNL     1      -7.962  32.253  58.064  1.00  0.00     0.032 C 
ENDROOT
BRANCH   1   2
ATOM      2  C   UNL     1      -7.641  33.369  57.096  1.00  0.00    -0.028 C 
ATOM      3  C   UNL     1      -7.426  33.223  55.767  1.00  0.00    -0.077 C 
ATOM      4  C   UNL     1      -7.120  34.457  54.958  1.00  0.00     0.039 C 
BRANCH   3   5
ATOM      5  C   UNL     1      -7.481  31.881  55.059  1.00  0.00     0.034 C 
BRANCH   5   6
ATOM      6  C   UNL     1      -8.873  31.592  54.482  1.00  0.00     0.032 C 
BRANCH   6   7
ATOM      7  C   UNL     1      -9.326  30.193  54.833  1.00  0.00    -0.028 C 
ATOM      8  C   UNL     1     -10.979  30.952  56.557  1.00  0.00     0.039 C 
ATOM      9  C   UNL     1     -10.280  29.892  55.741  1.00  0.00    -0.080 C 
ATOM     10  C   UNL     1     -10.650  28.443  55.936  1.00  0.00     0.039 C 
ENDBRANCH   6   7
ENDBRANCH   5   6
ENDBRANCH   3   5
ENDBRANCH   1   2
BRANCH   1  11
ATOM     11  C   UNL     1      -6.741  31.940  58.935  1.00  0.00     0.034 C 
BRANCH  11  12
ATOM     12  C   UNL     1      -6.108  30.629  58.525  1.00  0.00    -0.077 C 
ATOM     13  C   UNL     1      -6.822  29.753  57.786  1.00  0.00    -0.028 C 
ATOM     14  C   UNL     1      -4.689  30.330  58.947  1.00  0.00     0.039 C 
BRANCH  13  15
ATOM     15  C   UNL     1      -6.277  28.419  57.330  1.00  0.00     0.035 C 
BRANCH  15  16
ATOM     16  C   UNL     1      -7.389  27.394  57.076  1.00  0.00     0.079 C 
BRANCH  16  17
ATOM     17  C   UNL     1      -7.327  26.839  55.677  1.00  0.00     0.130 C 
ATOM     18  O   UNL     1      -7.022  27.572  54.748  1.00  0.00    -0.300 OA
ATOM     19  C   UNL     1      -7.605  25.391  55.408  1.00  0.00     0.087 C 
ENDBRANCH  16  17
ENDBRANCH  15  16
ENDBRANCH  13  15
ENDBRANCH  11  12
ENDBRANCH   1  11
TORSDOF 9
ENDMDL
MODEL 5
REMARK VINA RESULT:    -4.220     12.259     14.030
REMARK INTER + INTRA:          -8.382
REMARK INTER:                  -5.517
REMARK INTRA:                  -2.865
REMARK UNBOUND:                -1.942
REMARK SMILES CC(=O)CCC=C(C)CCC=C(C)CCC=C(C)C
REMARK SMILES IDX 10 1 11 2 12 3 13 4 14 5 15 6 16 7 18 8 17 9 19 10 9 11 7 12
REMARK SMILES IDX 6 13 8 14 5 15 4 16 2 17 3 18 1 19
REMARK H PARENT
REMARK Flexibility Score: inf
ROOT
ATOM      1  C   UNL     1      -6.583  36.007  47.755  1.00  0.00     0.032 C 
ENDROOT
BRANCH   1   2
ATOM      2  C   UNL     1      -6.597  37.517  47.834  1.00  0.00    -0.028 C 
ATOM      3  C   UNL     1      -7.325  38.342  47.044  1.00  0.00    -0.077 C 
ATOM      4  C   UNL     1      -7.210  39.827  47.273  1.00  0.00     0.039 C 
BRANCH   3   5
ATOM      5  C   UNL     1      -8.246  37.841  45.945  1.00  0.00     0.034 C 
BRANCH   5   6
ATOM      6  C   UNL     1      -7.849  38.391  44.568  1.00  0.00     0.032 C 
BRANCH   6   7
ATOM      7  C   UNL     1      -6.987  37.402  43.817  1.00  0.00    -0.028 C 
ATOM      8  C   UNL     1      -4.830  38.516  44.439  1.00  0.00     0.039 C 
ATOM      9  C   UNL     1      -5.637  37.432  43.767  1.00  0.00    -0.080 C 
ATOM     10  C   UNL     1      -4.925  36.338  43.013  1.00  0.00     0.039 C 
ENDBRANCH   6   7
ENDBRANCH   5   6
ENDBRANCH   3   5
ENDBRANCH   1   2
BRANCH   1  11
ATOM     11  C   UNL     1      -5.339  35.527  47.001  1.00  0.00     0.034 C 
BRANCH  11  12
ATOM     12  C   UNL     1      -5.695  34.434  46.016  1.00  0.00    -0.077 C 
ATOM     13  C   UNL     1      -6.983  34.272  45.645  1.00  0.00    -0.028 C 
ATOM     14  C   UNL     1      -4.599  33.551  45.468  1.00  0.00     0.039 C 
BRANCH  13  15
ATOM     15  C   UNL     1      -7.434  33.210  44.670  1.00  0.00     0.035 C 
BRANCH  15  16
ATOM     16  C   UNL     1      -7.804  33.797  43.302  1.00  0.00     0.079 C 
BRANCH  16  17
ATOM     17  C   UNL     1      -8.857  32.974  42.607  1.00  0.00     0.130 C 
ATOM     18  O   UNL     1      -8.866  32.909  41.387  1.00  0.00    -0.300 OA
ATOM     19  C   UNL     1      -9.878  32.206  43.390  1.00  0.00     0.087 C 
ENDBRANCH  16  17
ENDBRANCH  15  16
ENDBRANCH  13  15
ENDBRANCH  11  12
ENDBRANCH   1  11
TORSDOF 9
ENDMDL
MODEL 6
REMARK VINA RESULT:    -4.165     14.304     16.540
REMARK INTER + INTRA:          -8.298
REMARK INTER:                  -6.970
REMARK INTRA:                  -1.328
REMARK UNBOUND:                -1.942
REMARK SMILES CC(=O)CCC=C(C)CCC=C(C)CCC=C(C)C
REMARK SMILES IDX 10 1 11 2 12 3 13 4 14 5 15 6 16 7 18 8 17 9 19 10 9 11 7 12
REMARK SMILES IDX 6 13 8 14 5 15 4 16 2 17 3 18 1 19
REMARK H PARENT
REMARK Flexibility Score: inf
ROOT
ATOM      1  C   UNL     1      -5.154  38.280  43.717  1.00  0.00     0.032 C 
ENDROOT
BRANCH   1   2
ATOM      2  C   UNL     1      -4.590  38.277  42.315  1.00  0.00    -0.028 C 
ATOM      3  C   UNL     1      -4.212  37.179  41.619  1.00  0.00    -0.077 C 
ATOM      4  C   UNL     1      -3.673  37.373  40.225  1.00  0.00     0.039 C 
BRANCH   3   5
ATOM      5  C   UNL     1      -4.308  35.769  42.175  1.00  0.00     0.034 C 
BRANCH   5   6
ATOM      6  C   UNL     1      -3.992  34.709  41.110  1.00  0.00     0.032 C 
BRANCH   6   7
ATOM      7  C   UNL     1      -2.936  33.745  41.601  1.00  0.00    -0.028 C 
ATOM      8  C   UNL     1      -1.145  34.635  40.091  1.00  0.00     0.039 C 
ATOM      9  C   UNL     1      -1.655  33.713  41.172  1.00  0.00    -0.080 C 
ATOM     10  C   UNL     1      -0.714  32.719  41.803  1.00  0.00     0.039 C 
ENDBRANCH   6   7
ENDBRANCH   5   6
ENDBRANCH   3   5
ENDBRANCH   1   2
BRANCH   1  11
ATOM     11  C   UNL     1      -6.664  38.535  43.681  1.00  0.00     0.034 C 
BRANCH  11  12
ATOM     12  C   UNL     1      -7.418  37.403  44.343  1.00  0.00    -0.077 C 
ATOM     13  C   UNL     1      -7.087  36.127  44.049  1.00  0.00    -0.028 C 
ATOM     14  C   UNL     1      -8.522  37.724  45.322  1.00  0.00     0.039 C 
BRANCH  13  15
ATOM     15  C   UNL     1      -7.783  34.932  44.658  1.00  0.00     0.035 C 
BRANCH  15  16
ATOM     16  C   UNL     1      -7.401  33.621  43.959  1.00  0.00     0.079 C 
BRANCH  16  17
ATOM     17  C   UNL     1      -8.515  33.111  43.082  1.00  0.00     0.130 C 
ATOM     18  O   UNL     1      -8.493  33.340  41.882  1.00  0.00    -0.300 OA
ATOM     19  C   UNL     1      -9.638  32.299  43.653  1.00  0.00     0.087 C 
ENDBRANCH  16  17
ENDBRANCH  15  16
ENDBRANCH  13  15
ENDBRANCH  11  12
ENDBRANCH   1  11
TORSDOF 9
ENDMDL
MODEL 7
REMARK VINA RESULT:    -4.158     13.768     15.629
REMARK INTER + INTRA:          -8.287
REMARK INTER:                  -5.773
REMARK INTRA:                  -2.514
REMARK UNBOUND:                -1.942
REMARK SMILES CC(=O)CCC=C(C)CCC=C(C)CCC=C(C)C
REMARK SMILES IDX 10 1 11 2 12 3 13 4 14 5 15 6 16 7 18 8 17 9 19 10 9 11 7 12
REMARK SMILES IDX 6 13 8 14 5 15 4 16 2 17 3 18 1 19
REMARK H PARENT
REMARK Flexibility Score: inf
ROOT
ATOM      1  C   UNL     1      -4.487  34.289  41.376  1.00  0.00     0.032 C 
ENDROOT
BRANCH   1   2
ATOM      2  C   UNL     1      -3.145  34.862  40.983  1.00  0.00    -0.028 C 
ATOM      3  C   UNL     1      -2.901  36.157  40.671  1.00  0.00    -0.077 C 
ATOM      4  C   UNL     1      -1.491  36.545  40.305  1.00  0.00     0.039 C 
BRANCH   3   5
ATOM      5  C   UNL     1      -3.975  37.230  40.674  1.00  0.00     0.034 C 
BRANCH   5   6
ATOM      6  C   UNL     1      -3.966  38.047  41.974  1.00  0.00     0.032 C 
BRANCH   6   7
ATOM      7  C   UNL     1      -5.101  37.633  42.883  1.00  0.00    -0.028 C 
ATOM      8  C   UNL     1      -3.619  36.429  44.506  1.00  0.00     0.039 C 
ATOM      9  C   UNL     1      -4.960  36.929  44.027  1.00  0.00    -0.080 C 
ATOM     10  C   UNL     1      -6.193  36.641  44.846  1.00  0.00     0.039 C 
ENDBRANCH   6   7
ENDBRANCH   5   6
ENDBRANCH   3   5
ENDBRANCH   1   2
BRANCH   1  11
ATOM     11  C   UNL     1      -4.338  33.383  42.602  1.00  0.00     0.034 C 
BRANCH  11  12
ATOM     12  C   UNL     1      -5.646  33.276  43.356  1.00  0.00    -0.077 C 
ATOM     13  C   UNL     1      -6.794  33.635  42.741  1.00  0.00    -0.028 C 
ATOM     14  C   UNL     1      -5.640  32.765  44.777  1.00  0.00     0.039 C 
BRANCH  13  15
ATOM     15  C   UNL     1      -8.147  33.564  43.412  1.00  0.00     0.035 C 
BRANCH  15  16
ATOM     16  C   UNL     1      -9.100  32.601  42.693  1.00  0.00     0.079 C 
BRANCH  16  17
ATOM     17  C   UNL     1      -9.579  31.504  43.608  1.00  0.00     0.130 C 
ATOM     18  O   UNL     1     -10.331  30.642  43.177  1.00  0.00    -0.300 OA
ATOM     19  C   UNL     1      -9.123  31.433  45.034  1.00  0.00     0.087 C 
ENDBRANCH  16  17
ENDBRANCH  15  16
ENDBRANCH  13  15
ENDBRANCH  11  12
ENDBRANCH   1  11
TORSDOF 9
ENDMDL
MODEL 8
REMARK VINA RESULT:    -4.138     11.337     12.682
REMARK INTER + INTRA:          -8.257
REMARK INTER:                  -7.311
REMARK INTRA:                  -0.946
REMARK UNBOUND:                -1.942
REMARK SMILES CC(=O)CCC=C(C)CCC=C(C)CCC=C(C)C
REMARK SMILES IDX 10 1 11 2 12 3 13 4 14 5 15 6 16 7 18 8 17 9 19 10 9 11 7 12
REMARK SMILES IDX 6 13 8 14 5 15 4 16 2 17 3 18 1 19
REMARK H PARENT
REMARK Flexibility Score: inf
ROOT
ATOM      1  C   UNL     1       4.632  28.524  51.352  1.00  0.00     0.032 C 
ENDROOT
BRANCH   1   2
ATOM      2  C   UNL     1       5.293  28.904  52.657  1.00  0.00    -0.028 C 
ATOM      3  C   UNL     1       4.650  29.285  53.786  1.00  0.00    -0.077 C 
ATOM      4  C   UNL     1       5.482  29.625  54.996  1.00  0.00     0.039 C 
BRANCH   3   5
ATOM      5  C   UNL     1       3.138  29.382  53.889  1.00  0.00     0.034 C 
BRANCH   5   6
ATOM      6  C   UNL     1       2.524  28.127  54.524  1.00  0.00     0.032 C 
BRANCH   6   7
ATOM      7  C   UNL     1       1.236  28.458  55.244  1.00  0.00    -0.028 C 
ATOM      8  C   UNL     1       2.291  28.504  57.516  1.00  0.00     0.039 C 
ATOM      9  C   UNL     1       1.120  28.650  56.576  1.00  0.00    -0.080 C 
ATOM     10  C   UNL     1      -0.232  29.026  57.129  1.00  0.00     0.039 C 
ENDBRANCH   6   7
ENDBRANCH   5   6
ENDBRANCH   3   5
ENDBRANCH   1   2
BRANCH   1  11
ATOM     11  C   UNL     1       5.512  27.535  50.581  1.00  0.00     0.034 C 
BRANCH  11  12
ATOM     12  C   UNL     1       4.902  27.207  49.235  1.00  0.00    -0.077 C 
ATOM     13  C   UNL     1       4.640  28.207  48.367  1.00  0.00    -0.028 C 
ATOM     14  C   UNL     1       4.604  25.767  48.892  1.00  0.00     0.039 C 
BRANCH  13  15
ATOM     15  C   UNL     1       4.032  27.978  47.003  1.00  0.00     0.035 C 
BRANCH  15  16
ATOM     16  C   UNL     1       2.598  28.515  46.909  1.00  0.00     0.079 C 
BRANCH  16  17
ATOM     17  C   UNL     1       2.482  29.622  45.895  1.00  0.00     0.130 C 
ATOM     18  O   UNL     1       1.423  29.798  45.310  1.00  0.00    -0.300 OA
ATOM     19  C   UNL     1       3.636  30.535  45.611  1.00  0.00     0.087 C 
ENDBRANCH  16  17
ENDBRANCH  15  16
ENDBRANCH  13  15
ENDBRANCH  11  12
ENDBRANCH   1  11
TORSDOF 9
ENDMDL
MODEL 9
REMARK VINA RESULT:    -4.086     13.842     15.658
REMARK INTER + INTRA:          -8.177
REMARK INTER:                  -5.818
REMARK INTRA:                  -2.359
REMARK UNBOUND:                -1.942
REMARK SMILES CC(=O)CCC=C(C)CCC=C(C)CCC=C(C)C
REMARK SMILES IDX 10 1 11 2 12 3 13 4 14 5 15 6 16 7 18 8 17 9 19 10 9 11 7 12
REMARK SMILES IDX 6 13 8 14 5 15 4 16 2 17 3 18 1 19
REMARK H PARENT
REMARK Flexibility Score: inf
ROOT
ATOM      1  C   UNL     1      -6.660  35.897  45.612  1.00  0.00     0.032 C 
ENDROOT
BRANCH   1   2
ATOM      2  C   UNL     1      -7.196  37.225  46.096  1.00  0.00    -0.028 C 
ATOM      3  C   UNL     1      -7.491  38.290  45.313  1.00  0.00    -0.077 C 
ATOM      4  C   UNL     1      -8.021  39.534  45.979  1.00  0.00     0.039 C 
BRANCH   3   5
ATOM      5  C   UNL     1      -7.314  38.287  43.805  1.00  0.00     0.034 C 
BRANCH   5   6
ATOM      6  C   UNL     1      -6.045  39.036  43.375  1.00  0.00     0.032 C 
BRANCH   6   7
ATOM      7  C   UNL     1      -4.884  38.082  43.206  1.00  0.00    -0.028 C 
ATOM      8  C   UNL     1      -3.805  38.703  45.381  1.00  0.00     0.039 C 
ATOM      9  C   UNL     1      -3.888  37.907  44.102  1.00  0.00    -0.080 C 
ATOM     10  C   UNL     1      -2.829  36.876  43.802  1.00  0.00     0.039 C 
ENDBRANCH   6   7
ENDBRANCH   5   6
ENDBRANCH   3   5
ENDBRANCH   1   2
BRANCH   1  11
ATOM     11  C   UNL     1      -7.776  35.086  44.945  1.00  0.00     0.034 C 
BRANCH  11  12
ATOM     12  C   UNL     1      -7.251  34.336  43.740  1.00  0.00    -0.077 C 
ATOM     13  C   UNL     1      -5.953  34.470  43.392  1.00  0.00    -0.028 C 
ATOM     14  C   UNL     1      -8.189  33.450  42.956  1.00  0.00     0.039 C 
BRANCH  13  15
ATOM     15  C   UNL     1      -5.339  33.764  42.206  1.00  0.00     0.035 C 
BRANCH  15  16
ATOM     16  C   UNL     1      -4.418  34.684  41.395  1.00  0.00     0.079 C 
BRANCH  16  17
ATOM     17  C   UNL     1      -3.041  34.096  41.235  1.00  0.00     0.130 C 
ATOM     18  O   UNL     1      -2.782  33.015  41.743  1.00  0.00    -0.300 OA
ATOM     19  C   UNL     1      -1.988  34.801  40.434  1.00  0.00     0.087 C 
ENDBRANCH  16  17
ENDBRANCH  15  16
ENDBRANCH  13  15
ENDBRANCH  11  12
ENDBRANCH   1  11
TORSDOF 9
ENDMDL
