MODEL 1
REMARK VINA RESULT:    -4.568      0.000      0.000
REMARK INTER + INTRA:          -5.341
REMARK INTER:                  -5.102
REMARK INTRA:                  -0.239
REMARK UNBOUND:                -0.239
REMARK SMILES COc1cc(C)ccc1C(C)C
REMARK SMILES IDX 6 1 5 2 4 3 3 4 9 5 8 6 7 7 2 8 1 9 10 10 11 11 12 12
REMARK H PARENT
REMARK Flexibility Score: inf
ROOT
ATOM      1  C   UNL     1      -5.118  -0.222  31.924  1.00  0.00     0.044 C 
ATOM      2  C   UNL     1      -4.171   0.009  30.782  1.00  0.00    -0.047 A 
ATOM      3  C   UNL     1      -2.996   0.746  30.979  1.00  0.00     0.050 A 
ATOM      4  C   UNL     1      -2.080   0.940  29.925  1.00  0.00     0.122 A 
ATOM      5  C   UNL     1      -2.350   0.372  28.658  1.00  0.00    -0.003 A 
ATOM      6  C   UNL     1      -3.525  -0.383  28.481  1.00  0.00     0.008 A 
ATOM      7  C   UNL     1      -4.421  -0.567  29.534  1.00  0.00     0.004 A 
ENDROOT
BRANCH   4   8
ATOM      8  O   UNL     1      -0.903   1.685  30.107  1.00  0.00    -0.496 OA
ATOM      9  C   UNL     1      -0.698   2.641  31.143  1.00  0.00     0.278 C 
ENDBRANCH   4   8
BRANCH   5  10
ATOM     10  C   UNL     1      -1.386   0.558  27.492  1.00  0.00     0.017 C 
ATOM     11  C   UNL     1      -1.748   1.799  26.667  1.00  0.00     0.012 C 
ATOM     12  C   UNL     1      -1.336  -0.696  26.611  1.00  0.00     0.012 C 
ENDBRANCH   5  10
TORSDOF 2
ENDMDL
MODEL 2
REMARK VINA RESULT:    -4.518      1.612      3.276
REMARK INTER + INTRA:          -5.285
REMARK INTER:                  -5.079
REMARK INTRA:                  -0.206
REMARK UNBOUND:                -0.239
REMARK SMILES COc1cc(C)ccc1C(C)C
REMARK SMILES IDX 6 1 5 2 4 3 3 4 9 5 8 6 7 7 2 8 1 9 10 10 11 11 12 12
REMARK H PARENT
REMARK Flexibility Score: inf
ROOT
ATOM      1  C   UNL     1      -0.967   2.638  32.036  1.00  0.00     0.044 C 
ATOM      2  C   UNL     1      -1.374   1.839  30.832  1.00  0.00    -0.047 A 
ATOM      3  C   UNL     1      -2.670   1.316  30.738  1.00  0.00     0.050 A 
ATOM      4  C   UNL     1      -3.077   0.594  29.597  1.00  0.00     0.122 A 
ATOM      5  C   UNL     1      -2.165   0.409  28.531  1.00  0.00    -0.003 A 
ATOM      6  C   UNL     1      -0.873   0.958  28.631  1.00  0.00     0.008 A 
ATOM      7  C   UNL     1      -0.485   1.670  29.766  1.00  0.00     0.004 A 
ENDROOT
BRANCH   4   8
ATOM      8  O   UNL     1      -4.371   0.057  29.496  1.00  0.00    -0.496 OA
ATOM      9  C   UNL     1      -5.040  -0.655  30.533  1.00  0.00     0.278 C 
ENDBRANCH   4   8
BRANCH   5  10
ATOM     10  C   UNL     1      -2.566  -0.365  27.281  1.00  0.00     0.017 C 
ATOM     11  C   UNL     1      -1.343  -0.998  26.607  1.00  0.00     0.012 C 
ATOM     12  C   UNL     1      -3.334   0.530  26.301  1.00  0.00     0.012 C 
ENDBRANCH   5  10
TORSDOF 2
ENDMDL
MODEL 3
REMARK VINA RESULT:    -4.469      0.992      3.934
REMARK INTER + INTRA:          -5.230
REMARK INTER:                  -4.945
REMARK INTRA:                  -0.285
REMARK UNBOUND:                -0.239
REMARK SMILES COc1cc(C)ccc1C(C)C
REMARK SMILES IDX 6 1 5 2 4 3 3 4 9 5 8 6 7 7 2 8 1 9 10 10 11 11 12 12
REMARK H PARENT
REMARK Flexibility Score: inf
ROOT
ATOM      1  C   UNL     1      -1.105  -0.279  26.634  1.00  0.00     0.044 C 
ATOM      2  C   UNL     1      -1.896  -0.086  27.896  1.00  0.00    -0.047 A 
ATOM      3  C   UNL     1      -1.319   0.560  28.997  1.00  0.00     0.050 A 
ATOM      4  C   UNL     1      -2.060   0.780  30.175  1.00  0.00     0.122 A 
ATOM      5  C   UNL     1      -3.408   0.353  30.238  1.00  0.00    -0.003 A 
ATOM      6  C   UNL     1      -3.980  -0.276  29.116  1.00  0.00     0.008 A 
ATOM      7  C   UNL     1      -3.233  -0.486  27.957  1.00  0.00     0.004 A 
ENDROOT
BRANCH   4   8
ATOM      8  O   UNL     1      -1.490   1.419  31.289  1.00  0.00    -0.496 OA
ATOM      9  C   UNL     1      -1.162   2.804  31.354  1.00  0.00     0.278 C 
ENDBRANCH   4   8
BRANCH   5  10
ATOM     10  C   UNL     1      -4.244   0.573  31.492  1.00  0.00     0.017 C 
ATOM     11  C   UNL     1      -5.166  -0.623  31.759  1.00  0.00     0.012 C 
ATOM     12  C   UNL     1      -5.045   1.877  31.402  1.00  0.00     0.012 C 
ENDBRANCH   5  10
TORSDOF 2
ENDMDL
MODEL 4
REMARK VINA RESULT:    -4.312     10.587     12.348
REMARK INTER + INTRA:          -5.055
REMARK INTER:                  -4.791
REMARK INTRA:                  -0.264
REMARK UNBOUND:                -0.239
REMARK SMILES COc1cc(C)ccc1C(C)C
REMARK SMILES IDX 6 1 5 2 4 3 3 4 9 5 8 6 7 7 2 8 1 9 10 10 11 11 12 12
REMARK H PARENT
REMARK Flexibility Score: inf
ROOT
ATOM      1  C   UNL     1     -12.281   0.368  31.862  1.00  0.00     0.044 C 
ATOM      2  C   UNL     1     -13.159   1.110  30.897  1.00  0.00    -0.047 A 
ATOM      3  C   UNL     1     -13.408   2.477  31.079  1.00  0.00     0.050 A 
ATOM      4  C   UNL     1     -14.202   3.194  30.161  1.00  0.00     0.122 A 
ATOM      5  C   UNL     1     -14.741   2.525  29.037  1.00  0.00    -0.003 A 
ATOM      6  C   UNL     1     -14.464   1.156  28.857  1.00  0.00     0.008 A 
ATOM      7  C   UNL     1     -13.677   0.460  29.774  1.00  0.00     0.004 A 
ENDROOT
BRANCH   4   8
ATOM      8  O   UNL     1     -14.467   4.563  30.337  1.00  0.00    -0.496 OA
ATOM      9  C   UNL     1     -15.428   5.095  31.243  1.00  0.00     0.278 C 
ENDBRANCH   4   8
BRANCH   5  10
ATOM     10  C   UNL     1     -15.603   3.264  28.021  1.00  0.00     0.017 C 
ATOM     11  C   UNL     1     -17.066   2.812  28.103  1.00  0.00     0.012 C 
ATOM     12  C   UNL     1     -15.052   3.093  26.600  1.00  0.00     0.012 C 
ENDBRANCH   5  10
TORSDOF 2
ENDMDL
MODEL 5
REMARK VINA RESULT:    -4.245      1.566      2.992
REMARK INTER + INTRA:          -4.980
REMARK INTER:                  -4.703
REMARK INTRA:                  -0.277
REMARK UNBOUND:                -0.239
REMARK SMILES COc1cc(C)ccc1C(C)C
REMARK SMILES IDX 6 1 5 2 4 3 3 4 9 5 8 6 7 7 2 8 1 9 10 10 11 11 12 12
REMARK H PARENT
REMARK Flexibility Score: inf
ROOT
ATOM      1  C   UNL     1      -5.421  -0.986  30.900  1.00  0.00     0.044 C 
ATOM      2  C   UNL     1      -4.234  -0.279  30.314  1.00  0.00    -0.047 A 
ATOM      3  C   UNL     1      -3.653  -0.743  29.127  1.00  0.00     0.050 A 
ATOM      4  C   UNL     1      -2.560  -0.068  28.546  1.00  0.00     0.122 A 
ATOM      5  C   UNL     1      -2.054   1.098  29.167  1.00  0.00    -0.003 A 
ATOM      6  C   UNL     1      -2.662   1.563  30.349  1.00  0.00     0.008 A 
ATOM      7  C   UNL     1      -3.743   0.885  30.911  1.00  0.00     0.004 A 
ENDROOT
BRANCH   4   8
ATOM      8  O   UNL     1      -1.964  -0.528  27.360  1.00  0.00    -0.496 OA
ATOM      9  C   UNL     1      -2.488  -0.321  26.052  1.00  0.00     0.278 C 
ENDBRANCH   4   8
BRANCH   5  10
ATOM     10  C   UNL     1      -0.875   1.857  28.571  1.00  0.00     0.017 C 
ATOM     11  C   UNL     1       0.125   2.268  29.659  1.00  0.00     0.012 C 
ATOM     12  C   UNL     1      -1.350   3.075  27.769  1.00  0.00     0.012 C 
ENDBRANCH   5  10
TORSDOF 2
ENDMDL
MODEL 6
REMARK VINA RESULT:    -4.244     12.753     14.125
REMARK INTER + INTRA:          -4.980
REMARK INTER:                  -4.710
REMARK INTRA:                  -0.270
REMARK UNBOUND:                -0.239
REMARK SMILES COc1cc(C)ccc1C(C)C
REMARK SMILES IDX 6 1 5 2 4 3 3 4 9 5 8 6 7 7 2 8 1 9 10 10 11 11 12 12
REMARK H PARENT
REMARK Flexibility Score: inf
ROOT
ATOM      1  C   UNL     1     -14.618  12.000  29.726  1.00  0.00     0.044 C 
ATOM      2  C   UNL     1     -13.579  11.244  30.503  1.00  0.00    -0.047 A 
ATOM      3  C   UNL     1     -13.757   9.883  30.779  1.00  0.00     0.050 A 
ATOM      4  C   UNL     1     -12.773   9.152  31.476  1.00  0.00     0.122 A 
ATOM      5  C   UNL     1     -11.587   9.804  31.889  1.00  0.00    -0.003 A 
ATOM      6  C   UNL     1     -11.413  11.168  31.587  1.00  0.00     0.008 A 
ATOM      7  C   UNL     1     -12.396  11.877  30.895  1.00  0.00     0.004 A 
ENDROOT
BRANCH   4   8
ATOM      8  O   UNL     1     -12.945   7.788  31.767  1.00  0.00    -0.496 OA
ATOM      9  C   UNL     1     -13.758   7.277  32.818  1.00  0.00     0.278 C 
ENDBRANCH   4   8
BRANCH   5  10
ATOM     10  C   UNL     1     -10.499   9.050  32.644  1.00  0.00     0.017 C 
ATOM     11  C   UNL     1     -10.481   9.443  34.127  1.00  0.00     0.012 C 
ATOM     12  C   UNL     1      -9.125   9.270  31.999  1.00  0.00     0.012 C 
ENDBRANCH   5  10
TORSDOF 2
ENDMDL
MODEL 7
REMARK VINA RESULT:    -4.207      1.525      4.278
REMARK INTER + INTRA:          -4.937
REMARK INTER:                  -4.740
REMARK INTRA:                  -0.197
REMARK UNBOUND:                -0.239
REMARK SMILES COc1cc(C)ccc1C(C)C
REMARK SMILES IDX 6 1 5 2 4 3 3 4 9 5 8 6 7 7 2 8 1 9 10 10 11 11 12 12
REMARK H PARENT
REMARK Flexibility Score: inf
ROOT
ATOM      1  C   UNL     1      -2.448  -0.307  25.649  1.00  0.00     0.044 C 
ATOM      2  C   UNL     1      -2.337   0.224  27.049  1.00  0.00    -0.047 A 
ATOM      3  C   UNL     1      -3.071  -0.365  28.087  1.00  0.00     0.050 A 
ATOM      4  C   UNL     1      -2.949   0.100  29.412  1.00  0.00     0.122 A 
ATOM      5  C   UNL     1      -2.064   1.167  29.695  1.00  0.00    -0.003 A 
ATOM      6  C   UNL     1      -1.318   1.735  28.645  1.00  0.00     0.008 A 
ATOM      7  C   UNL     1      -1.449   1.264  27.339  1.00  0.00     0.004 A 
ENDROOT
BRANCH   4   8
ATOM      8  O   UNL     1      -3.687  -0.477  30.460  1.00  0.00    -0.496 OA
ATOM      9  C   UNL     1      -5.091  -0.718  30.429  1.00  0.00     0.278 C 
ENDBRANCH   4   8
BRANCH   5  10
ATOM     10  C   UNL     1      -1.903   1.699  31.114  1.00  0.00     0.017 C 
ATOM     11  C   UNL     1      -3.076   2.608  31.500  1.00  0.00     0.012 C 
ATOM     12  C   UNL     1      -0.563   2.424  31.283  1.00  0.00     0.012 C 
ENDBRANCH   5  10
TORSDOF 2
ENDMDL
MODEL 8
REMARK VINA RESULT:    -4.154      3.017      4.032
REMARK INTER + INTRA:          -4.878
REMARK INTER:                  -4.915
REMARK INTRA:                   0.037
REMARK UNBOUND:                -0.239
REMARK SMILES COc1cc(C)ccc1C(C)C
REMARK SMILES IDX 6 1 5 2 4 3 3 4 9 5 8 6 7 7 2 8 1 9 10 10 11 11 12 12
REMARK H PARENT
REMARK Flexibility Score: inf
ROOT
ATOM      1  C   UNL     1      -0.113   4.060  30.514  1.00  0.00     0.044 C 
ATOM      2  C   UNL     1      -0.609   3.129  29.446  1.00  0.00    -0.047 A 
ATOM      3  C   UNL     1      -1.268   3.638  28.319  1.00  0.00     0.050 A 
ATOM      4  C   UNL     1      -1.707   2.780  27.290  1.00  0.00     0.122 A 
ATOM      5  C   UNL     1      -1.468   1.389  27.396  1.00  0.00    -0.003 A 
ATOM      6  C   UNL     1      -0.786   0.895  28.525  1.00  0.00     0.008 A 
ATOM      7  C   UNL     1      -0.357   1.757  29.534  1.00  0.00     0.004 A 
ENDROOT
BRANCH   4   8
ATOM      8  O   UNL     1      -2.377   3.277  26.160  1.00  0.00    -0.496 OA
ATOM      9  C   UNL     1      -2.711   4.646  25.949  1.00  0.00     0.278 C 
ENDBRANCH   4   8
BRANCH   5  10
ATOM     10  C   UNL     1      -1.926   0.428  26.307  1.00  0.00     0.017 C 
ATOM     11  C   UNL     1      -3.453   0.433  26.171  1.00  0.00     0.012 C 
ATOM     12  C   UNL     1      -1.399  -0.989  26.563  1.00  0.00     0.012 C 
ENDBRANCH   5  10
TORSDOF 2
ENDMDL
MODEL 9
REMARK VINA RESULT:    -4.100     15.384     17.176
REMARK INTER + INTRA:          -4.818
REMARK INTER:                  -4.584
REMARK INTRA:                  -0.234
REMARK UNBOUND:                -0.239
REMARK SMILES COc1cc(C)ccc1C(C)C
REMARK SMILES IDX 6 1 5 2 4 3 3 4 9 5 8 6 7 7 2 8 1 9 10 10 11 11 12 12
REMARK H PARENT
REMARK Flexibility Score: inf
ROOT
ATOM      1  C   UNL     1      -9.255  12.886  18.799  1.00  0.00     0.044 C 
ATOM      2  C   UNL     1     -10.234  11.763  18.617  1.00  0.00    -0.047 A 
ATOM      3  C   UNL     1      -9.945  10.488  19.119  1.00  0.00     0.050 A 
ATOM      4  C   UNL     1     -10.870   9.432  18.987  1.00  0.00     0.122 A 
ATOM      5  C   UNL     1     -12.110   9.671  18.350  1.00  0.00    -0.003 A 
ATOM      6  C   UNL     1     -12.395  10.964  17.868  1.00  0.00     0.008 A 
ATOM      7  C   UNL     1     -11.470  11.998  18.007  1.00  0.00     0.004 A 
ENDROOT
BRANCH   4   8
ATOM      8  O   UNL     1     -10.587   8.146  19.478  1.00  0.00    -0.496 OA
ATOM      9  C   UNL     1      -9.298   7.697  19.887  1.00  0.00     0.278 C 
ENDBRANCH   4   8
BRANCH   5  10
ATOM     10  C   UNL     1     -13.138   8.558  18.187  1.00  0.00     0.017 C 
ATOM     11  C   UNL     1     -13.917   8.711  16.875  1.00  0.00     0.012 C 
ATOM     12  C   UNL     1     -14.088   8.504  19.389  1.00  0.00     0.012 C 
ENDBRANCH   5  10
TORSDOF 2
ENDMDL
