MODEL 1
REMARK VINA RESULT:    -6.913      0.000      0.000
REMARK INTER + INTRA:          -7.563
REMARK INTER:                  -7.519
REMARK INTRA:                  -0.044
REMARK UNBOUND:                -0.044
REMARK SMILES COc1cc2ccc(=O)oc2cc1O
REMARK SMILES IDX 3 1 13 2 12 3 11 4 5 5 4 6 6 7 7 8 8 9 9 10 10 11 2 12 1 13
REMARK SMILES IDX 14 14
REMARK H PARENT 14 15
REMARK Flexibility Score: inf
ROOT
ATOM      1  C   UNL     1       2.886  44.122  -2.703  1.00  0.00     0.161 A 
ATOM      2  C   UNL     1       1.975  44.494  -3.712  1.00  0.00     0.161 A 
ATOM      3  C   UNL     1       0.667  44.866  -3.380  1.00  0.00     0.098 A 
ATOM      4  C   UNL     1       0.251  44.872  -2.047  1.00  0.00     0.142 A 
ATOM      5  C   UNL     1       1.155  44.501  -1.030  1.00  0.00     0.022 A 
ATOM      6  C   UNL     1       2.466  44.129  -1.358  1.00  0.00     0.062 A 
ATOM      7  C   UNL     1       0.708  44.517   0.296  1.00  0.00     0.019 A 
ATOM      8  C   UNL     1      -0.604  44.896   0.572  1.00  0.00     0.094 A 
ATOM      9  C   UNL     1      -1.445  45.251  -0.489  1.00  0.00     0.336 A 
ATOM     10  O   UNL     1      -2.634  45.594  -0.261  1.00  0.00    -0.246 OA
ATOM     11  O   UNL     1      -0.995  45.226  -1.740  1.00  0.00    -0.423 OA
ENDROOT
BRANCH   1  12
ATOM     12  O   UNL     1       4.190  43.755  -3.072  1.00  0.00    -0.493 OA
ATOM     13  C   UNL     1       5.080  43.005  -2.253  1.00  0.00     0.278 C 
ENDBRANCH   1  12
BRANCH   2  14
ATOM     14  O   UNL     1       2.352  44.500  -5.055  1.00  0.00    -0.504 OA
ATOM     15  H   UNL     1       2.480  45.360  -5.576  1.00  0.00     0.293 HD
ENDBRANCH   2  14
TORSDOF 2
ENDMDL
MODEL 2
REMARK VINA RESULT:    -6.890      1.465      2.104
REMARK INTER + INTRA:          -7.538
REMARK INTER:                  -7.473
REMARK INTRA:                  -0.065
REMARK UNBOUND:                -0.044
REMARK SMILES COc1cc2ccc(=O)oc2cc1O
REMARK SMILES IDX 3 1 13 2 12 3 11 4 5 5 4 6 6 7 7 8 8 9 9 10 10 11 2 12 1 13
REMARK SMILES IDX 14 14
REMARK H PARENT 14 15
REMARK Flexibility Score: inf
ROOT
ATOM      1  C   UNL     1       1.277  44.765  -1.534  1.00  0.00     0.161 A 
ATOM      2  C   UNL     1       0.339  45.166  -2.506  1.00  0.00     0.161 A 
ATOM      3  C   UNL     1      -1.021  45.250  -2.181  1.00  0.00     0.098 A 
ATOM      4  C   UNL     1      -1.461  44.937  -0.893  1.00  0.00     0.142 A 
ATOM      5  C   UNL     1      -0.529  44.534   0.086  1.00  0.00     0.022 A 
ATOM      6  C   UNL     1       0.833  44.449  -0.234  1.00  0.00     0.062 A 
ATOM      7  C   UNL     1      -1.001  44.227   1.367  1.00  0.00     0.019 A 
ATOM      8  C   UNL     1      -2.364  44.327   1.637  1.00  0.00     0.094 A 
ATOM      9  C   UNL     1      -3.230  44.733   0.616  1.00  0.00     0.336 A 
ATOM     10  O   UNL     1      -4.465  44.829   0.839  1.00  0.00    -0.246 OA
ATOM     11  O   UNL     1      -2.755  45.019  -0.594  1.00  0.00    -0.423 OA
ENDROOT
BRANCH   1  12
ATOM     12  O   UNL     1       2.633  44.692  -1.894  1.00  0.00    -0.493 OA
ATOM     13  C   UNL     1       3.311  43.491  -2.245  1.00  0.00     0.278 C 
ENDBRANCH   1  12
BRANCH   2  14
ATOM     14  O   UNL     1       0.738  45.487  -3.803  1.00  0.00    -0.504 OA
ATOM     15  H   UNL     1       1.647  45.225  -4.168  1.00  0.00     0.293 HD
ENDBRANCH   2  14
TORSDOF 2
ENDMDL
MODEL 3
REMARK VINA RESULT:    -6.690      1.191      4.811
REMARK INTER + INTRA:          -7.321
REMARK INTER:                  -7.273
REMARK INTRA:                  -0.048
REMARK UNBOUND:                -0.044
REMARK SMILES COc1cc2ccc(=O)oc2cc1O
REMARK SMILES IDX 3 1 13 2 12 3 11 4 5 5 4 6 6 7 7 8 8 9 9 10 10 11 2 12 1 13
REMARK SMILES IDX 14 14
REMARK H PARENT 14 15
REMARK Flexibility Score: inf
ROOT
ATOM      1  C   UNL     1      -0.800  44.921  -1.464  1.00  0.00     0.161 A 
ATOM      2  C   UNL     1      -0.783  44.891  -2.873  1.00  0.00     0.161 A 
ATOM      3  C   UNL     1       0.422  44.697  -3.559  1.00  0.00     0.098 A 
ATOM      4  C   UNL     1       1.617  44.531  -2.857  1.00  0.00     0.142 A 
ATOM      5  C   UNL     1       1.610  44.559  -1.447  1.00  0.00     0.022 A 
ATOM      6  C   UNL     1       0.406  44.753  -0.755  1.00  0.00     0.062 A 
ATOM      7  C   UNL     1       2.824  44.390  -0.771  1.00  0.00     0.019 A 
ATOM      8  C   UNL     1       3.994  44.199  -1.503  1.00  0.00     0.094 A 
ATOM      9  C   UNL     1       3.925  44.184  -2.901  1.00  0.00     0.336 A 
ATOM     10  O   UNL     1       4.971  44.014  -3.581  1.00  0.00    -0.246 OA
ATOM     11  O   UNL     1       2.758  44.348  -3.518  1.00  0.00    -0.423 OA
ENDROOT
BRANCH   1  12
ATOM     12  O   UNL     1      -2.026  45.117  -0.808  1.00  0.00    -0.493 OA
ATOM     13  C   UNL     1      -2.201  45.925   0.350  1.00  0.00     0.278 C 
ENDBRANCH   1  12
BRANCH   2  14
ATOM     14  O   UNL     1      -1.955  45.054  -3.611  1.00  0.00    -0.504 OA
ATOM     15  H   UNL     1      -2.871  44.866  -3.219  1.00  0.00     0.293 HD
ENDBRANCH   2  14
TORSDOF 2
ENDMDL
MODEL 4
REMARK VINA RESULT:    -6.591      5.973      9.124
REMARK INTER + INTRA:          -7.213
REMARK INTER:                  -7.169
REMARK INTRA:                  -0.044
REMARK UNBOUND:                -0.044
REMARK SMILES COc1cc2ccc(=O)oc2cc1O
REMARK SMILES IDX 3 1 13 2 12 3 11 4 5 5 4 6 6 7 7 8 8 9 9 10 10 11 2 12 1 13
REMARK SMILES IDX 14 14
REMARK H PARENT 14 15
REMARK Flexibility Score: inf
ROOT
ATOM      1  C   UNL     1      -1.113  46.609   7.252  1.00  0.00     0.161 A 
ATOM      2  C   UNL     1      -2.338  45.943   7.451  1.00  0.00     0.161 A 
ATOM      3  C   UNL     1      -2.985  45.320   6.376  1.00  0.00     0.098 A 
ATOM      4  C   UNL     1      -2.424  45.354   5.098  1.00  0.00     0.142 A 
ATOM      5  C   UNL     1      -1.198  46.018   4.889  1.00  0.00     0.022 A 
ATOM      6  C   UNL     1      -0.546  46.642   5.962  1.00  0.00     0.062 A 
ATOM      7  C   UNL     1      -0.661  46.034   3.597  1.00  0.00     0.019 A 
ATOM      8  C   UNL     1      -1.346  45.398   2.563  1.00  0.00     0.094 A 
ATOM      9  C   UNL     1      -2.558  44.759   2.845  1.00  0.00     0.336 A 
ATOM     10  O   UNL     1      -3.192  44.180   1.925  1.00  0.00    -0.246 OA
ATOM     11  O   UNL     1      -3.046  44.759   4.083  1.00  0.00    -0.423 OA
ENDROOT
BRANCH   1  12
ATOM     12  O   UNL     1      -0.491  47.223   8.352  1.00  0.00    -0.493 OA
ATOM     13  C   UNL     1       0.535  48.204   8.255  1.00  0.00     0.278 C 
ENDBRANCH   1  12
BRANCH   2  14
ATOM     14  O   UNL     1      -2.931  45.888   8.712  1.00  0.00    -0.504 OA
ATOM     15  H   UNL     1      -2.507  45.391   9.487  1.00  0.00     0.293 HD
ENDBRANCH   2  14
TORSDOF 2
ENDMDL
MODEL 5
REMARK VINA RESULT:    -6.590      2.416      4.622
REMARK INTER + INTRA:          -7.212
REMARK INTER:                  -7.147
REMARK INTRA:                  -0.065
REMARK UNBOUND:                -0.044
REMARK SMILES COc1cc2ccc(=O)oc2cc1O
REMARK SMILES IDX 3 1 13 2 12 3 11 4 5 5 4 6 6 7 7 8 8 9 9 10 10 11 2 12 1 13
REMARK SMILES IDX 14 14
REMARK H PARENT 14 15
REMARK Flexibility Score: inf
ROOT
ATOM      1  C   UNL     1       2.030  44.879   1.534  1.00  0.00     0.161 A 
ATOM      2  C   UNL     1       0.639  44.966   1.331  1.00  0.00     0.161 A 
ATOM      3  C   UNL     1       0.101  44.815   0.047  1.00  0.00     0.098 A 
ATOM      4  C   UNL     1       0.938  44.576  -1.045  1.00  0.00     0.142 A 
ATOM      5  C   UNL     1       2.332  44.487  -0.853  1.00  0.00     0.022 A 
ATOM      6  C   UNL     1       2.874  44.638   0.431  1.00  0.00     0.062 A 
ATOM      7  C   UNL     1       3.143  44.248  -1.968  1.00  0.00     0.019 A 
ATOM      8  C   UNL     1       2.557  44.104  -3.224  1.00  0.00     0.094 A 
ATOM      9  C   UNL     1       1.166  44.205  -3.338  1.00  0.00     0.336 A 
ATOM     10  O   UNL     1       0.617  44.079  -4.464  1.00  0.00    -0.246 OA
ATOM     11  O   UNL     1       0.418  44.434  -2.262  1.00  0.00    -0.423 OA
ENDROOT
BRANCH   1  12
ATOM     12  O   UNL     1       2.535  45.036   2.834  1.00  0.00    -0.493 OA
ATOM     13  C   UNL     1       3.054  46.253   3.358  1.00  0.00     0.278 C 
ENDBRANCH   1  12
BRANCH   2  14
ATOM     14  O   UNL     1      -0.230  45.204   2.397  1.00  0.00    -0.504 OA
ATOM     15  H   UNL     1      -0.305  46.113   2.840  1.00  0.00     0.293 HD
ENDBRANCH   2  14
TORSDOF 2
ENDMDL
MODEL 6
REMARK VINA RESULT:    -6.575      1.559      5.242
REMARK INTER + INTRA:          -7.196
REMARK INTER:                  -7.131
REMARK INTRA:                  -0.065
REMARK UNBOUND:                -0.044
REMARK SMILES COc1cc2ccc(=O)oc2cc1O
REMARK SMILES IDX 3 1 13 2 12 3 11 4 5 5 4 6 6 7 7 8 8 9 9 10 10 11 2 12 1 13
REMARK SMILES IDX 14 14
REMARK H PARENT 14 15
REMARK Flexibility Score: inf
ROOT
ATOM      1  C   UNL     1      -1.210  45.134   1.321  1.00  0.00     0.161 A 
ATOM      2  C   UNL     1      -1.890  45.253   0.092  1.00  0.00     0.161 A 
ATOM      3  C   UNL     1      -1.196  45.108  -1.115  1.00  0.00     0.098 A 
ATOM      4  C   UNL     1       0.176  44.845  -1.115  1.00  0.00     0.142 A 
ATOM      5  C   UNL     1       0.865  44.724   0.109  1.00  0.00     0.022 A 
ATOM      6  C   UNL     1       0.175  44.868   1.320  1.00  0.00     0.062 A 
ATOM      7  C   UNL     1       2.239  44.460   0.076  1.00  0.00     0.019 A 
ATOM      8  C   UNL     1       2.881  44.324  -1.154  1.00  0.00     0.094 A 
ATOM      9  C   UNL     1       2.131  44.457  -2.328  1.00  0.00     0.336 A 
ATOM     10  O   UNL     1       2.692  44.339  -3.449  1.00  0.00    -0.246 OA
ATOM     11  O   UNL     1       0.826  44.709  -2.268  1.00  0.00    -0.423 OA
ENDROOT
BRANCH   1  12
ATOM     12  O   UNL     1      -1.936  45.285   2.513  1.00  0.00    -0.493 OA
ATOM     13  C   UNL     1      -2.408  44.207   3.313  1.00  0.00     0.278 C 
ENDBRANCH   1  12
BRANCH   2  14
ATOM     14  O   UNL     1      -3.259  45.517   0.051  1.00  0.00    -0.504 OA
ATOM     15  H   UNL     1      -3.900  45.153   0.746  1.00  0.00     0.293 HD
ENDBRANCH   2  14
TORSDOF 2
ENDMDL
MODEL 7
REMARK VINA RESULT:    -6.573      1.313      5.498
REMARK INTER + INTRA:          -7.194
REMARK INTER:                  -7.192
REMARK INTRA:                  -0.002
REMARK UNBOUND:                -0.044
REMARK SMILES COc1cc2ccc(=O)oc2cc1O
REMARK SMILES IDX 3 1 13 2 12 3 11 4 5 5 4 6 6 7 7 8 8 9 9 10 10 11 2 12 1 13
REMARK SMILES IDX 14 14
REMARK H PARENT 14 15
REMARK Flexibility Score: inf
ROOT
ATOM      1  C   UNL     1      -1.416  45.245  -0.330  1.00  0.00     0.161 A 
ATOM      2  C   UNL     1      -0.508  45.004   0.720  1.00  0.00     0.161 A 
ATOM      3  C   UNL     1       0.823  44.671   0.438  1.00  0.00     0.098 A 
ATOM      4  C   UNL     1       1.263  44.573  -0.883  1.00  0.00     0.142 A 
ATOM      5  C   UNL     1       0.362  44.812  -1.941  1.00  0.00     0.022 A 
ATOM      6  C   UNL     1      -0.972  45.147  -1.664  1.00  0.00     0.062 A 
ATOM      7  C   UNL     1       0.832  44.707  -3.254  1.00  0.00     0.019 A 
ATOM      8  C   UNL     1       2.167  44.373  -3.479  1.00  0.00     0.094 A 
ATOM      9  C   UNL     1       3.003  44.150  -2.379  1.00  0.00     0.336 A 
ATOM     10  O   UNL     1       4.211  43.846  -2.560  1.00  0.00    -0.246 OA
ATOM     11  O   UNL     1       2.530  44.256  -1.141  1.00  0.00    -0.423 OA
ENDROOT
BRANCH   1  12
ATOM     12  O   UNL     1      -2.743  45.576  -0.012  1.00  0.00    -0.493 OA
ATOM     13  C   UNL     1      -3.747  44.634   0.347  1.00  0.00     0.278 C 
ENDBRANCH   1  12
BRANCH   2  14
ATOM     14  O   UNL     1      -0.909  45.090   2.053  1.00  0.00    -0.504 OA
ATOM     15  H   UNL     1      -0.328  44.758   2.814  1.00  0.00     0.293 HD
ENDBRANCH   2  14
TORSDOF 2
ENDMDL
MODEL 8
REMARK VINA RESULT:    -6.553      2.003      3.272
REMARK INTER + INTRA:          -7.172
REMARK INTER:                  -7.127
REMARK INTRA:                  -0.045
REMARK UNBOUND:                -0.044
REMARK SMILES COc1cc2ccc(=O)oc2cc1O
REMARK SMILES IDX 3 1 13 2 12 3 11 4 5 5 4 6 6 7 7 8 8 9 9 10 10 11 2 12 1 13
REMARK SMILES IDX 14 14
REMARK H PARENT 14 15
REMARK Flexibility Score: inf
ROOT
ATOM      1  C   UNL     1       1.234  44.615  -1.694  1.00  0.00     0.161 A 
ATOM      2  C   UNL     1       2.044  44.434  -0.555  1.00  0.00     0.161 A 
ATOM      3  C   UNL     1       1.490  44.531   0.727  1.00  0.00     0.098 A 
ATOM      4  C   UNL     1       0.131  44.808   0.891  1.00  0.00     0.142 A 
ATOM      5  C   UNL     1      -0.687  44.991  -0.242  1.00  0.00     0.022 A 
ATOM      6  C   UNL     1      -0.137  44.894  -1.528  1.00  0.00     0.062 A 
ATOM      7  C   UNL     1      -2.045  45.267  -0.045  1.00  0.00     0.019 A 
ATOM      8  C   UNL     1      -2.545  45.352   1.253  1.00  0.00     0.094 A 
ATOM      9  C   UNL     1      -1.672  45.160   2.329  1.00  0.00     0.336 A 
ATOM     10  O   UNL     1      -2.104  45.234   3.510  1.00  0.00    -0.246 OA
ATOM     11  O   UNL     1      -0.386  44.899   2.114  1.00  0.00    -0.423 OA
ENDROOT
BRANCH   1  12
ATOM     12  O   UNL     1       1.822  44.511  -2.965  1.00  0.00    -0.493 OA
ATOM     13  C   UNL     1       1.117  44.182  -4.156  1.00  0.00     0.278 C 
ENDBRANCH   1  12
BRANCH   2  14
ATOM     14  O   UNL     1       3.406  44.157  -0.677  1.00  0.00    -0.504 OA
ATOM     15  H   UNL     1       3.807  43.786  -1.531  1.00  0.00     0.293 HD
ENDBRANCH   2  14
TORSDOF 2
ENDMDL
MODEL 9
REMARK VINA RESULT:    -6.539      2.280      5.906
REMARK INTER + INTRA:          -7.157
REMARK INTER:                  -7.109
REMARK INTRA:                  -0.048
REMARK UNBOUND:                -0.044
REMARK SMILES COc1cc2ccc(=O)oc2cc1O
REMARK SMILES IDX 3 1 13 2 12 3 11 4 5 5 4 6 6 7 7 8 8 9 9 10 10 11 2 12 1 13
REMARK SMILES IDX 14 14
REMARK H PARENT 14 15
REMARK Flexibility Score: inf
ROOT
ATOM      1  C   UNL     1      -2.373  44.366   2.150  1.00  0.00     0.161 A 
ATOM      2  C   UNL     1      -3.316  44.974   1.297  1.00  0.00     0.161 A 
ATOM      3  C   UNL     1      -2.950  45.358   0.001  1.00  0.00     0.098 A 
ATOM      4  C   UNL     1      -1.649  45.143  -0.459  1.00  0.00     0.142 A 
ATOM      5  C   UNL     1      -0.699  44.535   0.387  1.00  0.00     0.022 A 
ATOM      6  C   UNL     1      -1.060  44.149   1.685  1.00  0.00     0.062 A 
ATOM      7  C   UNL     1       0.596  44.334  -0.103  1.00  0.00     0.019 A 
ATOM      8  C   UNL     1       0.907  44.734  -1.402  1.00  0.00     0.094 A 
ATOM      9  C   UNL     1      -0.088  45.331  -2.184  1.00  0.00     0.336 A 
ATOM     10  O   UNL     1       0.173  45.700  -3.358  1.00  0.00    -0.246 OA
ATOM     11  O   UNL     1      -1.311  45.511  -1.693  1.00  0.00    -0.423 OA
ENDROOT
BRANCH   1  12
ATOM     12  O   UNL     1      -2.774  43.994   3.443  1.00  0.00    -0.493 OA
ATOM     13  C   UNL     1      -2.707  44.841   4.585  1.00  0.00     0.278 C 
ENDBRANCH   1  12
BRANCH   2  14
ATOM     14  O   UNL     1      -4.625  45.206   1.720  1.00  0.00    -0.504 OA
ATOM     15  H   UNL     1      -5.418  44.724   1.313  1.00  0.00     0.293 HD
ENDBRANCH   2  14
TORSDOF 2
ENDMDL
