MODEL 1
REMARK VINA RESULT:    -3.082      0.000      0.000
REMARK INTER + INTRA:          -7.730
REMARK INTER:                  -6.686
REMARK INTRA:                  -1.045
REMARK UNBOUND:                -1.045
REMARK SMILES CCCCCCCCCCCCCCCCCCCCCC(=O)[O-]
REMARK SMILES IDX 12 1 11 2 10 3 9 4 8 5 7 6 6 7 5 8 4 9 3 10 2 11 1 12 13 13
REMARK SMILES IDX 14 14 15 15 16 16 17 17 18 18 19 19 20 20 21 21 22 22 23 23
REMARK SMILES IDX 24 24
REMARK H PARENT
REMARK Flexibility Score: inf
ROOT
ATOM      1  C   UNL     1      19.223  65.362  16.066  1.00  0.00     0.000 C 
ENDROOT
BRANCH   1   2
ATOM      2  C   UNL     1      18.093  66.119  15.342  1.00  0.00     0.000 C 
BRANCH   2   3
ATOM      3  C   UNL     1      16.710  66.012  16.006  1.00  0.00     0.000 C 
BRANCH   3   4
ATOM      4  C   UNL     1      16.694  65.042  17.198  1.00  0.00    -0.000 C 
BRANCH   4   5
ATOM      5  C   UNL     1      15.267  64.547  17.483  1.00  0.00    -0.000 C 
BRANCH   5   6
ATOM      6  C   UNL     1      14.228  65.679  17.442  1.00  0.00    -0.000 C 
BRANCH   6   7
ATOM      7  C   UNL     1      12.963  65.299  16.658  1.00  0.00    -0.000 C 
BRANCH   7   8
ATOM      8  C   UNL     1      13.148  65.578  15.158  1.00  0.00    -0.000 C 
BRANCH   8   9
ATOM      9  C   UNL     1      13.593  64.335  14.369  1.00  0.00    -0.000 C 
BRANCH   9  10
ATOM     10  C   UNL     1      13.915  64.594  12.886  1.00  0.00    -0.000 C 
BRANCH  10  11
ATOM     11  C   UNL     1      13.414  63.484  11.940  1.00  0.00    -0.003 C 
ATOM     12  C   UNL     1      12.875  62.271  12.697  1.00  0.00     0.004 C 
ENDBRANCH  10  11
ENDBRANCH   9  10
ENDBRANCH   8   9
ENDBRANCH   7   8
ENDBRANCH   6   7
ENDBRANCH   5   6
ENDBRANCH   4   5
ENDBRANCH   3   4
ENDBRANCH   2   3
ENDBRANCH   1   2
BRANCH   1  13
ATOM     13  C   UNL     1      20.643  65.785  15.628  1.00  0.00     0.000 C 
BRANCH  13  14
ATOM     14  C   UNL     1      21.700  65.501  16.709  1.00  0.00     0.000 C 
BRANCH  14  15
ATOM     15  C   UNL     1      22.964  64.835  16.133  1.00  0.00     0.000 C 
BRANCH  15  16
ATOM     16  C   UNL     1      24.153  65.802  15.974  1.00  0.00     0.000 C 
BRANCH  16  17
ATOM     17  C   UNL     1      25.502  65.064  15.938  1.00  0.00     0.000 C 
BRANCH  17  18
ATOM     18  C   UNL     1      26.600  65.799  16.725  1.00  0.00     0.000 C 
BRANCH  18  19
ATOM     19  C   UNL     1      27.866  64.945  16.915  1.00  0.00     0.000 C 
BRANCH  19  20
ATOM     20  C   UNL     1      29.091  65.784  17.328  1.00  0.00     0.006 C 
BRANCH  20  21
ATOM     21  C   UNL     1      29.672  65.415  18.702  1.00  0.00     0.053 C 
BRANCH  21  22
ATOM     22  C   UNL     1      30.967  64.672  18.583  1.00  0.00     0.041 C 
ATOM     23  O   UNL     1      31.589  64.653  17.489  1.00  0.00    -0.550 OA
ATOM     24  O   UNL     1      31.474  63.976  19.673  1.00  0.00    -0.550 OA
ENDBRANCH  21  22
ENDBRANCH  20  21
ENDBRANCH  19  20
ENDBRANCH  18  19
ENDBRANCH  17  18
ENDBRANCH  16  17
ENDBRANCH  15  16
ENDBRANCH  14  15
ENDBRANCH  13  14
ENDBRANCH   1  13
TORSDOF 20
ENDMDL
MODEL 2
REMARK VINA RESULT:    -2.874      1.541      3.931
REMARK INTER + INTRA:          -7.279
REMARK INTER:                  -6.479
REMARK INTRA:                  -0.801
REMARK UNBOUND:                -1.045
REMARK SMILES CCCCCCCCCCCCCCCCCCCCCC(=O)[O-]
REMARK SMILES IDX 12 1 11 2 10 3 9 4 8 5 7 6 6 7 5 8 4 9 3 10 2 11 1 12 13 13
REMARK SMILES IDX 14 14 15 15 16 16 17 17 18 18 19 19 20 20 21 21 22 22 23 23
REMARK SMILES IDX 24 24
REMARK H PARENT
REMARK Flexibility Score: inf
ROOT
ATOM      1  C   UNL     1      23.435  65.627  16.666  1.00  0.00     0.000 C 
ENDROOT
BRANCH   1   2
ATOM      2  C   UNL     1      22.286  64.996  15.859  1.00  0.00     0.000 C 
BRANCH   2   3
ATOM      3  C   UNL     1      21.023  65.866  15.736  1.00  0.00     0.000 C 
BRANCH   3   4
ATOM      4  C   UNL     1      20.014  65.311  14.718  1.00  0.00    -0.000 C 
BRANCH   4   5
ATOM      5  C   UNL     1      18.625  65.934  14.927  1.00  0.00    -0.000 C 
BRANCH   5   6
ATOM      6  C   UNL     1      18.103  65.750  16.361  1.00  0.00    -0.000 C 
BRANCH   6   7
ATOM      7  C   UNL     1      16.570  65.709  16.436  1.00  0.00    -0.000 C 
BRANCH   7   8
ATOM      8  C   UNL     1      16.104  64.715  17.513  1.00  0.00    -0.000 C 
BRANCH   8   9
ATOM      9  C   UNL     1      14.585  64.757  17.745  1.00  0.00    -0.000 C 
BRANCH   9  10
ATOM     10  C   UNL     1      13.747  65.031  16.483  1.00  0.00    -0.000 C 
BRANCH  10  11
ATOM     11  C   UNL     1      13.635  63.817  15.537  1.00  0.00    -0.003 C 
ATOM     12  C   UNL     1      13.118  64.202  14.152  1.00  0.00     0.004 C 
ENDBRANCH  10  11
ENDBRANCH   9  10
ENDBRANCH   8   9
ENDBRANCH   7   8
ENDBRANCH   6   7
ENDBRANCH   5   6
ENDBRANCH   4   5
ENDBRANCH   3   4
ENDBRANCH   2   3
ENDBRANCH   1   2
BRANCH   1  13
ATOM     13  C   UNL     1      24.834  65.406  16.046  1.00  0.00     0.000 C 
BRANCH  13  14
ATOM     14  C   UNL     1      25.948  66.104  16.845  1.00  0.00     0.000 C 
BRANCH  14  15
ATOM     15  C   UNL     1      27.123  65.159  17.162  1.00  0.00     0.000 C 
BRANCH  15  16
ATOM     16  C   UNL     1      28.124  65.010  16.001  1.00  0.00     0.000 C 
BRANCH  16  17
ATOM     17  C   UNL     1      29.567  65.325  16.432  1.00  0.00     0.000 C 
BRANCH  17  18
ATOM     18  C   UNL     1      29.774  65.188  17.949  1.00  0.00     0.000 C 
BRANCH  18  19
ATOM     19  C   UNL     1      31.236  64.883  18.323  1.00  0.00     0.000 C 
BRANCH  19  20
ATOM     20  C   UNL     1      31.355  63.941  19.535  1.00  0.00     0.006 C 
BRANCH  20  21
ATOM     21  C   UNL     1      32.444  64.344  20.542  1.00  0.00     0.053 C 
BRANCH  21  22
ATOM     22  C   UNL     1      31.864  64.768  21.857  1.00  0.00     0.041 C 
ATOM     23  O   UNL     1      32.417  64.423  22.934  1.00  0.00    -0.550 OA
ATOM     24  O   UNL     1      30.696  65.518  21.893  1.00  0.00    -0.550 OA
ENDBRANCH  21  22
ENDBRANCH  20  21
ENDBRANCH  19  20
ENDBRANCH  18  19
ENDBRANCH  17  18
ENDBRANCH  16  17
ENDBRANCH  15  16
ENDBRANCH  14  15
ENDBRANCH  13  14
ENDBRANCH   1  13
TORSDOF 20
ENDMDL
MODEL 3
REMARK VINA RESULT:    -2.623      1.049      2.459
REMARK INTER + INTRA:          -6.735
REMARK INTER:                  -5.977
REMARK INTRA:                  -0.758
REMARK UNBOUND:                -1.045
REMARK SMILES CCCCCCCCCCCCCCCCCCCCCC(=O)[O-]
REMARK SMILES IDX 12 1 11 2 10 3 9 4 8 5 7 6 6 7 5 8 4 9 3 10 2 11 1 12 13 13
REMARK SMILES IDX 14 14 15 15 16 16 17 17 18 18 19 19 20 20 21 21 22 22 23 23
REMARK SMILES IDX 24 24
REMARK H PARENT
REMARK Flexibility Score: inf
ROOT
ATOM      1  C   UNL     1      21.529  65.370  16.235  1.00  0.00     0.000 C 
ENDROOT
BRANCH   1   2
ATOM      2  C   UNL     1      20.395  66.034  15.432  1.00  0.00     0.000 C 
BRANCH   2   3
ATOM      3  C   UNL     1      18.983  65.823  16.004  1.00  0.00     0.000 C 
BRANCH   3   4
ATOM      4  C   UNL     1      17.875  66.125  14.983  1.00  0.00    -0.000 C 
BRANCH   4   5
ATOM      5  C   UNL     1      16.489  66.065  15.643  1.00  0.00    -0.000 C 
BRANCH   5   6
ATOM      6  C   UNL     1      16.425  65.052  16.797  1.00  0.00    -0.000 C 
BRANCH   6   7
ATOM      7  C   UNL     1      15.287  65.344  17.786  1.00  0.00    -0.000 C 
BRANCH   7   8
ATOM      8  C   UNL     1      14.017  64.572  17.397  1.00  0.00    -0.000 C 
BRANCH   8   9
ATOM      9  C   UNL     1      13.437  65.019  16.044  1.00  0.00    -0.000 C 
BRANCH   9  10
ATOM     10  C   UNL     1      13.371  63.913  14.974  1.00  0.00    -0.000 C 
BRANCH  10  11
ATOM     11  C   UNL     1      13.190  64.448  13.539  1.00  0.00    -0.003 C 
ATOM     12  C   UNL     1      14.359  64.080  12.627  1.00  0.00     0.004 C 
ENDBRANCH  10  11
ENDBRANCH   9  10
ENDBRANCH   8   9
ENDBRANCH   7   8
ENDBRANCH   6   7
ENDBRANCH   5   6
ENDBRANCH   4   5
ENDBRANCH   3   4
ENDBRANCH   2   3
ENDBRANCH   1   2
BRANCH   1  13
ATOM     13  C   UNL     1      22.911  66.030  16.035  1.00  0.00     0.000 C 
BRANCH  13  14
ATOM     14  C   UNL     1      24.065  65.016  16.119  1.00  0.00     0.000 C 
BRANCH  14  15
ATOM     15  C   UNL     1      25.447  65.689  16.007  1.00  0.00     0.000 C 
BRANCH  15  16
ATOM     16  C   UNL     1      26.374  65.396  17.202  1.00  0.00     0.000 C 
BRANCH  16  17
ATOM     17  C   UNL     1      27.786  65.973  16.998  1.00  0.00     0.000 C 
BRANCH  17  18
ATOM     18  C   UNL     1      28.886  65.049  17.547  1.00  0.00     0.000 C 
BRANCH  18  19
ATOM     19  C   UNL     1      29.491  65.565  18.864  1.00  0.00     0.000 C 
BRANCH  19  20
ATOM     20  C   UNL     1      31.022  65.406  18.917  1.00  0.00     0.006 C 
BRANCH  20  21
ATOM     21  C   UNL     1      31.643  64.851  17.625  1.00  0.00     0.053 C 
BRANCH  21  22
ATOM     22  C   UNL     1      32.365  63.559  17.859  1.00  0.00     0.041 C 
ATOM     23  O   UNL     1      32.637  63.188  19.031  1.00  0.00    -0.550 OA
ATOM     24  O   UNL     1      32.765  62.780  16.781  1.00  0.00    -0.550 OA
ENDBRANCH  21  22
ENDBRANCH  20  21
ENDBRANCH  19  20
ENDBRANCH  18  19
ENDBRANCH  17  18
ENDBRANCH  16  17
ENDBRANCH  15  16
ENDBRANCH  14  15
ENDBRANCH  13  14
ENDBRANCH   1  13
TORSDOF 20
ENDMDL
MODEL 4
REMARK VINA RESULT:    -2.597      5.331     13.902
REMARK INTER + INTRA:          -6.678
REMARK INTER:                  -5.781
REMARK INTRA:                  -0.897
REMARK UNBOUND:                -1.045
REMARK SMILES CCCCCCCCCCCCCCCCCCCCCC(=O)[O-]
REMARK SMILES IDX 12 1 11 2 10 3 9 4 8 5 7 6 6 7 5 8 4 9 3 10 2 11 1 12 13 13
REMARK SMILES IDX 14 14 15 15 16 16 17 17 18 18 19 19 20 20 21 21 22 22 23 23
REMARK SMILES IDX 24 24
REMARK H PARENT
REMARK Flexibility Score: inf
ROOT
ATOM      1  C   UNL     1      22.267  65.463  15.551  1.00  0.00     0.000 C 
ENDROOT
BRANCH   1   2
ATOM      2  C   UNL     1      23.467  65.978  16.367  1.00  0.00     0.000 C 
BRANCH   2   3
ATOM      3  C   UNL     1      24.829  65.392  15.962  1.00  0.00     0.000 C 
BRANCH   3   4
ATOM      4  C   UNL     1      25.993  65.956  16.793  1.00  0.00    -0.000 C 
BRANCH   4   5
ATOM      5  C   UNL     1      27.317  65.272  16.418  1.00  0.00    -0.000 C 
BRANCH   5   6
ATOM      6  C   UNL     1      28.531  65.917  17.106  1.00  0.00    -0.000 C 
BRANCH   6   7
ATOM      7  C   UNL     1      29.036  65.104  18.307  1.00  0.00    -0.000 C 
BRANCH   7   8
ATOM      8  C   UNL     1      29.879  65.985  19.244  1.00  0.00    -0.000 C 
BRANCH   8   9
ATOM      9  C   UNL     1      31.238  65.355  19.592  1.00  0.00    -0.000 C 
BRANCH   9  10
ATOM     10  C   UNL     1      31.609  64.118  18.753  1.00  0.00    -0.000 C 
BRANCH  10  11
ATOM     11  C   UNL     1      32.530  64.434  17.557  1.00  0.00    -0.003 C 
ATOM     12  C   UNL     1      32.524  63.325  16.506  1.00  0.00     0.004 C 
ENDBRANCH  10  11
ENDBRANCH   9  10
ENDBRANCH   8   9
ENDBRANCH   7   8
ENDBRANCH   6   7
ENDBRANCH   5   6
ENDBRANCH   4   5
ENDBRANCH   3   4
ENDBRANCH   2   3
ENDBRANCH   1   2
BRANCH   1  13
ATOM     13  C   UNL     1      20.977  65.273  16.381  1.00  0.00     0.000 C 
BRANCH  13  14
ATOM     14  C   UNL     1      19.704  65.490  15.546  1.00  0.00     0.000 C 
BRANCH  14  15
ATOM     15  C   UNL     1      18.564  66.125  16.367  1.00  0.00     0.000 C 
BRANCH  15  16
ATOM     16  C   UNL     1      17.168  65.905  15.756  1.00  0.00     0.000 C 
BRANCH  16  17
ATOM     17  C   UNL     1      16.142  65.433  16.801  1.00  0.00     0.000 C 
BRANCH  17  18
ATOM     18  C   UNL     1      14.717  65.923  16.495  1.00  0.00     0.000 C 
BRANCH  18  19
ATOM     19  C   UNL     1      13.673  64.794  16.571  1.00  0.00     0.000 C 
BRANCH  19  20
ATOM     20  C   UNL     1      13.613  63.954  15.282  1.00  0.00     0.006 C 
BRANCH  20  21
ATOM     21  C   UNL     1      13.219  64.750  14.028  1.00  0.00     0.053 C 
BRANCH  21  22
ATOM     22  C   UNL     1      14.000  64.323  12.823  1.00  0.00     0.041 C 
ATOM     23  O   UNL     1      15.198  64.682  12.684  1.00  0.00    -0.550 OA
ATOM     24  O   UNL     1      13.396  63.551  11.839  1.00  0.00    -0.550 OA
ENDBRANCH  21  22
ENDBRANCH  20  21
ENDBRANCH  19  20
ENDBRANCH  18  19
ENDBRANCH  17  18
ENDBRANCH  16  17
ENDBRANCH  15  16
ENDBRANCH  14  15
ENDBRANCH  13  14
ENDBRANCH   1  13
TORSDOF 20
ENDMDL
MODEL 5
REMARK VINA RESULT:    -2.294      5.567     13.870
REMARK INTER + INTRA:          -6.021
REMARK INTER:                  -5.348
REMARK INTRA:                  -0.673
REMARK UNBOUND:                -1.045
REMARK SMILES CCCCCCCCCCCCCCCCCCCCCC(=O)[O-]
REMARK SMILES IDX 12 1 11 2 10 3 9 4 8 5 7 6 6 7 5 8 4 9 3 10 2 11 1 12 13 13
REMARK SMILES IDX 14 14 15 15 16 16 17 17 18 18 19 19 20 20 21 21 22 22 23 23
REMARK SMILES IDX 24 24
REMARK H PARENT
REMARK Flexibility Score: inf
ROOT
ATOM      1  C   UNL     1      24.613  65.171  15.962  1.00  0.00     0.000 C 
ENDROOT
BRANCH   1   2
ATOM      2  C   UNL     1      25.880  66.047  15.951  1.00  0.00     0.000 C 
BRANCH   2   3
ATOM      3  C   UNL     1      26.826  65.837  17.145  1.00  0.00     0.000 C 
BRANCH   3   4
ATOM      4  C   UNL     1      28.288  65.633  16.719  1.00  0.00    -0.000 C 
BRANCH   4   5
ATOM      5  C   UNL     1      29.247  65.950  17.877  1.00  0.00    -0.000 C 
BRANCH   5   6
ATOM      6  C   UNL     1      29.757  64.685  18.586  1.00  0.00    -0.000 C 
BRANCH   6   7
ATOM      7  C   UNL     1      31.289  64.572  18.574  1.00  0.00    -0.000 C 
BRANCH   7   8
ATOM      8  C   UNL     1      31.831  64.680  17.140  1.00  0.00    -0.000 C 
BRANCH   8   9
ATOM      9  C   UNL     1      32.401  63.351  16.616  1.00  0.00    -0.000 C 
BRANCH   9  10
ATOM     10  C   UNL     1      32.839  63.376  15.140  1.00  0.00    -0.000 C 
BRANCH  10  11
ATOM     11  C   UNL     1      31.673  63.580  14.151  1.00  0.00    -0.003 C 
ATOM     12  C   UNL     1      30.330  63.138  14.732  1.00  0.00     0.004 C 
ENDBRANCH  10  11
ENDBRANCH   9  10
ENDBRANCH   8   9
ENDBRANCH   7   8
ENDBRANCH   6   7
ENDBRANCH   5   6
ENDBRANCH   4   5
ENDBRANCH   3   4
ENDBRANCH   2   3
ENDBRANCH   1   2
BRANCH   1  13
ATOM     13  C   UNL     1      23.321  65.939  16.321  1.00  0.00     0.000 C 
BRANCH  13  14
ATOM     14  C   UNL     1      22.050  65.172  15.919  1.00  0.00     0.000 C 
BRANCH  14  15
ATOM     15  C   UNL     1      20.918  66.111  15.461  1.00  0.00     0.000 C 
BRANCH  15  16
ATOM     16  C   UNL     1      19.546  65.419  15.358  1.00  0.00     0.000 C 
BRANCH  16  17
ATOM     17  C   UNL     1      18.538  65.968  16.383  1.00  0.00     0.000 C 
BRANCH  17  18
ATOM     18  C   UNL     1      17.124  66.120  15.800  1.00  0.00     0.000 C 
BRANCH  18  19
ATOM     19  C   UNL     1      16.060  65.366  16.617  1.00  0.00     0.000 C 
BRANCH  19  20
ATOM     20  C   UNL     1      14.630  65.858  16.328  1.00  0.00     0.006 C 
BRANCH  20  21
ATOM     21  C   UNL     1      14.194  65.701  14.863  1.00  0.00     0.053 C 
BRANCH  21  22
ATOM     22  C   UNL     1      13.781  64.296  14.547  1.00  0.00     0.041 C 
ATOM     23  O   UNL     1      13.450  63.510  15.473  1.00  0.00    -0.550 OA
ATOM     24  O   UNL     1      13.790  63.845  13.233  1.00  0.00    -0.550 OA
ENDBRANCH  21  22
ENDBRANCH  20  21
ENDBRANCH  19  20
ENDBRANCH  18  19
ENDBRANCH  17  18
ENDBRANCH  16  17
ENDBRANCH  15  16
ENDBRANCH  14  15
ENDBRANCH  13  14
ENDBRANCH   1  13
TORSDOF 20
ENDMDL
MODEL 6
REMARK VINA RESULT:    -2.239      5.669     14.175
REMARK INTER + INTRA:          -5.901
REMARK INTER:                  -4.931
REMARK INTRA:                  -0.970
REMARK UNBOUND:                -1.045
REMARK SMILES CCCCCCCCCCCCCCCCCCCCCC(=O)[O-]
REMARK SMILES IDX 12 1 11 2 10 3 9 4 8 5 7 6 6 7 5 8 4 9 3 10 2 11 1 12 13 13
REMARK SMILES IDX 14 14 15 15 16 16 17 17 18 18 19 19 20 20 21 21 22 22 23 23
REMARK SMILES IDX 24 24
REMARK H PARENT
REMARK Flexibility Score: inf
ROOT
ATOM      1  C   UNL     1      24.572  65.147  15.934  1.00  0.00     0.000 C 
ENDROOT
BRANCH   1   2
ATOM      2  C   UNL     1      25.705  65.835  16.718  1.00  0.00     0.000 C 
BRANCH   2   3
ATOM      3  C   UNL     1      26.819  64.896  17.211  1.00  0.00     0.000 C 
BRANCH   3   4
ATOM      4  C   UNL     1      27.888  64.625  16.141  1.00  0.00    -0.000 C 
BRANCH   4   5
ATOM      5  C   UNL     1      28.982  65.703  16.172  1.00  0.00    -0.000 C 
BRANCH   5   6
ATOM      6  C   UNL     1      29.836  65.643  17.449  1.00  0.00    -0.000 C 
BRANCH   6   7
ATOM      7  C   UNL     1      31.271  65.167  17.183  1.00  0.00    -0.000 C 
BRANCH   7   8
ATOM      8  C   UNL     1      32.143  65.342  18.437  1.00  0.00    -0.000 C 
BRANCH   8   9
ATOM      9  C   UNL     1      31.339  65.233  19.743  1.00  0.00    -0.000 C 
BRANCH   9  10
ATOM     10  C   UNL     1      31.644  63.980  20.585  1.00  0.00    -0.000 C 
BRANCH  10  11
ATOM     11  C   UNL     1      32.463  62.911  19.833  1.00  0.00    -0.003 C 
ATOM     12  C   UNL     1      32.383  61.538  20.499  1.00  0.00     0.004 C 
ENDBRANCH  10  11
ENDBRANCH   9  10
ENDBRANCH   8   9
ENDBRANCH   7   8
ENDBRANCH   6   7
ENDBRANCH   5   6
ENDBRANCH   4   5
ENDBRANCH   3   4
ENDBRANCH   2   3
ENDBRANCH   1   2
BRANCH   1  13
ATOM     13  C   UNL     1      23.241  65.932  15.933  1.00  0.00     0.000 C 
BRANCH  13  14
ATOM     14  C   UNL     1      22.065  65.095  16.465  1.00  0.00     0.000 C 
BRANCH  14  15
ATOM     15  C   UNL     1      20.700  65.648  16.010  1.00  0.00     0.000 C 
BRANCH  15  16
ATOM     16  C   UNL     1      20.387  65.375  14.527  1.00  0.00     0.000 C 
BRANCH  16  17
ATOM     17  C   UNL     1      19.124  66.115  14.053  1.00  0.00     0.000 C 
BRANCH  17  18
ATOM     18  C   UNL     1      17.830  65.369  14.418  1.00  0.00     0.000 C 
BRANCH  18  19
ATOM     19  C   UNL     1      16.565  66.125  13.975  1.00  0.00     0.000 C 
BRANCH  19  20
ATOM     20  C   UNL     1      16.326  66.044  12.456  1.00  0.00     0.006 C 
BRANCH  20  21
ATOM     21  C   UNL     1      14.847  66.106  12.046  1.00  0.00     0.053 C 
BRANCH  21  22
ATOM     22  C   UNL     1      14.025  65.068  12.747  1.00  0.00     0.041 C 
ATOM     23  O   UNL     1      14.260  63.845  12.566  1.00  0.00    -0.550 OA
ATOM     24  O   UNL     1      12.981  65.451  13.579  1.00  0.00    -0.550 OA
ENDBRANCH  21  22
ENDBRANCH  20  21
ENDBRANCH  19  20
ENDBRANCH  18  19
ENDBRANCH  17  18
ENDBRANCH  16  17
ENDBRANCH  15  16
ENDBRANCH  14  15
ENDBRANCH  13  14
ENDBRANCH   1  13
TORSDOF 20
ENDMDL
MODEL 7
REMARK VINA RESULT:    -2.238      5.610     14.438
REMARK INTER + INTRA:          -5.900
REMARK INTER:                  -5.258
REMARK INTRA:                  -0.641
REMARK UNBOUND:                -1.045
REMARK SMILES CCCCCCCCCCCCCCCCCCCCCC(=O)[O-]
REMARK SMILES IDX 12 1 11 2 10 3 9 4 8 5 7 6 6 7 5 8 4 9 3 10 2 11 1 12 13 13
REMARK SMILES IDX 14 14 15 15 16 16 17 17 18 18 19 19 20 20 21 21 22 22 23 23
REMARK SMILES IDX 24 24
REMARK H PARENT
REMARK Flexibility Score: inf
ROOT
ATOM      1  C   UNL     1      24.503  65.221  16.010  1.00  0.00     0.000 C 
ENDROOT
BRANCH   1   2
ATOM      2  C   UNL     1      25.773  66.091  16.014  1.00  0.00     0.000 C 
BRANCH   2   3
ATOM      3  C   UNL     1      26.757  65.800  17.160  1.00  0.00     0.000 C 
BRANCH   3   4
ATOM      4  C   UNL     1      28.213  65.686  16.683  1.00  0.00    -0.000 C 
BRANCH   4   5
ATOM      5  C   UNL     1      29.191  66.034  17.815  1.00  0.00    -0.000 C 
BRANCH   5   6
ATOM      6  C   UNL     1      29.769  64.786  18.503  1.00  0.00    -0.000 C 
BRANCH   6   7
ATOM      7  C   UNL     1      31.304  64.743  18.467  1.00  0.00    -0.000 C 
BRANCH   7   8
ATOM      8  C   UNL     1      31.870  64.370  19.846  1.00  0.00    -0.000 C 
BRANCH   8   9
ATOM      9  C   UNL     1      32.423  65.584  20.612  1.00  0.00    -0.000 C 
BRANCH   9  10
ATOM     10  C   UNL     1      32.792  65.305  22.081  1.00  0.00    -0.000 C 
BRANCH  10  11
ATOM     11  C   UNL     1      31.570  65.131  23.005  1.00  0.00    -0.003 C 
ATOM     12  C   UNL     1      30.361  65.937  22.533  1.00  0.00     0.004 C 
ENDBRANCH  10  11
ENDBRANCH   9  10
ENDBRANCH   8   9
ENDBRANCH   7   8
ENDBRANCH   6   7
ENDBRANCH   5   6
ENDBRANCH   4   5
ENDBRANCH   3   4
ENDBRANCH   2   3
ENDBRANCH   1   2
BRANCH   1  13
ATOM     13  C   UNL     1      23.213  65.990  16.375  1.00  0.00     0.000 C 
BRANCH  13  14
ATOM     14  C   UNL     1      21.939  65.205  16.019  1.00  0.00     0.000 C 
BRANCH  14  15
ATOM     15  C   UNL     1      20.799  66.123  15.539  1.00  0.00     0.000 C 
BRANCH  15  16
ATOM     16  C   UNL     1      19.443  65.405  15.405  1.00  0.00     0.000 C 
BRANCH  16  17
ATOM     17  C   UNL     1      18.388  65.965  16.374  1.00  0.00     0.000 C 
BRANCH  17  18
ATOM     18  C   UNL     1      17.007  66.125  15.717  1.00  0.00     0.000 C 
BRANCH  18  19
ATOM     19  C   UNL     1      15.890  65.419  16.506  1.00  0.00     0.000 C 
BRANCH  19  20
ATOM     20  C   UNL     1      14.487  65.940  16.143  1.00  0.00     0.006 C 
BRANCH  20  21
ATOM     21  C   UNL     1      14.137  65.822  14.652  1.00  0.00     0.053 C 
BRANCH  21  22
ATOM     22  C   UNL     1      13.665  64.446  14.293  1.00  0.00     0.041 C 
ATOM     23  O   UNL     1      13.202  63.683  15.181  1.00  0.00    -0.550 OA
ATOM     24  O   UNL     1      13.764  63.995  12.983  1.00  0.00    -0.550 OA
ENDBRANCH  21  22
ENDBRANCH  20  21
ENDBRANCH  19  20
ENDBRANCH  18  19
ENDBRANCH  17  18
ENDBRANCH  16  17
ENDBRANCH  15  16
ENDBRANCH  14  15
ENDBRANCH  13  14
ENDBRANCH   1  13
TORSDOF 20
ENDMDL
MODEL 8
REMARK VINA RESULT:    -2.190      1.920      5.171
REMARK INTER + INTRA:          -5.795
REMARK INTER:                  -5.138
REMARK INTRA:                  -0.657
REMARK UNBOUND:                -1.045
REMARK SMILES CCCCCCCCCCCCCCCCCCCCCC(=O)[O-]
REMARK SMILES IDX 12 1 11 2 10 3 9 4 8 5 7 6 6 7 5 8 4 9 3 10 2 11 1 12 13 13
REMARK SMILES IDX 14 14 15 15 16 16 17 17 18 18 19 19 20 20 21 21 22 22 23 23
REMARK SMILES IDX 24 24
REMARK H PARENT
REMARK Flexibility Score: inf
ROOT
ATOM      1  C   UNL     1      25.281  65.894  16.630  1.00  0.00     0.000 C 
ENDROOT
BRANCH   1   2
ATOM      2  C   UNL     1      24.135  65.012  16.101  1.00  0.00     0.000 C 
BRANCH   2   3
ATOM      3  C   UNL     1      22.905  65.782  15.591  1.00  0.00     0.000 C 
BRANCH   3   4
ATOM      4  C   UNL     1      21.608  65.376  16.310  1.00  0.00    -0.000 C 
BRANCH   4   5
ATOM      5  C   UNL     1      20.376  65.754  15.473  1.00  0.00    -0.000 C 
BRANCH   5   6
ATOM      6  C   UNL     1      19.149  66.081  16.340  1.00  0.00    -0.000 C 
BRANCH   6   7
ATOM      7  C   UNL     1      17.826  65.656  15.685  1.00  0.00    -0.000 C 
BRANCH   7   8
ATOM      8  C   UNL     1      16.646  65.889  16.641  1.00  0.00    -0.000 C 
BRANCH   8   9
ATOM      9  C   UNL     1      15.544  64.826  16.499  1.00  0.00    -0.000 C 
BRANCH   9  10
ATOM     10  C   UNL     1      14.396  65.211  15.547  1.00  0.00    -0.000 C 
BRANCH  10  11
ATOM     11  C   UNL     1      13.457  64.037  15.201  1.00  0.00    -0.003 C 
ATOM     12  C   UNL     1      13.243  63.885  13.696  1.00  0.00     0.004 C 
ENDBRANCH  10  11
ENDBRANCH   9  10
ENDBRANCH   8   9
ENDBRANCH   7   8
ENDBRANCH   6   7
ENDBRANCH   5   6
ENDBRANCH   4   5
ENDBRANCH   3   4
ENDBRANCH   2   3
ENDBRANCH   1   2
BRANCH   1  13
ATOM     13  C   UNL     1      26.637  65.161  16.743  1.00  0.00     0.000 C 
BRANCH  13  14
ATOM     14  C   UNL     1      27.801  66.122  17.043  1.00  0.00     0.000 C 
BRANCH  14  15
ATOM     15  C   UNL     1      29.144  65.383  17.202  1.00  0.00     0.000 C 
BRANCH  15  16
ATOM     16  C   UNL     1      29.864  65.693  18.528  1.00  0.00     0.000 C 
BRANCH  16  17
ATOM     17  C   UNL     1      31.342  66.063  18.316  1.00  0.00     0.000 C 
BRANCH  17  18
ATOM     18  C   UNL     1      32.154  66.028  19.622  1.00  0.00     0.000 C 
BRANCH  18  19
ATOM     19  C   UNL     1      31.607  65.004  20.633  1.00  0.00     0.000 C 
BRANCH  19  20
ATOM     20  C   UNL     1      32.579  63.834  20.876  1.00  0.00     0.006 C 
BRANCH  20  21
ATOM     21  C   UNL     1      32.287  62.585  20.029  1.00  0.00     0.053 C 
BRANCH  21  22
ATOM     22  C   UNL     1      32.552  61.319  20.785  1.00  0.00     0.041 C 
ATOM     23  O   UNL     1      32.631  61.336  22.041  1.00  0.00    -0.550 OA
ATOM     24  O   UNL     1      32.743  60.126  20.100  1.00  0.00    -0.550 OA
ENDBRANCH  21  22
ENDBRANCH  20  21
ENDBRANCH  19  20
ENDBRANCH  18  19
ENDBRANCH  17  18
ENDBRANCH  16  17
ENDBRANCH  15  16
ENDBRANCH  14  15
ENDBRANCH  13  14
ENDBRANCH   1  13
TORSDOF 20
ENDMDL
MODEL 9
REMARK VINA RESULT:    -1.857      2.178      6.241
REMARK INTER + INTRA:          -5.072
REMARK INTER:                  -4.323
REMARK INTRA:                  -0.749
REMARK UNBOUND:                -1.045
REMARK SMILES CCCCCCCCCCCCCCCCCCCCCC(=O)[O-]
REMARK SMILES IDX 12 1 11 2 10 3 9 4 8 5 7 6 6 7 5 8 4 9 3 10 2 11 1 12 13 13
REMARK SMILES IDX 14 14 15 15 16 16 17 17 18 18 19 19 20 20 21 21 22 22 23 23
REMARK SMILES IDX 24 24
REMARK H PARENT
REMARK Flexibility Score: inf
ROOT
ATOM      1  C   UNL     1      26.798  64.615  16.646  1.00  0.00     0.000 C 
ENDROOT
BRANCH   1   2
ATOM      2  C   UNL     1      25.604  64.837  15.699  1.00  0.00     0.000 C 
BRANCH   2   3
ATOM      3  C   UNL     1      24.365  65.473  16.352  1.00  0.00     0.000 C 
BRANCH   3   4
ATOM      4  C   UNL     1      23.046  64.953  15.761  1.00  0.00    -0.000 C 
BRANCH   4   5
ATOM      5  C   UNL     1      21.864  65.832  16.200  1.00  0.00    -0.000 C 
BRANCH   5   6
ATOM      6  C   UNL     1      20.616  65.625  15.326  1.00  0.00    -0.000 C 
BRANCH   6   7
ATOM      7  C   UNL     1      19.329  66.125  15.997  1.00  0.00    -0.000 C 
BRANCH   7   8
ATOM      8  C   UNL     1      18.470  64.943  16.476  1.00  0.00    -0.000 C 
BRANCH   8   9
ATOM      9  C   UNL     1      17.115  65.386  17.053  1.00  0.00    -0.000 C 
BRANCH   9  10
ATOM     10  C   UNL     1      16.180  66.078  16.044  1.00  0.00    -0.000 C 
BRANCH  10  11
ATOM     11  C   UNL     1      14.904  65.271  15.727  1.00  0.00    -0.003 C 
ATOM     12  C   UNL     1      13.784  65.532  16.734  1.00  0.00     0.004 C 
ENDBRANCH  10  11
ENDBRANCH   9  10
ENDBRANCH   8   9
ENDBRANCH   7   8
ENDBRANCH   6   7
ENDBRANCH   5   6
ENDBRANCH   4   5
ENDBRANCH   3   4
ENDBRANCH   2   3
ENDBRANCH   1   2
BRANCH   1  13
ATOM     13  C   UNL     1      27.965  65.604  16.428  1.00  0.00     0.000 C 
BRANCH  13  14
ATOM     14  C   UNL     1      28.694  65.951  17.738  1.00  0.00     0.000 C 
BRANCH  14  15
ATOM     15  C   UNL     1      30.212  66.123  17.536  1.00  0.00     0.000 C 
BRANCH  15  16
ATOM     16  C   UNL     1      30.978  64.789  17.452  1.00  0.00     0.000 C 
BRANCH  16  17
ATOM     17  C   UNL     1      32.148  64.726  18.449  1.00  0.00     0.000 C 
BRANCH  17  18
ATOM     18  C   UNL     1      31.916  63.698  19.570  1.00  0.00     0.000 C 
BRANCH  18  19
ATOM     19  C   UNL     1      33.050  63.689  20.610  1.00  0.00     0.000 C 
BRANCH  19  20
ATOM     20  C   UNL     1      32.606  64.245  21.976  1.00  0.00     0.006 C 
BRANCH  20  21
ATOM     21  C   UNL     1      31.889  65.602  21.902  1.00  0.00     0.053 C 
BRANCH  21  22
ATOM     22  C   UNL     1      30.566  65.577  22.605  1.00  0.00     0.041 C 
ATOM     23  O   UNL     1      30.489  65.175  23.796  1.00  0.00    -0.550 OA
ATOM     24  O   UNL     1      29.415  65.970  21.936  1.00  0.00    -0.550 OA
ENDBRANCH  21  22
ENDBRANCH  20  21
ENDBRANCH  19  20
ENDBRANCH  18  19
ENDBRANCH  17  18
ENDBRANCH  16  17
ENDBRANCH  15  16
ENDBRANCH  14  15
ENDBRANCH  13  14
ENDBRANCH   1  13
TORSDOF 20
ENDMDL
