MODEL 1
REMARK VINA RESULT:    -5.428      0.000      0.000
REMARK INTER + INTRA:          -9.380
REMARK INTER:                  -7.966
REMARK INTRA:                  -1.414
REMARK UNBOUND:                -1.414
REMARK SMILES Cc1cc2c(C(C)C)c(O)c(O)c(C=O)c2c(O)c1-c1c(C)cc2c(C(C)C)c(O)c(O)c(C=O)c2c1O
REMARK SMILES IDX 1 1 2 2 3 3 4 4 16 5 13 6 11 7 9 8 5 9 17 10 19 11 20 12
REMARK SMILES IDX 37 13 21 14 36 15 23 16 22 17 24 18 33 19 25 20 31 21 29 22
REMARK SMILES IDX 38 23 34 25 35 26 26 27 27 28 28 29 32 30 30 32 18 34 6 36
REMARK SMILES IDX 7 37 8 38 14 39 15 40 10 41 12 43
REMARK H PARENT 38 24 32 31 30 33 18 35 10 42 12 44
REMARK Flexibility Score: inf
ROOT
ATOM      1  C   UNL     1      51.998  53.377  50.786  1.00  0.00     0.045 C 
ATOM      2  C   UNL     1      53.057  53.458  49.713  1.00  0.00    -0.039 A 
ATOM      3  C   UNL     1      52.859  54.298  48.619  1.00  0.00     0.013 A 
ATOM      4  C   UNL     1      53.816  54.422  47.589  1.00  0.00    -0.006 A 
ATOM      5  C   UNL     1      54.971  53.583  47.618  1.00  0.00     0.039 A 
ATOM      6  C   UNL     1      55.848  53.581  46.490  1.00  0.00     0.072 A 
ATOM      7  C   UNL     1      55.536  54.360  45.357  1.00  0.00     0.169 A 
ATOM      8  C   UNL     1      54.422  55.204  45.360  1.00  0.00     0.162 A 
ATOM      9  C   UNL     1      53.619  55.336  46.510  1.00  0.00     0.008 A 
ATOM     10  C   UNL     1      55.189  52.752  48.761  1.00  0.00     0.132 A 
ATOM     11  C   UNL     1      54.240  52.707  49.805  1.00  0.00     0.031 A 
ENDROOT
BRANCH  11  12
ATOM     12  C   UNL     1      54.471  51.840  50.991  1.00  0.00     0.031 A 
ATOM     13  C   UNL     1      54.016  50.504  50.992  1.00  0.00     0.132 A 
ATOM     14  C   UNL     1      55.191  52.339  52.089  1.00  0.00    -0.039 A 
ATOM     15  C   UNL     1      54.251  49.659  52.120  1.00  0.00     0.039 A 
ATOM     16  C   UNL     1      55.419  51.519  53.195  1.00  0.00     0.013 A 
ATOM     17  C   UNL     1      55.730  53.749  52.091  1.00  0.00     0.045 C 
ATOM     18  C   UNL     1      54.930  50.196  53.256  1.00  0.00    -0.006 A 
ATOM     19  C   UNL     1      53.868  48.283  52.136  1.00  0.00     0.072 A 
ATOM     20  C   UNL     1      55.145  49.385  54.412  1.00  0.00     0.008 A 
ATOM     21  C   UNL     1      54.277  47.453  53.196  1.00  0.00     0.169 A 
ATOM     22  C   UNL     1      54.927  47.994  54.309  1.00  0.00     0.162 A 
BRANCH  13  23
ATOM     23  O   UNL     1      53.356  50.008  49.861  1.00  0.00    -0.507 OA
ATOM     24  H   UNL     1      52.469  49.523  49.890  1.00  0.00     0.293 HD
ENDBRANCH  13  23
BRANCH  19  25
ATOM     25  C   UNL     1      53.061  47.671  51.064  1.00  0.00     0.264 C 
ATOM     26  O   UNL     1      53.605  46.939  50.196  1.00  0.00    -0.298 OA
ENDBRANCH  19  25
BRANCH  20  27
ATOM     27  C   UNL     1      55.623  49.984  55.746  1.00  0.00     0.017 C 
ATOM     28  C   UNL     1      57.066  49.574  56.047  1.00  0.00     0.012 C 
ATOM     29  C   UNL     1      54.691  49.666  56.931  1.00  0.00     0.012 C 
ENDBRANCH  20  27
BRANCH  21  30
ATOM     30  O   UNL     1      54.027  46.076  53.183  1.00  0.00    -0.504 OA
ATOM     31  H   UNL     1      54.345  45.450  52.455  1.00  0.00     0.293 HD
ENDBRANCH  21  30
BRANCH  22  32
ATOM     32  O   UNL     1      55.367  47.143  55.326  1.00  0.00    -0.504 OA
ATOM     33  H   UNL     1      56.298  46.744  55.347  1.00  0.00     0.293 HD
ENDBRANCH  22  32
ENDBRANCH  11  12
BRANCH  10  34
ATOM     34  O   UNL     1      56.343  51.966  48.855  1.00  0.00    -0.507 OA
ATOM     35  H   UNL     1      56.626  51.290  48.157  1.00  0.00     0.293 HD
ENDBRANCH  10  34
BRANCH   9  36
ATOM     36  C   UNL     1      52.558  56.449  46.576  1.00  0.00     0.017 C 
ATOM     37  C   UNL     1      51.594  56.361  45.388  1.00  0.00     0.012 C 
ATOM     38  C   UNL     1      53.157  57.862  46.708  1.00  0.00     0.012 C 
ENDBRANCH   9  36
BRANCH   6  39
ATOM     39  C   UNL     1      57.070  52.754  46.449  1.00  0.00     0.264 C 
ATOM     40  O   UNL     1      57.092  51.677  45.797  1.00  0.00    -0.298 OA
ENDBRANCH   6  39
BRANCH   8  41
ATOM     41  O   UNL     1      54.108  55.926  44.205  1.00  0.00    -0.504 OA
ATOM     42  H   UNL     1      54.605  56.760  43.922  1.00  0.00     0.293 HD
ENDBRANCH   8  41
BRANCH   7  43
ATOM     43  O   UNL     1      56.341  54.341  44.211  1.00  0.00    -0.504 OA
ATOM     44  H   UNL     1      56.259  53.657  43.471  1.00  0.00     0.293 HD
ENDBRANCH   7  43
TORSDOF 11
ENDMDL
MODEL 2
REMARK VINA RESULT:    -5.393      0.381      8.950
REMARK INTER + INTRA:          -9.329
REMARK INTER:                  -8.053
REMARK INTRA:                  -1.277
REMARK UNBOUND:                -1.414
REMARK SMILES Cc1cc2c(C(C)C)c(O)c(O)c(C=O)c2c(O)c1-c1c(C)cc2c(C(C)C)c(O)c(O)c(C=O)c2c1O
REMARK SMILES IDX 1 1 2 2 3 3 4 4 16 5 13 6 11 7 9 8 5 9 17 10 19 11 20 12
REMARK SMILES IDX 37 13 21 14 36 15 23 16 22 17 24 18 33 19 25 20 31 21 29 22
REMARK SMILES IDX 38 23 34 25 35 26 26 27 27 28 28 29 32 30 30 32 18 34 6 36
REMARK SMILES IDX 7 37 8 38 14 39 15 40 10 41 12 43
REMARK H PARENT 38 24 32 31 30 33 18 35 10 42 12 44
REMARK Flexibility Score: inf
ROOT
ATOM      1  C   UNL     1      55.593  53.685  52.168  1.00  0.00     0.045 C 
ATOM      2  C   UNL     1      55.112  52.257  52.071  1.00  0.00    -0.039 A 
ATOM      3  C   UNL     1      55.292  51.401  53.156  1.00  0.00     0.013 A 
ATOM      4  C   UNL     1      54.857  50.057  53.128  1.00  0.00    -0.006 A 
ATOM      5  C   UNL     1      54.314  49.535  51.914  1.00  0.00     0.039 A 
ATOM      6  C   UNL     1      54.040  48.136  51.831  1.00  0.00     0.072 A 
ATOM      7  C   UNL     1      54.353  47.293  52.916  1.00  0.00     0.169 A 
ATOM      8  C   UNL     1      54.848  47.825  54.110  1.00  0.00     0.162 A 
ATOM      9  C   UNL     1      54.995  49.218  54.274  1.00  0.00     0.008 A 
ATOM     10  C   UNL     1      54.097  50.427  50.818  1.00  0.00     0.132 A 
ATOM     11  C   UNL     1      54.483  51.781  50.909  1.00  0.00     0.031 A 
ENDROOT
BRANCH  11  12
ATOM     12  C   UNL     1      54.255  52.705  49.766  1.00  0.00     0.031 A 
ATOM     13  C   UNL     1      55.209  52.798  48.729  1.00  0.00     0.132 A 
ATOM     14  C   UNL     1      53.062  53.444  49.693  1.00  0.00    -0.039 A 
ATOM     15  C   UNL     1      54.988  53.668  47.618  1.00  0.00     0.039 A 
ATOM     16  C   UNL     1      52.845  54.298  48.612  1.00  0.00     0.013 A 
ATOM     17  C   UNL     1      52.006  53.323  50.765  1.00  0.00     0.045 C 
ATOM     18  C   UNL     1      53.801  54.461  47.586  1.00  0.00    -0.006 A 
ATOM     19  C   UNL     1      55.894  53.742  46.516  1.00  0.00     0.072 A 
ATOM     20  C   UNL     1      53.572  55.367  46.506  1.00  0.00     0.008 A 
ATOM     21  C   UNL     1      55.545  54.480  45.370  1.00  0.00     0.169 A 
ATOM     22  C   UNL     1      54.387  55.265  45.357  1.00  0.00     0.162 A 
BRANCH  13  23
ATOM     23  O   UNL     1      56.361  52.005  48.790  1.00  0.00    -0.507 OA
ATOM     24  H   UNL     1      56.874  51.815  49.641  1.00  0.00     0.293 HD
ENDBRANCH  13  23
BRANCH  19  25
ATOM     25  C   UNL     1      57.199  53.055  46.513  1.00  0.00     0.264 C 
ATOM     26  O   UNL     1      57.359  51.996  45.850  1.00  0.00    -0.298 OA
ENDBRANCH  19  25
BRANCH  20  27
ATOM     27  C   UNL     1      52.459  56.426  46.557  1.00  0.00     0.017 C 
ATOM     28  C   UNL     1      51.575  56.356  45.309  1.00  0.00     0.012 C 
ATOM     29  C   UNL     1      52.981  57.857  46.793  1.00  0.00     0.012 C 
ENDBRANCH  20  27
BRANCH  21  30
ATOM     30  O   UNL     1      56.350  54.475  44.225  1.00  0.00    -0.504 OA
ATOM     31  H   UNL     1      56.026  54.745  43.305  1.00  0.00     0.293 HD
ENDBRANCH  21  30
BRANCH  22  32
ATOM     32  O   UNL     1      54.036  55.949  44.191  1.00  0.00    -0.504 OA
ATOM     33  H   UNL     1      53.821  56.939  44.177  1.00  0.00     0.293 HD
ENDBRANCH  22  32
ENDBRANCH  11  12
BRANCH  10  34
ATOM     34  O   UNL     1      53.505  49.965  49.637  1.00  0.00    -0.507 OA
ATOM     35  H   UNL     1      53.895  49.233  49.057  1.00  0.00     0.293 HD
ENDBRANCH  10  34
BRANCH   9  36
ATOM     36  C   UNL     1      55.299  49.794  55.668  1.00  0.00     0.017 C 
ATOM     37  C   UNL     1      54.204  50.770  56.110  1.00  0.00     0.012 C 
ATOM     38  C   UNL     1      56.697  50.432  55.778  1.00  0.00     0.012 C 
ENDBRANCH   9  36
BRANCH   6  39
ATOM     39  C   UNL     1      53.464  47.522  50.618  1.00  0.00     0.264 C 
ATOM     40  O   UNL     1      54.201  46.909  49.801  1.00  0.00    -0.298 OA
ENDBRANCH   6  39
BRANCH   8  41
ATOM     41  O   UNL     1      55.199  46.961  55.152  1.00  0.00    -0.504 OA
ATOM     42  H   UNL     1      54.645  46.155  55.411  1.00  0.00     0.293 HD
ENDBRANCH   8  41
BRANCH   7  43
ATOM     43  O   UNL     1      54.151  45.908  52.851  1.00  0.00    -0.504 OA
ATOM     44  H   UNL     1      54.833  45.220  53.139  1.00  0.00     0.293 HD
ENDBRANCH   7  43
TORSDOF 11
ENDMDL
MODEL 3
REMARK VINA RESULT:    -4.858      2.523      8.553
REMARK INTER + INTRA:          -8.544
REMARK INTER:                  -7.252
REMARK INTRA:                  -1.292
REMARK UNBOUND:                -1.414
REMARK SMILES Cc1cc2c(C(C)C)c(O)c(O)c(C=O)c2c(O)c1-c1c(C)cc2c(C(C)C)c(O)c(O)c(C=O)c2c1O
REMARK SMILES IDX 1 1 2 2 3 3 4 4 16 5 13 6 11 7 9 8 5 9 17 10 19 11 20 12
REMARK SMILES IDX 37 13 21 14 36 15 23 16 22 17 24 18 33 19 25 20 31 21 29 22
REMARK SMILES IDX 38 23 34 25 35 26 26 27 27 28 28 29 32 30 30 32 18 34 6 36
REMARK SMILES IDX 7 37 8 38 14 39 15 40 10 41 12 43
REMARK H PARENT 38 24 32 31 30 33 18 35 10 42 12 44
REMARK Flexibility Score: inf
ROOT
ATOM      1  C   UNL     1      51.588  51.801  50.704  1.00  0.00     0.045 C 
ATOM      2  C   UNL     1      53.018  51.320  50.770  1.00  0.00    -0.039 A 
ATOM      3  C   UNL     1      53.276  49.979  51.049  1.00  0.00     0.013 A 
ATOM      4  C   UNL     1      54.592  49.470  51.116  1.00  0.00    -0.006 A 
ATOM      5  C   UNL     1      55.688  50.377  50.999  1.00  0.00     0.039 A 
ATOM      6  C   UNL     1      57.009  49.893  51.243  1.00  0.00     0.072 A 
ATOM      7  C   UNL     1      57.205  48.555  51.640  1.00  0.00     0.169 A 
ATOM      8  C   UNL     1      56.125  47.671  51.713  1.00  0.00     0.162 A 
ATOM      9  C   UNL     1      54.829  48.080  51.341  1.00  0.00     0.008 A 
ATOM     10  C   UNL     1      55.419  51.744  50.675  1.00  0.00     0.132 A 
ATOM     11  C   UNL     1      54.089  52.201  50.548  1.00  0.00     0.031 A 
ENDROOT
BRANCH  11  12
ATOM     12  C   UNL     1      53.814  53.623  50.211  1.00  0.00     0.031 A 
ATOM     13  C   UNL     1      53.692  54.021  48.862  1.00  0.00     0.132 A 
ATOM     14  C   UNL     1      53.622  54.559  51.242  1.00  0.00    -0.039 A 
ATOM     15  C   UNL     1      53.409  55.382  48.532  1.00  0.00     0.039 A 
ATOM     16  C   UNL     1      53.349  55.889  50.923  1.00  0.00     0.013 A 
ATOM     17  C   UNL     1      53.698  54.146  52.692  1.00  0.00     0.045 C 
ATOM     18  C   UNL     1      53.277  56.337  49.586  1.00  0.00    -0.006 A 
ATOM     19  C   UNL     1      53.211  55.814  47.185  1.00  0.00     0.072 A 
ATOM     20  C   UNL     1      53.031  57.711  49.282  1.00  0.00     0.008 A 
ATOM     21  C   UNL     1      52.763  57.123  46.926  1.00  0.00     0.169 A 
ATOM     22  C   UNL     1      52.653  58.052  47.966  1.00  0.00     0.162 A 
BRANCH  13  23
ATOM     23  O   UNL     1      53.825  53.060  47.854  1.00  0.00    -0.507 OA
ATOM     24  H   UNL     1      53.055  52.519  47.482  1.00  0.00     0.293 HD
ENDBRANCH  13  23
BRANCH  19  25
ATOM     25  C   UNL     1      53.443  54.932  46.026  1.00  0.00     0.264 C 
ATOM     26  O   UNL     1      54.537  54.972  45.403  1.00  0.00    -0.298 OA
ENDBRANCH  19  25
BRANCH  20  27
ATOM     27  C   UNL     1      53.148  58.811  50.350  1.00  0.00     0.017 C 
ATOM     28  C   UNL     1      51.767  59.341  50.747  1.00  0.00     0.012 C 
ATOM     29  C   UNL     1      54.094  59.959  49.949  1.00  0.00     0.012 C 
ENDBRANCH  20  27
BRANCH  21  30
ATOM     30  O   UNL     1      52.440  57.542  45.631  1.00  0.00    -0.504 OA
ATOM     31  H   UNL     1      52.619  56.994  44.799  1.00  0.00     0.293 HD
ENDBRANCH  21  30
BRANCH  22  32
ATOM     32  O   UNL     1      52.159  59.330  47.692  1.00  0.00    -0.504 OA
ATOM     33  H   UNL     1      51.841  59.965  48.415  1.00  0.00     0.293 HD
ENDBRANCH  22  32
ENDBRANCH  11  12
BRANCH  10  34
ATOM     34  O   UNL     1      56.471  52.647  50.486  1.00  0.00    -0.507 OA
ATOM     35  H   UNL     1      56.546  53.536  50.964  1.00  0.00     0.293 HD
ENDBRANCH  10  34
BRANCH   9  36
ATOM     36  C   UNL     1      53.712  47.033  51.188  1.00  0.00     0.017 C 
ATOM     37  C   UNL     1      53.286  46.481  52.552  1.00  0.00     0.012 C 
ATOM     38  C   UNL     1      54.064  45.897  50.209  1.00  0.00     0.012 C 
ENDBRANCH   9  36
BRANCH   6  39
ATOM     39  C   UNL     1      58.197  50.764  51.127  1.00  0.00     0.264 C 
ATOM     40  O   UNL     1      58.740  51.243  52.156  1.00  0.00    -0.298 OA
ENDBRANCH   6  39
BRANCH   8  41
ATOM     41  O   UNL     1      56.340  46.363  52.160  1.00  0.00    -0.504 OA
ATOM     42  H   UNL     1      56.863  46.144  52.997  1.00  0.00     0.293 HD
ENDBRANCH   8  41
BRANCH   7  43
ATOM     43  O   UNL     1      58.479  48.059  51.942  1.00  0.00    -0.504 OA
ATOM     44  H   UNL     1      59.148  48.533  52.534  1.00  0.00     0.293 HD
ENDBRANCH   7  43
TORSDOF 11
ENDMDL
MODEL 4
REMARK VINA RESULT:    -4.847      2.505      4.053
REMARK INTER + INTRA:          -8.527
REMARK INTER:                  -7.194
REMARK INTRA:                  -1.333
REMARK UNBOUND:                -1.414
REMARK SMILES Cc1cc2c(C(C)C)c(O)c(O)c(C=O)c2c(O)c1-c1c(C)cc2c(C(C)C)c(O)c(O)c(C=O)c2c1O
REMARK SMILES IDX 1 1 2 2 3 3 4 4 16 5 13 6 11 7 9 8 5 9 17 10 19 11 20 12
REMARK SMILES IDX 37 13 21 14 36 15 23 16 22 17 24 18 33 19 25 20 31 21 29 22
REMARK SMILES IDX 38 23 34 25 35 26 26 27 27 28 28 29 32 30 30 32 18 34 6 36
REMARK SMILES IDX 7 37 8 38 14 39 15 40 10 41 12 43
REMARK H PARENT 38 24 32 31 30 33 18 35 10 42 12 44
REMARK Flexibility Score: inf
ROOT
ATOM      1  C   UNL     1      53.522  54.114  52.809  1.00  0.00     0.045 C 
ATOM      2  C   UNL     1      53.528  54.524  51.356  1.00  0.00    -0.039 A 
ATOM      3  C   UNL     1      53.235  55.843  51.017  1.00  0.00     0.013 A 
ATOM      4  C   UNL     1      53.232  56.287  49.676  1.00  0.00    -0.006 A 
ATOM      5  C   UNL     1      53.431  55.332  48.634  1.00  0.00     0.039 A 
ATOM      6  C   UNL     1      53.253  55.746  47.279  1.00  0.00     0.072 A 
ATOM      7  C   UNL     1      52.838  57.063  46.996  1.00  0.00     0.169 A 
ATOM      8  C   UNL     1      52.684  57.996  48.025  1.00  0.00     0.162 A 
ATOM      9  C   UNL     1      52.991  57.658  49.359  1.00  0.00     0.008 A 
ATOM     10  C   UNL     1      53.769  53.988  48.988  1.00  0.00     0.132 A 
ATOM     11  C   UNL     1      53.829  53.598  50.343  1.00  0.00     0.031 A 
ENDROOT
BRANCH  11  12
ATOM     12  C   UNL     1      54.181  52.199  50.706  1.00  0.00     0.031 A 
ATOM     13  C   UNL     1      55.528  51.844  50.935  1.00  0.00     0.132 A 
ATOM     14  C   UNL     1      53.162  51.246  50.875  1.00  0.00    -0.039 A 
ATOM     15  C   UNL     1      55.871  50.507  51.302  1.00  0.00     0.039 A 
ATOM     16  C   UNL     1      53.494  49.939  51.230  1.00  0.00     0.013 A 
ATOM     17  C   UNL     1      51.711  51.616  50.685  1.00  0.00     0.045 C 
ATOM     18  C   UNL     1      54.834  49.531  51.411  1.00  0.00    -0.006 A 
ATOM     19  C   UNL     1      57.212  50.120  51.608  1.00  0.00     0.072 A 
ATOM     20  C   UNL     1      55.152  48.178  51.741  1.00  0.00     0.008 A 
ATOM     21  C   UNL     1      57.471  48.840  52.134  1.00  0.00     0.169 A 
ATOM     22  C   UNL     1      56.449  47.890  52.220  1.00  0.00     0.162 A 
BRANCH  13  23
ATOM     23  O   UNL     1      56.520  52.825  50.823  1.00  0.00    -0.507 OA
ATOM     24  H   UNL     1      56.707  53.524  51.530  1.00  0.00     0.293 HD
ENDBRANCH  13  23
BRANCH  19  25
ATOM     25  C   UNL     1      58.362  51.021  51.412  1.00  0.00     0.264 C 
ATOM     26  O   UNL     1      58.897  51.596  52.397  1.00  0.00    -0.298 OA
ENDBRANCH  19  25
BRANCH  20  27
ATOM     27  C   UNL     1      54.121  47.046  51.606  1.00  0.00     0.017 C 
ATOM     28  C   UNL     1      53.674  46.879  50.151  1.00  0.00     0.012 C 
ATOM     29  C   UNL     1      52.912  47.199  52.549  1.00  0.00     0.012 C 
ENDBRANCH  20  27
BRANCH  21  30
ATOM     30  O   UNL     1      58.752  48.472  52.560  1.00  0.00    -0.504 OA
ATOM     31  H   UNL     1      59.088  48.589  53.507  1.00  0.00     0.293 HD
ENDBRANCH  21  30
BRANCH  22  32
ATOM     32  O   UNL     1      56.719  46.644  52.790  1.00  0.00    -0.504 OA
ATOM     33  H   UNL     1      56.316  46.340  53.669  1.00  0.00     0.293 HD
ENDBRANCH  22  32
ENDBRANCH  11  12
BRANCH  10  34
ATOM     34  O   UNL     1      54.037  53.040  47.994  1.00  0.00    -0.507 OA
ATOM     35  H   UNL     1      54.632  53.212  47.194  1.00  0.00     0.293 HD
ENDBRANCH  10  34
BRANCH   9  36
ATOM     36  C   UNL     1      53.057  58.761  50.429  1.00  0.00     0.017 C 
ATOM     37  C   UNL     1      51.666  59.338  50.711  1.00  0.00     0.012 C 
ATOM     38  C   UNL     1      54.070  59.875  50.103  1.00  0.00     0.012 C 
ENDBRANCH   9  36
BRANCH   6  39
ATOM     39  C   UNL     1      53.455  54.823  46.144  1.00  0.00     0.264 C 
ATOM     40  O   UNL     1      54.484  54.912  45.424  1.00  0.00    -0.298 OA
ENDBRANCH   6  39
BRANCH   8  41
ATOM     41  O   UNL     1      52.223  59.280  47.721  1.00  0.00    -0.504 OA
ATOM     42  H   UNL     1      51.838  59.908  48.415  1.00  0.00     0.293 HD
ENDBRANCH   8  41
BRANCH   7  43
ATOM     43  O   UNL     1      52.598  57.490  45.684  1.00  0.00    -0.504 OA
ATOM     44  H   UNL     1      52.359  58.439  45.429  1.00  0.00     0.293 HD
ENDBRANCH   7  43
TORSDOF 11
ENDMDL
MODEL 5
REMARK VINA RESULT:    -4.749      2.046      9.105
REMARK INTER + INTRA:          -8.384
REMARK INTER:                  -7.217
REMARK INTRA:                  -1.167
REMARK UNBOUND:                -1.414
REMARK SMILES Cc1cc2c(C(C)C)c(O)c(O)c(C=O)c2c(O)c1-c1c(C)cc2c(C(C)C)c(O)c(O)c(C=O)c2c1O
REMARK SMILES IDX 1 1 2 2 3 3 4 4 16 5 13 6 11 7 9 8 5 9 17 10 19 11 20 12
REMARK SMILES IDX 37 13 21 14 36 15 23 16 22 17 24 18 33 19 25 20 31 21 29 22
REMARK SMILES IDX 38 23 34 25 35 26 26 27 27 28 28 29 32 30 30 32 18 34 6 36
REMARK SMILES IDX 7 37 8 38 14 39 15 40 10 41 12 43
REMARK H PARENT 38 24 32 31 30 33 18 35 10 42 12 44
REMARK Flexibility Score: inf
ROOT
ATOM      1  C   UNL     1      52.367  52.257  48.391  1.00  0.00     0.045 C 
ATOM      2  C   UNL     1      53.263  52.067  49.592  1.00  0.00    -0.039 A 
ATOM      3  C   UNL     1      53.284  50.834  50.240  1.00  0.00     0.013 A 
ATOM      4  C   UNL     1      54.107  50.594  51.363  1.00  0.00    -0.006 A 
ATOM      5  C   UNL     1      54.858  51.678  51.910  1.00  0.00     0.039 A 
ATOM      6  C   UNL     1      55.548  51.482  53.145  1.00  0.00     0.072 A 
ATOM      7  C   UNL     1      55.438  50.250  53.823  1.00  0.00     0.169 A 
ATOM      8  C   UNL     1      54.730  49.188  53.255  1.00  0.00     0.162 A 
ATOM      9  C   UNL     1      54.158  49.304  51.972  1.00  0.00     0.008 A 
ATOM     10  C   UNL     1      54.863  52.930  51.219  1.00  0.00     0.132 A 
ATOM     11  C   UNL     1      54.080  53.110  50.059  1.00  0.00     0.031 A 
ENDROOT
BRANCH  11  12
ATOM     12  C   UNL     1      54.088  54.414  49.343  1.00  0.00     0.031 A 
ATOM     13  C   UNL     1      54.866  54.577  48.176  1.00  0.00     0.132 A 
ATOM     14  C   UNL     1      53.277  55.466  49.801  1.00  0.00    -0.039 A 
ATOM     15  C   UNL     1      54.865  55.820  47.473  1.00  0.00     0.039 A 
ATOM     16  C   UNL     1      53.275  56.683  49.119  1.00  0.00     0.013 A 
ATOM     17  C   UNL     1      52.398  55.298  51.017  1.00  0.00     0.045 C 
ATOM     18  C   UNL     1      54.084  56.902  47.982  1.00  0.00    -0.006 A 
ATOM     19  C   UNL     1      55.584  56.007  46.253  1.00  0.00     0.072 A 
ATOM     20  C   UNL     1      54.093  58.167  47.320  1.00  0.00     0.008 A 
ATOM     21  C   UNL     1      55.409  57.189  45.509  1.00  0.00     0.169 A 
ATOM     22  C   UNL     1      54.655  58.247  46.027  1.00  0.00     0.162 A 
BRANCH  13  23
ATOM     23  O   UNL     1      55.618  53.495  47.702  1.00  0.00    -0.507 OA
ATOM     24  H   UNL     1      55.417  52.999  46.843  1.00  0.00     0.293 HD
ENDBRANCH  13  23
BRANCH  19  25
ATOM     25  C   UNL     1      56.508  54.993  45.712  1.00  0.00     0.264 C 
ATOM     26  O   UNL     1      56.157  54.259  44.750  1.00  0.00    -0.298 OA
ENDBRANCH  19  25
BRANCH  20  27
ATOM     27  C   UNL     1      53.494  59.427  47.968  1.00  0.00     0.017 C 
ATOM     28  C   UNL     1      54.166  59.727  49.311  1.00  0.00     0.012 C 
ATOM     29  C   UNL     1      51.961  59.377  48.107  1.00  0.00     0.012 C 
ENDBRANCH  20  27
BRANCH  21  30
ATOM     30  O   UNL     1      55.999  57.354  44.251  1.00  0.00    -0.504 OA
ATOM     31  H   UNL     1      56.973  57.591  44.110  1.00  0.00     0.293 HD
ENDBRANCH  21  30
BRANCH  22  32
ATOM     32  O   UNL     1      54.455  59.390  45.250  1.00  0.00    -0.504 OA
ATOM     33  H   UNL     1      55.168  59.774  44.640  1.00  0.00     0.293 HD
ENDBRANCH  22  32
ENDBRANCH  11  12
BRANCH  10  34
ATOM     34  O   UNL     1      55.640  53.994  51.688  1.00  0.00    -0.507 OA
ATOM     35  H   UNL     1      55.808  54.184  52.668  1.00  0.00     0.293 HD
ENDBRANCH  10  34
BRANCH   9  36
ATOM     36  C   UNL     1      53.606  48.053  51.267  1.00  0.00     0.017 C 
ATOM     37  C   UNL     1      52.551  47.354  52.130  1.00  0.00     0.012 C 
ATOM     38  C   UNL     1      54.701  47.068  50.815  1.00  0.00     0.012 C 
ENDBRANCH   9  36
BRANCH   6  39
ATOM     39  C   UNL     1      56.359  52.547  53.767  1.00  0.00     0.264 C 
ATOM     40  O   UNL     1      55.910  53.204  54.743  1.00  0.00    -0.298 OA
ENDBRANCH   6  39
BRANCH   8  41
ATOM     41  O   UNL     1      54.593  47.995  53.972  1.00  0.00    -0.504 OA
ATOM     42  H   UNL     1      54.668  47.082  53.545  1.00  0.00     0.293 HD
ENDBRANCH   8  41
BRANCH   7  43
ATOM     43  O   UNL     1      56.054  50.039  55.063  1.00  0.00    -0.504 OA
ATOM     44  H   UNL     1      55.999  50.680  55.842  1.00  0.00     0.293 HD
ENDBRANCH   7  43
TORSDOF 11
ENDMDL
MODEL 6
REMARK VINA RESULT:    -4.676      3.840     10.824
REMARK INTER + INTRA:          -8.276
REMARK INTER:                  -7.145
REMARK INTRA:                  -1.131
REMARK UNBOUND:                -1.414
REMARK SMILES Cc1cc2c(C(C)C)c(O)c(O)c(C=O)c2c(O)c1-c1c(C)cc2c(C(C)C)c(O)c(O)c(C=O)c2c1O
REMARK SMILES IDX 1 1 2 2 3 3 4 4 16 5 13 6 11 7 9 8 5 9 17 10 19 11 20 12
REMARK SMILES IDX 37 13 21 14 36 15 23 16 22 17 24 18 33 19 25 20 31 21 29 22
REMARK SMILES IDX 38 23 34 25 35 26 26 27 27 28 28 29 32 30 30 32 18 34 6 36
REMARK SMILES IDX 7 37 8 38 14 39 15 40 10 41 12 43
REMARK H PARENT 38 24 32 31 30 33 18 35 10 42 12 44
REMARK Flexibility Score: inf
ROOT
ATOM      1  C   UNL     1      56.652  45.961  51.970  1.00  0.00     0.045 C 
ATOM      2  C   UNL     1      55.480  45.293  52.647  1.00  0.00    -0.039 A 
ATOM      3  C   UNL     1      55.609  43.981  53.100  1.00  0.00     0.013 A 
ATOM      4  C   UNL     1      54.550  43.307  53.747  1.00  0.00    -0.006 A 
ATOM      5  C   UNL     1      53.280  43.952  53.845  1.00  0.00     0.039 A 
ATOM      6  C   UNL     1      52.167  43.207  54.338  1.00  0.00     0.072 A 
ATOM      7  C   UNL     1      52.324  41.845  54.669  1.00  0.00     0.169 A 
ATOM      8  C   UNL     1      53.582  41.239  54.603  1.00  0.00     0.162 A 
ATOM      9  C   UNL     1      54.727  41.986  54.258  1.00  0.00     0.008 A 
ATOM     10  C   UNL     1      53.164  45.311  53.414  1.00  0.00     0.132 A 
ATOM     11  C   UNL     1      54.266  45.975  52.834  1.00  0.00     0.031 A 
ENDROOT
BRANCH  11  12
ATOM     12  C   UNL     1      54.140  47.388  52.387  1.00  0.00     0.031 A 
ATOM     13  C   UNL     1      54.427  48.442  53.281  1.00  0.00     0.132 A 
ATOM     14  C   UNL     1      53.788  47.669  51.056  1.00  0.00    -0.039 A 
ATOM     15  C   UNL     1      54.326  49.801  52.853  1.00  0.00     0.039 A 
ATOM     16  C   UNL     1      53.685  48.996  50.636  1.00  0.00     0.013 A 
ATOM     17  C   UNL     1      53.525  46.558  50.069  1.00  0.00     0.045 C 
ATOM     18  C   UNL     1      53.908  50.077  51.516  1.00  0.00    -0.006 A 
ATOM     19  C   UNL     1      54.672  50.896  53.704  1.00  0.00     0.072 A 
ATOM     20  C   UNL     1      53.763  51.427  51.074  1.00  0.00     0.008 A 
ATOM     21  C   UNL     1      54.725  52.201  53.181  1.00  0.00     0.169 A 
ATOM     22  C   UNL     1      54.297  52.459  51.875  1.00  0.00     0.162 A 
BRANCH  13  23
ATOM     23  O   UNL     1      54.838  48.138  54.584  1.00  0.00    -0.507 OA
ATOM     24  H   UNL     1      54.743  48.768  55.370  1.00  0.00     0.293 HD
ENDBRANCH  13  23
BRANCH  19  25
ATOM     25  C   UNL     1      55.000  50.720  55.131  1.00  0.00     0.264 C 
ATOM     26  O   UNL     1      56.197  50.767  55.520  1.00  0.00    -0.298 OA
ENDBRANCH  19  25
BRANCH  20  27
ATOM     27  C   UNL     1      53.065  51.776  49.749  1.00  0.00     0.017 C 
ATOM     28  C   UNL     1      54.085  51.977  48.625  1.00  0.00     0.012 C 
ATOM     29  C   UNL     1      52.107  52.979  49.856  1.00  0.00     0.012 C 
ENDBRANCH  20  27
BRANCH  21  30
ATOM     30  O   UNL     1      55.178  53.278  53.951  1.00  0.00    -0.504 OA
ATOM     31  H   UNL     1      55.733  53.179  54.791  1.00  0.00     0.293 HD
ENDBRANCH  21  30
BRANCH  22  32
ATOM     32  O   UNL     1      54.404  53.754  51.363  1.00  0.00    -0.504 OA
ATOM     33  H   UNL     1      54.731  53.951  50.424  1.00  0.00     0.293 HD
ENDBRANCH  22  32
ENDBRANCH  11  12
BRANCH  10  34
ATOM     34  O   UNL     1      51.953  45.997  53.556  1.00  0.00    -0.507 OA
ATOM     35  H   UNL     1      51.046  45.548  53.579  1.00  0.00     0.293 HD
ENDBRANCH  10  34
BRANCH   9  36
ATOM     36  C   UNL     1      56.124  41.366  54.435  1.00  0.00     0.017 C 
ATOM     37  C   UNL     1      56.365  40.250  53.413  1.00  0.00     0.012 C 
ATOM     38  C   UNL     1      56.404  40.881  55.871  1.00  0.00     0.012 C 
ENDBRANCH   9  36
BRANCH   6  39
ATOM     39  C   UNL     1      50.825  43.806  54.484  1.00  0.00     0.264 C 
ATOM     40  O   UNL     1      50.102  44.008  53.473  1.00  0.00    -0.298 OA
ENDBRANCH   6  39
BRANCH   8  41
ATOM     41  O   UNL     1      53.700  39.875  54.888  1.00  0.00    -0.504 OA
ATOM     42  H   UNL     1      54.057  39.201  54.223  1.00  0.00     0.293 HD
ENDBRANCH   8  41
BRANCH   7  43
ATOM     43  O   UNL     1      51.244  41.066  55.102  1.00  0.00    -0.504 OA
ATOM     44  H   UNL     1      51.323  40.294  55.750  1.00  0.00     0.293 HD
ENDBRANCH   7  43
TORSDOF 11
ENDMDL
MODEL 7
REMARK VINA RESULT:    -4.666      2.163      9.289
REMARK INTER + INTRA:          -8.262
REMARK INTER:                  -7.279
REMARK INTRA:                  -0.983
REMARK UNBOUND:                -1.414
REMARK SMILES Cc1cc2c(C(C)C)c(O)c(O)c(C=O)c2c(O)c1-c1c(C)cc2c(C(C)C)c(O)c(O)c(C=O)c2c1O
REMARK SMILES IDX 1 1 2 2 3 3 4 4 16 5 13 6 11 7 9 8 5 9 17 10 19 11 20 12
REMARK SMILES IDX 37 13 21 14 36 15 23 16 22 17 24 18 33 19 25 20 31 21 29 22
REMARK SMILES IDX 38 23 34 25 35 26 26 27 27 28 28 29 32 30 30 32 18 34 6 36
REMARK SMILES IDX 7 37 8 38 14 39 15 40 10 41 12 43
REMARK H PARENT 38 24 32 31 30 33 18 35 10 42 12 44
REMARK Flexibility Score: inf
ROOT
ATOM      1  C   UNL     1      57.174  53.158  51.134  1.00  0.00     0.045 C 
ATOM      2  C   UNL     1      56.256  51.999  51.439  1.00  0.00    -0.039 A 
ATOM      3  C   UNL     1      56.656  51.035  52.363  1.00  0.00     0.013 A 
ATOM      4  C   UNL     1      55.838  49.933  52.694  1.00  0.00    -0.006 A 
ATOM      5  C   UNL     1      54.613  49.746  51.984  1.00  0.00     0.039 A 
ATOM      6  C   UNL     1      53.875  48.541  52.192  1.00  0.00     0.072 A 
ATOM      7  C   UNL     1      54.385  47.544  53.048  1.00  0.00     0.169 A 
ATOM      8  C   UNL     1      55.566  47.758  53.764  1.00  0.00     0.162 A 
ATOM      9  C   UNL     1      56.242  48.993  53.690  1.00  0.00     0.008 A 
ATOM     10  C   UNL     1      54.189  50.757  51.065  1.00  0.00     0.132 A 
ATOM     11  C   UNL     1      55.005  51.881  50.811  1.00  0.00     0.031 A 
ENDROOT
BRANCH  11  12
ATOM     12  C   UNL     1      54.560  52.929  49.855  1.00  0.00     0.031 A 
ATOM     13  C   UNL     1      53.982  54.125  50.334  1.00  0.00     0.132 A 
ATOM     14  C   UNL     1      54.767  52.750  48.477  1.00  0.00    -0.039 A 
ATOM     15  C   UNL     1      53.569  55.145  49.422  1.00  0.00     0.039 A 
ATOM     16  C   UNL     1      54.362  53.741  47.584  1.00  0.00     0.013 A 
ATOM     17  C   UNL     1      55.429  51.500  47.946  1.00  0.00     0.045 C 
ATOM     18  C   UNL     1      53.728  54.925  48.020  1.00  0.00    -0.006 A 
ATOM     19  C   UNL     1      53.043  56.397  49.865  1.00  0.00     0.072 A 
ATOM     20  C   UNL     1      53.291  55.912  47.085  1.00  0.00     0.008 A 
ATOM     21  C   UNL     1      52.817  57.431  48.938  1.00  0.00     0.169 A 
ATOM     22  C   UNL     1      52.961  57.197  47.567  1.00  0.00     0.162 A 
BRANCH  13  23
ATOM     23  O   UNL     1      53.843  54.311  51.714  1.00  0.00    -0.507 OA
ATOM     24  H   UNL     1      52.964  54.241  52.210  1.00  0.00     0.293 HD
ENDBRANCH  13  23
BRANCH  19  25
ATOM     25  C   UNL     1      52.732  56.671  51.281  1.00  0.00     0.264 C 
ATOM     26  O   UNL     1      51.608  56.361  51.758  1.00  0.00    -0.298 OA
ENDBRANCH  19  25
BRANCH  20  27
ATOM     27  C   UNL     1      53.191  55.616  45.579  1.00  0.00     0.017 C 
ATOM     28  C   UNL     1      54.417  56.145  44.831  1.00  0.00     0.012 C 
ATOM     29  C   UNL     1      51.883  56.120  44.938  1.00  0.00     0.012 C 
ENDBRANCH  20  27
BRANCH  21  30
ATOM     30  O   UNL     1      52.420  58.708  49.352  1.00  0.00    -0.504 OA
ATOM     31  H   UNL     1      52.073  59.422  48.725  1.00  0.00     0.293 HD
ENDBRANCH  21  30
BRANCH  22  32
ATOM     32  O   UNL     1      52.780  58.252  46.670  1.00  0.00    -0.504 OA
ATOM     33  H   UNL     1      53.484  58.532  45.997  1.00  0.00     0.293 HD
ENDBRANCH  22  32
ENDBRANCH  11  12
BRANCH  10  34
ATOM     34  O   UNL     1      52.963  50.641  50.401  1.00  0.00    -0.507 OA
ATOM     35  H   UNL     1      52.171  50.125  50.762  1.00  0.00     0.293 HD
ENDBRANCH  10  34
BRANCH   9  36
ATOM     36  C   UNL     1      57.388  49.295  54.670  1.00  0.00     0.017 C 
ATOM     37  C   UNL     1      58.590  48.381  54.411  1.00  0.00     0.012 C 
ATOM     38  C   UNL     1      56.960  49.250  56.150  1.00  0.00     0.012 C 
ENDBRANCH   9  36
BRANCH   6  39
ATOM     39  C   UNL     1      52.592  48.280  51.508  1.00  0.00     0.264 C 
ATOM     40  O   UNL     1      52.351  47.147  51.013  1.00  0.00    -0.298 OA
ENDBRANCH   6  39
BRANCH   8  41
ATOM     41  O   UNL     1      56.076  46.732  54.565  1.00  0.00    -0.504 OA
ATOM     42  H   UNL     1      57.033  46.410  54.507  1.00  0.00     0.293 HD
ENDBRANCH   8  41
BRANCH   7  43
ATOM     43  O   UNL     1      53.718  46.326  53.234  1.00  0.00    -0.504 OA
ATOM     44  H   UNL     1      53.174  45.861  52.520  1.00  0.00     0.293 HD
ENDBRANCH   7  43
TORSDOF 11
ENDMDL
MODEL 8
REMARK VINA RESULT:    -4.636      2.214      3.912
REMARK INTER + INTRA:          -8.218
REMARK INTER:                  -7.180
REMARK INTRA:                  -1.038
REMARK UNBOUND:                -1.414
REMARK SMILES Cc1cc2c(C(C)C)c(O)c(O)c(C=O)c2c(O)c1-c1c(C)cc2c(C(C)C)c(O)c(O)c(C=O)c2c1O
REMARK SMILES IDX 1 1 2 2 3 3 4 4 16 5 13 6 11 7 9 8 5 9 17 10 19 11 20 12
REMARK SMILES IDX 37 13 21 14 36 15 23 16 22 17 24 18 33 19 25 20 31 21 29 22
REMARK SMILES IDX 38 23 34 25 35 26 26 27 27 28 28 29 32 30 30 32 18 34 6 36
REMARK SMILES IDX 7 37 8 38 14 39 15 40 10 41 12 43
REMARK H PARENT 38 24 32 31 30 33 18 35 10 42 12 44
REMARK Flexibility Score: inf
ROOT
ATOM      1  C   UNL     1      52.208  55.160  51.318  1.00  0.00     0.045 C 
ATOM      2  C   UNL     1      53.105  55.472  50.144  1.00  0.00    -0.039 A 
ATOM      3  C   UNL     1      53.111  56.760  49.613  1.00  0.00     0.013 A 
ATOM      4  C   UNL     1      53.934  57.114  48.521  1.00  0.00    -0.006 A 
ATOM      5  C   UNL     1      54.701  56.096  47.878  1.00  0.00     0.039 A 
ATOM      6  C   UNL     1      55.392  56.415  46.670  1.00  0.00     0.072 A 
ATOM      7  C   UNL     1      55.268  57.703  46.110  1.00  0.00     0.169 A 
ATOM      8  C   UNL     1      54.544  58.699  46.771  1.00  0.00     0.162 A 
ATOM      9  C   UNL     1      53.970  58.456  48.035  1.00  0.00     0.008 A 
ATOM     10  C   UNL     1      54.720  54.785  48.450  1.00  0.00     0.132 A 
ATOM     11  C   UNL     1      53.936  54.487  49.585  1.00  0.00     0.031 A 
ENDROOT
BRANCH  11  12
ATOM     12  C   UNL     1      53.959  53.123  50.176  1.00  0.00     0.031 A 
ATOM     13  C   UNL     1      54.714  52.868  51.342  1.00  0.00     0.132 A 
ATOM     14  C   UNL     1      53.184  52.101  49.602  1.00  0.00    -0.039 A 
ATOM     15  C   UNL     1      54.726  51.565  51.926  1.00  0.00     0.039 A 
ATOM     16  C   UNL     1      53.196  50.826  50.167  1.00  0.00     0.013 A 
ATOM     17  C   UNL     1      52.330  52.363  48.385  1.00  0.00     0.045 C 
ATOM     18  C   UNL     1      53.984  50.518  51.299  1.00  0.00    -0.006 A 
ATOM     19  C   UNL     1      55.421  51.280  53.141  1.00  0.00     0.072 A 
ATOM     20  C   UNL     1      54.008  49.197  51.840  1.00  0.00     0.008 A 
ATOM     21  C   UNL     1      55.258  50.030  53.767  1.00  0.00     0.169 A 
ATOM     22  C   UNL     1      54.541  49.009  53.134  1.00  0.00     0.162 A 
BRANCH  13  23
ATOM     23  O   UNL     1      55.428  53.916  51.934  1.00  0.00    -0.507 OA
ATOM     24  H   UNL     1      55.789  54.714  51.426  1.00  0.00     0.293 HD
ENDBRANCH  13  23
BRANCH  19  25
ATOM     25  C   UNL     1      56.308  52.259  53.797  1.00  0.00     0.264 C 
ATOM     26  O   UNL     1      55.910  52.907  54.801  1.00  0.00    -0.298 OA
ENDBRANCH  19  25
BRANCH  20  27
ATOM     27  C   UNL     1      53.454  47.991  51.063  1.00  0.00     0.017 C 
ATOM     28  C   UNL     1      52.439  47.213  51.905  1.00  0.00     0.012 C 
ATOM     29  C   UNL     1      54.550  47.062  50.507  1.00  0.00     0.012 C 
ENDBRANCH  20  27
BRANCH  21  30
ATOM     30  O   UNL     1      55.823  49.760  55.018  1.00  0.00    -0.504 OA
ATOM     31  H   UNL     1      55.887  48.835  55.422  1.00  0.00     0.293 HD
ENDBRANCH  21  30
BRANCH  22  32
ATOM     32  O   UNL     1      54.352  47.794  53.795  1.00  0.00    -0.504 OA
ATOM     33  H   UNL     1      54.375  47.706  54.804  1.00  0.00     0.293 HD
ENDBRANCH  22  32
ENDBRANCH  11  12
BRANCH  10  34
ATOM     34  O   UNL     1      55.513  53.779  47.887  1.00  0.00    -0.507 OA
ATOM     35  H   UNL     1      56.057  53.118  48.426  1.00  0.00     0.293 HD
ENDBRANCH  10  34
BRANCH   9  36
ATOM     36  C   UNL     1      53.400  59.629  48.852  1.00  0.00     0.017 C 
ATOM     37  C   UNL     1      53.953  59.625  50.281  1.00  0.00     0.012 C 
ATOM     38  C   UNL     1      51.860  59.690  48.848  1.00  0.00     0.012 C 
ENDBRANCH   9  36
BRANCH   6  39
ATOM     39  C   UNL     1      56.219  55.423  45.954  1.00  0.00     0.264 C 
ATOM     40  O   UNL     1      55.769  54.832  44.937  1.00  0.00    -0.298 OA
ENDBRANCH   6  39
BRANCH   8  41
ATOM     41  O   UNL     1      54.394  59.951  46.168  1.00  0.00    -0.504 OA
ATOM     42  H   UNL     1      53.510  60.441  46.124  1.00  0.00     0.293 HD
ENDBRANCH   8  41
BRANCH   7  43
ATOM     43  O   UNL     1      55.885  58.037  44.897  1.00  0.00    -0.504 OA
ATOM     44  H   UNL     1      56.435  57.395  44.344  1.00  0.00     0.293 HD
ENDBRANCH   7  43
TORSDOF 11
ENDMDL
MODEL 9
REMARK VINA RESULT:    -4.634      3.763      6.915
REMARK INTER + INTRA:          -8.215
REMARK INTER:                  -7.021
REMARK INTRA:                  -1.194
REMARK UNBOUND:                -1.414
REMARK SMILES Cc1cc2c(C(C)C)c(O)c(O)c(C=O)c2c(O)c1-c1c(C)cc2c(C(C)C)c(O)c(O)c(C=O)c2c1O
REMARK SMILES IDX 1 1 2 2 3 3 4 4 16 5 13 6 11 7 9 8 5 9 17 10 19 11 20 12
REMARK SMILES IDX 37 13 21 14 36 15 23 16 22 17 24 18 33 19 25 20 31 21 29 22
REMARK SMILES IDX 38 23 34 25 35 26 26 27 27 28 28 29 32 30 30 32 18 34 6 36
REMARK SMILES IDX 7 37 8 38 14 39 15 40 10 41 12 43
REMARK H PARENT 38 24 32 31 30 33 18 35 10 42 12 44
REMARK Flexibility Score: inf
ROOT
ATOM      1  C   UNL     1      53.900  46.625  49.922  1.00  0.00     0.045 C 
ATOM      2  C   UNL     1      54.017  47.778  50.890  1.00  0.00    -0.039 A 
ATOM      3  C   UNL     1      53.888  49.082  50.417  1.00  0.00     0.013 A 
ATOM      4  C   UNL     1      53.980  50.201  51.275  1.00  0.00    -0.006 A 
ATOM      5  C   UNL     1      54.319  49.990  52.646  1.00  0.00     0.039 A 
ATOM      6  C   UNL     1      54.586  51.126  53.470  1.00  0.00     0.072 A 
ATOM      7  C   UNL     1      54.560  52.421  52.911  1.00  0.00     0.169 A 
ATOM      8  C   UNL     1      54.189  52.611  51.577  1.00  0.00     0.162 A 
ATOM      9  C   UNL     1      53.782  51.524  50.778  1.00  0.00     0.008 A 
ATOM     10  C   UNL     1      54.412  48.650  53.134  1.00  0.00     0.132 A 
ATOM     11  C   UNL     1      54.246  47.555  52.258  1.00  0.00     0.031 A 
ENDROOT
BRANCH  11  12
ATOM     12  C   UNL     1      54.343  46.163  52.770  1.00  0.00     0.031 A 
ATOM     13  C   UNL     1      53.200  45.517  53.290  1.00  0.00     0.132 A 
ATOM     14  C   UNL     1      55.564  45.472  52.684  1.00  0.00    -0.039 A 
ATOM     15  C   UNL     1      53.283  44.173  53.767  1.00  0.00     0.039 A 
ATOM     16  C   UNL     1      55.649  44.161  53.152  1.00  0.00     0.013 A 
ATOM     17  C   UNL     1      56.787  46.126  52.086  1.00  0.00     0.045 C 
ATOM     18  C   UNL     1      54.543  43.502  53.732  1.00  0.00    -0.006 A 
ATOM     19  C   UNL     1      52.138  43.460  54.238  1.00  0.00     0.072 A 
ATOM     20  C   UNL     1      54.661  42.171  54.235  1.00  0.00     0.008 A 
ATOM     21  C   UNL     1      52.238  42.086  54.529  1.00  0.00     0.169 A 
ATOM     22  C   UNL     1      53.481  41.446  54.506  1.00  0.00     0.162 A 
BRANCH  13  23
ATOM     23  O   UNL     1      51.980  46.202  53.308  1.00  0.00    -0.507 OA
ATOM     24  H   UNL     1      51.804  47.034  53.855  1.00  0.00     0.293 HD
ENDBRANCH  13  23
BRANCH  19  25
ATOM     25  C   UNL     1      50.823  44.101  54.423  1.00  0.00     0.264 C 
ATOM     26  O   UNL     1      49.960  44.060  53.506  1.00  0.00    -0.298 OA
ENDBRANCH  19  25
BRANCH  20  27
ATOM     27  C   UNL     1      56.030  41.510  54.468  1.00  0.00     0.017 C 
ATOM     28  C   UNL     1      56.282  40.393  53.452  1.00  0.00     0.012 C 
ATOM     29  C   UNL     1      56.235  41.011  55.911  1.00  0.00     0.012 C 
ENDBRANCH  20  27
BRANCH  21  30
ATOM     30  O   UNL     1      51.112  41.329  54.874  1.00  0.00    -0.504 OA
ATOM     31  H   UNL     1      50.435  41.609  55.571  1.00  0.00     0.293 HD
ENDBRANCH  21  30
BRANCH  22  32
ATOM     32  O   UNL     1      53.548  40.072  54.752  1.00  0.00    -0.504 OA
ATOM     33  H   UNL     1      53.327  39.661  55.651  1.00  0.00     0.293 HD
ENDBRANCH  22  32
ENDBRANCH  11  12
BRANCH  10  34
ATOM     34  O   UNL     1      54.677  48.405  54.486  1.00  0.00    -0.507 OA
ATOM     35  H   UNL     1      55.196  49.035  55.084  1.00  0.00     0.293 HD
ENDBRANCH  10  34
BRANCH   9  36
ATOM     36  C   UNL     1      53.143  51.785  49.403  1.00  0.00     0.017 C 
ATOM     37  C   UNL     1      54.215  51.989  48.327  1.00  0.00     0.012 C 
ATOM     38  C   UNL     1      52.127  52.943  49.407  1.00  0.00     0.012 C 
ENDBRANCH   9  36
BRANCH   6  39
ATOM     39  C   UNL     1      54.927  50.994  54.900  1.00  0.00     0.264 C 
ATOM     40  O   UNL     1      54.071  51.248  55.788  1.00  0.00    -0.298 OA
ENDBRANCH   6  39
BRANCH   8  41
ATOM     41  O   UNL     1      54.222  53.900  51.035  1.00  0.00    -0.504 OA
ATOM     42  H   UNL     1      53.589  54.635  51.319  1.00  0.00     0.293 HD
ENDBRANCH   8  41
BRANCH   7  43
ATOM     43  O   UNL     1      54.871  53.554  53.673  1.00  0.00    -0.504 OA
ATOM     44  H   UNL     1      55.235  54.415  53.289  1.00  0.00     0.293 HD
ENDBRANCH   7  43
TORSDOF 11
ENDMDL
