MODEL 1
REMARK VINA RESULT:    -3.798      0.000      0.000
REMARK INTER + INTRA:          -4.397
REMARK INTER:                  -4.353
REMARK INTRA:                  -0.044
REMARK UNBOUND:                -0.044
REMARK SMILES CC(C)[C@H]([NH3+])C(=O)[O-]
REMARK SMILES IDX 4 1 5 2 6 6 7 7 8 8 2 9 1 10 3 11
REMARK H PARENT 5 3 5 4 5 5
REMARK Flexibility Score: inf
ROOT
ATOM      1  C   UNL     1      58.669  -0.870  -0.287  1.00  0.00     0.230 C 
ENDROOT
BRANCH   1   2
ATOM      2  N   UNL     1      58.867  -1.457  -1.621  1.00  0.00    -0.350 N 
ATOM      3  H   UNL     1      58.677  -0.761  -2.378  1.00  0.00     0.345 HD
ATOM      4  H   UNL     1      58.215  -2.266  -1.745  1.00  0.00     0.345 HD
ATOM      5  H   UNL     1      59.841  -1.820  -1.720  1.00  0.00     0.345 HD
ENDBRANCH   1   2
BRANCH   1   6
ATOM      6  C   UNL     1      57.216  -0.939   0.117  1.00  0.00     0.099 C 
ATOM      7  O   UNL     1      56.353  -1.332  -0.712  1.00  0.00    -0.544 OA
ATOM      8  O   UNL     1      56.822  -0.619   1.410  1.00  0.00    -0.544 OA
ENDBRANCH   1   6
BRANCH   1   9
ATOM      9  C   UNL     1      59.207   0.589  -0.177  1.00  0.00     0.047 C 
ATOM     10  C   UNL     1      59.959   1.065  -1.430  1.00  0.00     0.014 C 
ATOM     11  C   UNL     1      60.080   0.785   1.072  1.00  0.00     0.014 C 
ENDBRANCH   1   9
TORSDOF 3
ENDMDL
MODEL 2
REMARK VINA RESULT:    -3.688      7.236      8.223
REMARK INTER + INTRA:          -4.271
REMARK INTER:                  -4.203
REMARK INTRA:                  -0.069
REMARK UNBOUND:                -0.044
REMARK SMILES CC(C)[C@H]([NH3+])C(=O)[O-]
REMARK SMILES IDX 4 1 5 2 6 6 7 7 8 8 2 9 1 10 3 11
REMARK H PARENT 5 3 5 4 5 5
REMARK Flexibility Score: inf
ROOT
ATOM      1  C   UNL     1      64.719   2.554  -2.712  1.00  0.00     0.230 C 
ENDROOT
BRANCH   1   2
ATOM      2  N   UNL     1      65.121   2.273  -1.325  1.00  0.00    -0.350 N 
ATOM      3  H   UNL     1      66.009   1.725  -1.287  1.00  0.00     0.345 HD
ATOM      4  H   UNL     1      64.370   1.720  -0.851  1.00  0.00     0.345 HD
ATOM      5  H   UNL     1      65.239   3.163  -0.792  1.00  0.00     0.345 HD
ENDBRANCH   1   2
BRANCH   1   6
ATOM      6  C   UNL     1      65.488   3.732  -3.262  1.00  0.00     0.099 C 
ATOM      7  O   UNL     1      66.299   3.563  -4.210  1.00  0.00    -0.544 OA
ATOM      8  O   UNL     1      65.275   5.012  -2.766  1.00  0.00    -0.544 OA
ENDBRANCH   1   6
BRANCH   1   9
ATOM      9  C   UNL     1      63.184   2.771  -2.870  1.00  0.00     0.047 C 
ATOM     10  C   UNL     1      62.337   1.616  -2.312  1.00  0.00     0.014 C 
ATOM     11  C   UNL     1      62.793   3.058  -4.328  1.00  0.00     0.014 C 
ENDBRANCH   1   9
TORSDOF 3
ENDMDL
MODEL 3
REMARK VINA RESULT:    -3.684      7.984      8.950
REMARK INTER + INTRA:          -4.267
REMARK INTER:                  -4.212
REMARK INTRA:                  -0.055
REMARK UNBOUND:                -0.044
REMARK SMILES CC(C)[C@H]([NH3+])C(=O)[O-]
REMARK SMILES IDX 4 1 5 2 6 6 7 7 8 8 2 9 1 10 3 11
REMARK H PARENT 5 3 5 4 5 5
REMARK Flexibility Score: inf
ROOT
ATOM      1  C   UNL     1      65.342   3.267  -3.585  1.00  0.00     0.230 C 
ENDROOT
BRANCH   1   2
ATOM      2  N   UNL     1      66.598   2.528  -3.782  1.00  0.00    -0.350 N 
ATOM      3  H   UNL     1      67.413   3.175  -3.880  1.00  0.00     0.345 HD
ATOM      4  H   UNL     1      66.528   1.950  -4.651  1.00  0.00     0.345 HD
ATOM      5  H   UNL     1      66.767   1.876  -2.984  1.00  0.00     0.345 HD
ENDBRANCH   1   2
BRANCH   1   6
ATOM      6  C   UNL     1      65.618   4.731  -3.336  1.00  0.00     0.099 C 
ATOM      7  O   UNL     1      64.828   5.405  -2.623  1.00  0.00    -0.544 OA
ATOM      8  O   UNL     1      66.761   5.334  -3.845  1.00  0.00    -0.544 OA
ENDBRANCH   1   6
BRANCH   1   9
ATOM      9  C   UNL     1      64.455   2.669  -2.450  1.00  0.00     0.047 C 
ATOM     10  C   UNL     1      65.068   1.433  -1.775  1.00  0.00     0.014 C 
ATOM     11  C   UNL     1      63.034   2.354  -2.942  1.00  0.00     0.014 C 
ENDBRANCH   1   9
TORSDOF 3
ENDMDL
MODEL 4
REMARK VINA RESULT:    -3.614      1.666      2.253
REMARK INTER + INTRA:          -4.187
REMARK INTER:                  -4.185
REMARK INTRA:                  -0.002
REMARK UNBOUND:                -0.044
REMARK SMILES CC(C)[C@H]([NH3+])C(=O)[O-]
REMARK SMILES IDX 4 1 5 2 6 6 7 7 8 8 2 9 1 10 3 11
REMARK H PARENT 5 3 5 4 5 5
REMARK Flexibility Score: inf
ROOT
ATOM      1  C   UNL     1      58.035  -0.183   0.397  1.00  0.00     0.230 C 
ENDROOT
BRANCH   1   2
ATOM      2  N   UNL     1      57.812  -0.414   1.833  1.00  0.00    -0.350 N 
ATOM      3  H   UNL     1      56.956   0.081   2.172  1.00  0.00     0.345 HD
ATOM      4  H   UNL     1      58.634  -0.061   2.374  1.00  0.00     0.345 HD
ATOM      5  H   UNL     1      57.722  -1.436   2.029  1.00  0.00     0.345 HD
ENDBRANCH   1   2
BRANCH   1   6
ATOM      6  C   UNL     1      57.587  -1.377  -0.411  1.00  0.00     0.099 C 
ATOM      7  O   UNL     1      56.359  -1.633  -0.521  1.00  0.00    -0.544 OA
ATOM      8  O   UNL     1      58.512  -2.171  -1.078  1.00  0.00    -0.544 OA
ENDBRANCH   1   6
BRANCH   1   9
ATOM      9  C   UNL     1      59.512   0.190   0.063  1.00  0.00     0.047 C 
ATOM     10  C   UNL     1      60.238   0.917   1.206  1.00  0.00     0.014 C 
ATOM     11  C   UNL     1      59.616   1.006  -1.235  1.00  0.00     0.014 C 
ENDBRANCH   1   9
TORSDOF 3
ENDMDL
MODEL 5
REMARK VINA RESULT:    -3.614      2.193      2.793
REMARK INTER + INTRA:          -4.186
REMARK INTER:                  -4.142
REMARK INTRA:                  -0.044
REMARK UNBOUND:                -0.044
REMARK SMILES CC(C)[C@H]([NH3+])C(=O)[O-]
REMARK SMILES IDX 4 1 5 2 6 6 7 7 8 8 2 9 1 10 3 11
REMARK H PARENT 5 3 5 4 5 5
REMARK Flexibility Score: inf
ROOT
ATOM      1  C   UNL     1      58.073  -0.408  -0.141  1.00  0.00     0.230 C 
ENDROOT
BRANCH   1   2
ATOM      2  N   UNL     1      56.700  -0.900   0.054  1.00  0.00    -0.350 N 
ATOM      3  H   UNL     1      56.159  -0.889  -0.840  1.00  0.00     0.345 HD
ATOM      4  H   UNL     1      56.207  -0.290   0.746  1.00  0.00     0.345 HD
ATOM      5  H   UNL     1      56.712  -1.869   0.442  1.00  0.00     0.345 HD
ENDBRANCH   1   2
BRANCH   1   6
ATOM      6  C   UNL     1      58.805  -1.255  -1.152  1.00  0.00     0.099 C 
ATOM      7  O   UNL     1      58.594  -2.496  -1.201  1.00  0.00    -0.544 OA
ATOM      8  O   UNL     1      59.677  -0.676  -2.066  1.00  0.00    -0.544 OA
ENDBRANCH   1   6
BRANCH   1   9
ATOM      9  C   UNL     1      58.880  -0.311   1.190  1.00  0.00     0.047 C 
ATOM     10  C   UNL     1      57.999  -0.104   2.432  1.00  0.00     0.014 C 
ATOM     11  C   UNL     1      59.964   0.776   1.123  1.00  0.00     0.014 C 
ENDBRANCH   1   9
TORSDOF 3
ENDMDL
MODEL 6
REMARK VINA RESULT:    -3.509      1.808      2.734
REMARK INTER + INTRA:          -4.066
REMARK INTER:                  -4.011
REMARK INTRA:                  -0.056
REMARK UNBOUND:                -0.044
REMARK SMILES CC(C)[C@H]([NH3+])C(=O)[O-]
REMARK SMILES IDX 4 1 5 2 6 6 7 7 8 8 2 9 1 10 3 11
REMARK H PARENT 5 3 5 4 5 5
REMARK Flexibility Score: inf
ROOT
ATOM      1  C   UNL     1      60.050   0.223  -1.555  1.00  0.00     0.230 C 
ENDROOT
BRANCH   1   2
ATOM      2  N   UNL     1      59.578  -0.646  -2.645  1.00  0.00    -0.350 N 
ATOM      3  H   UNL     1      59.369  -1.611  -2.302  1.00  0.00     0.345 HD
ATOM      4  H   UNL     1      60.316  -0.709  -3.383  1.00  0.00     0.345 HD
ATOM      5  H   UNL     1      58.724  -0.242  -3.089  1.00  0.00     0.345 HD
ENDBRANCH   1   2
BRANCH   1   6
ATOM      6  C   UNL     1      59.022   0.302  -0.452  1.00  0.00     0.099 C 
ATOM      7  O   UNL     1      59.290   0.920   0.611  1.00  0.00    -0.544 OA
ATOM      8  O   UNL     1      57.761  -0.260  -0.615  1.00  0.00    -0.544 OA
ENDBRANCH   1   6
BRANCH   1   9
ATOM      9  C   UNL     1      60.452   1.648  -2.042  1.00  0.00     0.047 C 
ATOM     10  C   UNL     1      59.583   2.173  -3.197  1.00  0.00     0.014 C 
ATOM     11  C   UNL     1      61.939   1.725  -2.421  1.00  0.00     0.014 C 
ENDBRANCH   1   9
TORSDOF 3
ENDMDL
MODEL 7
REMARK VINA RESULT:    -3.477      6.473      7.341
REMARK INTER + INTRA:          -4.029
REMARK INTER:                  -3.981
REMARK INTRA:                  -0.048
REMARK UNBOUND:                -0.044
REMARK SMILES CC(C)[C@H]([NH3+])C(=O)[O-]
REMARK SMILES IDX 4 1 5 2 6 6 7 7 8 8 2 9 1 10 3 11
REMARK H PARENT 5 3 5 4 5 5
REMARK Flexibility Score: inf
ROOT
ATOM      1  C   UNL     1      64.001   2.835  -2.308  1.00  0.00     0.230 C 
ENDROOT
BRANCH   1   2
ATOM      2  N   UNL     1      64.484   4.114  -2.852  1.00  0.00    -0.350 N 
ATOM      3  H   UNL     1      65.044   3.973  -3.723  1.00  0.00     0.345 HD
ATOM      4  H   UNL     1      65.089   4.586  -2.142  1.00  0.00     0.345 HD
ATOM      5  H   UNL     1      63.681   4.750  -3.054  1.00  0.00     0.345 HD
ENDBRANCH   1   2
BRANCH   1   6
ATOM      6  C   UNL     1      65.129   1.835  -2.215  1.00  0.00     0.099 C 
ATOM      7  O   UNL     1      66.112   1.925  -2.998  1.00  0.00    -0.544 OA
ATOM      8  O   UNL     1      65.120   0.843  -1.242  1.00  0.00    -0.544 OA
ENDBRANCH   1   6
BRANCH   1   9
ATOM      9  C   UNL     1      62.803   2.245  -3.112  1.00  0.00     0.047 C 
ATOM     10  C   UNL     1      62.262   3.191  -4.196  1.00  0.00     0.014 C 
ATOM     11  C   UNL     1      61.662   1.792  -2.187  1.00  0.00     0.014 C 
ENDBRANCH   1   9
TORSDOF 3
ENDMDL
MODEL 8
REMARK VINA RESULT:    -3.475      7.003      7.788
REMARK INTER + INTRA:          -4.027
REMARK INTER:                  -4.045
REMARK INTRA:                   0.018
REMARK UNBOUND:                -0.044
REMARK SMILES CC(C)[C@H]([NH3+])C(=O)[O-]
REMARK SMILES IDX 4 1 5 2 6 6 7 7 8 8 2 9 1 10 3 11
REMARK H PARENT 5 3 5 4 5 5
REMARK Flexibility Score: inf
ROOT
ATOM      1  C   UNL     1      65.339   2.901  -2.576  1.00  0.00     0.230 C 
ENDROOT
BRANCH   1   2
ATOM      2  N   UNL     1      66.348   2.432  -3.538  1.00  0.00    -0.350 N 
ATOM      3  H   UNL     1      67.302   2.414  -3.114  1.00  0.00     0.345 HD
ATOM      4  H   UNL     1      66.364   3.073  -4.364  1.00  0.00     0.345 HD
ATOM      5  H   UNL     1      66.105   1.477  -3.885  1.00  0.00     0.345 HD
ENDBRANCH   1   2
BRANCH   1   6
ATOM      6  C   UNL     1      64.583   1.736  -1.984  1.00  0.00     0.099 C 
ATOM      7  O   UNL     1      63.362   1.580  -2.251  1.00  0.00    -0.544 OA
ATOM      8  O   UNL     1      65.231   0.802  -1.184  1.00  0.00    -0.544 OA
ENDBRANCH   1   6
BRANCH   1   9
ATOM      9  C   UNL     1      64.356   3.947  -3.185  1.00  0.00     0.047 C 
ATOM     10  C   UNL     1      64.082   3.737  -4.682  1.00  0.00     0.014 C 
ATOM     11  C   UNL     1      64.826   5.389  -2.930  1.00  0.00     0.014 C 
ENDBRANCH   1   9
TORSDOF 3
ENDMDL
MODEL 9
REMARK VINA RESULT:    -3.449      2.106      2.953
REMARK INTER + INTRA:          -3.997
REMARK INTER:                  -3.941
REMARK INTRA:                  -0.056
REMARK UNBOUND:                -0.044
REMARK SMILES CC(C)[C@H]([NH3+])C(=O)[O-]
REMARK SMILES IDX 4 1 5 2 6 6 7 7 8 8 2 9 1 10 3 11
REMARK H PARENT 5 3 5 4 5 5
REMARK Flexibility Score: inf
ROOT
ATOM      1  C   UNL     1      59.730   1.026  -0.785  1.00  0.00     0.230 C 
ENDROOT
BRANCH   1   2
ATOM      2  N   UNL     1      60.707   0.979   0.314  1.00  0.00    -0.350 N 
ATOM      3  H   UNL     1      61.441   1.715   0.206  1.00  0.00     0.345 HD
ATOM      4  H   UNL     1      61.175   0.044   0.322  1.00  0.00     0.345 HD
ATOM      5  H   UNL     1      60.228   1.098   1.233  1.00  0.00     0.345 HD
ENDBRANCH   1   2
BRANCH   1   6
ATOM      6  C   UNL     1      58.841  -0.194  -0.762  1.00  0.00     0.099 C 
ATOM      7  O   UNL     1      57.766  -0.174  -0.107  1.00  0.00    -0.544 OA
ATOM      8  O   UNL     1      59.171  -1.327  -1.496  1.00  0.00    -0.544 OA
ENDBRANCH   1   6
BRANCH   1   9
ATOM      9  C   UNL     1      60.395   1.202  -2.185  1.00  0.00     0.047 C 
ATOM     10  C   UNL     1      61.874   1.614  -2.117  1.00  0.00     0.014 C 
ATOM     11  C   UNL     1      59.611   2.181  -3.072  1.00  0.00     0.014 C 
ENDBRANCH   1   9
TORSDOF 3
ENDMDL
