MODEL 1
REMARK VINA RESULT:    -6.201      0.000      0.000
REMARK INTER + INTRA:          -7.138
REMARK INTER:                  -6.925
REMARK INTRA:                  -0.213
REMARK UNBOUND:                -0.213
REMARK SMILES CC(C)c1ccc(C(=O)[O-])cc1
REMARK SMILES IDX 7 1 6 2 11 3 5 4 12 5 4 6 8 7 9 8 10 9 2 10 1 11 3 12
REMARK H PARENT
REMARK Flexibility Score: inf
ROOT
ATOM      1  C   UNL     1      34.681  -1.228 -20.074  1.00  0.00    -0.003 A 
ATOM      2  C   UNL     1      35.385  -0.641 -21.139  1.00  0.00     0.010 A 
ATOM      3  C   UNL     1      35.403  -1.762 -18.994  1.00  0.00     0.010 A 
ATOM      4  C   UNL     1      36.782  -0.591 -21.125  1.00  0.00     0.004 A 
ATOM      5  C   UNL     1      36.799  -1.712 -18.980  1.00  0.00     0.004 A 
ATOM      6  C   UNL     1      37.505  -1.125 -20.046  1.00  0.00    -0.045 A 
ENDROOT
BRANCH   1   7
ATOM      7  C   UNL     1      33.202  -1.283 -20.085  1.00  0.00     0.071 C 
ATOM      8  O   UNL     1      32.526  -0.469 -19.402  1.00  0.00    -0.545 OA
ATOM      9  O   UNL     1      32.539  -2.235 -20.850  1.00  0.00    -0.545 OA
ENDBRANCH   1   7
BRANCH   6  10
ATOM     10  C   UNL     1      39.021  -1.064 -20.043  1.00  0.00     0.013 C 
ATOM     11  C   UNL     1      39.614  -2.078 -19.057  1.00  0.00     0.012 C 
ATOM     12  C   UNL     1      39.585  -1.272 -21.453  1.00  0.00     0.012 C 
ENDBRANCH   6  10
TORSDOF 2
ENDMDL
MODEL 2
REMARK VINA RESULT:    -6.049      1.382      2.141
REMARK INTER + INTRA:          -6.969
REMARK INTER:                  -6.749
REMARK INTRA:                  -0.220
REMARK UNBOUND:                -0.213
REMARK SMILES CC(C)c1ccc(C(=O)[O-])cc1
REMARK SMILES IDX 7 1 6 2 11 3 5 4 12 5 4 6 8 7 9 8 10 9 2 10 1 11 3 12
REMARK H PARENT
REMARK Flexibility Score: inf
ROOT
ATOM      1  C   UNL     1      34.365  -1.734 -19.100  1.00  0.00    -0.003 A 
ATOM      2  C   UNL     1      35.591  -1.997 -18.465  1.00  0.00     0.010 A 
ATOM      3  C   UNL     1      34.367  -1.044 -20.323  1.00  0.00     0.010 A 
ATOM      4  C   UNL     1      36.794  -1.578 -19.042  1.00  0.00     0.004 A 
ATOM      5  C   UNL     1      35.570  -0.625 -20.900  1.00  0.00     0.004 A 
ATOM      6  C   UNL     1      36.797  -0.887 -20.265  1.00  0.00    -0.045 A 
ENDROOT
BRANCH   1   7
ATOM      7  C   UNL     1      33.090  -2.176 -18.494  1.00  0.00     0.071 C 
ATOM      8  O   UNL     1      32.061  -2.328 -19.204  1.00  0.00    -0.545 OA
ATOM      9  O   UNL     1      33.010  -2.432 -17.130  1.00  0.00    -0.545 OA
ENDBRANCH   1   7
BRANCH   6  10
ATOM     10  C   UNL     1      38.110  -0.438 -20.879  1.00  0.00     0.013 C 
ATOM     11  C   UNL     1      39.295  -1.195 -20.266  1.00  0.00     0.012 C 
ATOM     12  C   UNL     1      38.087  -0.593 -22.404  1.00  0.00     0.012 C 
ENDBRANCH   6  10
TORSDOF 2
ENDMDL
MODEL 3
REMARK VINA RESULT:    -6.002      2.934      4.947
REMARK INTER + INTRA:          -6.916
REMARK INTER:                  -6.695
REMARK INTRA:                  -0.221
REMARK UNBOUND:                -0.213
REMARK SMILES CC(C)c1ccc(C(=O)[O-])cc1
REMARK SMILES IDX 7 1 6 2 11 3 5 4 12 5 4 6 8 7 9 8 10 9 2 10 1 11 3 12
REMARK H PARENT
REMARK Flexibility Score: inf
ROOT
ATOM      1  C   UNL     1      36.853  -1.115 -20.317  1.00  0.00    -0.003 A 
ATOM      2  C   UNL     1      35.707  -0.826 -21.078  1.00  0.00     0.010 A 
ATOM      3  C   UNL     1      36.696  -1.670 -19.037  1.00  0.00     0.010 A 
ATOM      4  C   UNL     1      34.432  -1.086 -20.569  1.00  0.00     0.004 A 
ATOM      5  C   UNL     1      35.420  -1.931 -18.528  1.00  0.00     0.004 A 
ATOM      6  C   UNL     1      34.273  -1.641 -19.289  1.00  0.00    -0.045 A 
ENDROOT
BRANCH   1   7
ATOM      7  C   UNL     1      38.205  -0.841 -20.853  1.00  0.00     0.071 C 
ATOM      8  O   UNL     1      38.353  -0.401 -22.024  1.00  0.00    -0.545 OA
ATOM      9  O   UNL     1      39.331  -1.066 -20.070  1.00  0.00    -0.545 OA
ENDBRANCH   1   7
BRANCH   6  10
ATOM     10  C   UNL     1      32.883  -1.919 -18.749  1.00  0.00     0.013 C 
ATOM     11  C   UNL     1      32.922  -2.205 -17.243  1.00  0.00     0.012 C 
ATOM     12  C   UNL     1      31.927  -0.763 -19.065  1.00  0.00     0.012 C 
ENDBRANCH   6  10
TORSDOF 2
ENDMDL
MODEL 4
REMARK VINA RESULT:    -5.964      2.924      5.034
REMARK INTER + INTRA:          -6.874
REMARK INTER:                  -6.656
REMARK INTRA:                  -0.219
REMARK UNBOUND:                -0.213
REMARK SMILES CC(C)c1ccc(C(=O)[O-])cc1
REMARK SMILES IDX 7 1 6 2 11 3 5 4 12 5 4 6 8 7 9 8 10 9 2 10 1 11 3 12
REMARK H PARENT
REMARK Flexibility Score: inf
ROOT
ATOM      1  C   UNL     1      37.070  -1.140 -20.286  1.00  0.00    -0.003 A 
ATOM      2  C   UNL     1      36.087  -0.643 -21.160  1.00  0.00     0.010 A 
ATOM      3  C   UNL     1      36.668  -1.712 -19.067  1.00  0.00     0.010 A 
ATOM      4  C   UNL     1      34.733  -0.717 -20.822  1.00  0.00     0.004 A 
ATOM      5  C   UNL     1      35.314  -1.786 -18.730  1.00  0.00     0.004 A 
ATOM      6  C   UNL     1      34.330  -1.288 -19.604  1.00  0.00    -0.045 A 
ENDROOT
BRANCH   1   7
ATOM      7  C   UNL     1      38.504  -1.064 -20.639  1.00  0.00     0.071 C 
ATOM      8  O   UNL     1      39.390  -1.315 -19.779  1.00  0.00    -0.545 OA
ATOM      9  O   UNL     1      38.895  -0.715 -21.926  1.00  0.00    -0.545 OA
ENDBRANCH   1   7
BRANCH   6  10
ATOM     10  C   UNL     1      32.857  -1.362 -19.250  1.00  0.00     0.013 C 
ATOM     11  C   UNL     1      32.047  -1.998 -20.386  1.00  0.00     0.012 C 
ATOM     12  C   UNL     1      32.642  -2.114 -17.932  1.00  0.00     0.012 C 
ENDBRANCH   6  10
TORSDOF 2
ENDMDL
MODEL 5
REMARK VINA RESULT:    -5.831      3.350      4.797
REMARK INTER + INTRA:          -6.725
REMARK INTER:                  -6.516
REMARK INTRA:                  -0.208
REMARK UNBOUND:                -0.213
REMARK SMILES CC(C)c1ccc(C(=O)[O-])cc1
REMARK SMILES IDX 7 1 6 2 11 3 5 4 12 5 4 6 8 7 9 8 10 9 2 10 1 11 3 12
REMARK H PARENT
REMARK Flexibility Score: inf
ROOT
ATOM      1  C   UNL     1      38.032  -1.404 -20.092  1.00  0.00    -0.003 A 
ATOM      2  C   UNL     1      36.648  -1.157 -20.091  1.00  0.00     0.010 A 
ATOM      3  C   UNL     1      38.614  -2.015 -18.969  1.00  0.00     0.010 A 
ATOM      4  C   UNL     1      35.864  -1.514 -18.990  1.00  0.00     0.004 A 
ATOM      5  C   UNL     1      37.829  -2.372 -17.869  1.00  0.00     0.004 A 
ATOM      6  C   UNL     1      36.445  -2.125 -17.867  1.00  0.00    -0.045 A 
ENDROOT
BRANCH   1   7
ATOM      7  C   UNL     1      38.866  -1.028 -21.255  1.00  0.00     0.071 C 
ATOM      8  O   UNL     1      40.104  -1.262 -21.258  1.00  0.00    -0.545 OA
ATOM      9  O   UNL     1      38.294  -0.412 -22.362  1.00  0.00    -0.545 OA
ENDBRANCH   1   7
BRANCH   6  10
ATOM     10  C   UNL     1      35.581  -2.506 -16.680  1.00  0.00     0.013 C 
ATOM     11  C   UNL     1      35.420  -4.028 -16.580  1.00  0.00     0.012 C 
ATOM     12  C   UNL     1      36.145  -1.926 -15.377  1.00  0.00     0.012 C 
ENDBRANCH   6  10
TORSDOF 2
ENDMDL
MODEL 6
REMARK VINA RESULT:    -5.770      3.374      4.894
REMARK INTER + INTRA:          -6.657
REMARK INTER:                  -6.446
REMARK INTRA:                  -0.211
REMARK UNBOUND:                -0.213
REMARK SMILES CC(C)c1ccc(C(=O)[O-])cc1
REMARK SMILES IDX 7 1 6 2 11 3 5 4 12 5 4 6 8 7 9 8 10 9 2 10 1 11 3 12
REMARK H PARENT
REMARK Flexibility Score: inf
ROOT
ATOM      1  C   UNL     1      38.138  -1.385 -20.125  1.00  0.00    -0.003 A 
ATOM      2  C   UNL     1      38.769  -2.103 -19.094  1.00  0.00     0.010 A 
ATOM      3  C   UNL     1      36.784  -1.037 -19.980  1.00  0.00     0.010 A 
ATOM      4  C   UNL     1      38.061  -2.464 -17.944  1.00  0.00     0.004 A 
ATOM      5  C   UNL     1      36.078  -1.398 -18.830  1.00  0.00     0.004 A 
ATOM      6  C   UNL     1      36.709  -2.117 -17.798  1.00  0.00    -0.045 A 
ENDROOT
BRANCH   1   7
ATOM      7  C   UNL     1      38.882  -1.000 -21.344  1.00  0.00     0.071 C 
ATOM      8  O   UNL     1      40.092  -1.321 -21.484  1.00  0.00    -0.545 OA
ATOM      9  O   UNL     1      38.256  -0.278 -22.353  1.00  0.00    -0.545 OA
ENDBRANCH   1   7
BRANCH   6  10
ATOM     10  C   UNL     1      35.954  -2.516 -16.545  1.00  0.00     0.013 C 
ATOM     11  C   UNL     1      35.625  -4.014 -16.550  1.00  0.00     0.012 C 
ATOM     12  C   UNL     1      36.733  -2.128 -15.283  1.00  0.00     0.012 C 
ENDBRANCH   6  10
TORSDOF 2
ENDMDL
MODEL 7
REMARK VINA RESULT:    -5.697      3.231      4.375
REMARK INTER + INTRA:          -6.576
REMARK INTER:                  -6.356
REMARK INTRA:                  -0.220
REMARK UNBOUND:                -0.213
REMARK SMILES CC(C)c1ccc(C(=O)[O-])cc1
REMARK SMILES IDX 7 1 6 2 11 3 5 4 12 5 4 6 8 7 9 8 10 9 2 10 1 11 3 12
REMARK H PARENT
REMARK Flexibility Score: inf
ROOT
ATOM      1  C   UNL     1      35.753  -3.107 -16.739  1.00  0.00    -0.003 A 
ATOM      2  C   UNL     1      37.001  -2.663 -17.209  1.00  0.00     0.010 A 
ATOM      3  C   UNL     1      34.607  -2.855 -17.511  1.00  0.00     0.010 A 
ATOM      4  C   UNL     1      37.100  -1.981 -18.425  1.00  0.00     0.004 A 
ATOM      5  C   UNL     1      34.707  -2.174 -18.728  1.00  0.00     0.004 A 
ATOM      6  C   UNL     1      35.955  -1.729 -19.198  1.00  0.00    -0.045 A 
ENDROOT
BRANCH   1   7
ATOM      7  C   UNL     1      35.643  -3.829 -15.452  1.00  0.00     0.071 C 
ATOM      8  O   UNL     1      36.666  -4.042 -14.748  1.00  0.00    -0.545 OA
ATOM      9  O   UNL     1      34.409  -4.282 -15.001  1.00  0.00    -0.545 OA
ENDBRANCH   1   7
BRANCH   6  10
ATOM     10  C   UNL     1      36.078  -0.988 -20.516  1.00  0.00     0.013 C 
ATOM     11  C   UNL     1      35.027   0.123 -20.626  1.00  0.00     0.012 C 
ATOM     12  C   UNL     1      37.493  -0.429 -20.706  1.00  0.00     0.012 C 
ENDBRANCH   6  10
TORSDOF 2
ENDMDL
MODEL 8
REMARK VINA RESULT:    -5.559      3.958      5.585
REMARK INTER + INTRA:          -6.422
REMARK INTER:                  -6.213
REMARK INTRA:                  -0.209
REMARK UNBOUND:                -0.213
REMARK SMILES CC(C)c1ccc(C(=O)[O-])cc1
REMARK SMILES IDX 7 1 6 2 11 3 5 4 12 5 4 6 8 7 9 8 10 9 2 10 1 11 3 12
REMARK H PARENT
REMARK Flexibility Score: inf
ROOT
ATOM      1  C   UNL     1      36.420  -2.159 -17.921  1.00  0.00    -0.003 A 
ATOM      2  C   UNL     1      37.449  -2.340 -16.980  1.00  0.00     0.010 A 
ATOM      3  C   UNL     1      35.098  -2.453 -17.548  1.00  0.00     0.010 A 
ATOM      4  C   UNL     1      37.160  -2.805 -15.694  1.00  0.00     0.004 A 
ATOM      5  C   UNL     1      34.811  -2.918 -16.261  1.00  0.00     0.004 A 
ATOM      6  C   UNL     1      35.839  -3.099 -15.319  1.00  0.00    -0.045 A 
ENDROOT
BRANCH   1   7
ATOM      7  C   UNL     1      36.721  -1.667 -19.284  1.00  0.00     0.071 C 
ATOM      8  O   UNL     1      37.912  -1.572 -19.682  1.00  0.00    -0.545 OA
ATOM      9  O   UNL     1      35.692  -1.303 -20.144  1.00  0.00    -0.545 OA
ENDBRANCH   1   7
BRANCH   6  10
ATOM     10  C   UNL     1      35.541  -3.603 -13.920  1.00  0.00     0.013 C 
ATOM     11  C   UNL     1      35.021  -2.472 -13.024  1.00  0.00     0.012 C 
ATOM     12  C   UNL     1      34.555  -4.777 -13.954  1.00  0.00     0.012 C 
ENDBRANCH   6  10
TORSDOF 2
ENDMDL
MODEL 9
REMARK VINA RESULT:    -5.530      3.046      3.958
REMARK INTER + INTRA:          -6.389
REMARK INTER:                  -6.170
REMARK INTRA:                  -0.219
REMARK UNBOUND:                -0.213
REMARK SMILES CC(C)c1ccc(C(=O)[O-])cc1
REMARK SMILES IDX 7 1 6 2 11 3 5 4 12 5 4 6 8 7 9 8 10 9 2 10 1 11 3 12
REMARK H PARENT
REMARK Flexibility Score: inf
ROOT
ATOM      1  C   UNL     1      35.462  -3.190 -16.941  1.00  0.00    -0.003 A 
ATOM      2  C   UNL     1      34.542  -2.616 -17.835  1.00  0.00     0.010 A 
ATOM      3  C   UNL     1      36.831  -2.922 -17.110  1.00  0.00     0.010 A 
ATOM      4  C   UNL     1      34.981  -1.793 -18.875  1.00  0.00     0.004 A 
ATOM      5  C   UNL     1      37.269  -2.098 -18.150  1.00  0.00     0.004 A 
ATOM      6  C   UNL     1      36.348  -1.524 -19.046  1.00  0.00    -0.045 A 
ENDROOT
BRANCH   1   7
ATOM      7  C   UNL     1      35.002  -4.062 -15.838  1.00  0.00     0.071 C 
ATOM      8  O   UNL     1      33.926  -4.708 -15.939  1.00  0.00    -0.545 OA
ATOM      9  O   UNL     1      35.753  -4.181 -14.674  1.00  0.00    -0.545 OA
ENDBRANCH   1   7
BRANCH   6  10
ATOM     10  C   UNL     1      36.810  -0.629 -20.179  1.00  0.00     0.013 C 
ATOM     11  C   UNL     1      38.249  -0.961 -20.596  1.00  0.00     0.012 C 
ATOM     12  C   UNL     1      35.856  -0.715 -21.376  1.00  0.00     0.012 C 
ENDBRANCH   6  10
TORSDOF 2
ENDMDL
