MODEL 1
REMARK VINA RESULT:    -2.307      0.000      0.000
REMARK INTER + INTRA:          -3.436
REMARK INTER:                  -3.184
REMARK INTRA:                  -0.252
REMARK UNBOUND:                -0.252
REMARK SMILES CCCCCCCCO
REMARK SMILES IDX 5 1 4 2 3 3 2 4 1 5 6 6 7 7 8 8 9 9
REMARK H PARENT 9 10
REMARK Flexibility Score: inf
ROOT
ATOM      1  C   UNL     1     142.293 144.621 138.772  1.00  0.00     0.000 C 
ENDROOT
BRANCH   1   2
ATOM      2  C   UNL     1     142.782 145.791 137.910  1.00  0.00    -0.000 C 
BRANCH   2   3
ATOM      3  C   UNL     1     144.012 146.460 138.534  1.00  0.00    -0.000 C 
BRANCH   3   4
ATOM      4  C   UNL     1     144.815 145.461 139.374  1.00  0.00    -0.003 C 
ATOM      5  C   UNL     1     145.919 146.163 140.159  1.00  0.00     0.004 C 
ENDBRANCH   3   4
ENDBRANCH   2   3
ENDBRANCH   1   2
BRANCH   1   6
ATOM      6  C   UNL     1     141.073 143.942 138.139  1.00  0.00     0.002 C 
BRANCH   6   7
ATOM      7  C   UNL     1     140.948 144.309 136.655  1.00  0.00     0.028 C 
BRANCH   7   8
ATOM      8  C   UNL     1     139.486 144.329 136.196  1.00  0.00     0.156 C 
BRANCH   8   9
ATOM      9  O   UNL     1     139.246 145.407 135.331  1.00  0.00    -0.396 OA
ATOM     10  H   UNL     1     138.351 145.766 135.568  1.00  0.00     0.210 HD
ENDBRANCH   8   9
ENDBRANCH   7   8
ENDBRANCH   6   7
ENDBRANCH   1   6
TORSDOF 7
ENDMDL
MODEL 2
REMARK VINA RESULT:    -2.299      9.588     10.075
REMARK INTER + INTRA:          -3.424
REMARK INTER:                  -3.185
REMARK INTRA:                  -0.239
REMARK UNBOUND:                -0.252
REMARK SMILES CCCCCCCCO
REMARK SMILES IDX 5 1 4 2 3 3 2 4 1 5 6 6 7 7 8 8 9 9
REMARK H PARENT 9 10
REMARK Flexibility Score: inf
ROOT
ATOM      1  C   UNL     1     144.527 135.991 138.298  1.00  0.00     0.000 C 
ENDROOT
BRANCH   1   2
ATOM      2  C   UNL     1     145.518 135.072 139.023  1.00  0.00    -0.000 C 
BRANCH   2   3
ATOM      3  C   UNL     1     146.923 135.194 138.423  1.00  0.00    -0.000 C 
BRANCH   3   4
ATOM      4  C   UNL     1     147.905 134.250 139.127  1.00  0.00    -0.003 C 
ATOM      5  C   UNL     1     147.181 133.058 139.742  1.00  0.00     0.004 C 
ENDBRANCH   3   4
ENDBRANCH   2   3
ENDBRANCH   1   2
BRANCH   1   6
ATOM      6  C   UNL     1     145.179 136.648 137.075  1.00  0.00     0.002 C 
BRANCH   6   7
ATOM      7  C   UNL     1     145.010 138.172 137.115  1.00  0.00     0.028 C 
BRANCH   7   8
ATOM      8  C   UNL     1     144.671 138.742 135.733  1.00  0.00     0.156 C 
BRANCH   8   9
ATOM      9  O   UNL     1     145.828 139.179 135.072  1.00  0.00    -0.396 OA
ATOM     10  H   UNL     1     145.530 139.590 134.219  1.00  0.00     0.210 HD
ENDBRANCH   8   9
ENDBRANCH   7   8
ENDBRANCH   6   7
ENDBRANCH   1   6
TORSDOF 7
ENDMDL
MODEL 3
REMARK VINA RESULT:    -2.250     10.524     12.276
REMARK INTER + INTRA:          -3.357
REMARK INTER:                  -2.887
REMARK INTRA:                  -0.470
REMARK UNBOUND:                -0.252
REMARK SMILES CCCCCCCCO
REMARK SMILES IDX 5 1 4 2 3 3 2 4 1 5 6 6 7 7 8 8 9 9
REMARK H PARENT 9 10
REMARK Flexibility Score: inf
ROOT
ATOM      1  C   UNL     1     132.108 143.890 137.634  1.00  0.00     0.000 C 
ENDROOT
BRANCH   1   2
ATOM      2  C   UNL     1     131.540 142.515 138.007  1.00  0.00    -0.000 C 
BRANCH   2   3
ATOM      3  C   UNL     1     130.479 142.637 139.107  1.00  0.00    -0.000 C 
BRANCH   3   4
ATOM      4  C   UNL     1     129.066 142.584 138.518  1.00  0.00    -0.003 C 
ATOM      5  C   UNL     1     128.157 143.620 139.170  1.00  0.00     0.004 C 
ENDBRANCH   3   4
ENDBRANCH   2   3
ENDBRANCH   1   2
BRANCH   1   6
ATOM      6  C   UNL     1     132.246 144.783 138.873  1.00  0.00     0.002 C 
BRANCH   6   7
ATOM      7  C   UNL     1     131.750 146.206 138.582  1.00  0.00     0.028 C 
BRANCH   7   8
ATOM      8  C   UNL     1     130.456 146.199 137.760  1.00  0.00     0.156 C 
BRANCH   8   9
ATOM      9  O   UNL     1     130.658 146.785 136.502  1.00  0.00    -0.396 OA
ATOM     10  H   UNL     1     131.431 147.401 136.596  1.00  0.00     0.210 HD
ENDBRANCH   8   9
ENDBRANCH   7   8
ENDBRANCH   6   7
ENDBRANCH   1   6
TORSDOF 7
ENDMDL
MODEL 4
REMARK VINA RESULT:    -2.228      9.991     10.706
REMARK INTER + INTRA:          -3.327
REMARK INTER:                  -3.083
REMARK INTRA:                  -0.244
REMARK UNBOUND:                -0.252
REMARK SMILES CCCCCCCCO
REMARK SMILES IDX 5 1 4 2 3 3 2 4 1 5 6 6 7 7 8 8 9 9
REMARK H PARENT 9 10
REMARK Flexibility Score: inf
ROOT
ATOM      1  C   UNL     1     132.421 144.128 138.727  1.00  0.00     0.000 C 
ENDROOT
BRANCH   1   2
ATOM      2  C   UNL     1     131.624 145.124 137.875  1.00  0.00    -0.000 C 
BRANCH   2   3
ATOM      3  C   UNL     1     131.238 146.362 138.692  1.00  0.00    -0.000 C 
BRANCH   3   4
ATOM      4  C   UNL     1     132.465 146.976 139.375  1.00  0.00    -0.003 C 
ATOM      5  C   UNL     1     132.055 147.944 140.481  1.00  0.00     0.004 C 
ENDBRANCH   3   4
ENDBRANCH   2   3
ENDBRANCH   1   2
BRANCH   1   6
ATOM      6  C   UNL     1     133.136 143.097 137.846  1.00  0.00     0.002 C 
BRANCH   6   7
ATOM      7  C   UNL     1     132.375 142.877 136.532  1.00  0.00     0.028 C 
BRANCH   7   8
ATOM      8  C   UNL     1     131.609 141.549 136.535  1.00  0.00     0.156 C 
BRANCH   8   9
ATOM      9  O   UNL     1     130.882 141.386 135.347  1.00  0.00    -0.396 OA
ATOM     10  H   UNL     1     131.510 141.004 134.680  1.00  0.00     0.210 HD
ENDBRANCH   8   9
ENDBRANCH   7   8
ENDBRANCH   6   7
ENDBRANCH   1   6
TORSDOF 7
ENDMDL
MODEL 5
REMARK VINA RESULT:    -2.219      2.419      4.567
REMARK INTER + INTRA:          -3.314
REMARK INTER:                  -3.040
REMARK INTRA:                  -0.275
REMARK UNBOUND:                -0.252
REMARK SMILES CCCCCCCCO
REMARK SMILES IDX 5 1 4 2 3 3 2 4 1 5 6 6 7 7 8 8 9 9
REMARK H PARENT 9 10
REMARK Flexibility Score: inf
ROOT
ATOM      1  C   UNL     1     141.837 145.078 138.030  1.00  0.00     0.000 C 
ENDROOT
BRANCH   1   2
ATOM      2  C   UNL     1     141.444 143.652 137.626  1.00  0.00    -0.000 C 
BRANCH   2   3
ATOM      3  C   UNL     1     142.132 142.615 138.521  1.00  0.00    -0.000 C 
BRANCH   3   4
ATOM      4  C   UNL     1     142.250 141.264 137.808  1.00  0.00    -0.003 C 
ATOM      5  C   UNL     1     141.373 141.219 136.561  1.00  0.00     0.004 C 
ENDBRANCH   3   4
ENDBRANCH   2   3
ENDBRANCH   1   2
BRANCH   1   6
ATOM      6  C   UNL     1     142.989 145.065 139.042  1.00  0.00     0.002 C 
BRANCH   6   7
ATOM      7  C   UNL     1     144.113 146.014 138.606  1.00  0.00     0.028 C 
BRANCH   7   8
ATOM      8  C   UNL     1     143.580 147.176 137.761  1.00  0.00     0.156 C 
BRANCH   8   9
ATOM      9  O   UNL     1     144.077 147.115 136.452  1.00  0.00    -0.396 OA
ATOM     10  H   UNL     1     143.974 148.024 136.066  1.00  0.00     0.210 HD
ENDBRANCH   8   9
ENDBRANCH   7   8
ENDBRANCH   6   7
ENDBRANCH   1   6
TORSDOF 7
ENDMDL
MODEL 6
REMARK VINA RESULT:    -2.218      4.307      6.152
REMARK INTER + INTRA:          -3.312
REMARK INTER:                  -2.992
REMARK INTRA:                  -0.321
REMARK UNBOUND:                -0.252
REMARK SMILES CCCCCCCCO
REMARK SMILES IDX 5 1 4 2 3 3 2 4 1 5 6 6 7 7 8 8 9 9
REMARK H PARENT 9 10
REMARK Flexibility Score: inf
ROOT
ATOM      1  C   UNL     1     145.174 145.017 139.642  1.00  0.00     0.000 C 
ENDROOT
BRANCH   1   2
ATOM      2  C   UNL     1     143.789 145.449 139.146  1.00  0.00    -0.000 C 
BRANCH   2   3
ATOM      3  C   UNL     1     143.900 146.583 138.120  1.00  0.00    -0.000 C 
BRANCH   3   4
ATOM      4  C   UNL     1     142.992 147.758 138.498  1.00  0.00    -0.003 C 
ATOM      5  C   UNL     1     141.646 147.269 139.024  1.00  0.00     0.004 C 
ENDBRANCH   3   4
ENDBRANCH   2   3
ENDBRANCH   1   2
BRANCH   1   6
ATOM      6  C   UNL     1     146.016 146.230 140.053  1.00  0.00     0.002 C 
BRANCH   6   7
ATOM      7  C   UNL     1     145.812 146.564 141.537  1.00  0.00     0.028 C 
BRANCH   7   8
ATOM      8  C   UNL     1     146.774 147.659 142.011  1.00  0.00     0.156 C 
BRANCH   8   9
ATOM      9  O   UNL     1     147.902 147.730 141.180  1.00  0.00    -0.396 OA
ATOM     10  H   UNL     1     147.605 147.452 140.274  1.00  0.00     0.210 HD
ENDBRANCH   8   9
ENDBRANCH   7   8
ENDBRANCH   6   7
ENDBRANCH   1   6
TORSDOF 7
ENDMDL
MODEL 7
REMARK VINA RESULT:    -2.194      9.332     10.719
REMARK INTER + INTRA:          -3.279
REMARK INTER:                  -2.718
REMARK INTRA:                  -0.561
REMARK UNBOUND:                -0.252
REMARK SMILES CCCCCCCCO
REMARK SMILES IDX 5 1 4 2 3 3 2 4 1 5 6 6 7 7 8 8 9 9
REMARK H PARENT 9 10
REMARK Flexibility Score: inf
ROOT
ATOM      1  C   UNL     1     132.603 145.095 140.535  1.00  0.00     0.000 C 
ENDROOT
BRANCH   1   2
ATOM      2  C   UNL     1     133.593 144.934 139.375  1.00  0.00    -0.000 C 
BRANCH   2   3
ATOM      3  C   UNL     1     133.670 143.475 138.914  1.00  0.00    -0.000 C 
BRANCH   3   4
ATOM      4  C   UNL     1     132.894 143.269 137.608  1.00  0.00    -0.003 C 
ATOM      5  C   UNL     1     131.526 142.647 137.871  1.00  0.00     0.004 C 
ENDBRANCH   3   4
ENDBRANCH   2   3
ENDBRANCH   1   2
BRANCH   1   6
ATOM      6  C   UNL     1     131.375 145.905 140.102  1.00  0.00     0.002 C 
BRANCH   6   7
ATOM      7  C   UNL     1     131.609 146.571 138.740  1.00  0.00     0.028 C 
BRANCH   7   8
ATOM      8  C   UNL     1     130.466 146.279 137.761  1.00  0.00     0.156 C 
BRANCH   8   9
ATOM      9  O   UNL     1     130.872 146.498 136.437  1.00  0.00    -0.396 OA
ATOM     10  H   UNL     1     131.150 145.617 136.075  1.00  0.00     0.210 HD
ENDBRANCH   8   9
ENDBRANCH   7   8
ENDBRANCH   6   7
ENDBRANCH   1   6
TORSDOF 7
ENDMDL
MODEL 8
REMARK VINA RESULT:    -2.190      9.875     11.852
REMARK INTER + INTRA:          -3.274
REMARK INTER:                  -2.854
REMARK INTRA:                  -0.420
REMARK UNBOUND:                -0.252
REMARK SMILES CCCCCCCCO
REMARK SMILES IDX 5 1 4 2 3 3 2 4 1 5 6 6 7 7 8 8 9 9
REMARK H PARENT 9 10
REMARK Flexibility Score: inf
ROOT
ATOM      1  C   UNL     1     132.409 145.259 138.967  1.00  0.00     0.000 C 
ENDROOT
BRANCH   1   2
ATOM      2  C   UNL     1     131.260 145.736 138.070  1.00  0.00    -0.000 C 
BRANCH   2   3
ATOM      3  C   UNL     1     130.087 146.256 138.907  1.00  0.00    -0.000 C 
BRANCH   3   4
ATOM      4  C   UNL     1     128.749 145.748 138.357  1.00  0.00    -0.003 C 
ATOM      5  C   UNL     1     128.436 144.348 138.875  1.00  0.00     0.004 C 
ENDBRANCH   3   4
ENDBRANCH   2   3
ENDBRANCH   1   2
BRANCH   1   6
ATOM      6  C   UNL     1     132.948 143.903 138.495  1.00  0.00     0.002 C 
BRANCH   6   7
ATOM      7  C   UNL     1     131.808 142.993 138.021  1.00  0.00     0.028 C 
BRANCH   7   8
ATOM      8  C   UNL     1     132.193 142.209 136.762  1.00  0.00     0.156 C 
BRANCH   8   9
ATOM      9  O   UNL     1     132.018 142.989 135.611  1.00  0.00    -0.396 OA
ATOM     10  H   UNL     1     132.396 142.469 134.854  1.00  0.00     0.210 HD
ENDBRANCH   8   9
ENDBRANCH   7   8
ENDBRANCH   6   7
ENDBRANCH   1   6
TORSDOF 7
ENDMDL
MODEL 9
REMARK VINA RESULT:    -2.166      9.467     10.498
REMARK INTER + INTRA:          -3.240
REMARK INTER:                  -2.749
REMARK INTRA:                  -0.491
REMARK UNBOUND:                -0.252
REMARK SMILES CCCCCCCCO
REMARK SMILES IDX 5 1 4 2 3 3 2 4 1 5 6 6 7 7 8 8 9 9
REMARK H PARENT 9 10
REMARK Flexibility Score: inf
ROOT
ATOM      1  C   UNL     1     132.609 144.410 140.231  1.00  0.00     0.000 C 
ENDROOT
BRANCH   1   2
ATOM      2  C   UNL     1     133.366 145.535 139.514  1.00  0.00    -0.000 C 
BRANCH   2   3
ATOM      3  C   UNL     1     132.509 146.802 139.417  1.00  0.00    -0.000 C 
BRANCH   3   4
ATOM      4  C   UNL     1     131.060 146.461 139.051  1.00  0.00    -0.003 C 
ATOM      5  C   UNL     1     130.899 146.281 137.545  1.00  0.00     0.004 C 
ENDBRANCH   3   4
ENDBRANCH   2   3
ENDBRANCH   1   2
BRANCH   1   6
ATOM      6  C   UNL     1     132.679 143.103 139.432  1.00  0.00     0.002 C 
BRANCH   6   7
ATOM      7  C   UNL     1     133.135 143.364 137.991  1.00  0.00     0.028 C 
BRANCH   7   8
ATOM      8  C   UNL     1     132.415 142.450 136.993  1.00  0.00     0.156 C 
BRANCH   8   9
ATOM      9  O   UNL     1     131.991 143.170 135.868  1.00  0.00    -0.396 OA
ATOM     10  H   UNL     1     131.251 142.649 135.460  1.00  0.00     0.210 HD
ENDBRANCH   8   9
ENDBRANCH   7   8
ENDBRANCH   6   7
ENDBRANCH   1   6
TORSDOF 7
ENDMDL
