MODEL 1
REMARK VINA RESULT:    -5.279      0.000      0.000
REMARK INTER + INTRA:          -6.143
REMARK INTER:                  -6.051
REMARK INTRA:                  -0.093
REMARK UNBOUND:                -0.093
REMARK SMILES CC1(C)CC[C@]23CO[C@@]4(C=C[C@H]5[C@@]6(C)CC[C@H](O)[C@](C)(CO)[C@H]6CC[C@@]5(C)[C@@]4(C)C[C@H]2O)[C@@H]3C1
REMARK SMILES IDX 1 1 2 2 4 3 5 4 6 5 7 6 8 7 9 8 33 9 34 10 10 11 11 12 12 13
REMARK SMILES IDX 13 14 15 15 16 16 17 17 19 18 23 19 24 20 25 21 26 22 28 23
REMARK SMILES IDX 30 24 31 25 29 26 27 27 20 28 14 29 3 30 32 31 21 33 22 34
REMARK SMILES IDX 18 36
REMARK H PARENT 32 32 22 35 18 37
REMARK Flexibility Score: inf
ROOT
ATOM      1  C   UNL     1       3.756  -9.121  -7.726  1.00  0.00     0.011 C 
ATOM      2  C   UNL     1       5.193  -8.567  -7.893  1.00  0.00    -0.035 C 
ATOM      3  C   UNL     1       5.543  -8.456  -9.410  1.00  0.00     0.007 C 
ATOM      4  C   UNL     1       4.934  -7.222 -10.125  1.00  0.00     0.013 C 
ATOM      5  C   UNL     1       5.121  -5.899  -9.331  1.00  0.00     0.026 C 
ATOM      6  C   UNL     1       4.138  -4.804  -9.764  1.00  0.00     0.171 C 
ATOM      7  O   UNL     1       3.876  -3.996  -8.632  1.00  0.00    -0.369 OA
ATOM      8  C   UNL     1       4.522  -4.586  -7.505  1.00  0.00     0.096 C 
ATOM      9  C   UNL     1       4.617  -6.072  -7.923  1.00  0.00     0.037 C 
ATOM     10  C   UNL     1       5.352  -7.193  -7.166  1.00  0.00     0.014 C 
ATOM     11  C   UNL     1       3.560  -4.387  -6.362  1.00  0.00     0.005 C 
ATOM     12  C   UNL     1       3.778  -3.556  -5.336  1.00  0.00    -0.024 C 
ATOM     13  C   UNL     1       5.141  -3.020  -4.899  1.00  0.00     0.024 C 
ATOM     14  C   UNL     1       5.279  -3.001  -3.273  1.00  0.00    -0.022 C 
ATOM     15  C   UNL     1       4.134  -3.798  -2.549  1.00  0.00     0.010 C 
ATOM     16  C   UNL     1       4.273  -3.918  -1.021  1.00  0.00     0.033 C 
ATOM     17  C   UNL     1       5.611  -4.541  -0.603  1.00  0.00     0.123 C 
ATOM     18  C   UNL     1       6.841  -3.782  -1.197  1.00  0.00     0.020 C 
ATOM     19  C   UNL     1       6.657  -3.612  -2.780  1.00  0.00     0.006 C 
ATOM     20  C   UNL     1       6.965  -4.956  -3.520  1.00  0.00     0.005 C 
ATOM     21  C   UNL     1       6.537  -5.058  -4.996  1.00  0.00     0.008 C 
ATOM     22  C   UNL     1       6.319  -3.700  -5.706  1.00  0.00    -0.017 C 
ATOM     23  C   UNL     1       5.911  -3.831  -7.276  1.00  0.00     0.009 C 
ATOM     24  C   UNL     1       7.042  -4.524  -8.128  1.00  0.00     0.043 C 
ATOM     25  C   UNL     1       6.589  -5.302  -9.399  1.00  0.00     0.124 C 
ATOM     26  C   UNL     1       5.757  -2.377  -7.867  1.00  0.00     0.015 C 
ATOM     27  C   UNL     1       7.649  -2.857  -5.600  1.00  0.00     0.013 C 
ATOM     28  C   UNL     1       8.115  -4.626  -0.884  1.00  0.00     0.017 C 
ATOM     29  C   UNL     1       5.150  -1.497  -2.876  1.00  0.00     0.012 C 
ATOM     30  C   UNL     1       6.161  -9.575  -7.233  1.00  0.00     0.011 C 
ENDROOT
BRANCH  25  31
ATOM     31  O   UNL     1       7.537  -6.300  -9.675  1.00  0.00    -0.392 OA
ATOM     32  H   UNL     1       7.800  -6.710  -8.808  1.00  0.00     0.210 HD
ENDBRANCH  25  31
BRANCH  18  33
ATOM     33  C   UNL     1       7.066  -2.419  -0.456  1.00  0.00     0.165 C 
BRANCH  33  34
ATOM     34  O   UNL     1       8.062  -1.655  -1.084  1.00  0.00    -0.396 OA
ATOM     35  H   UNL     1       7.822  -1.622  -2.046  1.00  0.00     0.210 HD
ENDBRANCH  33  34
ENDBRANCH  18  33
BRANCH  17  36
ATOM     36  O   UNL     1       5.696  -4.662   0.799  1.00  0.00    -0.392 OA
ATOM     37  H   UNL     1       6.652  -4.762   1.049  1.00  0.00     0.210 HD
ENDBRANCH  17  36
TORSDOF 4
ENDMDL
MODEL 2
REMARK VINA RESULT:    -5.076      1.737      4.141
REMARK INTER + INTRA:          -5.911
REMARK INTER:                  -5.813
REMARK INTRA:                  -0.098
REMARK UNBOUND:                -0.093
REMARK SMILES CC1(C)CC[C@]23CO[C@@]4(C=C[C@H]5[C@@]6(C)CC[C@H](O)[C@](C)(CO)[C@H]6CC[C@@]5(C)[C@@]4(C)C[C@H]2O)[C@@H]3C1
REMARK SMILES IDX 1 1 2 2 4 3 5 4 6 5 7 6 8 7 9 8 33 9 34 10 10 11 11 12 12 13
REMARK SMILES IDX 13 14 15 15 16 16 17 17 19 18 23 19 24 20 25 21 26 22 28 23
REMARK SMILES IDX 30 24 31 25 29 26 27 27 20 28 14 29 3 30 32 31 21 33 22 34
REMARK SMILES IDX 18 36
REMARK H PARENT 32 32 22 35 18 37
REMARK Flexibility Score: inf
ROOT
ATOM      1  C   UNL     1       4.804  -0.766  -9.210  1.00  0.00     0.011 C 
ATOM      2  C   UNL     1       3.991  -1.973  -8.676  1.00  0.00    -0.035 C 
ATOM      3  C   UNL     1       3.772  -3.008  -9.823  1.00  0.00     0.007 C 
ATOM      4  C   UNL     1       4.998  -3.908 -10.125  1.00  0.00     0.013 C 
ATOM      5  C   UNL     1       5.651  -4.503  -8.846  1.00  0.00     0.026 C 
ATOM      6  C   UNL     1       7.094  -4.971  -9.080  1.00  0.00     0.171 C 
ATOM      7  O   UNL     1       7.795  -4.807  -7.861  1.00  0.00    -0.369 OA
ATOM      8  C   UNL     1       6.930  -4.157  -6.933  1.00  0.00     0.096 C 
ATOM      9  C   UNL     1       5.956  -3.402  -7.867  1.00  0.00     0.037 C 
ATOM     10  C   UNL     1       4.697  -2.624  -7.443  1.00  0.00     0.014 C 
ATOM     11  C   UNL     1       7.822  -3.211  -6.173  1.00  0.00     0.005 C 
ATOM     12  C   UNL     1       8.155  -3.365  -4.886  1.00  0.00    -0.024 C 
ATOM     13  C   UNL     1       7.393  -4.211  -3.865  1.00  0.00     0.024 C 
ATOM     14  C   UNL     1       7.303  -3.460  -2.419  1.00  0.00    -0.022 C 
ATOM     15  C   UNL     1       7.739  -1.951  -2.481  1.00  0.00     0.010 C 
ATOM     16  C   UNL     1       7.563  -1.155  -1.176  1.00  0.00     0.033 C 
ATOM     17  C   UNL     1       6.122  -1.203  -0.652  1.00  0.00     0.123 C 
ATOM     18  C   UNL     1       5.596  -2.662  -0.467  1.00  0.00     0.020 C 
ATOM     19  C   UNL     1       5.837  -3.498  -1.814  1.00  0.00     0.006 C 
ATOM     20  C   UNL     1       4.778  -3.115  -2.900  1.00  0.00     0.005 C 
ATOM     21  C   UNL     1       5.050  -3.582  -4.341  1.00  0.00     0.008 C 
ATOM     22  C   UNL     1       6.040  -4.766  -4.465  1.00  0.00    -0.017 C 
ATOM     23  C   UNL     1       6.279  -5.273  -5.994  1.00  0.00     0.009 C 
ATOM     24  C   UNL     1       4.954  -5.818  -6.652  1.00  0.00     0.043 C 
ATOM     25  C   UNL     1       4.840  -5.705  -8.202  1.00  0.00     0.124 C 
ATOM     26  C   UNL     1       7.276  -6.494  -5.956  1.00  0.00     0.015 C 
ATOM     27  C   UNL     1       5.488  -5.976  -3.614  1.00  0.00     0.013 C 
ATOM     28  C   UNL     1       4.072  -2.580  -0.143  1.00  0.00     0.017 C 
ATOM     29  C   UNL     1       8.315  -4.220  -1.506  1.00  0.00     0.012 C 
ATOM     30  C   UNL     1       2.614  -1.441  -8.218  1.00  0.00     0.011 C 
ENDROOT
BRANCH  25  31
ATOM     31  O   UNL     1       3.480  -5.651  -8.547  1.00  0.00    -0.392 OA
ATOM     32  H   UNL     1       3.090  -6.546  -8.363  1.00  0.00     0.210 HD
ENDBRANCH  25  31
BRANCH  18  33
ATOM     33  C   UNL     1       6.242  -3.332   0.794  1.00  0.00     0.165 C 
BRANCH  33  34
ATOM     34  O   UNL     1       5.592  -4.531   1.125  1.00  0.00    -0.396 OA
ATOM     35  H   UNL     1       5.743  -4.670   2.096  1.00  0.00     0.210 HD
ENDBRANCH  33  34
ENDBRANCH  18  33
BRANCH  17  36
ATOM     36  O   UNL     1       5.988  -0.443   0.527  1.00  0.00    -0.392 OA
ATOM     37  H   UNL     1       6.783   0.145   0.616  1.00  0.00     0.210 HD
ENDBRANCH  17  36
TORSDOF 4
ENDMDL
MODEL 3
REMARK VINA RESULT:    -5.066      2.491      4.539
REMARK INTER + INTRA:          -5.899
REMARK INTER:                  -5.666
REMARK INTRA:                  -0.233
REMARK UNBOUND:                -0.093
REMARK SMILES CC1(C)CC[C@]23CO[C@@]4(C=C[C@H]5[C@@]6(C)CC[C@H](O)[C@](C)(CO)[C@H]6CC[C@@]5(C)[C@@]4(C)C[C@H]2O)[C@@H]3C1
REMARK SMILES IDX 1 1 2 2 4 3 5 4 6 5 7 6 8 7 9 8 33 9 34 10 10 11 11 12 12 13
REMARK SMILES IDX 13 14 15 15 16 16 17 17 19 18 23 19 24 20 25 21 26 22 28 23
REMARK SMILES IDX 30 24 31 25 29 26 27 27 20 28 14 29 3 30 32 31 21 33 22 34
REMARK SMILES IDX 18 36
REMARK H PARENT 32 32 22 35 18 37
REMARK Flexibility Score: inf
ROOT
ATOM      1  C   UNL     1       6.430  -0.416  -9.105  1.00  0.00     0.011 C 
ATOM      2  C   UNL     1       5.939  -1.870  -8.897  1.00  0.00    -0.035 C 
ATOM      3  C   UNL     1       6.352  -2.746 -10.122  1.00  0.00     0.007 C 
ATOM      4  C   UNL     1       7.835  -3.196 -10.124  1.00  0.00     0.013 C 
ATOM      5  C   UNL     1       8.308  -3.757  -8.754  1.00  0.00     0.026 C 
ATOM      6  C   UNL     1       9.835  -3.746  -8.604  1.00  0.00     0.171 C 
ATOM      7  O   UNL     1      10.125  -3.566  -7.230  1.00  0.00    -0.369 OA
ATOM      8  C   UNL     1       8.896  -3.338  -6.541  1.00  0.00     0.096 C 
ATOM      9  C   UNL     1       7.994  -2.770  -7.661  1.00  0.00     0.037 C 
ATOM     10  C   UNL     1       6.489  -2.462  -7.559  1.00  0.00     0.014 C 
ATOM     11  C   UNL     1       9.224  -2.296  -5.505  1.00  0.00     0.005 C 
ATOM     12  C   UNL     1       9.261  -2.534  -4.188  1.00  0.00    -0.024 C 
ATOM     13  C   UNL     1       8.582  -3.704  -3.476  1.00  0.00     0.024 C 
ATOM     14  C   UNL     1       7.903  -3.232  -2.069  1.00  0.00    -0.022 C 
ATOM     15  C   UNL     1       7.837  -1.669  -1.912  1.00  0.00     0.010 C 
ATOM     16  C   UNL     1       7.100  -1.159  -0.662  1.00  0.00     0.033 C 
ATOM     17  C   UNL     1       5.668  -1.699  -0.565  1.00  0.00     0.123 C 
ATOM     18  C   UNL     1       5.606  -3.259  -0.626  1.00  0.00     0.020 C 
ATOM     19  C   UNL     1       6.426  -3.782  -1.901  1.00  0.00     0.006 C 
ATOM     20  C   UNL     1       5.602  -3.568  -3.214  1.00  0.00     0.005 C 
ATOM     21  C   UNL     1       6.355  -3.720  -4.548  1.00  0.00     0.008 C 
ATOM     22  C   UNL     1       7.669  -4.534  -4.464  1.00  0.00    -0.017 C 
ATOM     23  C   UNL     1       8.425  -4.720  -5.894  1.00  0.00     0.009 C 
ATOM     24  C   UNL     1       7.549  -5.524  -6.929  1.00  0.00     0.043 C 
ATOM     25  C   UNL     1       7.790  -5.223  -8.438  1.00  0.00     0.124 C 
ATOM     26  C   UNL     1       9.718  -5.591  -5.655  1.00  0.00     0.015 C 
ATOM     27  C   UNL     1       7.340  -5.963  -3.879  1.00  0.00     0.013 C 
ATOM     28  C   UNL     1       4.106  -3.671  -0.737  1.00  0.00     0.017 C 
ATOM     29  C   UNL     1       8.848  -3.791  -0.959  1.00  0.00     0.012 C 
ATOM     30  C   UNL     1       4.397  -1.835  -8.810  1.00  0.00     0.011 C 
ENDROOT
BRANCH  25  31
ATOM     31  O   UNL     1       6.614  -5.516  -9.146  1.00  0.00    -0.392 OA
ATOM     32  H   UNL     1       5.876  -4.998  -8.728  1.00  0.00     0.210 HD
ENDBRANCH  25  31
BRANCH  18  33
ATOM     33  C   UNL     1       6.101  -3.889   0.721  1.00  0.00     0.165 C 
BRANCH  33  34
ATOM     34  O   UNL     1       5.027  -4.160   1.583  1.00  0.00    -0.396 OA
ATOM     35  H   UNL     1       4.256  -3.634   1.240  1.00  0.00     0.210 HD
ENDBRANCH  33  34
ENDBRANCH  18  33
BRANCH  17  36
ATOM     36  O   UNL     1       5.012  -1.192   0.575  1.00  0.00    -0.392 OA
ATOM     37  H   UNL     1       5.609  -1.308   1.359  1.00  0.00     0.210 HD
ENDBRANCH  17  36
TORSDOF 4
ENDMDL
MODEL 4
REMARK VINA RESULT:    -4.838      1.611      3.984
REMARK INTER + INTRA:          -5.638
REMARK INTER:                  -5.546
REMARK INTRA:                  -0.092
REMARK UNBOUND:                -0.093
REMARK SMILES CC1(C)CC[C@]23CO[C@@]4(C=C[C@H]5[C@@]6(C)CC[C@H](O)[C@](C)(CO)[C@H]6CC[C@@]5(C)[C@@]4(C)C[C@H]2O)[C@@H]3C1
REMARK SMILES IDX 1 1 2 2 4 3 5 4 6 5 7 6 8 7 9 8 33 9 34 10 10 11 11 12 12 13
REMARK SMILES IDX 13 14 15 15 16 16 17 17 19 18 23 19 24 20 25 21 26 22 28 23
REMARK SMILES IDX 30 24 31 25 29 26 27 27 20 28 14 29 3 30 32 31 21 33 22 34
REMARK SMILES IDX 18 36
REMARK H PARENT 32 32 22 35 18 37
REMARK Flexibility Score: inf
ROOT
ATOM      1  C   UNL     1       5.667  -2.656  -9.802  1.00  0.00     0.011 C 
ATOM      2  C   UNL     1       4.746  -3.685  -9.099  1.00  0.00    -0.035 C 
ATOM      3  C   UNL     1       4.488  -4.896 -10.049  1.00  0.00     0.007 C 
ATOM      4  C   UNL     1       5.651  -5.919 -10.125  1.00  0.00     0.013 C 
ATOM      5  C   UNL     1       6.212  -6.313  -8.730  1.00  0.00     0.026 C 
ATOM      6  C   UNL     1       7.622  -6.914  -8.807  1.00  0.00     0.171 C 
ATOM      7  O   UNL     1       8.292  -6.578  -7.606  1.00  0.00    -0.369 OA
ATOM      8  C   UNL     1       7.448  -5.710  -6.852  1.00  0.00     0.096 C 
ATOM      9  C   UNL     1       6.567  -5.074  -7.952  1.00  0.00     0.037 C 
ATOM     10  C   UNL     1       5.357  -4.146  -7.737  1.00  0.00     0.014 C 
ATOM     11  C   UNL     1       8.383  -4.705  -6.234  1.00  0.00     0.005 C 
ATOM     12  C   UNL     1       8.659  -4.643  -4.926  1.00  0.00    -0.024 C 
ATOM     13  C   UNL     1       7.800  -5.232  -3.806  1.00  0.00     0.024 C 
ATOM     14  C   UNL     1       7.718  -4.225  -2.526  1.00  0.00    -0.022 C 
ATOM     15  C   UNL     1       8.271  -2.786  -2.839  1.00  0.00     0.010 C 
ATOM     16  C   UNL     1       8.112  -1.755  -1.708  1.00  0.00     0.033 C 
ATOM     17  C   UNL     1       6.654  -1.606  -1.253  1.00  0.00     0.123 C 
ATOM     18  C   UNL     1       6.012  -2.967  -0.833  1.00  0.00     0.020 C 
ATOM     19  C   UNL     1       6.235  -4.050  -1.994  1.00  0.00     0.006 C 
ATOM     20  C   UNL     1       5.246  -3.801  -3.180  1.00  0.00     0.005 C 
ATOM     21  C   UNL     1       5.530  -4.542  -4.499  1.00  0.00     0.008 C 
ATOM     22  C   UNL     1       6.430  -5.794  -4.360  1.00  0.00    -0.017 C 
ATOM     23  C   UNL     1       6.681  -6.587  -5.759  1.00  0.00     0.009 C 
ATOM     24  C   UNL     1       5.342  -7.152  -6.371  1.00  0.00     0.043 C 
ATOM     25  C   UNL     1       5.290  -7.317  -7.919  1.00  0.00     0.124 C 
ATOM     26  C   UNL     1       7.580  -7.847  -5.455  1.00  0.00     0.015 C 
ATOM     27  C   UNL     1       5.759  -6.786  -3.332  1.00  0.00     0.013 C 
ATOM     28  C   UNL     1       4.489  -2.721  -0.602  1.00  0.00     0.017 C 
ATOM     29  C   UNL     1       8.638  -4.873  -1.444  1.00  0.00     0.012 C 
ATOM     30  C   UNL     1       3.399  -2.985  -8.810  1.00  0.00     0.011 C 
ENDROOT
BRANCH  25  31
ATOM     31  O   UNL     1       3.951  -7.234  -8.333  1.00  0.00    -0.392 OA
ATOM     32  H   UNL     1       3.629  -8.160  -8.491  1.00  0.00     0.210 HD
ENDBRANCH  25  31
BRANCH  18  33
ATOM     33  C   UNL     1       6.562  -3.437   0.557  1.00  0.00     0.165 C 
BRANCH  33  34
ATOM     34  O   UNL     1       5.765  -4.455   1.103  1.00  0.00    -0.396 OA
ATOM     35  H   UNL     1       6.393  -5.135   1.465  1.00  0.00     0.210 HD
ENDBRANCH  33  34
ENDBRANCH  18  33
BRANCH  17  36
ATOM     36  O   UNL     1       6.538  -0.635  -0.238  1.00  0.00    -0.392 OA
ATOM     37  H   UNL     1       7.191   0.090  -0.420  1.00  0.00     0.210 HD
ENDBRANCH  17  36
TORSDOF 4
ENDMDL
MODEL 5
REMARK VINA RESULT:    -4.350      2.499      7.699
REMARK INTER + INTRA:          -5.078
REMARK INTER:                  -4.816
REMARK INTRA:                  -0.262
REMARK UNBOUND:                -0.093
REMARK SMILES CC1(C)CC[C@]23CO[C@@]4(C=C[C@H]5[C@@]6(C)CC[C@H](O)[C@](C)(CO)[C@H]6CC[C@@]5(C)[C@@]4(C)C[C@H]2O)[C@@H]3C1
REMARK SMILES IDX 1 1 2 2 4 3 5 4 6 5 7 6 8 7 9 8 33 9 34 10 10 11 11 12 12 13
REMARK SMILES IDX 13 14 15 15 16 16 17 17 19 18 23 19 24 20 25 21 26 22 28 23
REMARK SMILES IDX 30 24 31 25 29 26 27 27 20 28 14 29 3 30 32 31 21 33 22 34
REMARK SMILES IDX 18 36
REMARK H PARENT 32 32 22 35 18 37
REMARK Flexibility Score: inf
ROOT
ATOM      1  C   UNL     1       4.966  -3.401  -0.945  1.00  0.00     0.011 C 
ATOM      2  C   UNL     1       5.619  -2.860  -2.242  1.00  0.00    -0.035 C 
ATOM      3  C   UNL     1       6.781  -1.883  -1.879  1.00  0.00     0.007 C 
ATOM      4  C   UNL     1       8.099  -2.577  -1.448  1.00  0.00     0.013 C 
ATOM      5  C   UNL     1       8.517  -3.739  -2.392  1.00  0.00     0.026 C 
ATOM      6  C   UNL     1       9.504  -4.711  -1.733  1.00  0.00     0.171 C 
ATOM      7  O   UNL     1       9.275  -5.992  -2.292  1.00  0.00    -0.369 OA
ATOM      8  C   UNL     1       8.137  -5.907  -3.149  1.00  0.00     0.096 C 
ATOM      9  C   UNL     1       7.371  -4.701  -2.557  1.00  0.00     0.037 C 
ATOM     10  C   UNL     1       6.118  -4.031  -3.149  1.00  0.00     0.014 C 
ATOM     11  C   UNL     1       7.396  -7.200  -2.935  1.00  0.00     0.005 C 
ATOM     12  C   UNL     1       7.304  -8.172  -3.851  1.00  0.00    -0.024 C 
ATOM     13  C   UNL     1       7.521  -8.001  -5.354  1.00  0.00     0.024 C 
ATOM     14  C   UNL     1       6.426  -8.852  -6.214  1.00  0.00    -0.022 C 
ATOM     15  C   UNL     1       5.242  -9.396  -5.334  1.00  0.00     0.010 C 
ATOM     16  C   UNL     1       4.115 -10.105  -6.105  1.00  0.00     0.033 C 
ATOM     17  C   UNL     1       3.511  -9.221  -7.204  1.00  0.00     0.123 C 
ATOM     18  C   UNL     1       4.586  -8.680  -8.201  1.00  0.00     0.020 C 
ATOM     19  C   UNL     1       5.784  -7.995  -7.384  1.00  0.00     0.006 C 
ATOM     20  C   UNL     1       5.362  -6.579  -6.867  1.00  0.00     0.005 C 
ATOM     21  C   UNL     1       6.265  -5.921  -5.809  1.00  0.00     0.008 C 
ATOM     22  C   UNL     1       7.708  -6.480  -5.745  1.00  0.00    -0.017 C 
ATOM     23  C   UNL     1       8.657  -5.739  -4.650  1.00  0.00     0.009 C 
ATOM     24  C   UNL     1       8.860  -4.211  -4.978  1.00  0.00     0.043 C 
ATOM     25  C   UNL     1       9.137  -3.263  -3.772  1.00  0.00     0.124 C 
ATOM     26  C   UNL     1      10.092  -6.390  -4.724  1.00  0.00     0.015 C 
ATOM     27  C   UNL     1       8.370  -6.330  -7.170  1.00  0.00     0.013 C 
ATOM     28  C   UNL     1       3.892  -7.635  -9.127  1.00  0.00     0.017 C 
ATOM     29  C   UNL     1       7.216 -10.076  -6.774  1.00  0.00     0.012 C 
ATOM     30  C   UNL     1       4.537  -2.076  -3.019  1.00  0.00     0.011 C 
ENDROOT
BRANCH  25  31
ATOM     31  O   UNL     1       8.705  -1.971  -4.111  1.00  0.00    -0.392 OA
ATOM     32  H   UNL     1       9.504  -1.456  -4.403  1.00  0.00     0.210 HD
ENDBRANCH  25  31
BRANCH  18  33
ATOM     33  C   UNL     1       5.073  -9.815  -9.165  1.00  0.00     0.165 C 
BRANCH  33  34
ATOM     34  O   UNL     1       4.097 -10.124 -10.124  1.00  0.00    -0.396 OA
ATOM     35  H   UNL     1       3.421 -10.687  -9.662  1.00  0.00     0.210 HD
ENDBRANCH  33  34
ENDBRANCH  18  33
BRANCH  17  36
ATOM     36  O   UNL     1       2.465  -9.887  -7.872  1.00  0.00    -0.392 OA
ATOM     37  H   UNL     1       2.396 -10.809  -7.509  1.00  0.00     0.210 HD
ENDBRANCH  17  36
TORSDOF 4
ENDMDL
MODEL 6
REMARK VINA RESULT:    -4.242      2.377      7.482
REMARK INTER + INTRA:          -4.954
REMARK INTER:                  -4.847
REMARK INTRA:                  -0.107
REMARK UNBOUND:                -0.093
REMARK SMILES CC1(C)CC[C@]23CO[C@@]4(C=C[C@H]5[C@@]6(C)CC[C@H](O)[C@](C)(CO)[C@H]6CC[C@@]5(C)[C@@]4(C)C[C@H]2O)[C@@H]3C1
REMARK SMILES IDX 1 1 2 2 4 3 5 4 6 5 7 6 8 7 9 8 33 9 34 10 10 11 11 12 12 13
REMARK SMILES IDX 13 14 15 15 16 16 17 17 19 18 23 19 24 20 25 21 26 22 28 23
REMARK SMILES IDX 30 24 31 25 29 26 27 27 20 28 14 29 3 30 32 31 21 33 22 34
REMARK SMILES IDX 18 36
REMARK H PARENT 32 32 22 35 18 37
REMARK Flexibility Score: inf
ROOT
ATOM      1  C   UNL     1       4.907  -0.288  -0.898  1.00  0.00     0.011 C 
ATOM      2  C   UNL     1       6.078  -1.303  -0.872  1.00  0.00    -0.035 C 
ATOM      3  C   UNL     1       5.915  -2.263   0.348  1.00  0.00     0.007 C 
ATOM      4  C   UNL     1       4.875  -3.395   0.146  1.00  0.00     0.013 C 
ATOM      5  C   UNL     1       5.018  -4.122  -1.220  1.00  0.00     0.026 C 
ATOM      6  C   UNL     1       3.746  -4.877  -1.626  1.00  0.00     0.171 C 
ATOM      7  O   UNL     1       3.682  -4.871  -3.040  1.00  0.00    -0.369 OA
ATOM      8  C   UNL     1       4.749  -4.062  -3.531  1.00  0.00     0.096 C 
ATOM      9  C   UNL     1       5.017  -3.114  -2.339  1.00  0.00     0.037 C 
ATOM     10  C   UNL     1       6.164  -2.095  -2.216  1.00  0.00     0.014 C 
ATOM     11  C   UNL     1       4.164  -3.327  -4.709  1.00  0.00     0.005 C 
ATOM     12  C   UNL     1       4.508  -3.556  -5.982  1.00  0.00    -0.024 C 
ATOM     13  C   UNL     1       5.798  -4.232  -6.446  1.00  0.00     0.024 C 
ATOM     14  C   UNL     1       6.420  -3.489  -7.759  1.00  0.00    -0.022 C 
ATOM     15  C   UNL     1       5.742  -2.103  -8.060  1.00  0.00     0.010 C 
ATOM     16  C   UNL     1       6.364  -1.298  -9.214  1.00  0.00     0.033 C 
ATOM     17  C   UNL     1       7.864  -1.049  -9.012  1.00  0.00     0.123 C 
ATOM     18  C   UNL     1       8.668  -2.369  -8.784  1.00  0.00     0.020 C 
ATOM     19  C   UNL     1       7.978  -3.227  -7.619  1.00  0.00     0.006 C 
ATOM     20  C   UNL     1       8.315  -2.625  -6.215  1.00  0.00     0.005 C 
ATOM     21  C   UNL     1       7.487  -3.128  -5.018  1.00  0.00     0.008 C 
ATOM     22  C   UNL     1       6.786  -4.491  -5.239  1.00  0.00    -0.017 C 
ATOM     23  C   UNL     1       5.953  -5.025  -3.946  1.00  0.00     0.009 C 
ATOM     24  C   UNL     1       6.888  -5.279  -2.702  1.00  0.00     0.043 C 
ATOM     25  C   UNL     1       6.238  -5.133  -1.293  1.00  0.00     0.124 C 
ATOM     26  C   UNL     1       5.329  -6.427  -4.309  1.00  0.00     0.015 C 
ATOM     27  C   UNL     1       7.880  -5.566  -5.612  1.00  0.00     0.013 C 
ATOM     28  C   UNL     1      10.123  -1.974  -8.380  1.00  0.00     0.017 C 
ATOM     29  C   UNL     1       6.111  -4.450  -8.950  1.00  0.00     0.012 C 
ATOM     30  C   UNL     1       7.387  -0.501  -0.701  1.00  0.00     0.011 C 
ENDROOT
BRANCH  25  31
ATOM     31  O   UNL     1       7.242  -4.796  -0.371  1.00  0.00    -0.392 OA
ATOM     32  H   UNL     1       7.153  -3.826  -0.174  1.00  0.00     0.210 HD
ENDBRANCH  25  31
BRANCH  18  33
ATOM     33  C   UNL     1       8.822  -3.167 -10.124  1.00  0.00     0.165 C 
BRANCH  33  34
ATOM     34  O   UNL     1       9.650  -4.288  -9.958  1.00  0.00    -0.396 OA
ATOM     35  H   UNL     1      10.207  -4.346 -10.778  1.00  0.00     0.210 HD
ENDBRANCH  33  34
ENDBRANCH  18  33
BRANCH  17  36
ATOM     36  O   UNL     1       8.397  -0.286 -10.071  1.00  0.00    -0.392 OA
ATOM     37  H   UNL     1       8.153  -0.723 -10.928  1.00  0.00     0.210 HD
ENDBRANCH  17  36
TORSDOF 4
ENDMDL
MODEL 7
REMARK VINA RESULT:    -4.223      1.353      7.499
REMARK INTER + INTRA:          -4.933
REMARK INTER:                  -4.731
REMARK INTRA:                  -0.201
REMARK UNBOUND:                -0.093
REMARK SMILES CC1(C)CC[C@]23CO[C@@]4(C=C[C@H]5[C@@]6(C)CC[C@H](O)[C@](C)(CO)[C@H]6CC[C@@]5(C)[C@@]4(C)C[C@H]2O)[C@@H]3C1
REMARK SMILES IDX 1 1 2 2 4 3 5 4 6 5 7 6 8 7 9 8 33 9 34 10 10 11 11 12 12 13
REMARK SMILES IDX 13 14 15 15 16 16 17 17 19 18 23 19 24 20 25 21 26 22 28 23
REMARK SMILES IDX 30 24 31 25 29 26 27 27 20 28 14 29 3 30 32 31 21 33 22 34
REMARK SMILES IDX 18 36
REMARK H PARENT 32 32 22 35 18 37
REMARK Flexibility Score: inf
ROOT
ATOM      1  C   UNL     1      10.125  -5.238  -1.281  1.00  0.00     0.011 C 
ATOM      2  C   UNL     1       8.635  -5.556  -1.001  1.00  0.00    -0.035 C 
ATOM      3  C   UNL     1       8.210  -4.927   0.363  1.00  0.00     0.007 C 
ATOM      4  C   UNL     1       7.924  -3.404   0.312  1.00  0.00     0.013 C 
ATOM      5  C   UNL     1       7.027  -2.988  -0.886  1.00  0.00     0.026 C 
ATOM      6  C   UNL     1       7.138  -1.495  -1.220  1.00  0.00     0.171 C 
ATOM      7  O   UNL     1       6.925  -1.354  -2.613  1.00  0.00    -0.369 OA
ATOM      8  C   UNL     1       6.818  -2.658  -3.181  1.00  0.00     0.096 C 
ATOM      9  C   UNL     1       7.606  -3.522  -2.169  1.00  0.00     0.037 C 
ATOM     10  C   UNL     1       7.725  -5.057  -2.170  1.00  0.00     0.014 C 
ATOM     11  C   UNL     1       7.529  -2.560  -4.505  1.00  0.00     0.005 C 
ATOM     12  C   UNL     1       6.913  -2.611  -5.692  1.00  0.00    -0.024 C 
ATOM     13  C   UNL     1       5.524  -3.196  -5.949  1.00  0.00     0.024 C 
ATOM     14  C   UNL     1       5.486  -4.052  -7.338  1.00  0.00    -0.022 C 
ATOM     15  C   UNL     1       6.917  -4.331  -7.927  1.00  0.00     0.010 C 
ATOM     16  C   UNL     1       6.956  -5.235  -9.171  1.00  0.00     0.033 C 
ATOM     17  C   UNL     1       6.278  -6.590  -8.932  1.00  0.00     0.123 C 
ATOM     18  C   UNL     1       4.809  -6.446  -8.418  1.00  0.00     0.020 C 
ATOM     19  C   UNL     1       4.772  -5.457  -7.158  1.00  0.00     0.006 C 
ATOM     20  C   UNL     1       5.289  -6.181  -5.871  1.00  0.00     0.005 C 
ATOM     21  C   UNL     1       5.616  -5.298  -4.653  1.00  0.00     0.008 C 
ATOM     22  C   UNL     1       4.944  -3.904  -4.660  1.00  0.00    -0.017 C 
ATOM     23  C   UNL     1       5.268  -3.005  -3.341  1.00  0.00     0.009 C 
ATOM     24  C   UNL     1       4.730  -3.676  -2.020  1.00  0.00     0.043 C 
ATOM     25  C   UNL     1       5.491  -3.341  -0.702  1.00  0.00     0.124 C 
ATOM     26  C   UNL     1       4.493  -1.638  -3.477  1.00  0.00     0.015 C 
ATOM     27  C   UNL     1       3.381  -4.099  -4.765  1.00  0.00     0.013 C 
ATOM     28  C   UNL     1       4.308  -7.866  -8.010  1.00  0.00     0.017 C 
ATOM     29  C   UNL     1       4.713  -3.147  -8.348  1.00  0.00     0.012 C 
ATOM     30  C   UNL     1       8.495  -7.092  -0.904  1.00  0.00     0.011 C 
ENDROOT
BRANCH  25  31
ATOM     31  O   UNL     1       5.312  -4.402   0.200  1.00  0.00    -0.392 OA
ATOM     32  H   UNL     1       4.340  -4.468   0.395  1.00  0.00     0.210 HD
ENDBRANCH  25  31
BRANCH  18  33
ATOM     33  C   UNL     1       3.855  -5.998  -9.578  1.00  0.00     0.165 C 
BRANCH  33  34
ATOM     34  O   UNL     1       3.161  -7.091 -10.120  1.00  0.00    -0.396 OA
ATOM     35  H   UNL     1       2.286  -6.739 -10.429  1.00  0.00     0.210 HD
ENDBRANCH  33  34
ENDBRANCH  18  33
BRANCH  17  36
ATOM     36  O   UNL     1       6.355  -7.405 -10.080  1.00  0.00    -0.392 OA
ATOM     37  H   UNL     1       5.641  -7.127 -10.711  1.00  0.00     0.210 HD
ENDBRANCH  17  36
TORSDOF 4
ENDMDL
MODEL 8
REMARK VINA RESULT:    -3.944      1.716      7.776
REMARK INTER + INTRA:          -4.613
REMARK INTER:                  -4.552
REMARK INTRA:                  -0.061
REMARK UNBOUND:                -0.093
REMARK SMILES CC1(C)CC[C@]23CO[C@@]4(C=C[C@H]5[C@@]6(C)CC[C@H](O)[C@](C)(CO)[C@H]6CC[C@@]5(C)[C@@]4(C)C[C@H]2O)[C@@H]3C1
REMARK SMILES IDX 1 1 2 2 4 3 5 4 6 5 7 6 8 7 9 8 33 9 34 10 10 11 11 12 12 13
REMARK SMILES IDX 13 14 15 15 16 16 17 17 19 18 23 19 24 20 25 21 26 22 28 23
REMARK SMILES IDX 30 24 31 25 29 26 27 27 20 28 14 29 3 30 32 31 21 33 22 34
REMARK SMILES IDX 18 36
REMARK H PARENT 32 32 22 35 18 37
REMARK Flexibility Score: inf
ROOT
ATOM      1  C   UNL     1       3.729  -1.935  -0.838  1.00  0.00     0.011 C 
ATOM      2  C   UNL     1       4.982  -1.265  -1.455  1.00  0.00    -0.035 C 
ATOM      3  C   UNL     1       5.953  -0.814  -0.319  1.00  0.00     0.007 C 
ATOM      4  C   UNL     1       6.806  -1.955   0.294  1.00  0.00     0.013 C 
ATOM      5  C   UNL     1       7.462  -2.871  -0.776  1.00  0.00     0.026 C 
ATOM      6  C   UNL     1       7.883  -4.234  -0.211  1.00  0.00     0.171 C 
ATOM      7  O   UNL     1       7.778  -5.179  -1.260  1.00  0.00    -0.369 OA
ATOM      8  C   UNL     1       7.203  -4.527  -2.391  1.00  0.00     0.096 C 
ATOM      9  C   UNL     1       6.415  -3.369  -1.736  1.00  0.00     0.037 C 
ATOM     10  C   UNL     1       5.691  -2.223  -2.466  1.00  0.00     0.014 C 
ATOM     11  C   UNL     1       6.284  -5.553  -3.001  1.00  0.00     0.005 C 
ATOM     12  C   UNL     1       6.508  -6.155  -4.176  1.00  0.00    -0.024 C 
ATOM     13  C   UNL     1       7.430  -5.637  -5.280  1.00  0.00     0.024 C 
ATOM     14  C   UNL     1       6.768  -5.852  -6.756  1.00  0.00    -0.022 C 
ATOM     15  C   UNL     1       5.249  -6.252  -6.697  1.00  0.00     0.010 C 
ATOM     16  C   UNL     1       4.537  -6.352  -8.057  1.00  0.00     0.033 C 
ATOM     17  C   UNL     1       4.647  -5.058  -8.873  1.00  0.00     0.123 C 
ATOM     18  C   UNL     1       6.126  -4.596  -9.073  1.00  0.00     0.020 C 
ATOM     19  C   UNL     1       6.875  -4.550  -7.657  1.00  0.00     0.006 C 
ATOM     20  C   UNL     1       6.451  -3.280  -6.848  1.00  0.00     0.005 C 
ATOM     21  C   UNL     1       6.825  -3.241  -5.355  1.00  0.00     0.008 C 
ATOM     22  C   UNL     1       7.978  -4.191  -4.948  1.00  0.00    -0.017 C 
ATOM     23  C   UNL     1       8.387  -4.101  -3.375  1.00  0.00     0.009 C 
ATOM     24  C   UNL     1       8.921  -2.671  -2.981  1.00  0.00     0.043 C 
ATOM     25  C   UNL     1       8.717  -2.227  -1.502  1.00  0.00     0.124 C 
ATOM     26  C   UNL     1       9.586  -5.093  -3.122  1.00  0.00     0.015 C 
ATOM     27  C   UNL     1       9.248  -3.845  -5.819  1.00  0.00     0.013 C 
ATOM     28  C   UNL     1       6.097  -3.176  -9.719  1.00  0.00     0.017 C 
ATOM     29  C   UNL     1       7.560  -7.042  -7.382  1.00  0.00     0.012 C 
ATOM     30  C   UNL     1       4.510  -0.013  -2.229  1.00  0.00     0.011 C 
ENDROOT
BRANCH  25  31
ATOM     31  O   UNL     1       8.672  -0.824  -1.458  1.00  0.00    -0.392 OA
ATOM     32  H   UNL     1       9.478  -0.485  -1.930  1.00  0.00     0.210 HD
ENDBRANCH  25  31
BRANCH  18  33
ATOM     33  C   UNL     1       6.856  -5.503 -10.123  1.00  0.00     0.165 C 
BRANCH  33  34
ATOM     34  O   UNL     1       8.240  -5.270 -10.125  1.00  0.00    -0.396 OA
ATOM     35  H   UNL     1       8.670  -6.148 -10.297  1.00  0.00     0.210 HD
ENDBRANCH  33  34
ENDBRANCH  18  33
BRANCH  17  36
ATOM     36  O   UNL     1       3.962  -5.173 -10.099  1.00  0.00    -0.392 OA
ATOM     37  H   UNL     1       3.177  -4.566 -10.079  1.00  0.00     0.210 HD
ENDBRANCH  17  36
TORSDOF 4
ENDMDL
MODEL 9
REMARK VINA RESULT:    -3.939      2.589      6.846
REMARK INTER + INTRA:          -4.608
REMARK INTER:                  -4.337
REMARK INTRA:                  -0.271
REMARK UNBOUND:                -0.093
REMARK SMILES CC1(C)CC[C@]23CO[C@@]4(C=C[C@H]5[C@@]6(C)CC[C@H](O)[C@](C)(CO)[C@H]6CC[C@@]5(C)[C@@]4(C)C[C@H]2O)[C@@H]3C1
REMARK SMILES IDX 1 1 2 2 4 3 5 4 6 5 7 6 8 7 9 8 33 9 34 10 10 11 11 12 12 13
REMARK SMILES IDX 13 14 15 15 16 16 17 17 19 18 23 19 24 20 25 21 26 22 28 23
REMARK SMILES IDX 30 24 31 25 29 26 27 27 20 28 14 29 3 30 32 31 21 33 22 34
REMARK SMILES IDX 18 36
REMARK H PARENT 32 32 22 35 18 37
REMARK Flexibility Score: inf
ROOT
ATOM      1  C   UNL     1       7.138 -10.125  -3.424  1.00  0.00     0.011 C 
ATOM      2  C   UNL     1       6.436  -9.016  -2.600  1.00  0.00    -0.035 C 
ATOM      3  C   UNL     1       6.945  -9.054  -1.125  1.00  0.00     0.007 C 
ATOM      4  C   UNL     1       8.335  -8.403  -0.903  1.00  0.00     0.013 C 
ATOM      5  C   UNL     1       8.479  -7.017  -1.591  1.00  0.00     0.026 C 
ATOM      6  C   UNL     1       9.943  -6.604  -1.790  1.00  0.00     0.171 C 
ATOM      7  O   UNL     1      10.003  -5.804  -2.957  1.00  0.00    -0.369 OA
ATOM      8  C   UNL     1       8.711  -5.800  -3.561  1.00  0.00     0.096 C 
ATOM      9  C   UNL     1       8.104  -7.125  -3.045  1.00  0.00     0.037 C 
ATOM     10  C   UNL     1       6.657  -7.611  -3.246  1.00  0.00     0.014 C 
ATOM     11  C   UNL     1       8.979  -5.848  -5.043  1.00  0.00     0.005 C 
ATOM     12  C   UNL     1       8.750  -4.828  -5.879  1.00  0.00    -0.024 C 
ATOM     13  C   UNL     1       7.810  -3.652  -5.611  1.00  0.00     0.024 C 
ATOM     14  C   UNL     1       6.957  -3.257  -6.945  1.00  0.00    -0.022 C 
ATOM     15  C   UNL     1       7.065  -4.333  -8.086  1.00  0.00     0.010 C 
ATOM     16  C   UNL     1       6.188  -4.077  -9.324  1.00  0.00     0.033 C 
ATOM     17  C   UNL     1       4.704  -3.920  -8.968  1.00  0.00     0.123 C 
ATOM     18  C   UNL     1       4.455  -2.813  -7.895  1.00  0.00     0.020 C 
ATOM     19  C   UNL     1       5.415  -3.057  -6.634  1.00  0.00     0.006 C 
ATOM     20  C   UNL     1       4.873  -4.224  -5.744  1.00  0.00     0.005 C 
ATOM     21  C   UNL     1       5.827  -4.796  -4.679  1.00  0.00     0.008 C 
ATOM     22  C   UNL     1       6.989  -3.857  -4.275  1.00  0.00    -0.017 C 
ATOM     23  C   UNL     1       7.959  -4.463  -3.117  1.00  0.00     0.009 C 
ATOM     24  C   UNL     1       7.186  -4.709  -1.765  1.00  0.00     0.043 C 
ATOM     25  C   UNL     1       7.730  -5.838  -0.839  1.00  0.00     0.124 C 
ATOM     26  C   UNL     1       9.066  -3.388  -2.791  1.00  0.00     0.015 C 
ATOM     27  C   UNL     1       6.381  -2.494  -3.761  1.00  0.00     0.013 C 
ATOM     28  C   UNL     1       2.958  -2.898  -7.464  1.00  0.00     0.017 C 
ATOM     29  C   UNL     1       7.608  -1.935  -7.462  1.00  0.00     0.012 C 
ATOM     30  C   UNL     1       4.920  -9.317  -2.609  1.00  0.00     0.011 C 
ENDROOT
BRANCH  25  31
ATOM     31  O   UNL     1       6.671  -6.320  -0.053  1.00  0.00    -0.392 OA
ATOM     32  H   UNL     1       7.068  -6.802   0.720  1.00  0.00     0.210 HD
ENDBRANCH  25  31
BRANCH  18  33
ATOM     33  C   UNL     1       4.616  -1.385  -8.520  1.00  0.00     0.165 C 
BRANCH  33  34
ATOM     34  O   UNL     1       3.474  -1.014  -9.248  1.00  0.00    -0.396 OA
ATOM     35  H   UNL     1       3.047  -1.860  -9.545  1.00  0.00     0.210 HD
ENDBRANCH  33  34
ENDBRANCH  18  33
BRANCH  17  36
ATOM     36  O   UNL     1       3.925  -3.715 -10.125  1.00  0.00    -0.392 OA
ATOM     37  H   UNL     1       3.104  -3.221  -9.868  1.00  0.00     0.210 HD
ENDBRANCH  17  36
TORSDOF 4
ENDMDL
