MODEL 1
REMARK VINA RESULT:    -1.782      0.000      0.000
REMARK INTER + INTRA:          -1.782
REMARK INTER:                  -1.782
REMARK INTRA:                   0.000
REMARK UNBOUND:                 0.000
REMARK SMILES CC(=O)[O-]
REMARK SMILES IDX 1 1 2 2 3 3 4 4
REMARK H PARENT
REMARK Flexibility Score: inf
ROOT
ATOM      1  C   UNL     1     -15.324  43.118  56.739  1.00  0.00     0.063 C 
ATOM      2  C   UNL     1     -15.497  42.285  55.515  1.00  0.00     0.038 C 
ATOM      3  O   UNL     1     -15.289  42.783  54.377  1.00  0.00    -0.550 OA
ATOM      4  O   UNL     1     -15.938  40.973  55.622  1.00  0.00    -0.550 OA
ENDROOT
TORSDOF 0
ENDMDL
MODEL 2
REMARK VINA RESULT:    -1.684      7.052      7.180
REMARK INTER + INTRA:          -1.684
REMARK INTER:                  -1.684
REMARK INTRA:                   0.000
REMARK UNBOUND:                 0.000
REMARK SMILES CC(=O)[O-]
REMARK SMILES IDX 1 1 2 2 3 3 4 4
REMARK H PARENT
REMARK Flexibility Score: inf
ROOT
ATOM      1  C   UNL     1     -11.907  40.995  61.942  1.00  0.00     0.063 C 
ATOM      2  C   UNL     1     -13.234  41.638  62.164  1.00  0.00     0.038 C 
ATOM      3  O   UNL     1     -13.356  42.886  62.055  1.00  0.00    -0.550 OA
ATOM      4  O   UNL     1     -14.326  40.868  62.542  1.00  0.00    -0.550 OA
ENDROOT
TORSDOF 0
ENDMDL
MODEL 3
REMARK VINA RESULT:    -1.648      1.441      2.120
REMARK INTER + INTRA:          -1.648
REMARK INTER:                  -1.648
REMARK INTRA:                   0.000
REMARK UNBOUND:                 0.000
REMARK SMILES CC(=O)[O-]
REMARK SMILES IDX 1 1 2 2 3 3 4 4
REMARK H PARENT
REMARK Flexibility Score: inf
ROOT
ATOM      1  C   UNL     1     -15.507  42.519  54.137  1.00  0.00     0.063 C 
ATOM      2  C   UNL     1     -15.673  41.945  55.503  1.00  0.00     0.038 C 
ATOM      3  O   UNL     1     -16.043  40.750  55.645  1.00  0.00    -0.550 OA
ATOM      4  O   UNL     1     -15.472  42.743  56.622  1.00  0.00    -0.550 OA
ENDROOT
TORSDOF 0
ENDMDL
MODEL 4
REMARK VINA RESULT:    -1.579      7.061      7.218
REMARK INTER + INTRA:          -1.579
REMARK INTER:                  -1.579
REMARK INTRA:                   0.000
REMARK UNBOUND:                 0.000
REMARK SMILES CC(=O)[O-]
REMARK SMILES IDX 1 1 2 2 3 3 4 4
REMARK H PARENT
REMARK Flexibility Score: inf
ROOT
ATOM      1  C   UNL     1     -14.003  40.838  62.491  1.00  0.00     0.063 C 
ATOM      2  C   UNL     1     -12.889  41.735  62.069  1.00  0.00     0.038 C 
ATOM      3  O   UNL     1     -13.097  42.967  61.908  1.00  0.00    -0.550 OA
ATOM      4  O   UNL     1     -11.633  41.207  61.801  1.00  0.00    -0.550 OA
ENDROOT
TORSDOF 0
ENDMDL
MODEL 5
REMARK VINA RESULT:    -1.508      7.481      7.933
REMARK INTER + INTRA:          -1.508
REMARK INTER:                  -1.508
REMARK INTRA:                   0.000
REMARK UNBOUND:                 0.000
REMARK SMILES CC(=O)[O-]
REMARK SMILES IDX 1 1 2 2 3 3 4 4
REMARK H PARENT
REMARK Flexibility Score: inf
ROOT
ATOM      1  C   UNL     1     -13.058  42.496  61.951  1.00  0.00     0.063 C 
ATOM      2  C   UNL     1     -11.737  41.962  62.388  1.00  0.00     0.038 C 
ATOM      3  O   UNL     1     -11.102  42.528  63.316  1.00  0.00    -0.550 OA
ATOM      4  O   UNL     1     -11.178  40.869  61.738  1.00  0.00    -0.550 OA
ENDROOT
TORSDOF 0
ENDMDL
MODEL 6
REMARK VINA RESULT:    -1.410      7.670      8.003
REMARK INTER + INTRA:          -1.410
REMARK INTER:                  -1.410
REMARK INTRA:                   0.000
REMARK UNBOUND:                 0.000
REMARK SMILES CC(=O)[O-]
REMARK SMILES IDX 1 1 2 2 3 3 4 4
REMARK H PARENT
REMARK Flexibility Score: inf
ROOT
ATOM      1  C   UNL     1     -12.994  41.190  61.977  1.00  0.00     0.063 C 
ATOM      2  C   UNL     1     -11.625  40.607  62.074  1.00  0.00     0.038 C 
ATOM      3  O   UNL     1     -11.477  39.370  62.252  1.00  0.00    -0.550 OA
ATOM      4  O   UNL     1     -10.511  41.435  62.021  1.00  0.00    -0.550 OA
ENDROOT
TORSDOF 0
ENDMDL
MODEL 7
REMARK VINA RESULT:    -1.404      2.032      2.215
REMARK INTER + INTRA:          -1.404
REMARK INTER:                  -1.404
REMARK INTRA:                   0.000
REMARK UNBOUND:                 0.000
REMARK SMILES CC(=O)[O-]
REMARK SMILES IDX 1 1 2 2 3 3 4 4
REMARK H PARENT
REMARK Flexibility Score: inf
ROOT
ATOM      1  C   UNL     1     -15.252  42.735  54.715  1.00  0.00     0.063 C 
ATOM      2  C   UNL     1     -16.046  42.157  53.593  1.00  0.00     0.038 C 
ATOM      3  O   UNL     1     -15.478  41.832  52.518  1.00  0.00    -0.550 OA
ATOM      4  O   UNL     1     -17.424  42.025  53.712  1.00  0.00    -0.550 OA
ENDROOT
TORSDOF 0
ENDMDL
MODEL 8
REMARK VINA RESULT:    -1.338     11.363     11.462
REMARK INTER + INTRA:          -1.338
REMARK INTER:                  -1.338
REMARK INTRA:                   0.000
REMARK UNBOUND:                 0.000
REMARK SMILES CC(=O)[O-]
REMARK SMILES IDX 1 1 2 2 3 3 4 4
REMARK H PARENT
REMARK Flexibility Score: inf
ROOT
ATOM      1  C   UNL     1      -5.731  35.938  55.682  1.00  0.00     0.063 C 
ATOM      2  C   UNL     1      -5.338  37.375  55.649  1.00  0.00     0.038 C 
ATOM      3  O   UNL     1      -5.350  38.009  54.561  1.00  0.00    -0.550 OA
ATOM      4  O   UNL     1      -4.907  38.006  56.809  1.00  0.00    -0.550 OA
ENDROOT
TORSDOF 0
ENDMDL
MODEL 9
REMARK VINA RESULT:     1.131      7.007      7.087
REMARK INTER + INTRA:           1.131
REMARK INTER:                   1.131
REMARK INTRA:                   0.000
REMARK UNBOUND:                 0.000
REMARK SMILES CC(=O)[O-]
REMARK SMILES IDX 1 1 2 2 3 3 4 4
REMARK H PARENT
REMARK Flexibility Score: inf
ROOT
ATOM      1  C   UNL     1     -13.162  43.125  61.751  1.00  0.00     0.063 C 
ATOM      2  C   UNL     1     -12.974  41.678  62.057  1.00  0.00     0.038 C 
ATOM      3  O   UNL     1     -11.898  41.102  61.749  1.00  0.00    -0.550 OA
ATOM      4  O   UNL     1     -14.006  40.949  62.634  1.00  0.00    -0.550 OA
ENDROOT
TORSDOF 0
ENDMDL
