MODEL 1
REMARK VINA RESULT:    -3.612      0.000      0.000
REMARK INTER + INTRA:          -8.515
REMARK INTER:                  -6.356
REMARK INTRA:                  -2.159
REMARK UNBOUND:                -2.159
REMARK SMILES CCCCCCCCCCCCCCC(=O)[O-]
REMARK SMILES IDX 9 1 10 2 11 3 12 4 13 5 14 6 15 7 16 8 17 9 8 10 7 11 6 12
REMARK SMILES IDX 5 13 4 14 3 15 2 16 1 17
REMARK H PARENT
REMARK Flexibility Score: inf
ROOT
ATOM      1  C   UNL     1      44.376   0.387  11.986  1.00  0.00     0.000 C 
ENDROOT
BRANCH   1   2
ATOM      2  C   UNL     1      43.655   0.349  10.627  1.00  0.00     0.000 C 
BRANCH   2   3
ATOM      3  C   UNL     1      44.035   1.534   9.724  1.00  0.00     0.000 C 
BRANCH   3   4
ATOM      4  C   UNL     1      43.968   2.884  10.455  1.00  0.00     0.000 C 
BRANCH   4   5
ATOM      5  C   UNL     1      45.157   3.775  10.075  1.00  0.00     0.006 C 
BRANCH   5   6
ATOM      6  C   UNL     1      46.159   3.010   9.205  1.00  0.00     0.053 C 
BRANCH   6   7
ATOM      7  C   UNL     1      47.559   3.433   9.522  1.00  0.00     0.041 C 
ATOM      8  O   UNL     1      47.768   4.483  10.186  1.00  0.00    -0.550 OA
ATOM      9  O   UNL     1      48.634   2.695   9.045  1.00  0.00    -0.550 OA
ENDBRANCH   6   7
ENDBRANCH   5   6
ENDBRANCH   4   5
ENDBRANCH   3   4
ENDBRANCH   2   3
ENDBRANCH   1   2
BRANCH   1  10
ATOM     10  C   UNL     1      44.977  -0.974  12.375  1.00  0.00     0.000 C 
BRANCH  10  11
ATOM     11  C   UNL     1      44.107  -2.158  11.917  1.00  0.00    -0.000 C 
BRANCH  11  12
ATOM     12  C   UNL     1      44.888  -3.161  11.052  1.00  0.00    -0.000 C 
BRANCH  12  13
ATOM     13  C   UNL     1      44.397  -3.193   9.593  1.00  0.00    -0.000 C 
BRANCH  13  14
ATOM     14  C   UNL     1      45.239  -2.301   8.666  1.00  0.00    -0.000 C 
BRANCH  14  15
ATOM     15  C   UNL     1      46.676  -2.106   9.181  1.00  0.00    -0.000 C 
BRANCH  15  16
ATOM     16  C   UNL     1      47.018  -0.629   9.425  1.00  0.00    -0.003 C 
ATOM     17  C   UNL     1      48.050  -0.433  10.534  1.00  0.00     0.004 C 
ENDBRANCH  15  16
ENDBRANCH  14  15
ENDBRANCH  13  14
ENDBRANCH  12  13
ENDBRANCH  11  12
ENDBRANCH  10  11
ENDBRANCH   1  10
TORSDOF 13
ENDMDL
MODEL 2
REMARK VINA RESULT:    -3.426     12.080     14.221
REMARK INTER + INTRA:          -8.189
REMARK INTER:                  -7.269
REMARK INTRA:                  -0.920
REMARK UNBOUND:                -2.159
REMARK SMILES CCCCCCCCCCCCCCC(=O)[O-]
REMARK SMILES IDX 9 1 10 2 11 3 12 4 13 5 14 6 15 7 16 8 17 9 8 10 7 11 6 12
REMARK SMILES IDX 5 13 4 14 3 15 2 16 1 17
REMARK H PARENT
REMARK Flexibility Score: inf
ROOT
ATOM      1  C   UNL     1      56.804  -2.109  19.198  1.00  0.00     0.000 C 
ENDROOT
BRANCH   1   2
ATOM      2  C   UNL     1      55.461  -2.724  18.765  1.00  0.00     0.000 C 
BRANCH   2   3
ATOM      3  C   UNL     1      54.254  -1.897  19.237  1.00  0.00     0.000 C 
BRANCH   3   4
ATOM      4  C   UNL     1      54.574  -0.399  19.364  1.00  0.00     0.000 C 
BRANCH   4   5
ATOM      5  C   UNL     1      53.320   0.452  19.124  1.00  0.00     0.006 C 
BRANCH   5   6
ATOM      6  C   UNL     1      53.115   1.457  20.261  1.00  0.00     0.053 C 
BRANCH   6   7
ATOM      7  C   UNL     1      53.611   2.811  19.860  1.00  0.00     0.041 C 
ATOM      8  O   UNL     1      54.767   3.185  20.191  1.00  0.00    -0.550 OA
ATOM      9  O   UNL     1      52.781   3.678  19.161  1.00  0.00    -0.550 OA
ENDBRANCH   6   7
ENDBRANCH   5   6
ENDBRANCH   4   5
ENDBRANCH   3   4
ENDBRANCH   2   3
ENDBRANCH   1   2
BRANCH   1  10
ATOM     10  C   UNL     1      57.803  -1.992  18.036  1.00  0.00     0.000 C 
BRANCH  10  11
ATOM     11  C   UNL     1      58.093  -0.532  17.648  1.00  0.00    -0.000 C 
BRANCH  11  12
ATOM     12  C   UNL     1      58.954  -0.419  16.379  1.00  0.00    -0.000 C 
BRANCH  12  13
ATOM     13  C   UNL     1      58.733   0.905  15.627  1.00  0.00    -0.000 C 
BRANCH  13  14
ATOM     14  C   UNL     1      59.731   1.997  16.046  1.00  0.00    -0.000 C 
BRANCH  14  15
ATOM     15  C   UNL     1      59.150   3.414  15.896  1.00  0.00    -0.000 C 
BRANCH  15  16
ATOM     16  C   UNL     1      59.059   4.157  17.238  1.00  0.00    -0.003 C 
ATOM     17  C   UNL     1      58.716   3.234  18.406  1.00  0.00     0.004 C 
ENDBRANCH  15  16
ENDBRANCH  14  15
ENDBRANCH  13  14
ENDBRANCH  12  13
ENDBRANCH  11  12
ENDBRANCH  10  11
ENDBRANCH   1  10
TORSDOF 13
ENDMDL
MODEL 3
REMARK VINA RESULT:    -3.319      2.021      2.848
REMARK INTER + INTRA:          -8.000
REMARK INTER:                  -5.977
REMARK INTRA:                  -2.023
REMARK UNBOUND:                -2.159
REMARK SMILES CCCCCCCCCCCCCCC(=O)[O-]
REMARK SMILES IDX 9 1 10 2 11 3 12 4 13 5 14 6 15 7 16 8 17 9 8 10 7 11 6 12
REMARK SMILES IDX 5 13 4 14 3 15 2 16 1 17
REMARK H PARENT
REMARK Flexibility Score: inf
ROOT
ATOM      1  C   UNL     1      44.668   1.381  10.756  1.00  0.00     0.000 C 
ENDROOT
BRANCH   1   2
ATOM      2  C   UNL     1      45.431   1.833   9.499  1.00  0.00     0.000 C 
BRANCH   2   3
ATOM      3  C   UNL     1      46.935   2.018   9.756  1.00  0.00     0.000 C 
BRANCH   3   4
ATOM      4  C   UNL     1      47.492   3.304   9.124  1.00  0.00     0.000 C 
BRANCH   4   5
ATOM      5  C   UNL     1      47.538   4.444  10.150  1.00  0.00     0.006 C 
BRANCH   5   6
ATOM      6  C   UNL     1      46.949   5.731   9.566  1.00  0.00     0.053 C 
BRANCH   6   7
ATOM      7  C   UNL     1      45.459   5.630   9.471  1.00  0.00     0.041 C 
ATOM      8  O   UNL     1      44.902   5.520   8.346  1.00  0.00    -0.550 OA
ATOM      9  O   UNL     1      44.681   5.706  10.619  1.00  0.00    -0.550 OA
ENDBRANCH   6   7
ENDBRANCH   5   6
ENDBRANCH   4   5
ENDBRANCH   3   4
ENDBRANCH   2   3
ENDBRANCH   1   2
BRANCH   1  10
ATOM     10  C   UNL     1      43.587   0.333  10.447  1.00  0.00     0.000 C 
BRANCH  10  11
ATOM     11  C   UNL     1      43.378   0.123   8.937  1.00  0.00    -0.000 C 
BRANCH  11  12
ATOM     12  C   UNL     1      43.295  -1.364   8.556  1.00  0.00    -0.000 C 
BRANCH  12  13
ATOM     13  C   UNL     1      44.474  -2.185   9.108  1.00  0.00    -0.000 C 
BRANCH  13  14
ATOM     14  C   UNL     1      45.798  -1.876   8.389  1.00  0.00    -0.000 C 
BRANCH  14  15
ATOM     15  C   UNL     1      46.960  -1.642   9.371  1.00  0.00    -0.000 C 
BRANCH  15  16
ATOM     16  C   UNL     1      46.539  -1.834  10.836  1.00  0.00    -0.003 C 
ATOM     17  C   UNL     1      47.497  -1.169  11.822  1.00  0.00     0.004 C 
ENDBRANCH  15  16
ENDBRANCH  14  15
ENDBRANCH  13  14
ENDBRANCH  12  13
ENDBRANCH  11  12
ENDBRANCH  10  11
ENDBRANCH   1  10
TORSDOF 13
ENDMDL
MODEL 4
REMARK VINA RESULT:    -3.290     14.252     16.161
REMARK INTER + INTRA:          -7.950
REMARK INTER:                  -6.843
REMARK INTRA:                  -1.107
REMARK UNBOUND:                -2.159
REMARK SMILES CCCCCCCCCCCCCCC(=O)[O-]
REMARK SMILES IDX 9 1 10 2 11 3 12 4 13 5 14 6 15 7 16 8 17 9 8 10 7 11 6 12
REMARK SMILES IDX 5 13 4 14 3 15 2 16 1 17
REMARK H PARENT
REMARK Flexibility Score: inf
ROOT
ATOM      1  C   UNL     1      58.736   0.046  15.989  1.00  0.00     0.000 C 
ENDROOT
BRANCH   1   2
ATOM      2  C   UNL     1      59.546   1.110  16.751  1.00  0.00     0.000 C 
BRANCH   2   3
ATOM      3  C   UNL     1      60.957   1.305  16.172  1.00  0.00     0.000 C 
BRANCH   3   4
ATOM      4  C   UNL     1      61.772   2.360  16.938  1.00  0.00     0.000 C 
BRANCH   4   5
ATOM      5  C   UNL     1      60.850   3.314  17.707  1.00  0.00     0.006 C 
BRANCH   5   6
ATOM      6  C   UNL     1      61.065   4.763  17.260  1.00  0.00     0.053 C 
BRANCH   6   7
ATOM      7  C   UNL     1      62.184   5.389  18.033  1.00  0.00     0.041 C 
ATOM      8  O   UNL     1      62.497   4.943  19.168  1.00  0.00    -0.550 OA
ATOM      9  O   UNL     1      62.850   6.495  17.521  1.00  0.00    -0.550 OA
ENDBRANCH   6   7
ENDBRANCH   5   6
ENDBRANCH   4   5
ENDBRANCH   3   4
ENDBRANCH   2   3
ENDBRANCH   1   2
BRANCH   1  10
ATOM     10  C   UNL     1      59.602  -0.770  15.015  1.00  0.00     0.000 C 
BRANCH  10  11
ATOM     11  C   UNL     1      59.910  -2.184  15.537  1.00  0.00    -0.000 C 
BRANCH  11  12
ATOM     12  C   UNL     1      58.662  -2.891  16.091  1.00  0.00    -0.000 C 
BRANCH  12  13
ATOM     13  C   UNL     1      58.986  -3.835  17.263  1.00  0.00    -0.000 C 
BRANCH  13  14
ATOM     14  C   UNL     1      57.881  -3.853  18.332  1.00  0.00    -0.000 C 
BRANCH  14  15
ATOM     15  C   UNL     1      57.828  -2.548  19.145  1.00  0.00    -0.000 C 
BRANCH  15  16
ATOM     16  C   UNL     1      56.390  -2.077  19.409  1.00  0.00    -0.003 C 
ATOM     17  C   UNL     1      56.012  -0.839  18.597  1.00  0.00     0.004 C 
ENDBRANCH  15  16
ENDBRANCH  14  15
ENDBRANCH  13  14
ENDBRANCH  12  13
ENDBRANCH  11  12
ENDBRANCH  10  11
ENDBRANCH   1  10
TORSDOF 13
ENDMDL
MODEL 5
REMARK VINA RESULT:    -3.260     11.461     13.323
REMARK INTER + INTRA:          -7.896
REMARK INTER:                  -6.474
REMARK INTRA:                  -1.422
REMARK UNBOUND:                -2.159
REMARK SMILES CCCCCCCCCCCCCCC(=O)[O-]
REMARK SMILES IDX 9 1 10 2 11 3 12 4 13 5 14 6 15 7 16 8 17 9 8 10 7 11 6 12
REMARK SMILES IDX 5 13 4 14 3 15 2 16 1 17
REMARK H PARENT
REMARK Flexibility Score: inf
ROOT
ATOM      1  C   UNL     1      52.602   2.229  19.142  1.00  0.00     0.000 C 
ENDROOT
BRANCH   1   2
ATOM      2  C   UNL     1      52.670   1.516  20.504  1.00  0.00     0.000 C 
BRANCH   2   3
ATOM      3  C   UNL     1      52.997   0.019  20.371  1.00  0.00     0.000 C 
BRANCH   3   4
ATOM      4  C   UNL     1      53.918  -0.284  19.179  1.00  0.00     0.000 C 
BRANCH   4   5
ATOM      5  C   UNL     1      54.442  -1.723  19.242  1.00  0.00     0.006 C 
BRANCH   5   6
ATOM      6  C   UNL     1      55.973  -1.751  19.220  1.00  0.00     0.053 C 
BRANCH   6   7
ATOM      7  C   UNL     1      56.466  -3.023  18.604  1.00  0.00     0.041 C 
ATOM      8  O   UNL     1      55.648  -3.855  18.129  1.00  0.00    -0.550 OA
ATOM      9  O   UNL     1      57.824  -3.312  18.598  1.00  0.00    -0.550 OA
ENDBRANCH   6   7
ENDBRANCH   5   6
ENDBRANCH   4   5
ENDBRANCH   3   4
ENDBRANCH   2   3
ENDBRANCH   1   2
BRANCH   1  10
ATOM     10  C   UNL     1      52.597   3.761  19.276  1.00  0.00     0.000 C 
BRANCH  10  11
ATOM     11  C   UNL     1      51.472   4.423  18.462  1.00  0.00    -0.000 C 
BRANCH  11  12
ATOM     12  C   UNL     1      50.089   4.236  19.107  1.00  0.00    -0.000 C 
BRANCH  12  13
ATOM     13  C   UNL     1      50.098   4.518  20.620  1.00  0.00    -0.000 C 
BRANCH  13  14
ATOM     14  C   UNL     1      49.318   3.464  21.423  1.00  0.00    -0.000 C 
BRANCH  14  15
ATOM     15  C   UNL     1      49.064   2.179  20.615  1.00  0.00    -0.000 C 
BRANCH  15  16
ATOM     16  C   UNL     1      49.014   0.926  21.504  1.00  0.00    -0.003 C 
ATOM     17  C   UNL     1      49.819   1.080  22.794  1.00  0.00     0.004 C 
ENDBRANCH  15  16
ENDBRANCH  14  15
ENDBRANCH  13  14
ENDBRANCH  12  13
ENDBRANCH  11  12
ENDBRANCH  10  11
ENDBRANCH   1  10
TORSDOF 13
ENDMDL
MODEL 6
REMARK VINA RESULT:    -3.230      1.945      2.914
REMARK INTER + INTRA:          -7.843
REMARK INTER:                  -6.343
REMARK INTRA:                  -1.500
REMARK UNBOUND:                -2.159
REMARK SMILES CCCCCCCCCCCCCCC(=O)[O-]
REMARK SMILES IDX 9 1 10 2 11 3 12 4 13 5 14 6 15 7 16 8 17 9 8 10 7 11 6 12
REMARK SMILES IDX 5 13 4 14 3 15 2 16 1 17
REMARK H PARENT
REMARK Flexibility Score: inf
ROOT
ATOM      1  C   UNL     1      44.576   1.461  10.917  1.00  0.00     0.000 C 
ENDROOT
BRANCH   1   2
ATOM      2  C   UNL     1      45.885   1.559  10.114  1.00  0.00     0.000 C 
BRANCH   2   3
ATOM      3  C   UNL     1      46.033   2.906   9.388  1.00  0.00     0.000 C 
BRANCH   3   4
ATOM      4  C   UNL     1      47.458   3.474   9.476  1.00  0.00     0.000 C 
BRANCH   4   5
ATOM      5  C   UNL     1      47.445   4.906  10.025  1.00  0.00     0.006 C 
BRANCH   5   6
ATOM      6  C   UNL     1      48.664   5.164  10.914  1.00  0.00     0.053 C 
BRANCH   6   7
ATOM      7  C   UNL     1      49.443   6.337  10.410  1.00  0.00     0.041 C 
ATOM      8  O   UNL     1      50.701   6.341  10.481  1.00  0.00    -0.550 OA
ATOM      9  O   UNL     1      48.780   7.448   9.904  1.00  0.00    -0.550 OA
ENDBRANCH   6   7
ENDBRANCH   5   6
ENDBRANCH   4   5
ENDBRANCH   3   4
ENDBRANCH   2   3
ENDBRANCH   1   2
BRANCH   1  10
ATOM     10  C   UNL     1      43.732   0.237  10.527  1.00  0.00     0.000 C 
BRANCH  10  11
ATOM     11  C   UNL     1      43.281   0.273   9.056  1.00  0.00    -0.000 C 
BRANCH  11  12
ATOM     12  C   UNL     1      43.567  -1.047   8.321  1.00  0.00    -0.000 C 
BRANCH  12  13
ATOM     13  C   UNL     1      44.561  -1.945   9.078  1.00  0.00    -0.000 C 
BRANCH  13  14
ATOM     14  C   UNL     1      45.975  -1.902   8.476  1.00  0.00    -0.000 C 
BRANCH  14  15
ATOM     15  C   UNL     1      47.074  -2.057   9.542  1.00  0.00    -0.000 C 
BRANCH  15  16
ATOM     16  C   UNL     1      46.500  -2.323  10.943  1.00  0.00    -0.003 C 
ATOM     17  C   UNL     1      47.007  -1.333  11.990  1.00  0.00     0.004 C 
ENDBRANCH  15  16
ENDBRANCH  14  15
ENDBRANCH  13  14
ENDBRANCH  12  13
ENDBRANCH  11  12
ENDBRANCH  10  11
ENDBRANCH   1  10
TORSDOF 13
ENDMDL
MODEL 7
REMARK VINA RESULT:    -3.220     11.255     13.318
REMARK INTER + INTRA:          -7.826
REMARK INTER:                  -6.022
REMARK INTRA:                  -1.804
REMARK UNBOUND:                -2.159
REMARK SMILES CCCCCCCCCCCCCCC(=O)[O-]
REMARK SMILES IDX 9 1 10 2 11 3 12 4 13 5 14 6 15 7 16 8 17 9 8 10 7 11 6 12
REMARK SMILES IDX 5 13 4 14 3 15 2 16 1 17
REMARK H PARENT
REMARK Flexibility Score: inf
ROOT
ATOM      1  C   UNL     1      50.152   4.096  18.744  1.00  0.00     0.000 C 
ENDROOT
BRANCH   1   2
ATOM      2  C   UNL     1      51.560   4.708  18.850  1.00  0.00     0.000 C 
BRANCH   2   3
ATOM      3  C   UNL     1      52.644   3.653  19.122  1.00  0.00     0.000 C 
BRANCH   3   4
ATOM      4  C   UNL     1      52.066   2.328  19.643  1.00  0.00     0.000 C 
BRANCH   4   5
ATOM      5  C   UNL     1      52.739   1.915  20.957  1.00  0.00     0.006 C 
BRANCH   5   6
ATOM      6  C   UNL     1      51.813   1.023  21.790  1.00  0.00     0.053 C 
BRANCH   6   7
ATOM      7  C   UNL     1      51.270   1.780  22.961  1.00  0.00     0.041 C 
ATOM      8  O   UNL     1      51.220   3.038  22.935  1.00  0.00    -0.550 OA
ATOM      9  O   UNL     1      50.861   1.099  24.101  1.00  0.00    -0.550 OA
ENDBRANCH   6   7
ENDBRANCH   5   6
ENDBRANCH   4   5
ENDBRANCH   3   4
ENDBRANCH   2   3
ENDBRANCH   1   2
BRANCH   1  10
ATOM     10  C   UNL     1      49.115   4.845  19.598  1.00  0.00     0.000 C 
BRANCH  10  11
ATOM     11  C   UNL     1      49.764   5.772  20.640  1.00  0.00    -0.000 C 
BRANCH  11  12
ATOM     12  C   UNL     1      49.107   7.161  20.682  1.00  0.00    -0.000 C 
BRANCH  12  13
ATOM     13  C   UNL     1      50.134   8.305  20.622  1.00  0.00    -0.000 C 
BRANCH  13  14
ATOM     14  C   UNL     1      51.010   8.249  19.359  1.00  0.00    -0.000 C 
BRANCH  14  15
ATOM     15  C   UNL     1      50.242   8.665  18.092  1.00  0.00    -0.000 C 
BRANCH  15  16
ATOM     16  C   UNL     1      50.258   7.574  17.010  1.00  0.00    -0.003 C 
ATOM     17  C   UNL     1      48.863   7.056  16.668  1.00  0.00     0.004 C 
ENDBRANCH  15  16
ENDBRANCH  14  15
ENDBRANCH  13  14
ENDBRANCH  12  13
ENDBRANCH  11  12
ENDBRANCH  10  11
ENDBRANCH   1  10
TORSDOF 13
ENDMDL
MODEL 8
REMARK VINA RESULT:    -3.201      2.108      2.891
REMARK INTER + INTRA:          -7.792
REMARK INTER:                  -6.087
REMARK INTRA:                  -1.705
REMARK UNBOUND:                -2.159
REMARK SMILES CCCCCCCCCCCCCCC(=O)[O-]
REMARK SMILES IDX 9 1 10 2 11 3 12 4 13 5 14 6 15 7 16 8 17 9 8 10 7 11 6 12
REMARK SMILES IDX 5 13 4 14 3 15 2 16 1 17
REMARK H PARENT
REMARK Flexibility Score: inf
ROOT
ATOM      1  C   UNL     1      44.200   1.611  10.719  1.00  0.00     0.000 C 
ENDROOT
BRANCH   1   2
ATOM      2  C   UNL     1      45.497   1.874   9.934  1.00  0.00     0.000 C 
BRANCH   2   3
ATOM      3  C   UNL     1      45.384   3.089   8.998  1.00  0.00     0.000 C 
BRANCH   3   4
ATOM      4  C   UNL     1      43.967   3.274   8.434  1.00  0.00     0.000 C 
BRANCH   4   5
ATOM      5  C   UNL     1      43.548   4.748   8.474  1.00  0.00     0.006 C 
BRANCH   5   6
ATOM      6  C   UNL     1      44.411   5.536   9.464  1.00  0.00     0.053 C 
BRANCH   6   7
ATOM      7  C   UNL     1      45.050   6.708   8.786  1.00  0.00     0.041 C 
ATOM      8  O   UNL     1      45.925   6.527   7.899  1.00  0.00    -0.550 OA
ATOM      9  O   UNL     1      44.714   8.000   9.167  1.00  0.00    -0.550 OA
ENDBRANCH   6   7
ENDBRANCH   5   6
ENDBRANCH   4   5
ENDBRANCH   3   4
ENDBRANCH   2   3
ENDBRANCH   1   2
BRANCH   1  10
ATOM     10  C   UNL     1      43.679   0.176  10.538  1.00  0.00     0.000 C 
BRANCH  10  11
ATOM     11  C   UNL     1      43.841  -0.335   9.095  1.00  0.00    -0.000 C 
BRANCH  11  12
ATOM     12  C   UNL     1      43.591  -1.847   8.975  1.00  0.00    -0.000 C 
BRANCH  12  13
ATOM     13  C   UNL     1      44.875  -2.639   8.672  1.00  0.00    -0.000 C 
BRANCH  13  14
ATOM     14  C   UNL     1      46.125  -1.744   8.625  1.00  0.00    -0.000 C 
BRANCH  14  15
ATOM     15  C   UNL     1      47.180  -2.152   9.668  1.00  0.00    -0.000 C 
BRANCH  15  16
ATOM     16  C   UNL     1      47.537  -1.003  10.624  1.00  0.00    -0.003 C 
ATOM     17  C   UNL     1      46.834  -1.115  11.975  1.00  0.00     0.004 C 
ENDBRANCH  15  16
ENDBRANCH  14  15
ENDBRANCH  13  14
ENDBRANCH  12  13
ENDBRANCH  11  12
ENDBRANCH  10  11
ENDBRANCH   1  10
TORSDOF 13
ENDMDL
MODEL 9
REMARK VINA RESULT:    -3.190      2.552      6.059
REMARK INTER + INTRA:          -7.774
REMARK INTER:                  -5.693
REMARK INTRA:                  -2.081
REMARK UNBOUND:                -2.159
REMARK SMILES CCCCCCCCCCCCCCC(=O)[O-]
REMARK SMILES IDX 9 1 10 2 11 3 12 4 13 5 14 6 15 7 16 8 17 9 8 10 7 11 6 12
REMARK SMILES IDX 5 13 4 14 3 15 2 16 1 17
REMARK H PARENT
REMARK Flexibility Score: inf
ROOT
ATOM      1  C   UNL     1      43.670   3.304  11.099  1.00  0.00     0.000 C 
ENDROOT
BRANCH   1   2
ATOM      2  C   UNL     1      43.296   2.004  11.832  1.00  0.00     0.000 C 
BRANCH   2   3
ATOM      3  C   UNL     1      44.334   0.889  11.623  1.00  0.00     0.000 C 
BRANCH   3   4
ATOM      4  C   UNL     1      43.939  -0.088  10.505  1.00  0.00     0.000 C 
BRANCH   4   5
ATOM      5  C   UNL     1      45.082  -0.261   9.497  1.00  0.00     0.006 C 
BRANCH   5   6
ATOM      6  C   UNL     1      46.428   0.111  10.126  1.00  0.00     0.053 C 
BRANCH   6   7
ATOM      7  C   UNL     1      47.215  -1.121  10.447  1.00  0.00     0.041 C 
ATOM      8  O   UNL     1      47.686  -1.289  11.602  1.00  0.00    -0.550 OA
ATOM      9  O   UNL     1      47.469  -2.062   9.457  1.00  0.00    -0.550 OA
ENDBRANCH   6   7
ENDBRANCH   5   6
ENDBRANCH   4   5
ENDBRANCH   3   4
ENDBRANCH   2   3
ENDBRANCH   1   2
BRANCH   1  10
ATOM     10  C   UNL     1      43.029   3.403   9.705  1.00  0.00     0.000 C 
BRANCH  10  11
ATOM     11  C   UNL     1      44.066   3.328   8.570  1.00  0.00    -0.000 C 
BRANCH  11  12
ATOM     12  C   UNL     1      45.508   3.485   9.079  1.00  0.00    -0.000 C 
BRANCH  12  13
ATOM     13  C   UNL     1      46.115   4.855   8.729  1.00  0.00    -0.000 C 
BRANCH  13  14
ATOM     14  C   UNL     1      46.363   5.727   9.971  1.00  0.00    -0.000 C 
BRANCH  14  15
ATOM     15  C   UNL     1      45.577   7.049   9.929  1.00  0.00    -0.000 C 
BRANCH  15  16
ATOM     16  C   UNL     1      44.160   6.909  10.505  1.00  0.00    -0.003 C 
ATOM     17  C   UNL     1      43.070   7.083   9.449  1.00  0.00     0.004 C 
ENDBRANCH  15  16
ENDBRANCH  14  15
ENDBRANCH  13  14
ENDBRANCH  12  13
ENDBRANCH  11  12
ENDBRANCH  10  11
ENDBRANCH   1  10
TORSDOF 13
ENDMDL
