MODEL 1
REMARK VINA RESULT:    -4.093      0.000      0.000
REMARK INTER + INTRA:          -4.348
REMARK INTER:                  -4.332
REMARK INTRA:                  -0.016
REMARK UNBOUND:                -0.016
REMARK SMILES O=C([O-])c1cccnc1
REMARK SMILES IDX 4 1 5 2 9 3 6 4 8 5 7 6 2 7 1 8 3 9
REMARK H PARENT
REMARK Flexibility Score: inf
ROOT
ATOM      1  C   UNL     1      35.979  18.905  12.007  1.00  0.00     0.016 A 
ATOM      2  C   UNL     1      36.891  18.855  13.073  1.00  0.00     0.013 A 
ATOM      3  C   UNL     1      36.422  18.515  10.730  1.00  0.00     0.120 A 
ATOM      4  C   UNL     1      38.202  18.427  12.855  1.00  0.00     0.021 A 
ATOM      5  N   UNL     1      37.704  18.101  10.545  1.00  0.00    -0.264 NA
ATOM      6  C   UNL     1      38.594  18.049  11.571  1.00  0.00     0.111 A 
ENDROOT
BRANCH   1   7
ATOM      7  C   UNL     1      34.589  19.357  12.226  1.00  0.00     0.073 C 
ATOM      8  O   UNL     1      33.720  18.562  12.675  1.00  0.00    -0.545 OA
ATOM      9  O   UNL     1      34.219  20.666  11.937  1.00  0.00    -0.545 OA
ENDBRANCH   1   7
TORSDOF 1
ENDMDL
MODEL 2
REMARK VINA RESULT:    -4.088      7.163      7.818
REMARK INTER + INTRA:          -4.343
REMARK INTER:                  -4.327
REMARK INTRA:                  -0.016
REMARK UNBOUND:                -0.016
REMARK SMILES O=C([O-])c1cccnc1
REMARK SMILES IDX 4 1 5 2 9 3 6 4 8 5 7 6 2 7 1 8 3 9
REMARK H PARENT
REMARK Flexibility Score: inf
ROOT
ATOM      1  C   UNL     1      31.869  13.153  14.852  1.00  0.00     0.016 A 
ATOM      2  C   UNL     1      33.195  12.847  15.197  1.00  0.00     0.013 A 
ATOM      3  C   UNL     1      31.550  14.487  14.542  1.00  0.00     0.120 A 
ATOM      4  C   UNL     1      34.162  13.854  15.227  1.00  0.00     0.021 A 
ATOM      5  N   UNL     1      32.511  15.449  14.579  1.00  0.00    -0.264 NA
ATOM      6  C   UNL     1      33.797  15.163  14.911  1.00  0.00     0.111 A 
ENDROOT
BRANCH   1   7
ATOM      7  C   UNL     1      30.837  12.095  14.817  1.00  0.00     0.073 C 
ATOM      8  O   UNL     1      30.411  11.653  13.716  1.00  0.00    -0.545 OA
ATOM      9  O   UNL     1      30.321  11.574  15.998  1.00  0.00    -0.545 OA
ENDBRANCH   1   7
TORSDOF 1
ENDMDL
MODEL 3
REMARK VINA RESULT:    -4.075      2.433      3.375
REMARK INTER + INTRA:          -4.330
REMARK INTER:                  -4.311
REMARK INTRA:                  -0.019
REMARK UNBOUND:                -0.016
REMARK SMILES O=C([O-])c1cccnc1
REMARK SMILES IDX 4 1 5 2 9 3 6 4 8 5 7 6 2 7 1 8 3 9
REMARK H PARENT
REMARK Flexibility Score: inf
ROOT
ATOM      1  C   UNL     1      38.571  18.300  11.670  1.00  0.00     0.016 A 
ATOM      2  C   UNL     1      38.412  18.509  10.291  1.00  0.00     0.013 A 
ATOM      3  C   UNL     1      39.876  18.182  12.182  1.00  0.00     0.120 A 
ATOM      4  C   UNL     1      39.532  18.596   9.461  1.00  0.00     0.021 A 
ATOM      5  N   UNL     1      40.949  18.270  11.352  1.00  0.00    -0.264 NA
ATOM      6  C   UNL     1      40.806  18.473  10.016  1.00  0.00     0.111 A 
ENDROOT
BRANCH   1   7
ATOM      7  C   UNL     1      37.393  18.207  12.558  1.00  0.00     0.073 C 
ATOM      8  O   UNL     1      37.318  18.914  13.599  1.00  0.00    -0.545 OA
ATOM      9  O   UNL     1      36.351  17.337  12.259  1.00  0.00    -0.545 OA
ENDBRANCH   1   7
TORSDOF 1
ENDMDL
MODEL 4
REMARK VINA RESULT:    -4.035      3.302      3.920
REMARK INTER + INTRA:          -4.287
REMARK INTER:                  -4.269
REMARK INTRA:                  -0.018
REMARK UNBOUND:                -0.016
REMARK SMILES O=C([O-])c1cccnc1
REMARK SMILES IDX 4 1 5 2 9 3 6 4 8 5 7 6 2 7 1 8 3 9
REMARK H PARENT
REMARK Flexibility Score: inf
ROOT
ATOM      1  C   UNL     1      38.040  18.260  10.800  1.00  0.00     0.016 A 
ATOM      2  C   UNL     1      38.416  18.360  12.149  1.00  0.00     0.013 A 
ATOM      3  C   UNL     1      36.681  18.414  10.471  1.00  0.00     0.120 A 
ATOM      4  C   UNL     1      37.451  18.605  13.129  1.00  0.00     0.021 A 
ATOM      5  N   UNL     1      35.763  18.652  11.445  1.00  0.00    -0.264 NA
ATOM      6  C   UNL     1      36.116  18.750  12.753  1.00  0.00     0.111 A 
ENDROOT
BRANCH   1   7
ATOM      7  C   UNL     1      39.052  18.001   9.754  1.00  0.00     0.073 C 
ATOM      8  O   UNL     1      38.929  17.020   8.972  1.00  0.00    -0.545 OA
ATOM      9  O   UNL     1      40.155  18.836   9.618  1.00  0.00    -0.545 OA
ENDBRANCH   1   7
TORSDOF 1
ENDMDL
MODEL 5
REMARK VINA RESULT:    -4.022      2.904      3.564
REMARK INTER + INTRA:          -4.273
REMARK INTER:                  -4.252
REMARK INTRA:                  -0.021
REMARK UNBOUND:                -0.016
REMARK SMILES O=C([O-])c1cccnc1
REMARK SMILES IDX 4 1 5 2 9 3 6 4 8 5 7 6 2 7 1 8 3 9
REMARK H PARENT
REMARK Flexibility Score: inf
ROOT
ATOM      1  C   UNL     1      37.452  18.184  10.660  1.00  0.00     0.016 A 
ATOM      2  C   UNL     1      36.198  18.492  11.211  1.00  0.00     0.013 A 
ATOM      3  C   UNL     1      38.574  18.187  11.508  1.00  0.00     0.120 A 
ATOM      4  C   UNL     1      36.084  18.791  12.571  1.00  0.00     0.021 A 
ATOM      5  N   UNL     1      38.436  18.482  12.828  1.00  0.00    -0.264 NA
ATOM      6  C   UNL     1      37.227  18.781  13.371  1.00  0.00     0.111 A 
ENDROOT
BRANCH   1   7
ATOM      7  C   UNL     1      37.585  17.865   9.222  1.00  0.00     0.073 C 
ATOM      8  O   UNL     1      38.418  17.004   8.832  1.00  0.00    -0.545 OA
ATOM      9  O   UNL     1      36.792  18.512   8.281  1.00  0.00    -0.545 OA
ENDBRANCH   1   7
TORSDOF 1
ENDMDL
MODEL 6
REMARK VINA RESULT:    -3.994      3.276      3.909
REMARK INTER + INTRA:          -4.243
REMARK INTER:                  -4.226
REMARK INTRA:                  -0.018
REMARK UNBOUND:                -0.016
REMARK SMILES O=C([O-])c1cccnc1
REMARK SMILES IDX 4 1 5 2 9 3 6 4 8 5 7 6 2 7 1 8 3 9
REMARK H PARENT
REMARK Flexibility Score: inf
ROOT
ATOM      1  C   UNL     1      37.857  17.770  11.790  1.00  0.00     0.016 A 
ATOM      2  C   UNL     1      37.129  18.530  12.720  1.00  0.00     0.013 A 
ATOM      3  C   UNL     1      37.231  16.659  11.198  1.00  0.00     0.120 A 
ATOM      4  C   UNL     1      35.816  18.176  13.039  1.00  0.00     0.021 A 
ATOM      5  N   UNL     1      35.951  16.337  11.527  1.00  0.00    -0.264 NA
ATOM      6  C   UNL     1      35.238  17.065  12.425  1.00  0.00     0.111 A 
ENDROOT
BRANCH   1   7
ATOM      7  C   UNL     1      39.248  18.135  11.445  1.00  0.00     0.073 C 
ATOM      8  O   UNL     1      40.148  18.134  12.327  1.00  0.00    -0.545 OA
ATOM      9  O   UNL     1      39.581  18.486  10.142  1.00  0.00    -0.545 OA
ENDBRANCH   1   7
TORSDOF 1
ENDMDL
MODEL 7
REMARK VINA RESULT:    -3.992      2.600      3.479
REMARK INTER + INTRA:          -4.242
REMARK INTER:                  -4.225
REMARK INTRA:                  -0.016
REMARK UNBOUND:                -0.016
REMARK SMILES O=C([O-])c1cccnc1
REMARK SMILES IDX 4 1 5 2 9 3 6 4 8 5 7 6 2 7 1 8 3 9
REMARK H PARENT
REMARK Flexibility Score: inf
ROOT
ATOM      1  C   UNL     1      36.337  18.517  11.518  1.00  0.00     0.016 A 
ATOM      2  C   UNL     1      35.409  19.091  12.402  1.00  0.00     0.013 A 
ATOM      3  C   UNL     1      36.222  18.809  10.147  1.00  0.00     0.120 A 
ATOM      4  C   UNL     1      34.403  19.929  11.916  1.00  0.00     0.021 A 
ATOM      5  N   UNL     1      35.233  19.628   9.700  1.00  0.00    -0.264 NA
ATOM      6  C   UNL     1      34.331  20.188  10.547  1.00  0.00     0.111 A 
ENDROOT
BRANCH   1   7
ATOM      7  C   UNL     1      37.406  17.628  12.020  1.00  0.00     0.073 C 
ATOM      8  O   UNL     1      37.345  16.383  11.832  1.00  0.00    -0.545 OA
ATOM      9  O   UNL     1      38.493  18.154  12.709  1.00  0.00    -0.545 OA
ENDBRANCH   1   7
TORSDOF 1
ENDMDL
MODEL 8
REMARK VINA RESULT:    -3.951      3.004      3.834
REMARK INTER + INTRA:          -4.198
REMARK INTER:                  -4.175
REMARK INTRA:                  -0.023
REMARK UNBOUND:                -0.016
REMARK SMILES O=C([O-])c1cccnc1
REMARK SMILES IDX 4 1 5 2 9 3 6 4 8 5 7 6 2 7 1 8 3 9
REMARK H PARENT
REMARK Flexibility Score: inf
ROOT
ATOM      1  C   UNL     1      38.016  18.492  10.756  1.00  0.00     0.016 A 
ATOM      2  C   UNL     1      38.902  18.699   9.687  1.00  0.00     0.013 A 
ATOM      3  C   UNL     1      36.638  18.430  10.479  1.00  0.00     0.120 A 
ATOM      4  C   UNL     1      38.412  18.838   8.386  1.00  0.00     0.021 A 
ATOM      5  N   UNL     1      36.188  18.568   9.204  1.00  0.00    -0.264 NA
ATOM      6  C   UNL     1      37.037  18.768   8.163  1.00  0.00     0.111 A 
ENDROOT
BRANCH   1   7
ATOM      7  C   UNL     1      38.523  18.343  12.137  1.00  0.00     0.073 C 
ATOM      8  O   UNL     1      37.744  18.458  13.121  1.00  0.00    -0.545 OA
ATOM      9  O   UNL     1      39.867  18.077  12.369  1.00  0.00    -0.545 OA
ENDBRANCH   1   7
TORSDOF 1
ENDMDL
MODEL 9
REMARK VINA RESULT:    -3.853      2.826      4.038
REMARK INTER + INTRA:          -4.095
REMARK INTER:                  -4.077
REMARK INTRA:                  -0.018
REMARK UNBOUND:                -0.016
REMARK SMILES O=C([O-])c1cccnc1
REMARK SMILES IDX 4 1 5 2 9 3 6 4 8 5 7 6 2 7 1 8 3 9
REMARK H PARENT
REMARK Flexibility Score: inf
ROOT
ATOM      1  C   UNL     1      35.475  18.200  12.578  1.00  0.00     0.016 A 
ATOM      2  C   UNL     1      34.804  19.363  12.167  1.00  0.00     0.013 A 
ATOM      3  C   UNL     1      34.712  17.052  12.859  1.00  0.00     0.120 A 
ATOM      4  C   UNL     1      33.412  19.363  12.045  1.00  0.00     0.021 A 
ATOM      5  N   UNL     1      33.358  17.079  12.731  1.00  0.00    -0.264 NA
ATOM      6  C   UNL     1      32.700  18.199  12.334  1.00  0.00     0.111 A 
ENDROOT
BRANCH   1   7
ATOM      7  C   UNL     1      36.947  18.188  12.712  1.00  0.00     0.073 C 
ATOM      8  O   UNL     1      37.526  18.990  13.493  1.00  0.00    -0.545 OA
ATOM      9  O   UNL     1      37.714  17.292  11.975  1.00  0.00    -0.545 OA
ENDBRANCH   1   7
TORSDOF 1
ENDMDL
