MODEL 1
REMARK VINA RESULT:    -3.790      0.000      0.000
REMARK INTER + INTRA:          -9.768
REMARK INTER:                  -7.336
REMARK INTRA:                  -2.432
REMARK UNBOUND:                -2.432
REMARK SMILES CCCCCCCCCCCCCCCCCC(=O)[O-]
REMARK SMILES IDX 10 1 11 2 12 3 13 4 14 5 15 6 16 7 17 8 18 9 19 10 20 11
REMARK SMILES IDX 9 12 8 13 7 14 6 15 5 16 4 17 3 18 2 19 1 20
REMARK H PARENT
REMARK Flexibility Score: inf
ROOT
ATOM      1  C   UNL     1      -5.494  -6.016   4.789  1.00  0.00     0.000 C 
ENDROOT
BRANCH   1   2
ATOM      2  C   UNL     1      -4.425  -5.314   5.641  1.00  0.00     0.000 C 
BRANCH   2   3
ATOM      3  C   UNL     1      -4.074  -3.913   5.112  1.00  0.00     0.000 C 
BRANCH   3   4
ATOM      4  C   UNL     1      -4.839  -2.797   5.841  1.00  0.00     0.000 C 
BRANCH   4   5
ATOM      5  C   UNL     1      -5.893  -3.343   6.819  1.00  0.00     0.000 C 
BRANCH   5   6
ATOM      6  C   UNL     1      -5.772  -2.707   8.222  1.00  0.00     0.000 C 
BRANCH   6   7
ATOM      7  C   UNL     1      -5.419  -3.720   9.326  1.00  0.00     0.006 C 
BRANCH   7   8
ATOM      8  C   UNL     1      -5.682  -5.182   8.939  1.00  0.00     0.053 C 
BRANCH   8   9
ATOM      9  C   UNL     1      -4.476  -6.043   9.155  1.00  0.00     0.041 C 
ATOM     10  O   UNL     1      -4.608  -7.225   9.568  1.00  0.00    -0.550 OA
ATOM     11  O   UNL     1      -3.205  -5.551   8.881  1.00  0.00    -0.550 OA
ENDBRANCH   8   9
ENDBRANCH   7   8
ENDBRANCH   6   7
ENDBRANCH   5   6
ENDBRANCH   4   5
ENDBRANCH   3   4
ENDBRANCH   2   3
ENDBRANCH   1   2
BRANCH   1  12
ATOM     12  C   UNL     1      -6.397  -6.941   5.619  1.00  0.00     0.000 C 
BRANCH  12  13
ATOM     13  C   UNL     1      -5.604  -8.142   6.156  1.00  0.00    -0.000 C 
BRANCH  13  14
ATOM     14  C   UNL     1      -6.461  -9.413   6.272  1.00  0.00    -0.000 C 
BRANCH  14  15
ATOM     15  C   UNL     1      -7.954  -9.104   6.462  1.00  0.00    -0.000 C 
BRANCH  15  16
ATOM     16  C   UNL     1      -8.382  -9.333   7.916  1.00  0.00    -0.000 C 
BRANCH  16  17
ATOM     17  C   UNL     1      -8.732  -8.005   8.604  1.00  0.00    -0.000 C 
BRANCH  17  18
ATOM     18  C   UNL     1      -9.505  -7.040   7.687  1.00  0.00    -0.000 C 
BRANCH  18  19
ATOM     19  C   UNL     1      -9.085  -5.563   7.802  1.00  0.00    -0.003 C 
ATOM     20  C   UNL     1      -9.346  -4.767   6.524  1.00  0.00     0.004 C 
ENDBRANCH  18  19
ENDBRANCH  17  18
ENDBRANCH  16  17
ENDBRANCH  15  16
ENDBRANCH  14  15
ENDBRANCH  13  14
ENDBRANCH  12  13
ENDBRANCH   1  12
TORSDOF 16
ENDMDL
MODEL 2
REMARK VINA RESULT:    -3.786      2.793      5.005
REMARK INTER + INTRA:          -9.759
REMARK INTER:                  -7.117
REMARK INTRA:                  -2.642
REMARK UNBOUND:                -2.432
REMARK SMILES CCCCCCCCCCCCCCCCCC(=O)[O-]
REMARK SMILES IDX 10 1 11 2 12 3 13 4 14 5 15 6 16 7 17 8 18 9 19 10 20 11
REMARK SMILES IDX 9 12 8 13 7 14 6 15 5 16 4 17 3 18 2 19 1 20
REMARK H PARENT
REMARK Flexibility Score: inf
ROOT
ATOM      1  C   UNL     1      -4.973  -5.014   5.196  1.00  0.00     0.000 C 
ENDROOT
BRANCH   1   2
ATOM      2  C   UNL     1      -4.428  -6.128   6.104  1.00  0.00     0.000 C 
BRANCH   2   3
ATOM      3  C   UNL     1      -3.822  -5.584   7.409  1.00  0.00     0.000 C 
BRANCH   3   4
ATOM      4  C   UNL     1      -4.655  -5.952   8.647  1.00  0.00     0.000 C 
BRANCH   4   5
ATOM      5  C   UNL     1      -5.907  -6.773   8.295  1.00  0.00     0.000 C 
BRANCH   5   6
ATOM      6  C   UNL     1      -7.181  -6.211   8.966  1.00  0.00     0.000 C 
BRANCH   6   7
ATOM      7  C   UNL     1      -8.426  -6.271   8.062  1.00  0.00     0.006 C 
BRANCH   7   8
ATOM      8  C   UNL     1      -8.109  -6.254   6.561  1.00  0.00     0.053 C 
BRANCH   8   9
ATOM      9  C   UNL     1      -8.616  -7.482   5.869  1.00  0.00     0.041 C 
ATOM     10  O   UNL     1      -8.102  -8.605   6.115  1.00  0.00    -0.550 OA
ATOM     11  O   UNL     1      -9.672  -7.393   4.970  1.00  0.00    -0.550 OA
ENDBRANCH   8   9
ENDBRANCH   7   8
ENDBRANCH   6   7
ENDBRANCH   5   6
ENDBRANCH   4   5
ENDBRANCH   3   4
ENDBRANCH   2   3
ENDBRANCH   1   2
BRANCH   1  12
ATOM     12  C   UNL     1      -4.098  -3.752   5.220  1.00  0.00     0.000 C 
BRANCH  12  13
ATOM     13  C   UNL     1      -4.875  -2.558   5.795  1.00  0.00    -0.000 C 
BRANCH  13  14
ATOM     14  C   UNL     1      -6.046  -2.991   6.692  1.00  0.00    -0.000 C 
BRANCH  14  15
ATOM     15  C   UNL     1      -5.837  -2.604   8.164  1.00  0.00    -0.000 C 
BRANCH  15  16
ATOM     16  C   UNL     1      -7.176  -2.530   8.908  1.00  0.00    -0.000 C 
BRANCH  16  17
ATOM     17  C   UNL     1      -8.355  -2.569   7.925  1.00  0.00    -0.000 C 
BRANCH  17  18
ATOM     18  C   UNL     1      -9.519  -1.654   8.347  1.00  0.00    -0.000 C 
BRANCH  18  19
ATOM     19  C   UNL     1      -9.424  -0.208   7.829  1.00  0.00    -0.003 C 
ATOM     20  C   UNL     1      -9.556  -0.107   6.310  1.00  0.00     0.004 C 
ENDBRANCH  18  19
ENDBRANCH  17  18
ENDBRANCH  16  17
ENDBRANCH  15  16
ENDBRANCH  14  15
ENDBRANCH  13  14
ENDBRANCH  12  13
ENDBRANCH   1  12
TORSDOF 16
ENDMDL
MODEL 3
REMARK VINA RESULT:    -3.783      3.489      4.735
REMARK INTER + INTRA:          -9.754
REMARK INTER:                  -7.219
REMARK INTRA:                  -2.535
REMARK UNBOUND:                -2.432
REMARK SMILES CCCCCCCCCCCCCCCCCC(=O)[O-]
REMARK SMILES IDX 10 1 11 2 12 3 13 4 14 5 15 6 16 7 17 8 18 9 19 10 20 11
REMARK SMILES IDX 9 12 8 13 7 14 6 15 5 16 4 17 3 18 2 19 1 20
REMARK H PARENT
REMARK Flexibility Score: inf
ROOT
ATOM      1  C   UNL     1      -4.395  -4.230   5.269  1.00  0.00     0.000 C 
ENDROOT
BRANCH   1   2
ATOM      2  C   UNL     1      -4.812  -2.947   6.006  1.00  0.00     0.000 C 
BRANCH   2   3
ATOM      3  C   UNL     1      -5.988  -3.175   6.971  1.00  0.00     0.000 C 
BRANCH   3   4
ATOM      4  C   UNL     1      -5.671  -2.723   8.406  1.00  0.00     0.000 C 
BRANCH   4   5
ATOM      5  C   UNL     1      -6.936  -2.533   9.260  1.00  0.00     0.000 C 
BRANCH   5   6
ATOM      6  C   UNL     1      -7.164  -1.054   9.643  1.00  0.00     0.000 C 
BRANCH   6   7
ATOM      7  C   UNL     1      -8.631  -0.604   9.505  1.00  0.00     0.006 C 
BRANCH   7   8
ATOM      8  C   UNL     1      -9.263  -0.943   8.148  1.00  0.00     0.053 C 
BRANCH   8   9
ATOM      9  C   UNL     1      -9.332   0.253   7.250  1.00  0.00     0.041 C 
ATOM     10  O   UNL     1      -9.253   1.413   7.734  1.00  0.00    -0.550 OA
ATOM     11  O   UNL     1      -9.461   0.091   5.876  1.00  0.00    -0.550 OA
ENDBRANCH   8   9
ENDBRANCH   7   8
ENDBRANCH   6   7
ENDBRANCH   5   6
ENDBRANCH   4   5
ENDBRANCH   3   4
ENDBRANCH   2   3
ENDBRANCH   1   2
BRANCH   1  12
ATOM     12  C   UNL     1      -3.969  -5.350   6.229  1.00  0.00     0.000 C 
BRANCH  12  13
ATOM     13  C   UNL     1      -4.793  -6.623   5.986  1.00  0.00    -0.000 C 
BRANCH  13  14
ATOM     14  C   UNL     1      -6.092  -6.348   5.211  1.00  0.00    -0.000 C 
BRANCH  14  15
ATOM     15  C   UNL     1      -7.350  -6.653   6.039  1.00  0.00    -0.000 C 
BRANCH  15  16
ATOM     16  C   UNL     1      -6.981  -7.286   7.386  1.00  0.00    -0.000 C 
BRANCH  16  17
ATOM     17  C   UNL     1      -7.643  -6.532   8.549  1.00  0.00    -0.000 C 
BRANCH  17  18
ATOM     18  C   UNL     1      -6.643  -6.128   9.648  1.00  0.00    -0.000 C 
BRANCH  18  19
ATOM     19  C   UNL     1      -5.291  -6.861   9.593  1.00  0.00    -0.003 C 
ATOM     20  C   UNL     1      -4.099  -5.934   9.823  1.00  0.00     0.004 C 
ENDBRANCH  18  19
ENDBRANCH  17  18
ENDBRANCH  16  17
ENDBRANCH  15  16
ENDBRANCH  14  15
ENDBRANCH  13  14
ENDBRANCH  12  13
ENDBRANCH   1  12
TORSDOF 16
ENDMDL
MODEL 4
REMARK VINA RESULT:    -3.778      1.958      5.294
REMARK INTER + INTRA:          -9.745
REMARK INTER:                  -7.400
REMARK INTRA:                  -2.344
REMARK UNBOUND:                -2.432
REMARK SMILES CCCCCCCCCCCCCCCCCC(=O)[O-]
REMARK SMILES IDX 10 1 11 2 12 3 13 4 14 5 15 6 16 7 17 8 18 9 19 10 20 11
REMARK SMILES IDX 9 12 8 13 7 14 6 15 5 16 4 17 3 18 2 19 1 20
REMARK H PARENT
REMARK Flexibility Score: inf
ROOT
ATOM      1  C   UNL     1      -6.706  -2.723   8.129  1.00  0.00     0.000 C 
ENDROOT
BRANCH   1   2
ATOM      2  C   UNL     1      -8.227  -2.752   8.349  1.00  0.00     0.000 C 
BRANCH   2   3
ATOM      3  C   UNL     1      -8.834  -4.144   8.103  1.00  0.00     0.000 C 
BRANCH   3   4
ATOM      4  C   UNL     1      -9.726  -4.187   6.852  1.00  0.00     0.000 C 
BRANCH   4   5
ATOM      5  C   UNL     1      -9.279  -5.259   5.843  1.00  0.00     0.000 C 
BRANCH   5   6
ATOM      6  C   UNL     1      -7.905  -5.865   6.207  1.00  0.00     0.000 C 
BRANCH   6   7
ATOM      7  C   UNL     1      -7.799  -7.370   5.902  1.00  0.00     0.006 C 
BRANCH   7   8
ATOM      8  C   UNL     1      -6.358  -7.899   5.863  1.00  0.00     0.053 C 
BRANCH   8   9
ATOM      9  C   UNL     1      -6.156  -9.039   6.813  1.00  0.00     0.041 C 
ATOM     10  O   UNL     1      -6.817  -9.095   7.884  1.00  0.00    -0.550 OA
ATOM     11  O   UNL     1      -5.257 -10.054   6.509  1.00  0.00    -0.550 OA
ENDBRANCH   8   9
ENDBRANCH   7   8
ENDBRANCH   6   7
ENDBRANCH   5   6
ENDBRANCH   4   5
ENDBRANCH   3   4
ENDBRANCH   2   3
ENDBRANCH   1   2
BRANCH   1  12
ATOM     12  C   UNL     1      -5.929  -2.417   9.418  1.00  0.00     0.000 C 
BRANCH  12  13
ATOM     13  C   UNL     1      -5.035  -3.603   9.813  1.00  0.00    -0.000 C 
BRANCH  13  14
ATOM     14  C   UNL     1      -5.705  -4.961   9.552  1.00  0.00    -0.000 C 
BRANCH  14  15
ATOM     15  C   UNL     1      -4.821  -5.907   8.724  1.00  0.00    -0.000 C 
BRANCH  15  16
ATOM     16  C   UNL     1      -3.818  -5.118   7.874  1.00  0.00    -0.000 C 
BRANCH  16  17
ATOM     17  C   UNL     1      -3.796  -5.634   6.427  1.00  0.00    -0.000 C 
BRANCH  17  18
ATOM     18  C   UNL     1      -4.553  -4.715   5.451  1.00  0.00    -0.000 C 
BRANCH  18  19
ATOM     19  C   UNL     1      -3.723  -3.547   4.888  1.00  0.00    -0.003 C 
ATOM     20  C   UNL     1      -4.325  -2.179   5.206  1.00  0.00     0.004 C 
ENDBRANCH  18  19
ENDBRANCH  17  18
ENDBRANCH  16  17
ENDBRANCH  15  16
ENDBRANCH  14  15
ENDBRANCH  13  14
ENDBRANCH  12  13
ENDBRANCH   1  12
TORSDOF 16
ENDMDL
MODEL 5
REMARK VINA RESULT:    -3.760      1.998      4.522
REMARK INTER + INTRA:          -9.709
REMARK INTER:                  -6.822
REMARK INTRA:                  -2.887
REMARK UNBOUND:                -2.432
REMARK SMILES CCCCCCCCCCCCCCCCCC(=O)[O-]
REMARK SMILES IDX 10 1 11 2 12 3 13 4 14 5 15 6 16 7 17 8 18 9 19 10 20 11
REMARK SMILES IDX 9 12 8 13 7 14 6 15 5 16 4 17 3 18 2 19 1 20
REMARK H PARENT
REMARK Flexibility Score: inf
ROOT
ATOM      1  C   UNL     1      -4.941  -5.126   5.317  1.00  0.00     0.000 C 
ENDROOT
BRANCH   1   2
ATOM      2  C   UNL     1      -4.466  -6.126   6.384  1.00  0.00     0.000 C 
BRANCH   2   3
ATOM      3  C   UNL     1      -3.663  -5.452   7.510  1.00  0.00     0.000 C 
BRANCH   3   4
ATOM      4  C   UNL     1      -4.197  -5.801   8.908  1.00  0.00     0.000 C 
BRANCH   4   5
ATOM      5  C   UNL     1      -5.438  -6.708   8.858  1.00  0.00     0.000 C 
BRANCH   5   6
ATOM      6  C   UNL     1      -5.236  -8.018   9.653  1.00  0.00     0.000 C 
BRANCH   6   7
ATOM      7  C   UNL     1      -5.635  -9.280   8.866  1.00  0.00     0.006 C 
BRANCH   7   8
ATOM      8  C   UNL     1      -7.001  -9.178   8.174  1.00  0.00     0.053 C 
BRANCH   8   9
ATOM      9  C   UNL     1      -6.902  -9.437   6.702  1.00  0.00     0.041 C 
ATOM     10  O   UNL     1      -7.945  -9.619   6.020  1.00  0.00    -0.550 OA
ATOM     11  O   UNL     1      -5.662  -9.455   6.076  1.00  0.00    -0.550 OA
ENDBRANCH   8   9
ENDBRANCH   7   8
ENDBRANCH   6   7
ENDBRANCH   5   6
ENDBRANCH   4   5
ENDBRANCH   3   4
ENDBRANCH   2   3
ENDBRANCH   1   2
BRANCH   1  12
ATOM     12  C   UNL     1      -4.052  -3.875   5.243  1.00  0.00     0.000 C 
BRANCH  12  13
ATOM     13  C   UNL     1      -4.807  -2.637   5.748  1.00  0.00    -0.000 C 
BRANCH  13  14
ATOM     14  C   UNL     1      -6.044  -2.998   6.586  1.00  0.00    -0.000 C 
BRANCH  14  15
ATOM     15  C   UNL     1      -5.865  -2.670   8.076  1.00  0.00    -0.000 C 
BRANCH  15  16
ATOM     16  C   UNL     1      -6.997  -3.280   8.912  1.00  0.00    -0.000 C 
BRANCH  16  17
ATOM     17  C   UNL     1      -8.098  -3.858   8.011  1.00  0.00    -0.000 C 
BRANCH  17  18
ATOM     18  C   UNL     1      -8.643  -5.205   8.520  1.00  0.00    -0.000 C 
BRANCH  18  19
ATOM     19  C   UNL     1      -9.046  -6.198   7.414  1.00  0.00    -0.003 C 
ATOM     20  C   UNL     1      -8.310  -5.958   6.098  1.00  0.00     0.004 C 
ENDBRANCH  18  19
ENDBRANCH  17  18
ENDBRANCH  16  17
ENDBRANCH  15  16
ENDBRANCH  14  15
ENDBRANCH  13  14
ENDBRANCH  12  13
ENDBRANCH   1  12
TORSDOF 16
ENDMDL
MODEL 6
REMARK VINA RESULT:    -3.756      3.385      4.491
REMARK INTER + INTRA:          -9.701
REMARK INTER:                  -6.840
REMARK INTRA:                  -2.860
REMARK UNBOUND:                -2.432
REMARK SMILES CCCCCCCCCCCCCCCCCC(=O)[O-]
REMARK SMILES IDX 10 1 11 2 12 3 13 4 14 5 15 6 16 7 17 8 18 9 19 10 20 11
REMARK SMILES IDX 9 12 8 13 7 14 6 15 5 16 4 17 3 18 2 19 1 20
REMARK H PARENT
REMARK Flexibility Score: inf
ROOT
ATOM      1  C   UNL     1      -5.020  -5.211   5.495  1.00  0.00     0.000 C 
ENDROOT
BRANCH   1   2
ATOM      2  C   UNL     1      -4.141  -3.955   5.386  1.00  0.00     0.000 C 
BRANCH   2   3
ATOM      3  C   UNL     1      -4.863  -2.685   5.866  1.00  0.00     0.000 C 
BRANCH   3   4
ATOM      4  C   UNL     1      -6.122  -2.996   6.691  1.00  0.00     0.000 C 
BRANCH   4   5
ATOM      5  C   UNL     1      -6.018  -2.494   8.141  1.00  0.00     0.000 C 
BRANCH   5   6
ATOM      6  C   UNL     1      -7.406  -2.239   8.771  1.00  0.00     0.000 C 
BRANCH   6   7
ATOM      7  C   UNL     1      -8.549  -2.200   7.739  1.00  0.00     0.006 C 
BRANCH   7   8
ATOM      8  C   UNL     1      -9.611  -1.130   8.026  1.00  0.00     0.053 C 
BRANCH   8   9
ATOM      9  C   UNL     1      -9.384   0.112   7.220  1.00  0.00     0.041 C 
ATOM     10  O   UNL     1      -9.357   0.053   5.962  1.00  0.00    -0.550 OA
ATOM     11  O   UNL     1      -9.224   1.339   7.852  1.00  0.00    -0.550 OA
ENDBRANCH   8   9
ENDBRANCH   7   8
ENDBRANCH   6   7
ENDBRANCH   5   6
ENDBRANCH   4   5
ENDBRANCH   3   4
ENDBRANCH   2   3
ENDBRANCH   1   2
BRANCH   1  12
ATOM     12  C   UNL     1      -4.490  -6.215   6.530  1.00  0.00     0.000 C 
BRANCH  12  13
ATOM     13  C   UNL     1      -3.742  -5.492   7.660  1.00  0.00    -0.000 C 
BRANCH  13  14
ATOM     14  C   UNL     1      -4.435  -5.647   9.024  1.00  0.00    -0.000 C 
BRANCH  14  15
ATOM     15  C   UNL     1      -5.620  -6.624   8.976  1.00  0.00    -0.000 C 
BRANCH  15  16
ATOM     16  C   UNL     1      -6.936  -5.908   9.300  1.00  0.00    -0.000 C 
BRANCH  16  17
ATOM     17  C   UNL     1      -8.106  -6.525   8.519  1.00  0.00    -0.000 C 
BRANCH  17  18
ATOM     18  C   UNL     1      -8.335  -5.854   7.153  1.00  0.00    -0.000 C 
BRANCH  18  19
ATOM     19  C   UNL     1      -8.299  -6.812   5.948  1.00  0.00    -0.003 C 
ATOM     20  C   UNL     1      -7.746  -8.192   6.299  1.00  0.00     0.004 C 
ENDBRANCH  18  19
ENDBRANCH  17  18
ENDBRANCH  16  17
ENDBRANCH  15  16
ENDBRANCH  14  15
ENDBRANCH  13  14
ENDBRANCH  12  13
ENDBRANCH   1  12
TORSDOF 16
ENDMDL
MODEL 7
REMARK VINA RESULT:    -3.727     19.054     22.289
REMARK INTER + INTRA:          -9.645
REMARK INTER:                  -7.459
REMARK INTRA:                  -2.186
REMARK UNBOUND:                -2.432
REMARK SMILES CCCCCCCCCCCCCCCCCC(=O)[O-]
REMARK SMILES IDX 10 1 11 2 12 3 13 4 14 5 15 6 16 7 17 8 18 9 19 10 20 11
REMARK SMILES IDX 9 12 8 13 7 14 6 15 5 16 4 17 3 18 2 19 1 20
REMARK H PARENT
REMARK Flexibility Score: inf
ROOT
ATOM      1  C   UNL     1       2.696   7.833  -4.389  1.00  0.00     0.000 C 
ENDROOT
BRANCH   1   2
ATOM      2  C   UNL     1       2.077   8.619  -5.556  1.00  0.00     0.000 C 
BRANCH   2   3
ATOM      3  C   UNL     1       3.136   9.307  -6.434  1.00  0.00     0.000 C 
BRANCH   3   4
ATOM      4  C   UNL     1       4.339   8.398  -6.732  1.00  0.00     0.000 C 
BRANCH   4   5
ATOM      5  C   UNL     1       4.025   7.329  -7.793  1.00  0.00     0.000 C 
BRANCH   5   6
ATOM      6  C   UNL     1       4.836   7.541  -9.091  1.00  0.00     0.000 C 
BRANCH   6   7
ATOM      7  C   UNL     1       5.878   8.670  -8.986  1.00  0.00     0.006 C 
BRANCH   7   8
ATOM      8  C   UNL     1       7.322   8.173  -8.836  1.00  0.00     0.053 C 
BRANCH   8   9
ATOM      9  C   UNL     1       7.975   8.717  -7.603  1.00  0.00     0.041 C 
ATOM     10  O   UNL     1       8.476   9.872  -7.610  1.00  0.00    -0.550 OA
ATOM     11  O   UNL     1       8.012   7.960  -6.438  1.00  0.00    -0.550 OA
ENDBRANCH   8   9
ENDBRANCH   7   8
ENDBRANCH   6   7
ENDBRANCH   5   6
ENDBRANCH   4   5
ENDBRANCH   3   4
ENDBRANCH   2   3
ENDBRANCH   1   2
BRANCH   1  12
ATOM     12  C   UNL     1       2.171   6.393  -4.302  1.00  0.00     0.000 C 
BRANCH  12  13
ATOM     13  C   UNL     1       1.758   5.876  -5.689  1.00  0.00    -0.000 C 
BRANCH  13  14
ATOM     14  C   UNL     1       0.715   4.750  -5.614  1.00  0.00    -0.000 C 
BRANCH  14  15
ATOM     15  C   UNL     1       0.307   4.229  -7.001  1.00  0.00    -0.000 C 
BRANCH  15  16
ATOM     16  C   UNL     1       1.277   4.724  -8.081  1.00  0.00    -0.000 C 
BRANCH  16  17
ATOM     17  C   UNL     1       0.583   4.805  -9.449  1.00  0.00    -0.000 C 
BRANCH  17  18
ATOM     18  C   UNL     1       0.421   6.250  -9.954  1.00  0.00    -0.000 C 
BRANCH  18  19
ATOM     19  C   UNL     1       0.108   7.286  -8.860  1.00  0.00    -0.003 C 
ATOM     20  C   UNL     1       0.785   8.634  -9.103  1.00  0.00     0.004 C 
ENDBRANCH  18  19
ENDBRANCH  17  18
ENDBRANCH  16  17
ENDBRANCH  15  16
ENDBRANCH  14  15
ENDBRANCH  13  14
ENDBRANCH  12  13
ENDBRANCH   1  12
TORSDOF 16
ENDMDL
MODEL 8
REMARK VINA RESULT:    -3.699     19.271     22.980
REMARK INTER + INTRA:          -9.591
REMARK INTER:                  -7.063
REMARK INTRA:                  -2.528
REMARK UNBOUND:                -2.432
REMARK SMILES CCCCCCCCCCCCCCCCCC(=O)[O-]
REMARK SMILES IDX 10 1 11 2 12 3 13 4 14 5 15 6 16 7 17 8 18 9 19 10 20 11
REMARK SMILES IDX 9 12 8 13 7 14 6 15 5 16 4 17 3 18 2 19 1 20
REMARK H PARENT
REMARK Flexibility Score: inf
ROOT
ATOM      1  C   UNL     1       1.881   8.612  -5.356  1.00  0.00     0.000 C 
ENDROOT
BRANCH   1   2
ATOM      2  C   UNL     1       1.672   9.999  -5.985  1.00  0.00     0.000 C 
BRANCH   2   3
ATOM      3  C   UNL     1       1.168   9.920  -7.436  1.00  0.00     0.000 C 
BRANCH   3   4
ATOM      4  C   UNL     1       0.757   8.496  -7.843  1.00  0.00     0.000 C 
BRANCH   4   5
ATOM      5  C   UNL     1       0.647   8.324  -9.367  1.00  0.00     0.000 C 
BRANCH   5   6
ATOM      6  C   UNL     1       0.560   6.838  -9.782  1.00  0.00     0.000 C 
BRANCH   6   7
ATOM      7  C   UNL     1       1.364   5.898  -8.865  1.00  0.00     0.006 C 
BRANCH   7   8
ATOM      8  C   UNL     1       0.704   4.530  -8.641  1.00  0.00     0.053 C 
BRANCH   8   9
ATOM      9  C   UNL     1       0.532   4.225  -7.185  1.00  0.00     0.041 C 
ATOM     10  O   UNL     1      -0.287   3.342  -6.816  1.00  0.00    -0.550 OA
ATOM     11  O   UNL     1       1.289   4.897  -6.234  1.00  0.00    -0.550 OA
ENDBRANCH   8   9
ENDBRANCH   7   8
ENDBRANCH   6   7
ENDBRANCH   5   6
ENDBRANCH   4   5
ENDBRANCH   3   4
ENDBRANCH   2   3
ENDBRANCH   1   2
BRANCH   1  12
ATOM     12  C   UNL     1       3.363   8.294  -5.107  1.00  0.00     0.000 C 
BRANCH  12  13
ATOM     13  C   UNL     1       4.195   8.533  -6.376  1.00  0.00    -0.000 C 
BRANCH  13  14
ATOM     14  C   UNL     1       4.376   7.257  -7.214  1.00  0.00    -0.000 C 
BRANCH  14  15
ATOM     15  C   UNL     1       4.420   7.543  -8.723  1.00  0.00    -0.000 C 
BRANCH  15  16
ATOM     16  C   UNL     1       4.462   9.052  -8.996  1.00  0.00    -0.000 C 
BRANCH  16  17
ATOM     17  C   UNL     1       5.836   9.475  -9.537  1.00  0.00    -0.000 C 
BRANCH  17  18
ATOM     18  C   UNL     1       6.753   8.280  -9.848  1.00  0.00    -0.000 C 
BRANCH  18  19
ATOM     19  C   UNL     1       8.024   8.196  -8.981  1.00  0.00    -0.003 C 
ATOM     20  C   UNL     1       7.846   8.821  -7.599  1.00  0.00     0.004 C 
ENDBRANCH  18  19
ENDBRANCH  17  18
ENDBRANCH  16  17
ENDBRANCH  15  16
ENDBRANCH  14  15
ENDBRANCH  13  14
ENDBRANCH  12  13
ENDBRANCH   1  12
TORSDOF 16
ENDMDL
MODEL 9
REMARK VINA RESULT:    -3.633     19.522     22.860
REMARK INTER + INTRA:          -9.463
REMARK INTER:                  -7.000
REMARK INTRA:                  -2.463
REMARK UNBOUND:                -2.432
REMARK SMILES CCCCCCCCCCCCCCCCCC(=O)[O-]
REMARK SMILES IDX 10 1 11 2 12 3 13 4 14 5 15 6 16 7 17 8 18 9 19 10 20 11
REMARK SMILES IDX 9 12 8 13 7 14 6 15 5 16 4 17 3 18 2 19 1 20
REMARK H PARENT
REMARK Flexibility Score: inf
ROOT
ATOM      1  C   UNL     1       2.987   7.842  -5.067  1.00  0.00     0.000 C 
ENDROOT
BRANCH   1   2
ATOM      2  C   UNL     1       4.090   8.210  -6.073  1.00  0.00     0.000 C 
BRANCH   2   3
ATOM      3  C   UNL     1       4.327   7.106  -7.118  1.00  0.00     0.000 C 
BRANCH   3   4
ATOM      4  C   UNL     1       4.490   7.665  -8.541  1.00  0.00     0.000 C 
BRANCH   4   5
ATOM      5  C   UNL     1       4.680   9.191  -8.560  1.00  0.00     0.000 C 
BRANCH   5   6
ATOM      6  C   UNL     1       6.139   9.594  -8.873  1.00  0.00     0.000 C 
BRANCH   6   7
ATOM      7  C   UNL     1       7.077   8.389  -9.074  1.00  0.00     0.006 C 
BRANCH   7   8
ATOM      8  C   UNL     1       8.481   8.588  -8.485  1.00  0.00     0.053 C 
BRANCH   8   9
ATOM      9  C   UNL     1       8.459   8.620  -6.988  1.00  0.00     0.041 C 
ATOM     10  O   UNL     1       7.771   7.783  -6.347  1.00  0.00    -0.550 OA
ATOM     11  O   UNL     1       9.214   9.560  -6.296  1.00  0.00    -0.550 OA
ENDBRANCH   8   9
ENDBRANCH   7   8
ENDBRANCH   6   7
ENDBRANCH   5   6
ENDBRANCH   4   5
ENDBRANCH   3   4
ENDBRANCH   2   3
ENDBRANCH   1   2
BRANCH   1  12
ATOM     12  C   UNL     1       1.900   8.921  -4.961  1.00  0.00     0.000 C 
BRANCH  12  13
ATOM     13  C   UNL     1       1.499   9.432  -6.354  1.00  0.00    -0.000 C 
BRANCH  13  14
ATOM     14  C   UNL     1       0.785   8.360  -7.194  1.00  0.00    -0.000 C 
BRANCH  14  15
ATOM     15  C   UNL     1       0.956   8.583  -8.705  1.00  0.00    -0.000 C 
BRANCH  15  16
ATOM     16  C   UNL     1       0.931   7.250  -9.462  1.00  0.00    -0.000 C 
BRANCH  16  17
ATOM     17  C   UNL     1       0.039   6.225  -8.746  1.00  0.00    -0.000 C 
BRANCH  17  18
ATOM     18  C   UNL     1       0.723   4.858  -8.564  1.00  0.00    -0.000 C 
BRANCH  18  19
ATOM     19  C   UNL     1       0.378   4.133  -7.251  1.00  0.00    -0.003 C 
ATOM     20  C   UNL     1       0.917   4.848  -6.013  1.00  0.00     0.004 C 
ENDBRANCH  18  19
ENDBRANCH  17  18
ENDBRANCH  16  17
ENDBRANCH  15  16
ENDBRANCH  14  15
ENDBRANCH  13  14
ENDBRANCH  12  13
ENDBRANCH   1  12
TORSDOF 16
ENDMDL
