MODEL 1
REMARK VINA RESULT:    -5.996      0.000      0.000
REMARK INTER + INTRA:          -6.848
REMARK INTER:                  -7.223
REMARK INTRA:                   0.375
REMARK UNBOUND:                 0.375
REMARK SMILES O=c1c(O)c(-c2ccc(O)c(O)c2)oc2cc(O)cc(O)c12
REMARK SMILES IDX 5 1 3 2 2 3 1 4 22 5 20 6 19 7 17 8 16 9 15 10 14 11 6 12
REMARK SMILES IDX 7 13 8 14 9 15 13 16 11 17 10 18 12 20 4 22 21 24 18 26
REMARK H PARENT 10 19 12 21 4 23 21 25 18 27
REMARK Flexibility Score: inf
ROOT
ATOM      1  C   UNL     1      22.783  52.856  78.008  1.00  0.00     0.180 A 
ATOM      2  C   UNL     1      21.825  53.412  78.874  1.00  0.00     0.208 A 
ATOM      3  C   UNL     1      22.104  54.635  79.504  1.00  0.00     0.238 A 
ATOM      4  O   UNL     1      21.265  55.099  80.321  1.00  0.00    -0.285 OA
ATOM      5  C   UNL     1      23.328  55.297  79.247  1.00  0.00     0.111 A 
ATOM      6  C   UNL     1      23.697  56.560  79.799  1.00  0.00     0.134 A 
ATOM      7  C   UNL     1      24.988  57.058  79.580  1.00  0.00     0.093 A 
ATOM      8  C   UNL     1      25.899  56.370  78.775  1.00  0.00     0.123 A 
ATOM      9  C   UNL     1      25.527  55.165  78.184  1.00  0.00     0.094 A 
ATOM     10  C   UNL     1      24.259  54.624  78.414  1.00  0.00     0.146 A 
ATOM     11  O   UNL     1      23.949  53.469  77.838  1.00  0.00    -0.452 OA
ENDROOT
BRANCH   1  12
ATOM     12  C   UNL     1      22.550  51.583  77.289  1.00  0.00     0.025 A 
ATOM     13  C   UNL     1      21.602  50.650  77.739  1.00  0.00     0.016 A 
ATOM     14  C   UNL     1      21.383  49.466  77.030  1.00  0.00     0.051 A 
ATOM     15  C   UNL     1      22.097  49.204  75.854  1.00  0.00     0.157 A 
ATOM     16  C   UNL     1      23.249  51.326  76.097  1.00  0.00     0.062 A 
ATOM     17  C   UNL     1      23.032  50.141  75.385  1.00  0.00     0.158 A 
BRANCH  15  18
ATOM     18  O   UNL     1      21.878  48.021  75.149  1.00  0.00    -0.504 OA
ATOM     19  H   UNL     1      22.572  47.645  74.515  1.00  0.00     0.293 HD
ENDBRANCH  15  18
BRANCH  17  20
ATOM     20  O   UNL     1      23.754  49.913  74.213  1.00  0.00    -0.504 OA
ATOM     21  H   UNL     1      23.683  50.525  73.409  1.00  0.00     0.293 HD
ENDBRANCH  17  20
ENDBRANCH   1  12
BRANCH   2  22
ATOM     22  O   UNL     1      20.631  52.730  79.131  1.00  0.00    -0.502 OA
ATOM     23  H   UNL     1      19.799  52.862  78.568  1.00  0.00     0.293 HD
ENDBRANCH   2  22
BRANCH   6  24
ATOM     24  O   UNL     1      22.834  57.371  80.541  1.00  0.00    -0.507 OA
ATOM     25  H   UNL     1      22.274  58.117  80.156  1.00  0.00     0.293 HD
ENDBRANCH   6  24
BRANCH   8  26
ATOM     26  O   UNL     1      27.175  56.880  78.549  1.00  0.00    -0.508 OA
ATOM     27  H   UNL     1      27.383  57.864  78.680  1.00  0.00     0.293 HD
ENDBRANCH   8  26
TORSDOF 6
ENDMDL
MODEL 2
REMARK VINA RESULT:    -5.889      2.279      6.981
REMARK INTER + INTRA:          -6.719
REMARK INTER:                  -6.385
REMARK INTRA:                  -0.334
REMARK UNBOUND:                 0.375
REMARK SMILES O=c1c(O)c(-c2ccc(O)c(O)c2)oc2cc(O)cc(O)c12
REMARK SMILES IDX 5 1 3 2 2 3 1 4 22 5 20 6 19 7 17 8 16 9 15 10 14 11 6 12
REMARK SMILES IDX 7 13 8 14 9 15 13 16 11 17 10 18 12 20 4 22 21 24 18 26
REMARK H PARENT 10 19 12 21 4 23 21 25 18 27
REMARK Flexibility Score: inf
ROOT
ATOM      1  C   UNL     1      25.861  55.043  79.298  1.00  0.00     0.180 A 
ATOM      2  C   UNL     1      24.744  55.310  80.109  1.00  0.00     0.208 A 
ATOM      3  C   UNL     1      23.510  54.725  79.781  1.00  0.00     0.238 A 
ATOM      4  O   UNL     1      22.502  55.012  80.479  1.00  0.00    -0.285 OA
ATOM      5  C   UNL     1      23.412  53.869  78.659  1.00  0.00     0.111 A 
ATOM      6  C   UNL     1      22.221  53.192  78.259  1.00  0.00     0.134 A 
ATOM      7  C   UNL     1      22.206  52.473  77.056  1.00  0.00     0.093 A 
ATOM      8  C   UNL     1      23.358  52.355  76.274  1.00  0.00     0.123 A 
ATOM      9  C   UNL     1      24.541  52.963  76.687  1.00  0.00     0.094 A 
ATOM     10  C   UNL     1      24.577  53.717  77.863  1.00  0.00     0.146 A 
ATOM     11  O   UNL     1      25.722  54.288  78.215  1.00  0.00    -0.452 OA
ENDROOT
BRANCH   1  12
ATOM     12  C   UNL     1      27.200  55.602  79.594  1.00  0.00     0.025 A 
ATOM     13  C   UNL     1      28.097  54.941  80.450  1.00  0.00     0.016 A 
ATOM     14  C   UNL     1      29.364  55.475  80.695  1.00  0.00     0.051 A 
ATOM     15  C   UNL     1      29.760  56.670  80.079  1.00  0.00     0.157 A 
ATOM     16  C   UNL     1      27.609  56.788  78.962  1.00  0.00     0.062 A 
ATOM     17  C   UNL     1      28.877  57.326  79.205  1.00  0.00     0.158 A 
BRANCH  15  18
ATOM     18  O   UNL     1      31.025  57.201  80.327  1.00  0.00    -0.504 OA
ATOM     19  H   UNL     1      31.397  57.269  81.267  1.00  0.00     0.293 HD
ENDBRANCH  15  18
BRANCH  17  20
ATOM     20  O   UNL     1      29.244  58.513  78.570  1.00  0.00    -0.504 OA
ATOM     21  H   UNL     1      29.889  59.172  78.989  1.00  0.00     0.293 HD
ENDBRANCH  17  20
ENDBRANCH   1  12
BRANCH   2  22
ATOM     22  O   UNL     1      24.859  56.176  81.200  1.00  0.00    -0.502 OA
ATOM     23  H   UNL     1      24.069  56.419  81.786  1.00  0.00     0.293 HD
ENDBRANCH   2  22
BRANCH   6  24
ATOM     24  O   UNL     1      21.044  53.170  79.012  1.00  0.00    -0.507 OA
ATOM     25  H   UNL     1      20.457  52.360  79.136  1.00  0.00     0.293 HD
ENDBRANCH   6  24
BRANCH   8  26
ATOM     26  O   UNL     1      23.339  51.624  75.088  1.00  0.00    -0.508 OA
ATOM     27  H   UNL     1      23.620  52.038  74.206  1.00  0.00     0.293 HD
ENDBRANCH   8  26
TORSDOF 6
ENDMDL
MODEL 3
REMARK VINA RESULT:    -5.658      1.497      3.285
REMARK INTER + INTRA:          -6.441
REMARK INTER:                  -6.339
REMARK INTRA:                  -0.102
REMARK UNBOUND:                 0.375
REMARK SMILES O=c1c(O)c(-c2ccc(O)c(O)c2)oc2cc(O)cc(O)c12
REMARK SMILES IDX 5 1 3 2 2 3 1 4 22 5 20 6 19 7 17 8 16 9 15 10 14 11 6 12
REMARK SMILES IDX 7 13 8 14 9 15 13 16 11 17 10 18 12 20 4 22 21 24 18 26
REMARK H PARENT 10 19 12 21 4 23 21 25 18 27
REMARK Flexibility Score: inf
ROOT
ATOM      1  C   UNL     1      23.754  52.653  77.429  1.00  0.00     0.180 A 
ATOM      2  C   UNL     1      24.799  53.575  77.247  1.00  0.00     0.208 A 
ATOM      3  C   UNL     1      24.756  54.798  77.936  1.00  0.00     0.238 A 
ATOM      4  O   UNL     1      25.667  55.642  77.726  1.00  0.00    -0.285 OA
ATOM      5  C   UNL     1      23.679  55.076  78.811  1.00  0.00     0.111 A 
ATOM      6  C   UNL     1      23.555  56.266  79.589  1.00  0.00     0.134 A 
ATOM      7  C   UNL     1      22.382  56.493  80.321  1.00  0.00     0.093 A 
ATOM      8  C   UNL     1      21.358  55.544  80.353  1.00  0.00     0.123 A 
ATOM      9  C   UNL     1      21.496  54.353  79.643  1.00  0.00     0.094 A 
ATOM     10  C   UNL     1      22.638  54.114  78.875  1.00  0.00     0.146 A 
ATOM     11  O   UNL     1      22.725  52.970  78.207  1.00  0.00    -0.452 OA
ENDROOT
BRANCH   1  12
ATOM     12  C   UNL     1      23.742  51.333  76.758  1.00  0.00     0.025 A 
ATOM     13  C   UNL     1      24.804  50.426  76.907  1.00  0.00     0.016 A 
ATOM     14  C   UNL     1      24.759  49.177  76.283  1.00  0.00     0.051 A 
ATOM     15  C   UNL     1      23.648  48.810  75.513  1.00  0.00     0.157 A 
ATOM     16  C   UNL     1      22.620  50.953  76.002  1.00  0.00     0.062 A 
ATOM     17  C   UNL     1      22.572  49.703  75.375  1.00  0.00     0.158 A 
BRANCH  15  18
ATOM     18  O   UNL     1      23.607  47.563  74.890  1.00  0.00    -0.504 OA
ATOM     19  H   UNL     1      24.383  47.221  74.336  1.00  0.00     0.293 HD
ENDBRANCH  15  18
BRANCH  17  20
ATOM     20  O   UNL     1      21.448  49.365  74.621  1.00  0.00    -0.504 OA
ATOM     21  H   UNL     1      20.986  50.031  74.014  1.00  0.00     0.293 HD
ENDBRANCH  17  20
ENDBRANCH   1  12
BRANCH   2  22
ATOM     22  O   UNL     1      25.842  53.288  76.362  1.00  0.00    -0.502 OA
ATOM     23  H   UNL     1      25.686  52.843  75.465  1.00  0.00     0.293 HD
ENDBRANCH   2  22
BRANCH   6  24
ATOM     24  O   UNL     1      24.556  57.235  79.700  1.00  0.00    -0.507 OA
ATOM     25  H   UNL     1      24.394  58.230  79.702  1.00  0.00     0.293 HD
ENDBRANCH   6  24
BRANCH   8  26
ATOM     26  O   UNL     1      20.202  55.770  81.096  1.00  0.00    -0.508 OA
ATOM     27  H   UNL     1      20.216  55.777  82.109  1.00  0.00     0.293 HD
ENDBRANCH   8  26
TORSDOF 6
ENDMDL
MODEL 4
REMARK VINA RESULT:    -5.527      2.314      6.874
REMARK INTER + INTRA:          -6.283
REMARK INTER:                  -6.177
REMARK INTRA:                  -0.106
REMARK UNBOUND:                 0.375
REMARK SMILES O=c1c(O)c(-c2ccc(O)c(O)c2)oc2cc(O)cc(O)c12
REMARK SMILES IDX 5 1 3 2 2 3 1 4 22 5 20 6 19 7 17 8 16 9 15 10 14 11 6 12
REMARK SMILES IDX 7 13 8 14 9 15 13 16 11 17 10 18 12 20 4 22 21 24 18 26
REMARK H PARENT 10 19 12 21 4 23 21 25 18 27
REMARK Flexibility Score: inf
ROOT
ATOM      1  C   UNL     1      24.385  52.492  77.348  1.00  0.00     0.180 A 
ATOM      2  C   UNL     1      23.237  51.992  76.709  1.00  0.00     0.208 A 
ATOM      3  C   UNL     1      23.304  50.746  76.065  1.00  0.00     0.238 A 
ATOM      4  O   UNL     1      22.288  50.330  75.448  1.00  0.00    -0.285 OA
ATOM      5  C   UNL     1      24.511  50.008  76.083  1.00  0.00     0.111 A 
ATOM      6  C   UNL     1      24.680  48.717  75.498  1.00  0.00     0.134 A 
ATOM      7  C   UNL     1      25.954  48.137  75.461  1.00  0.00     0.093 A 
ATOM      8  C   UNL     1      27.052  48.772  76.046  1.00  0.00     0.123 A 
ATOM      9  C   UNL     1      26.885  50.005  76.672  1.00  0.00     0.094 A 
ATOM     10  C   UNL     1      25.634  50.626  76.692  1.00  0.00     0.146 A 
ATOM     11  O   UNL     1      25.521  51.805  77.291  1.00  0.00    -0.452 OA
ENDROOT
BRANCH   1  12
ATOM     12  C   UNL     1      24.385  53.786  78.068  1.00  0.00     0.025 A 
ATOM     13  C   UNL     1      23.487  54.039  79.119  1.00  0.00     0.016 A 
ATOM     14  C   UNL     1      23.522  55.258  79.800  1.00  0.00     0.051 A 
ATOM     15  C   UNL     1      24.463  56.236  79.452  1.00  0.00     0.157 A 
ATOM     16  C   UNL     1      25.341  54.760  77.737  1.00  0.00     0.062 A 
ATOM     17  C   UNL     1      25.378  55.983  78.417  1.00  0.00     0.158 A 
BRANCH  15  18
ATOM     18  O   UNL     1      24.494  57.452  80.133  1.00  0.00    -0.504 OA
ATOM     19  H   UNL     1      24.521  57.493  81.145  1.00  0.00     0.293 HD
ENDBRANCH  15  18
BRANCH  17  20
ATOM     20  O   UNL     1      26.332  56.933  78.052  1.00  0.00    -0.504 OA
ATOM     21  H   UNL     1      26.363  57.855  78.471  1.00  0.00     0.293 HD
ENDBRANCH  17  20
ENDBRANCH   1  12
BRANCH   2  22
ATOM     22  O   UNL     1      22.062  52.748  76.685  1.00  0.00    -0.502 OA
ATOM     23  H   UNL     1      21.907  53.491  76.014  1.00  0.00     0.293 HD
ENDBRANCH   2  22
BRANCH   6  24
ATOM     24  O   UNL     1      23.633  47.957  74.968  1.00  0.00    -0.507 OA
ATOM     25  H   UNL     1      22.770  47.754  75.449  1.00  0.00     0.293 HD
ENDBRANCH   6  24
BRANCH   8  26
ATOM     26  O   UNL     1      28.313  48.181  76.020  1.00  0.00    -0.508 OA
ATOM     27  H   UNL     1      28.742  47.809  76.859  1.00  0.00     0.293 HD
ENDBRANCH   8  26
TORSDOF 6
ENDMDL
MODEL 5
REMARK VINA RESULT:    -5.418      2.636      6.447
REMARK INTER + INTRA:          -6.152
REMARK INTER:                  -6.184
REMARK INTRA:                   0.032
REMARK UNBOUND:                 0.375
REMARK SMILES O=c1c(O)c(-c2ccc(O)c(O)c2)oc2cc(O)cc(O)c12
REMARK SMILES IDX 5 1 3 2 2 3 1 4 22 5 20 6 19 7 17 8 16 9 15 10 14 11 6 12
REMARK SMILES IDX 7 13 8 14 9 15 13 16 11 17 10 18 12 20 4 22 21 24 18 26
REMARK H PARENT 10 19 12 21 4 23 21 25 18 27
REMARK Flexibility Score: inf
ROOT
ATOM      1  C   UNL     1      24.054  53.134  77.998  1.00  0.00     0.180 A 
ATOM      2  C   UNL     1      23.370  52.420  77.000  1.00  0.00     0.208 A 
ATOM      3  C   UNL     1      23.999  51.318  76.397  1.00  0.00     0.238 A 
ATOM      4  O   UNL     1      23.402  50.717  75.466  1.00  0.00    -0.285 OA
ATOM      5  C   UNL     1      25.296  50.934  76.812  1.00  0.00     0.111 A 
ATOM      6  C   UNL     1      26.011  49.810  76.300  1.00  0.00     0.134 A 
ATOM      7  C   UNL     1      27.340  49.601  76.689  1.00  0.00     0.093 A 
ATOM      8  C   UNL     1      27.957  50.438  77.622  1.00  0.00     0.123 A 
ATOM      9  C   UNL     1      27.248  51.502  78.173  1.00  0.00     0.094 A 
ATOM     10  C   UNL     1      25.933  51.758  77.777  1.00  0.00     0.146 A 
ATOM     11  O   UNL     1      25.296  52.788  78.320  1.00  0.00    -0.452 OA
ENDROOT
BRANCH   1  12
ATOM     12  C   UNL     1      23.448  54.290  78.696  1.00  0.00     0.025 A 
ATOM     13  C   UNL     1      24.115  55.523  78.788  1.00  0.00     0.016 A 
ATOM     14  C   UNL     1      23.512  56.607  79.431  1.00  0.00     0.051 A 
ATOM     15  C   UNL     1      22.229  56.480  79.980  1.00  0.00     0.157 A 
ATOM     16  C   UNL     1      22.153  54.173  79.229  1.00  0.00     0.062 A 
ATOM     17  C   UNL     1      21.547  55.257  79.874  1.00  0.00     0.158 A 
BRANCH  15  18
ATOM     18  O   UNL     1      21.631  57.563  80.622  1.00  0.00    -0.504 OA
ATOM     19  H   UNL     1      20.675  57.521  80.955  1.00  0.00     0.293 HD
ENDBRANCH  15  18
BRANCH  17  20
ATOM     20  O   UNL     1      20.266  55.100  80.403  1.00  0.00    -0.504 OA
ATOM     21  H   UNL     1      19.722  54.258  80.259  1.00  0.00     0.293 HD
ENDBRANCH  17  20
ENDBRANCH   1  12
BRANCH   2  22
ATOM     22  O   UNL     1      22.098  52.831  76.590  1.00  0.00    -0.502 OA
ATOM     23  H   UNL     1      21.351  53.021  77.247  1.00  0.00     0.293 HD
ENDBRANCH   2  22
BRANCH   6  24
ATOM     24  O   UNL     1      25.458  48.862  75.434  1.00  0.00    -0.507 OA
ATOM     25  H   UNL     1      24.505  48.536  75.473  1.00  0.00     0.293 HD
ENDBRANCH   6  24
BRANCH   8  26
ATOM     26  O   UNL     1      29.274  50.213  78.016  1.00  0.00    -0.508 OA
ATOM     27  H   UNL     1      30.053  50.652  77.538  1.00  0.00     0.293 HD
ENDBRANCH   8  26
TORSDOF 6
ENDMDL
MODEL 6
REMARK VINA RESULT:    -5.395      1.390      3.062
REMARK INTER + INTRA:          -6.124
REMARK INTER:                  -6.144
REMARK INTRA:                   0.020
REMARK UNBOUND:                 0.375
REMARK SMILES O=c1c(O)c(-c2ccc(O)c(O)c2)oc2cc(O)cc(O)c12
REMARK SMILES IDX 5 1 3 2 2 3 1 4 22 5 20 6 19 7 17 8 16 9 15 10 14 11 6 12
REMARK SMILES IDX 7 13 8 14 9 15 13 16 11 17 10 18 12 20 4 22 21 24 18 26
REMARK H PARENT 10 19 12 21 4 23 21 25 18 27
REMARK Flexibility Score: inf
ROOT
ATOM      1  C   UNL     1      22.793  51.885  77.428  1.00  0.00     0.180 A 
ATOM      2  C   UNL     1      24.104  52.151  76.997  1.00  0.00     0.208 A 
ATOM      3  C   UNL     1      24.712  53.361  77.371  1.00  0.00     0.238 A 
ATOM      4  O   UNL     1      25.866  53.617  76.935  1.00  0.00    -0.285 OA
ATOM      5  C   UNL     1      24.010  54.280  78.185  1.00  0.00     0.111 A 
ATOM      6  C   UNL     1      24.543  55.517  78.657  1.00  0.00     0.134 A 
ATOM      7  C   UNL     1      23.713  56.409  79.348  1.00  0.00     0.093 A 
ATOM      8  C   UNL     1      22.387  56.079  79.639  1.00  0.00     0.123 A 
ATOM      9  C   UNL     1      21.874  54.849  79.235  1.00  0.00     0.094 A 
ATOM     10  C   UNL     1      22.667  53.954  78.512  1.00  0.00     0.146 A 
ATOM     11  O   UNL     1      22.137  52.797  78.137  1.00  0.00    -0.452 OA
ENDROOT
BRANCH   1  12
ATOM     12  C   UNL     1      22.095  50.623  77.095  1.00  0.00     0.025 A 
ATOM     13  C   UNL     1      21.464  49.852  78.086  1.00  0.00     0.016 A 
ATOM     14  C   UNL     1      20.791  48.676  77.745  1.00  0.00     0.051 A 
ATOM     15  C   UNL     1      20.727  48.260  76.409  1.00  0.00     0.157 A 
ATOM     16  C   UNL     1      22.010  50.213  75.755  1.00  0.00     0.062 A 
ATOM     17  C   UNL     1      21.337  49.035  75.409  1.00  0.00     0.158 A 
BRANCH  15  18
ATOM     18  O   UNL     1      20.056  47.085  76.072  1.00  0.00    -0.504 OA
ATOM     19  H   UNL     1      20.418  46.450  75.370  1.00  0.00     0.293 HD
ENDBRANCH  15  18
BRANCH  17  20
ATOM     20  O   UNL     1      21.285  48.652  74.069  1.00  0.00    -0.504 OA
ATOM     21  H   UNL     1      21.913  49.036  73.374  1.00  0.00     0.293 HD
ENDBRANCH  17  20
ENDBRANCH   1  12
BRANCH   2  22
ATOM     22  O   UNL     1      24.771  51.239  76.175  1.00  0.00    -0.502 OA
ATOM     23  H   UNL     1      24.805  50.247  76.379  1.00  0.00     0.293 HD
ENDBRANCH   2  22
BRANCH   6  24
ATOM     24  O   UNL     1      25.878  55.902  78.500  1.00  0.00    -0.507 OA
ATOM     25  H   UNL     1      26.427  56.371  79.203  1.00  0.00     0.293 HD
ENDBRANCH   6  24
BRANCH   8  26
ATOM     26  O   UNL     1      21.573  56.965  80.341  1.00  0.00    -0.508 OA
ATOM     27  H   UNL     1      21.961  57.742  80.864  1.00  0.00     0.293 HD
ENDBRANCH   8  26
TORSDOF 6
ENDMDL
MODEL 7
REMARK VINA RESULT:    -5.217      1.782      7.010
REMARK INTER + INTRA:          -5.910
REMARK INTER:                  -5.942
REMARK INTRA:                   0.032
REMARK UNBOUND:                 0.375
REMARK SMILES O=c1c(O)c(-c2ccc(O)c(O)c2)oc2cc(O)cc(O)c12
REMARK SMILES IDX 5 1 3 2 2 3 1 4 22 5 20 6 19 7 17 8 16 9 15 10 14 11 6 12
REMARK SMILES IDX 7 13 8 14 9 15 13 16 11 17 10 18 12 20 4 22 21 24 18 26
REMARK H PARENT 10 19 12 21 4 23 21 25 18 27
REMARK Flexibility Score: inf
ROOT
ATOM      1  C   UNL     1      23.904  53.079  78.125  1.00  0.00     0.180 A 
ATOM      2  C   UNL     1      25.231  52.660  78.320  1.00  0.00     0.208 A 
ATOM      3  C   UNL     1      25.694  51.525  77.635  1.00  0.00     0.238 A 
ATOM      4  O   UNL     1      26.867  51.122  77.856  1.00  0.00    -0.285 OA
ATOM      5  C   UNL     1      24.831  50.834  76.751  1.00  0.00     0.111 A 
ATOM      6  C   UNL     1      25.207  49.697  75.975  1.00  0.00     0.134 A 
ATOM      7  C   UNL     1      24.235  49.015  75.233  1.00  0.00     0.093 A 
ATOM      8  C   UNL     1      22.914  49.468  75.189  1.00  0.00     0.123 A 
ATOM      9  C   UNL     1      22.550  50.612  75.895  1.00  0.00     0.094 A 
ATOM     10  C   UNL     1      23.490  51.292  76.673  1.00  0.00     0.146 A 
ATOM     11  O   UNL     1      23.100  52.373  77.339  1.00  0.00    -0.452 OA
ENDROOT
BRANCH   1  12
ATOM     12  C   UNL     1      23.351  54.280  78.792  1.00  0.00     0.025 A 
ATOM     13  C   UNL     1      24.065  55.490  78.830  1.00  0.00     0.016 A 
ATOM     14  C   UNL     1      23.512  56.617  79.445  1.00  0.00     0.051 A 
ATOM     15  C   UNL     1      22.235  56.556  80.017  1.00  0.00     0.157 A 
ATOM     16  C   UNL     1      22.063  54.229  79.349  1.00  0.00     0.062 A 
ATOM     17  C   UNL     1      21.507  55.356  79.965  1.00  0.00     0.158 A 
BRANCH  15  18
ATOM     18  O   UNL     1      21.688  57.682  80.631  1.00  0.00    -0.504 OA
ATOM     19  H   UNL     1      20.706  57.728  80.876  1.00  0.00     0.293 HD
ENDBRANCH  15  18
BRANCH  17  20
ATOM     20  O   UNL     1      20.230  55.265  80.520  1.00  0.00    -0.504 OA
ATOM     21  H   UNL     1      20.062  55.392  81.510  1.00  0.00     0.293 HD
ENDBRANCH  17  20
ENDBRANCH   1  12
BRANCH   2  22
ATOM     22  O   UNL     1      26.059  53.343  79.214  1.00  0.00    -0.502 OA
ATOM     23  H   UNL     1      25.724  53.701  80.101  1.00  0.00     0.293 HD
ENDBRANCH   2  22
BRANCH   6  24
ATOM     24  O   UNL     1      26.516  49.217  75.877  1.00  0.00    -0.507 OA
ATOM     25  H   UNL     1      27.231  49.615  75.287  1.00  0.00     0.293 HD
ENDBRANCH   6  24
BRANCH   8  26
ATOM     26  O   UNL     1      21.956  48.793  74.435  1.00  0.00    -0.508 OA
ATOM     27  H   UNL     1      21.280  48.175  74.869  1.00  0.00     0.293 HD
ENDBRANCH   8  26
TORSDOF 6
ENDMDL
MODEL 8
REMARK VINA RESULT:    -5.213      1.517      6.794
REMARK INTER + INTRA:          -5.905
REMARK INTER:                  -5.675
REMARK INTRA:                  -0.230
REMARK UNBOUND:                 0.375
REMARK SMILES O=c1c(O)c(-c2ccc(O)c(O)c2)oc2cc(O)cc(O)c12
REMARK SMILES IDX 5 1 3 2 2 3 1 4 22 5 20 6 19 7 17 8 16 9 15 10 14 11 6 12
REMARK SMILES IDX 7 13 8 14 9 15 13 16 11 17 10 18 12 20 4 22 21 24 18 26
REMARK H PARENT 10 19 12 21 4 23 21 25 18 27
REMARK Flexibility Score: inf
ROOT
ATOM      1  C   UNL     1      22.779  52.723  78.680  1.00  0.00     0.180 A 
ATOM      2  C   UNL     1      21.867  51.885  79.346  1.00  0.00     0.208 A 
ATOM      3  C   UNL     1      21.542  50.644  78.775  1.00  0.00     0.238 A 
ATOM      4  O   UNL     1      20.684  49.922  79.348  1.00  0.00    -0.285 OA
ATOM      5  C   UNL     1      22.145  50.248  77.558  1.00  0.00     0.111 A 
ATOM      6  C   UNL     1      21.920  48.996  76.912  1.00  0.00     0.134 A 
ATOM      7  C   UNL     1      22.468  48.764  75.644  1.00  0.00     0.093 A 
ATOM      8  C   UNL     1      23.287  49.715  75.029  1.00  0.00     0.123 A 
ATOM      9  C   UNL     1      23.561  50.916  75.678  1.00  0.00     0.094 A 
ATOM     10  C   UNL     1      22.998  51.191  76.927  1.00  0.00     0.146 A 
ATOM     11  O   UNL     1      23.278  52.352  77.507  1.00  0.00    -0.452 OA
ENDROOT
BRANCH   1  12
ATOM     12  C   UNL     1      23.190  54.035  79.231  1.00  0.00     0.025 A 
ATOM     13  C   UNL     1      24.484  54.244  79.737  1.00  0.00     0.016 A 
ATOM     14  C   UNL     1      24.856  55.497  80.230  1.00  0.00     0.051 A 
ATOM     15  C   UNL     1      23.947  56.563  80.212  1.00  0.00     0.157 A 
ATOM     16  C   UNL     1      22.288  55.111  79.196  1.00  0.00     0.062 A 
ATOM     17  C   UNL     1      22.658  56.368  79.689  1.00  0.00     0.158 A 
BRANCH  15  18
ATOM     18  O   UNL     1      24.321  57.812  80.706  1.00  0.00    -0.504 OA
ATOM     19  H   UNL     1      24.855  58.465  80.146  1.00  0.00     0.293 HD
ENDBRANCH  15  18
BRANCH  17  20
ATOM     20  O   UNL     1      21.732  57.411  79.651  1.00  0.00    -0.504 OA
ATOM     21  H   UNL     1      20.741  57.247  79.523  1.00  0.00     0.293 HD
ENDBRANCH  17  20
ENDBRANCH   1  12
BRANCH   2  22
ATOM     22  O   UNL     1      21.267  52.305  80.536  1.00  0.00    -0.502 OA
ATOM     23  H   UNL     1      21.791  52.745  81.283  1.00  0.00     0.293 HD
ENDBRANCH   2  22
BRANCH   6  24
ATOM     24  O   UNL     1      21.194  47.944  77.478  1.00  0.00    -0.507 OA
ATOM     25  H   UNL     1      21.055  47.810  78.468  1.00  0.00     0.293 HD
ENDBRANCH   6  24
BRANCH   8  26
ATOM     26  O   UNL     1      23.842  49.470  73.775  1.00  0.00    -0.508 OA
ATOM     27  H   UNL     1      23.338  48.952  73.064  1.00  0.00     0.293 HD
ENDBRANCH   8  26
TORSDOF 6
ENDMDL
MODEL 9
REMARK VINA RESULT:    -5.120      1.825      2.299
REMARK INTER + INTRA:          -5.792
REMARK INTER:                  -5.461
REMARK INTRA:                  -0.331
REMARK UNBOUND:                 0.375
REMARK SMILES O=c1c(O)c(-c2ccc(O)c(O)c2)oc2cc(O)cc(O)c12
REMARK SMILES IDX 5 1 3 2 2 3 1 4 22 5 20 6 19 7 17 8 16 9 15 10 14 11 6 12
REMARK SMILES IDX 7 13 8 14 9 15 13 16 11 17 10 18 12 20 4 22 21 24 18 26
REMARK H PARENT 10 19 12 21 4 23 21 25 18 27
REMARK Flexibility Score: inf
ROOT
ATOM      1  C   UNL     1      23.498  51.555  77.318  1.00  0.00     0.180 A 
ATOM      2  C   UNL     1      22.306  51.761  78.035  1.00  0.00     0.208 A 
ATOM      3  C   UNL     1      22.083  53.006  78.645  1.00  0.00     0.238 A 
ATOM      4  O   UNL     1      21.040  53.164  79.331  1.00  0.00    -0.285 OA
ATOM      5  C   UNL     1      23.046  54.035  78.517  1.00  0.00     0.111 A 
ATOM      6  C   UNL     1      22.905  55.347  79.059  1.00  0.00     0.134 A 
ATOM      7  C   UNL     1      23.978  56.245  78.983  1.00  0.00     0.093 A 
ATOM      8  C   UNL     1      25.162  55.898  78.327  1.00  0.00     0.123 A 
ATOM      9  C   UNL     1      25.286  54.640  77.742  1.00  0.00     0.094 A 
ATOM     10  C   UNL     1      24.247  53.711  77.833  1.00  0.00     0.146 A 
ATOM     11  O   UNL     1      24.410  52.519  77.271  1.00  0.00    -0.452 OA
ENDROOT
BRANCH   1  12
ATOM     12  C   UNL     1      23.792  50.280  76.627  1.00  0.00     0.025 A 
ATOM     13  C   UNL     1      23.408  50.064  75.293  1.00  0.00     0.016 A 
ATOM     14  C   UNL     1      23.717  48.861  74.654  1.00  0.00     0.051 A 
ATOM     15  C   UNL     1      24.427  47.861  75.333  1.00  0.00     0.157 A 
ATOM     16  C   UNL     1      24.521  49.284  77.297  1.00  0.00     0.062 A 
ATOM     17  C   UNL     1      24.833  48.077  76.660  1.00  0.00     0.158 A 
BRANCH  15  18
ATOM     18  O   UNL     1      24.733  46.661  74.692  1.00  0.00    -0.504 OA
ATOM     19  H   UNL     1      24.012  46.080  74.282  1.00  0.00     0.293 HD
ENDBRANCH  15  18
BRANCH  17  20
ATOM     20  O   UNL     1      25.547  47.105  77.361  1.00  0.00    -0.504 OA
ATOM     21  H   UNL     1      25.900  46.268  76.913  1.00  0.00     0.293 HD
ENDBRANCH  17  20
ENDBRANCH   1  12
BRANCH   2  22
ATOM     22  O   UNL     1      21.379  50.723  78.167  1.00  0.00    -0.502 OA
ATOM     23  H   UNL     1      21.477  49.992  78.862  1.00  0.00     0.293 HD
ENDBRANCH   2  22
BRANCH   6  24
ATOM     24  O   UNL     1      21.734  55.825  79.654  1.00  0.00    -0.507 OA
ATOM     25  H   UNL     1      20.832  55.379  79.586  1.00  0.00     0.293 HD
ENDBRANCH   6  24
BRANCH   8  26
ATOM     26  O   UNL     1      26.218  56.802  78.241  1.00  0.00    -0.508 OA
ATOM     27  H   UNL     1      26.193  57.694  78.723  1.00  0.00     0.293 HD
ENDBRANCH   8  26
TORSDOF 6
ENDMDL
