MODEL 1
REMARK VINA RESULT:    -3.937      0.000      0.000
REMARK INTER + INTRA:         -13.088
REMARK INTER:                  -9.001
REMARK INTRA:                  -4.087
REMARK UNBOUND:                -4.087
REMARK SMILES CCCCCCCCCCCCCCCCCCCCCCCC(=O)[O-]
REMARK SMILES IDX 13 1 14 2 15 3 16 4 17 5 18 6 19 7 20 8 21 9 22 10 23 11
REMARK SMILES IDX 24 12 25 13 26 14 12 15 11 16 10 17 9 18 8 19 7 20 6 21 5 22
REMARK SMILES IDX 4 23 3 24 2 25 1 26
REMARK H PARENT
REMARK Flexibility Score: inf
ROOT
ATOM      1  C   UNL     1      12.636 -26.436  40.552  1.00  0.00     0.000 C 
ENDROOT
BRANCH   1   2
ATOM      2  C   UNL     1      12.509 -25.803  39.152  1.00  0.00     0.000 C 
BRANCH   2   3
ATOM      3  C   UNL     1      13.846 -25.557  38.428  1.00  0.00     0.000 C 
BRANCH   3   4
ATOM      4  C   UNL     1      14.328 -26.782  37.634  1.00  0.00     0.000 C 
BRANCH   4   5
ATOM      5  C   UNL     1      15.420 -27.571  38.374  1.00  0.00     0.000 C 
BRANCH   5   6
ATOM      6  C   UNL     1      14.986 -29.012  38.697  1.00  0.00     0.000 C 
BRANCH   6   7
ATOM      7  C   UNL     1      13.564 -29.324  38.203  1.00  0.00     0.000 C 
BRANCH   7   8
ATOM      8  C   UNL     1      12.913 -30.483  38.979  1.00  0.00     0.000 C 
BRANCH   8   9
ATOM      9  C   UNL     1      13.862 -31.115  40.012  1.00  0.00     0.000 C 
BRANCH   9  10
ATOM     10  C   UNL     1      13.332 -31.125  41.460  1.00  0.00     0.006 C 
BRANCH  10  11
ATOM     11  C   UNL     1      13.924 -30.030  42.363  1.00  0.00     0.053 C 
BRANCH  11  12
ATOM     12  C   UNL     1      13.050 -29.746  43.545  1.00  0.00     0.041 C 
ATOM     13  O   UNL     1      13.537 -29.235  44.587  1.00  0.00    -0.550 OA
ATOM     14  O   UNL     1      11.689 -30.018  43.485  1.00  0.00    -0.550 OA
ENDBRANCH  11  12
ENDBRANCH  10  11
ENDBRANCH   9  10
ENDBRANCH   8   9
ENDBRANCH   7   8
ENDBRANCH   6   7
ENDBRANCH   5   6
ENDBRANCH   4   5
ENDBRANCH   3   4
ENDBRANCH   2   3
ENDBRANCH   1   2
BRANCH   1  15
ATOM     15  C   UNL     1      11.677 -27.610  40.833  1.00  0.00     0.000 C 
BRANCH  15  16
ATOM     16  C   UNL     1      10.225 -27.388  40.373  1.00  0.00     0.000 C 
BRANCH  16  17
ATOM     17  C   UNL     1       9.322 -26.855  41.495  1.00  0.00     0.000 C 
BRANCH  17  18
ATOM     18  C   UNL     1       8.576 -25.590  41.046  1.00  0.00    -0.000 C 
BRANCH  18  19
ATOM     19  C   UNL     1       9.246 -24.915  39.831  1.00  0.00    -0.000 C 
BRANCH  19  20
ATOM     20  C   UNL     1       9.599 -23.432  40.057  1.00  0.00    -0.000 C 
BRANCH  20  21
ATOM     21  C   UNL     1      10.423 -23.144  41.326  1.00  0.00    -0.000 C 
BRANCH  21  22
ATOM     22  C   UNL     1      11.468 -22.022  41.180  1.00  0.00    -0.000 C 
BRANCH  22  23
ATOM     23  C   UNL     1      12.430 -22.223  39.988  1.00  0.00    -0.000 C 
BRANCH  23  24
ATOM     24  C   UNL     1      13.902 -22.233  40.425  1.00  0.00    -0.000 C 
BRANCH  24  25
ATOM     25  C   UNL     1      14.131 -23.222  41.573  1.00  0.00    -0.003 C 
ATOM     26  C   UNL     1      15.429 -24.002  41.378  1.00  0.00     0.004 C 
ENDBRANCH  24  25
ENDBRANCH  23  24
ENDBRANCH  22  23
ENDBRANCH  21  22
ENDBRANCH  20  21
ENDBRANCH  19  20
ENDBRANCH  18  19
ENDBRANCH  17  18
ENDBRANCH  16  17
ENDBRANCH  15  16
ENDBRANCH   1  15
TORSDOF 22
ENDMDL
MODEL 2
REMARK VINA RESULT:    -3.909      2.604      6.846
REMARK INTER + INTRA:         -13.024
REMARK INTER:                  -9.196
REMARK INTRA:                  -3.828
REMARK UNBOUND:                -4.087
REMARK SMILES CCCCCCCCCCCCCCCCCCCCCCCC(=O)[O-]
REMARK SMILES IDX 13 1 14 2 15 3 16 4 17 5 18 6 19 7 20 8 21 9 22 10 23 11
REMARK SMILES IDX 24 12 25 13 26 14 12 15 11 16 10 17 9 18 8 19 7 20 6 21 5 22
REMARK SMILES IDX 4 23 3 24 2 25 1 26
REMARK H PARENT
REMARK Flexibility Score: inf
ROOT
ATOM      1  C   UNL     1       8.930 -28.528  42.287  1.00  0.00     0.000 C 
ENDROOT
BRANCH   1   2
ATOM      2  C   UNL     1       9.264 -27.044  42.033  1.00  0.00     0.000 C 
BRANCH   2   3
ATOM      3  C   UNL     1       8.368 -26.347  40.993  1.00  0.00     0.000 C 
BRANCH   3   4
ATOM      4  C   UNL     1       9.093 -25.215  40.246  1.00  0.00     0.000 C 
BRANCH   4   5
ATOM      5  C   UNL     1      10.147 -24.514  41.119  1.00  0.00     0.000 C 
BRANCH   5   6
ATOM      6  C   UNL     1      10.053 -22.980  41.033  1.00  0.00     0.000 C 
BRANCH   6   7
ATOM      7  C   UNL     1      11.211 -22.278  41.760  1.00  0.00     0.000 C 
BRANCH   7   8
ATOM      8  C   UNL     1      12.232 -21.664  40.785  1.00  0.00     0.000 C 
BRANCH   8   9
ATOM      9  C   UNL     1      13.652 -22.221  40.984  1.00  0.00     0.000 C 
BRANCH   9  10
ATOM     10  C   UNL     1      13.817 -23.718  40.652  1.00  0.00     0.006 C 
BRANCH  10  11
ATOM     11  C   UNL     1      14.490 -24.002  39.300  1.00  0.00     0.053 C 
BRANCH  11  12
ATOM     12  C   UNL     1      13.490 -24.318  38.231  1.00  0.00     0.041 C 
ATOM     13  O   UNL     1      12.260 -24.337  38.498  1.00  0.00    -0.550 OA
ATOM     14  O   UNL     1      13.916 -24.561  36.931  1.00  0.00    -0.550 OA
ENDBRANCH  11  12
ENDBRANCH  10  11
ENDBRANCH   9  10
ENDBRANCH   8   9
ENDBRANCH   7   8
ENDBRANCH   6   7
ENDBRANCH   5   6
ENDBRANCH   4   5
ENDBRANCH   3   4
ENDBRANCH   2   3
ENDBRANCH   1   2
BRANCH   1  15
ATOM     15  C   UNL     1       9.865 -29.540  41.593  1.00  0.00     0.000 C 
BRANCH  15  16
ATOM     16  C   UNL     1      11.042 -30.032  42.452  1.00  0.00     0.000 C 
BRANCH  16  17
ATOM     17  C   UNL     1      11.698 -31.302  41.890  1.00  0.00     0.000 C 
BRANCH  17  18
ATOM     18  C   UNL     1      13.173 -31.051  41.541  1.00  0.00    -0.000 C 
BRANCH  18  19
ATOM     19  C   UNL     1      13.454 -31.216  40.032  1.00  0.00    -0.000 C 
BRANCH  19  20
ATOM     20  C   UNL     1      12.182 -31.370  39.175  1.00  0.00    -0.000 C 
BRANCH  20  21
ATOM     21  C   UNL     1      11.777 -30.117  38.376  1.00  0.00    -0.000 C 
BRANCH  21  22
ATOM     22  C   UNL     1      12.936 -29.413  37.646  1.00  0.00    -0.000 C 
BRANCH  22  23
ATOM     23  C   UNL     1      13.208 -27.980  38.154  1.00  0.00    -0.000 C 
BRANCH  23  24
ATOM     24  C   UNL     1      14.472 -27.901  39.023  1.00  0.00    -0.000 C 
BRANCH  24  25
ATOM     25  C   UNL     1      14.128 -27.502  40.463  1.00  0.00    -0.003 C 
ATOM     26  C   UNL     1      12.632 -27.252  40.622  1.00  0.00     0.004 C 
ENDBRANCH  24  25
ENDBRANCH  23  24
ENDBRANCH  22  23
ENDBRANCH  21  22
ENDBRANCH  20  21
ENDBRANCH  19  20
ENDBRANCH  18  19
ENDBRANCH  17  18
ENDBRANCH  16  17
ENDBRANCH  15  16
ENDBRANCH   1  15
TORSDOF 22
ENDMDL
MODEL 3
REMARK VINA RESULT:    -3.832      2.570      4.529
REMARK INTER + INTRA:         -12.847
REMARK INTER:                  -9.273
REMARK INTRA:                  -3.574
REMARK UNBOUND:                -4.087
REMARK SMILES CCCCCCCCCCCCCCCCCCCCCCCC(=O)[O-]
REMARK SMILES IDX 13 1 14 2 15 3 16 4 17 5 18 6 19 7 20 8 21 9 22 10 23 11
REMARK SMILES IDX 24 12 25 13 26 14 12 15 11 16 10 17 9 18 8 19 7 20 6 21 5 22
REMARK SMILES IDX 4 23 3 24 2 25 1 26
REMARK H PARENT
REMARK Flexibility Score: inf
ROOT
ATOM      1  C   UNL     1      11.969 -29.028  42.435  1.00  0.00     0.000 C 
ENDROOT
BRANCH   1   2
ATOM      2  C   UNL     1      13.146 -29.366  43.373  1.00  0.00     0.000 C 
BRANCH   2   3
ATOM      3  C   UNL     1      12.991 -30.680  44.159  1.00  0.00     0.000 C 
BRANCH   3   4
ATOM      4  C   UNL     1      13.807 -31.836  43.555  1.00  0.00     0.000 C 
BRANCH   4   5
ATOM      5  C   UNL     1      12.919 -33.000  43.086  1.00  0.00     0.000 C 
BRANCH   5   6
ATOM      6  C   UNL     1      12.810 -33.073  41.553  1.00  0.00     0.000 C 
BRANCH   6   7
ATOM      7  C   UNL     1      13.837 -32.175  40.845  1.00  0.00     0.000 C 
BRANCH   7   8
ATOM      8  C   UNL     1      13.206 -31.335  39.719  1.00  0.00     0.000 C 
BRANCH   8   9
ATOM      9  C   UNL     1      13.988 -30.041  39.434  1.00  0.00     0.000 C 
BRANCH   9  10
ATOM     10  C   UNL     1      13.209 -28.973  38.638  1.00  0.00     0.006 C 
BRANCH  10  11
ATOM     11  C   UNL     1      11.701 -29.243  38.517  1.00  0.00     0.053 C 
BRANCH  11  12
ATOM     12  C   UNL     1      10.964 -28.066  37.957  1.00  0.00     0.041 C 
ATOM     13  O   UNL     1       9.733 -27.925  38.175  1.00  0.00    -0.550 OA
ATOM     14  O   UNL     1      11.646 -27.106  37.220  1.00  0.00    -0.550 OA
ENDBRANCH  11  12
ENDBRANCH  10  11
ENDBRANCH   9  10
ENDBRANCH   8   9
ENDBRANCH   7   8
ENDBRANCH   6   7
ENDBRANCH   5   6
ENDBRANCH   4   5
ENDBRANCH   3   4
ENDBRANCH   2   3
ENDBRANCH   1   2
BRANCH   1  15
ATOM     15  C   UNL     1      10.774 -30.001  42.502  1.00  0.00     0.000 C 
BRANCH  15  16
ATOM     16  C   UNL     1       9.588 -29.638  41.591  1.00  0.00     0.000 C 
BRANCH  16  17
ATOM     17  C   UNL     1       8.615 -28.649  42.249  1.00  0.00     0.000 C 
BRANCH  17  18
ATOM     18  C   UNL     1       7.891 -27.804  41.190  1.00  0.00    -0.000 C 
BRANCH  18  19
ATOM     19  C   UNL     1       8.285 -26.314  41.259  1.00  0.00    -0.000 C 
BRANCH  19  20
ATOM     20  C   UNL     1       9.749 -26.076  41.682  1.00  0.00    -0.000 C 
BRANCH  20  21
ATOM     21  C   UNL     1      10.656 -25.482  40.589  1.00  0.00    -0.000 C 
BRANCH  21  22
ATOM     22  C   UNL     1      10.019 -24.347  39.765  1.00  0.00    -0.000 C 
BRANCH  22  23
ATOM     23  C   UNL     1       9.876 -23.021  40.543  1.00  0.00    -0.000 C 
BRANCH  23  24
ATOM     24  C   UNL     1      11.219 -22.294  40.705  1.00  0.00    -0.000 C 
BRANCH  24  25
ATOM     25  C   UNL     1      11.531 -22.031  42.183  1.00  0.00    -0.003 C 
ATOM     26  C   UNL     1      12.975 -22.396  42.514  1.00  0.00     0.004 C 
ENDBRANCH  24  25
ENDBRANCH  23  24
ENDBRANCH  22  23
ENDBRANCH  21  22
ENDBRANCH  20  21
ENDBRANCH  19  20
ENDBRANCH  18  19
ENDBRANCH  17  18
ENDBRANCH  16  17
ENDBRANCH  15  16
ENDBRANCH   1  15
TORSDOF 22
ENDMDL
MODEL 4
REMARK VINA RESULT:    -3.832      3.709      5.425
REMARK INTER + INTRA:         -12.847
REMARK INTER:                  -9.187
REMARK INTRA:                  -3.660
REMARK UNBOUND:                -4.087
REMARK SMILES CCCCCCCCCCCCCCCCCCCCCCCC(=O)[O-]
REMARK SMILES IDX 13 1 14 2 15 3 16 4 17 5 18 6 19 7 20 8 21 9 22 10 23 11
REMARK SMILES IDX 24 12 25 13 26 14 12 15 11 16 10 17 9 18 8 19 7 20 6 21 5 22
REMARK SMILES IDX 4 23 3 24 2 25 1 26
REMARK H PARENT
REMARK Flexibility Score: inf
ROOT
ATOM      1  C   UNL     1      10.645 -28.307  39.228  1.00  0.00     0.000 C 
ENDROOT
BRANCH   1   2
ATOM      2  C   UNL     1      11.911 -28.201  38.354  1.00  0.00     0.000 C 
BRANCH   2   3
ATOM      3  C   UNL     1      12.872 -29.400  38.457  1.00  0.00     0.000 C 
BRANCH   3   4
ATOM      4  C   UNL     1      14.326 -28.977  38.722  1.00  0.00     0.000 C 
BRANCH   4   5
ATOM      5  C   UNL     1      14.502 -28.301  40.092  1.00  0.00     0.000 C 
BRANCH   5   6
ATOM      6  C   UNL     1      14.970 -26.840  39.968  1.00  0.00     0.000 C 
BRANCH   6   7
ATOM      7  C   UNL     1      13.854 -25.834  40.287  1.00  0.00     0.000 C 
BRANCH   7   8
ATOM      8  C   UNL     1      14.305 -24.374  40.099  1.00  0.00     0.000 C 
BRANCH   8   9
ATOM      9  C   UNL     1      14.362 -23.956  38.620  1.00  0.00     0.000 C 
BRANCH   9  10
ATOM     10  C   UNL     1      13.381 -22.833  38.223  1.00  0.00     0.006 C 
BRANCH  10  11
ATOM     11  C   UNL     1      14.047 -21.480  37.926  1.00  0.00     0.053 C 
BRANCH  11  12
ATOM     12  C   UNL     1      14.542 -21.398  36.515  1.00  0.00     0.041 C 
ATOM     13  O   UNL     1      15.777 -21.420  36.273  1.00  0.00    -0.550 OA
ATOM     14  O   UNL     1      13.636 -21.330  35.463  1.00  0.00    -0.550 OA
ENDBRANCH  11  12
ENDBRANCH  10  11
ENDBRANCH   9  10
ENDBRANCH   8   9
ENDBRANCH   7   8
ENDBRANCH   6   7
ENDBRANCH   5   6
ENDBRANCH   4   5
ENDBRANCH   3   4
ENDBRANCH   2   3
ENDBRANCH   1   2
BRANCH   1  15
ATOM     15  C   UNL     1      10.902 -28.529  40.733  1.00  0.00     0.000 C 
BRANCH  15  16
ATOM     16  C   UNL     1      10.086 -27.623  41.672  1.00  0.00     0.000 C 
BRANCH  16  17
ATOM     17  C   UNL     1       8.722 -27.233  41.084  1.00  0.00     0.000 C 
BRANCH  17  18
ATOM     18  C   UNL     1       8.599 -25.708  40.946  1.00  0.00    -0.000 C 
BRANCH  18  19
ATOM     19  C   UNL     1       9.062 -25.205  39.563  1.00  0.00    -0.000 C 
BRANCH  19  20
ATOM     20  C   UNL     1      10.407 -24.452  39.592  1.00  0.00    -0.000 C 
BRANCH  20  21
ATOM     21  C   UNL     1      10.853 -23.965  40.983  1.00  0.00    -0.000 C 
BRANCH  21  22
ATOM     22  C   UNL     1      10.662 -22.458  41.233  1.00  0.00    -0.000 C 
BRANCH  22  23
ATOM     23  C   UNL     1      11.988 -21.687  41.411  1.00  0.00    -0.000 C 
BRANCH  23  24
ATOM     24  C   UNL     1      12.693 -22.038  42.730  1.00  0.00    -0.000 C 
BRANCH  24  25
ATOM     25  C   UNL     1      13.876 -21.098  42.992  1.00  0.00    -0.003 C 
ATOM     26  C   UNL     1      14.704 -20.890  41.728  1.00  0.00     0.004 C 
ENDBRANCH  24  25
ENDBRANCH  23  24
ENDBRANCH  22  23
ENDBRANCH  21  22
ENDBRANCH  20  21
ENDBRANCH  19  20
ENDBRANCH  18  19
ENDBRANCH  17  18
ENDBRANCH  16  17
ENDBRANCH  15  16
ENDBRANCH   1  15
TORSDOF 22
ENDMDL
MODEL 5
REMARK VINA RESULT:    -3.818      2.016      4.839
REMARK INTER + INTRA:         -12.814
REMARK INTER:                  -8.328
REMARK INTRA:                  -4.486
REMARK UNBOUND:                -4.087
REMARK SMILES CCCCCCCCCCCCCCCCCCCCCCCC(=O)[O-]
REMARK SMILES IDX 13 1 14 2 15 3 16 4 17 5 18 6 19 7 20 8 21 9 22 10 23 11
REMARK SMILES IDX 24 12 25 13 26 14 12 15 11 16 10 17 9 18 8 19 7 20 6 21 5 22
REMARK SMILES IDX 4 23 3 24 2 25 1 26
REMARK H PARENT
REMARK Flexibility Score: inf
ROOT
ATOM      1  C   UNL     1      12.864 -30.236  39.062  1.00  0.00     0.000 C 
ENDROOT
BRANCH   1   2
ATOM      2  C   UNL     1      13.791 -31.128  39.912  1.00  0.00     0.000 C 
BRANCH   2   3
ATOM      3  C   UNL     1      13.318 -31.362  41.358  1.00  0.00     0.000 C 
BRANCH   3   4
ATOM      4  C   UNL     1      14.105 -30.531  42.385  1.00  0.00     0.000 C 
BRANCH   4   5
ATOM      5  C   UNL     1      13.232 -29.472  43.078  1.00  0.00     0.000 C 
BRANCH   5   6
ATOM      6  C   UNL     1      11.732 -29.673  42.795  1.00  0.00     0.000 C 
BRANCH   6   7
ATOM      7  C   UNL     1      11.126 -28.519  41.982  1.00  0.00     0.000 C 
BRANCH   7   8
ATOM      8  C   UNL     1       9.641 -28.751  41.649  1.00  0.00     0.000 C 
BRANCH   8   9
ATOM      9  C   UNL     1       9.427 -29.266  40.215  1.00  0.00     0.000 C 
BRANCH   9  10
ATOM     10  C   UNL     1       8.803 -30.673  40.115  1.00  0.00     0.006 C 
BRANCH  10  11
ATOM     11  C   UNL     1       9.720 -31.812  40.590  1.00  0.00     0.053 C 
BRANCH  11  12
ATOM     12  C   UNL     1       9.251 -32.406  41.882  1.00  0.00     0.041 C 
ATOM     13  O   UNL     1       8.035 -32.357  42.200  1.00  0.00    -0.550 OA
ATOM     14  O   UNL     1      10.156 -33.044  42.721  1.00  0.00    -0.550 OA
ENDBRANCH  11  12
ENDBRANCH  10  11
ENDBRANCH   9  10
ENDBRANCH   8   9
ENDBRANCH   7   8
ENDBRANCH   6   7
ENDBRANCH   5   6
ENDBRANCH   4   5
ENDBRANCH   3   4
ENDBRANCH   2   3
ENDBRANCH   1   2
BRANCH   1  15
ATOM     15  C   UNL     1      13.430 -28.845  38.710  1.00  0.00     0.000 C 
BRANCH  15  16
ATOM     16  C   UNL     1      14.919 -28.646  39.043  1.00  0.00     0.000 C 
BRANCH  16  17
ATOM     17  C   UNL     1      15.154 -27.524  40.066  1.00  0.00     0.000 C 
BRANCH  17  18
ATOM     18  C   UNL     1      13.821 -26.920  40.534  1.00  0.00    -0.000 C 
BRANCH  18  19
ATOM     19  C   UNL     1      13.653 -25.454  40.082  1.00  0.00    -0.000 C 
BRANCH  19  20
ATOM     20  C   UNL     1      12.608 -25.262  38.965  1.00  0.00    -0.000 C 
BRANCH  20  21
ATOM     21  C   UNL     1      11.316 -26.083  39.132  1.00  0.00    -0.000 C 
BRANCH  21  22
ATOM     22  C   UNL     1      10.040 -25.247  39.341  1.00  0.00    -0.000 C 
BRANCH  22  23
ATOM     23  C   UNL     1       9.777 -24.876  40.817  1.00  0.00    -0.000 C 
BRANCH  23  24
ATOM     24  C   UNL     1       9.479 -23.380  40.997  1.00  0.00    -0.000 C 
BRANCH  24  25
ATOM     25  C   UNL     1      10.688 -22.524  40.602  1.00  0.00    -0.003 C 
ATOM     26  C   UNL     1      11.639 -22.339  41.780  1.00  0.00     0.004 C 
ENDBRANCH  24  25
ENDBRANCH  23  24
ENDBRANCH  22  23
ENDBRANCH  21  22
ENDBRANCH  20  21
ENDBRANCH  19  20
ENDBRANCH  18  19
ENDBRANCH  17  18
ENDBRANCH  16  17
ENDBRANCH  15  16
ENDBRANCH   1  15
TORSDOF 22
ENDMDL
MODEL 6
REMARK VINA RESULT:    -3.815      2.646      5.966
REMARK INTER + INTRA:         -12.809
REMARK INTER:                  -8.427
REMARK INTRA:                  -4.382
REMARK UNBOUND:                -4.087
REMARK SMILES CCCCCCCCCCCCCCCCCCCCCCCC(=O)[O-]
REMARK SMILES IDX 13 1 14 2 15 3 16 4 17 5 18 6 19 7 20 8 21 9 22 10 23 11
REMARK SMILES IDX 24 12 25 13 26 14 12 15 11 16 10 17 9 18 8 19 7 20 6 21 5 22
REMARK SMILES IDX 4 23 3 24 2 25 1 26
REMARK H PARENT
REMARK Flexibility Score: inf
ROOT
ATOM      1  C   UNL     1      10.222 -24.981  39.565  1.00  0.00     0.000 C 
ENDROOT
BRANCH   1   2
ATOM      2  C   UNL     1       9.472 -23.863  40.317  1.00  0.00     0.000 C 
BRANCH   2   3
ATOM      3  C   UNL     1      10.309 -22.605  40.612  1.00  0.00     0.000 C 
BRANCH   3   4
ATOM      4  C   UNL     1      11.003 -22.659  41.983  1.00  0.00     0.000 C 
BRANCH   4   5
ATOM      5  C   UNL     1      12.527 -22.825  41.865  1.00  0.00     0.000 C 
BRANCH   5   6
ATOM      6  C   UNL     1      13.047 -22.475  40.459  1.00  0.00     0.000 C 
BRANCH   6   7
ATOM      7  C   UNL     1      14.042 -23.515  39.922  1.00  0.00     0.000 C 
BRANCH   7   8
ATOM      8  C   UNL     1      13.982 -24.842  40.701  1.00  0.00     0.000 C 
BRANCH   8   9
ATOM      9  C   UNL     1      15.053 -25.848  40.244  1.00  0.00     0.000 C 
BRANCH   9  10
ATOM     10  C   UNL     1      14.519 -27.040  39.424  1.00  0.00     0.006 C 
BRANCH  10  11
ATOM     11  C   UNL     1      14.744 -26.922  37.908  1.00  0.00     0.053 C 
BRANCH  11  12
ATOM     12  C   UNL     1      13.624 -26.194  37.230  1.00  0.00     0.041 C 
ATOM     13  O   UNL     1      13.813 -25.047  36.748  1.00  0.00    -0.550 OA
ATOM     14  O   UNL     1      12.379 -26.797  37.103  1.00  0.00    -0.550 OA
ENDBRANCH  11  12
ENDBRANCH  10  11
ENDBRANCH   9  10
ENDBRANCH   8   9
ENDBRANCH   7   8
ENDBRANCH   6   7
ENDBRANCH   5   6
ENDBRANCH   4   5
ENDBRANCH   3   4
ENDBRANCH   2   3
ENDBRANCH   1   2
BRANCH   1  15
ATOM     15  C   UNL     1      10.768 -26.118  40.453  1.00  0.00     0.000 C 
BRANCH  15  16
ATOM     16  C   UNL     1      10.037 -26.305  41.794  1.00  0.00     0.000 C 
BRANCH  16  17
ATOM     17  C   UNL     1       9.289 -27.644  41.881  1.00  0.00     0.000 C 
BRANCH  17  18
ATOM     18  C   UNL     1       8.007 -27.613  41.036  1.00  0.00    -0.000 C 
BRANCH  18  19
ATOM     19  C   UNL     1       8.092 -28.547  39.810  1.00  0.00    -0.000 C 
BRANCH  19  20
ATOM     20  C   UNL     1       8.977 -29.789  40.032  1.00  0.00    -0.000 C 
BRANCH  20  21
ATOM     21  C   UNL     1      10.046 -30.031  38.950  1.00  0.00    -0.000 C 
BRANCH  21  22
ATOM     22  C   UNL     1      11.431 -29.435  39.263  1.00  0.00    -0.000 C 
BRANCH  22  23
ATOM     23  C   UNL     1      12.538 -30.499  39.436  1.00  0.00    -0.000 C 
BRANCH  23  24
ATOM     24  C   UNL     1      13.225 -30.406  40.807  1.00  0.00    -0.000 C 
BRANCH  24  25
ATOM     25  C   UNL     1      12.655 -29.246  41.632  1.00  0.00    -0.003 C 
ATOM     26  C   UNL     1      12.306 -29.698  43.047  1.00  0.00     0.004 C 
ENDBRANCH  24  25
ENDBRANCH  23  24
ENDBRANCH  22  23
ENDBRANCH  21  22
ENDBRANCH  20  21
ENDBRANCH  19  20
ENDBRANCH  18  19
ENDBRANCH  17  18
ENDBRANCH  16  17
ENDBRANCH  15  16
ENDBRANCH   1  15
TORSDOF 22
ENDMDL
MODEL 7
REMARK VINA RESULT:    -3.800      3.042      6.495
REMARK INTER + INTRA:         -12.775
REMARK INTER:                  -8.309
REMARK INTRA:                  -4.466
REMARK UNBOUND:                -4.087
REMARK SMILES CCCCCCCCCCCCCCCCCCCCCCCC(=O)[O-]
REMARK SMILES IDX 13 1 14 2 15 3 16 4 17 5 18 6 19 7 20 8 21 9 22 10 23 11
REMARK SMILES IDX 24 12 25 13 26 14 12 15 11 16 10 17 9 18 8 19 7 20 6 21 5 22
REMARK SMILES IDX 4 23 3 24 2 25 1 26
REMARK H PARENT
REMARK Flexibility Score: inf
ROOT
ATOM      1  C   UNL     1      13.901 -32.418  40.657  1.00  0.00     0.000 C 
ENDROOT
BRANCH   1   2
ATOM      2  C   UNL     1      12.625 -32.953  39.975  1.00  0.00     0.000 C 
BRANCH   2   3
ATOM      3  C   UNL     1      11.884 -31.930  39.095  1.00  0.00     0.000 C 
BRANCH   3   4
ATOM      4  C   UNL     1      12.336 -30.484  39.352  1.00  0.00     0.000 C 
BRANCH   4   5
ATOM      5  C   UNL     1      12.348 -29.635  38.070  1.00  0.00     0.000 C 
BRANCH   5   6
ATOM      6  C   UNL     1      13.590 -28.730  37.978  1.00  0.00     0.000 C 
BRANCH   6   7
ATOM      7  C   UNL     1      14.687 -29.132  38.976  1.00  0.00     0.000 C 
BRANCH   7   8
ATOM      8  C   UNL     1      15.387 -27.912  39.603  1.00  0.00     0.000 C 
BRANCH   8   9
ATOM      9  C   UNL     1      14.621 -27.343  40.810  1.00  0.00     0.000 C 
BRANCH   9  10
ATOM     10  C   UNL     1      13.862 -26.028  40.537  1.00  0.00     0.006 C 
BRANCH  10  11
ATOM     11  C   UNL     1      14.418 -25.203  39.366  1.00  0.00     0.053 C 
BRANCH  11  12
ATOM     12  C   UNL     1      13.397 -25.000  38.289  1.00  0.00     0.041 C 
ATOM     13  O   UNL     1      12.206 -24.723  38.587  1.00  0.00    -0.550 OA
ATOM     14  O   UNL     1      13.769 -25.085  36.953  1.00  0.00    -0.550 OA
ENDBRANCH  11  12
ENDBRANCH  10  11
ENDBRANCH   9  10
ENDBRANCH   8   9
ENDBRANCH   7   8
ENDBRANCH   6   7
ENDBRANCH   5   6
ENDBRANCH   4   5
ENDBRANCH   3   4
ENDBRANCH   2   3
ENDBRANCH   1   2
BRANCH   1  15
ATOM     15  C   UNL     1      14.219 -33.037  42.034  1.00  0.00     0.000 C 
BRANCH  15  16
ATOM     16  C   UNL     1      14.659 -32.031  43.112  1.00  0.00     0.000 C 
BRANCH  16  17
ATOM     17  C   UNL     1      14.516 -30.571  42.656  1.00  0.00     0.000 C 
BRANCH  17  18
ATOM     18  C   UNL     1      13.849 -29.718  43.745  1.00  0.00    -0.000 C 
BRANCH  18  19
ATOM     19  C   UNL     1      12.402 -30.168  44.038  1.00  0.00    -0.000 C 
BRANCH  19  20
ATOM     20  C   UNL     1      11.405 -29.830  42.913  1.00  0.00    -0.000 C 
BRANCH  20  21
ATOM     21  C   UNL     1      10.517 -31.001  42.454  1.00  0.00    -0.000 C 
BRANCH  21  22
ATOM     22  C   UNL     1       9.185 -30.588  41.801  1.00  0.00    -0.000 C 
BRANCH  22  23
ATOM     23  C   UNL     1       8.735 -29.156  42.164  1.00  0.00    -0.000 C 
BRANCH  23  24
ATOM     24  C   UNL     1       8.206 -28.386  40.944  1.00  0.00    -0.000 C 
BRANCH  24  25
ATOM     25  C   UNL     1       9.289 -28.245  39.868  1.00  0.00    -0.003 C 
ATOM     26  C   UNL     1      10.437 -27.364  40.354  1.00  0.00     0.004 C 
ENDBRANCH  24  25
ENDBRANCH  23  24
ENDBRANCH  22  23
ENDBRANCH  21  22
ENDBRANCH  20  21
ENDBRANCH  19  20
ENDBRANCH  18  19
ENDBRANCH  17  18
ENDBRANCH  16  17
ENDBRANCH  15  16
ENDBRANCH   1  15
TORSDOF 22
ENDMDL
MODEL 8
REMARK VINA RESULT:    -3.786      3.124      5.144
REMARK INTER + INTRA:         -12.743
REMARK INTER:                  -8.208
REMARK INTRA:                  -4.535
REMARK UNBOUND:                -4.087
REMARK SMILES CCCCCCCCCCCCCCCCCCCCCCCC(=O)[O-]
REMARK SMILES IDX 13 1 14 2 15 3 16 4 17 5 18 6 19 7 20 8 21 9 22 10 23 11
REMARK SMILES IDX 24 12 25 13 26 14 12 15 11 16 10 17 9 18 8 19 7 20 6 21 5 22
REMARK SMILES IDX 4 23 3 24 2 25 1 26
REMARK H PARENT
REMARK Flexibility Score: inf
ROOT
ATOM      1  C   UNL     1       7.940 -27.494  41.186  1.00  0.00     0.000 C 
ENDROOT
BRANCH   1   2
ATOM      2  C   UNL     1       8.653 -28.419  42.193  1.00  0.00     0.000 C 
BRANCH   2   3
ATOM      3  C   UNL     1       9.098 -29.777  41.622  1.00  0.00     0.000 C 
BRANCH   3   4
ATOM      4  C   UNL     1      10.604 -30.034  41.801  1.00  0.00     0.000 C 
BRANCH   4   5
ATOM      5  C   UNL     1      11.389 -28.747  42.102  1.00  0.00     0.000 C 
BRANCH   5   6
ATOM      6  C   UNL     1      12.170 -28.238  40.878  1.00  0.00     0.000 C 
BRANCH   6   7
ATOM      7  C   UNL     1      12.562 -29.370  39.916  1.00  0.00     0.000 C 
BRANCH   7   8
ATOM      8  C   UNL     1      12.072 -29.117  38.479  1.00  0.00     0.000 C 
BRANCH   8   9
ATOM      9  C   UNL     1      11.027 -27.991  38.397  1.00  0.00     0.000 C 
BRANCH   9  10
ATOM     10  C   UNL     1       9.577 -28.465  38.164  1.00  0.00     0.006 C 
BRANCH  10  11
ATOM     11  C   UNL     1       8.702 -27.477  37.377  1.00  0.00     0.053 C 
BRANCH  11  12
ATOM     12  C   UNL     1       8.962 -27.550  35.904  1.00  0.00     0.041 C 
ATOM     13  O   UNL     1       8.827 -26.527  35.184  1.00  0.00    -0.550 OA
ATOM     14  O   UNL     1       9.385 -28.743  35.331  1.00  0.00    -0.550 OA
ENDBRANCH  11  12
ENDBRANCH  10  11
ENDBRANCH   9  10
ENDBRANCH   8   9
ENDBRANCH   7   8
ENDBRANCH   6   7
ENDBRANCH   5   6
ENDBRANCH   4   5
ENDBRANCH   3   4
ENDBRANCH   2   3
ENDBRANCH   1   2
BRANCH   1  15
ATOM     15  C   UNL     1       8.278 -25.995  41.316  1.00  0.00     0.000 C 
BRANCH  15  16
ATOM     16  C   UNL     1       9.708 -25.612  40.895  1.00  0.00     0.000 C 
BRANCH  16  17
ATOM     17  C   UNL     1       9.743 -24.413  39.936  1.00  0.00     0.000 C 
BRANCH  17  18
ATOM     18  C   UNL     1       9.397 -23.110  40.671  1.00  0.00    -0.000 C 
BRANCH  18  19
ATOM     19  C   UNL     1      10.644 -22.242  40.943  1.00  0.00    -0.000 C 
BRANCH  19  20
ATOM     20  C   UNL     1      11.352 -22.568  42.274  1.00  0.00    -0.000 C 
BRANCH  20  21
ATOM     21  C   UNL     1      12.884 -22.695  42.184  1.00  0.00    -0.000 C 
BRANCH  21  22
ATOM     22  C   UNL     1      13.423 -23.052  40.786  1.00  0.00    -0.000 C 
BRANCH  22  23
ATOM     23  C   UNL     1      13.807 -24.541  40.632  1.00  0.00    -0.000 C 
BRANCH  23  24
ATOM     24  C   UNL     1      13.391 -25.110  39.268  1.00  0.00    -0.000 C 
BRANCH  24  25
ATOM     25  C   UNL     1      14.404 -26.149  38.771  1.00  0.00    -0.003 C 
ATOM     26  C   UNL     1      15.446 -26.457  39.843  1.00  0.00     0.004 C 
ENDBRANCH  24  25
ENDBRANCH  23  24
ENDBRANCH  22  23
ENDBRANCH  21  22
ENDBRANCH  20  21
ENDBRANCH  19  20
ENDBRANCH  18  19
ENDBRANCH  17  18
ENDBRANCH  16  17
ENDBRANCH  15  16
ENDBRANCH   1  15
TORSDOF 22
ENDMDL
MODEL 9
REMARK VINA RESULT:    -3.779      2.867      4.582
REMARK INTER + INTRA:         -12.727
REMARK INTER:                  -8.522
REMARK INTRA:                  -4.205
REMARK UNBOUND:                -4.087
REMARK SMILES CCCCCCCCCCCCCCCCCCCCCCCC(=O)[O-]
REMARK SMILES IDX 13 1 14 2 15 3 16 4 17 5 18 6 19 7 20 8 21 9 22 10 23 11
REMARK SMILES IDX 24 12 25 13 26 14 12 15 11 16 10 17 9 18 8 19 7 20 6 21 5 22
REMARK SMILES IDX 4 23 3 24 2 25 1 26
REMARK H PARENT
REMARK Flexibility Score: inf
ROOT
ATOM      1  C   UNL     1       8.542 -28.394  39.841  1.00  0.00     0.000 C 
ENDROOT
BRANCH   1   2
ATOM      2  C   UNL     1       8.955 -29.833  40.212  1.00  0.00     0.000 C 
BRANCH   2   3
ATOM      3  C   UNL     1       8.695 -30.224  41.678  1.00  0.00     0.000 C 
BRANCH   3   4
ATOM      4  C   UNL     1       9.907 -29.966  42.588  1.00  0.00     0.000 C 
BRANCH   4   5
ATOM      5  C   UNL     1      11.241 -30.046  41.827  1.00  0.00     0.000 C 
BRANCH   5   6
ATOM      6  C   UNL     1      12.281 -29.044  42.360  1.00  0.00     0.000 C 
BRANCH   6   7
ATOM      7  C   UNL     1      13.096 -28.386  41.236  1.00  0.00     0.000 C 
BRANCH   7   8
ATOM      8  C   UNL     1      13.841 -29.417  40.369  1.00  0.00     0.000 C 
BRANCH   8   9
ATOM      9  C   UNL     1      13.605 -29.209  38.863  1.00  0.00     0.000 C 
BRANCH   9  10
ATOM     10  C   UNL     1      12.125 -29.209  38.430  1.00  0.00     0.006 C 
BRANCH  10  11
ATOM     11  C   UNL     1      11.643 -27.889  37.808  1.00  0.00     0.053 C 
BRANCH  11  12
ATOM     12  C   UNL     1      11.151 -28.077  36.406  1.00  0.00     0.041 C 
ATOM     13  O   UNL     1      10.166 -27.417  35.984  1.00  0.00    -0.550 OA
ATOM     14  O   UNL     1      11.804 -28.959  35.554  1.00  0.00    -0.550 OA
ENDBRANCH  11  12
ENDBRANCH  10  11
ENDBRANCH   9  10
ENDBRANCH   8   9
ENDBRANCH   7   8
ENDBRANCH   6   7
ENDBRANCH   5   6
ENDBRANCH   4   5
ENDBRANCH   3   4
ENDBRANCH   2   3
ENDBRANCH   1   2
BRANCH   1  15
ATOM     15  C   UNL     1       7.706 -27.655  40.905  1.00  0.00     0.000 C 
BRANCH  15  16
ATOM     16  C   UNL     1       8.248 -26.273  41.314  1.00  0.00     0.000 C 
BRANCH  16  17
ATOM     17  C   UNL     1       9.741 -26.304  41.674  1.00  0.00     0.000 C 
BRANCH  17  18
ATOM     18  C   UNL     1      10.538 -25.325  40.800  1.00  0.00    -0.000 C 
BRANCH  18  19
ATOM     19  C   UNL     1       9.627 -24.314  40.073  1.00  0.00    -0.000 C 
BRANCH  19  20
ATOM     20  C   UNL     1       9.621 -22.909  40.709  1.00  0.00    -0.000 C 
BRANCH  20  21
ATOM     21  C   UNL     1      10.910 -22.529  41.461  1.00  0.00    -0.000 C 
BRANCH  21  22
ATOM     22  C   UNL     1      11.960 -21.787  40.613  1.00  0.00    -0.000 C 
BRANCH  22  23
ATOM     23  C   UNL     1      13.126 -22.686  40.145  1.00  0.00    -0.000 C 
BRANCH  23  24
ATOM     24  C   UNL     1      12.914 -23.216  38.718  1.00  0.00    -0.000 C 
BRANCH  24  25
ATOM     25  C   UNL     1      13.487 -24.629  38.564  1.00  0.00    -0.003 C 
ATOM     26  C   UNL     1      14.077 -25.131  39.879  1.00  0.00     0.004 C 
ENDBRANCH  24  25
ENDBRANCH  23  24
ENDBRANCH  22  23
ENDBRANCH  21  22
ENDBRANCH  20  21
ENDBRANCH  19  20
ENDBRANCH  18  19
ENDBRANCH  17  18
ENDBRANCH  16  17
ENDBRANCH  15  16
ENDBRANCH   1  15
TORSDOF 22
ENDMDL
