MODEL 1
REMARK VINA RESULT:    -4.230      0.000      0.000
REMARK INTER + INTRA:          -6.102
REMARK INTER:                  -5.714
REMARK INTRA:                  -0.388
REMARK UNBOUND:                -0.388
REMARK SMILES CCCCCCC=CC(=O)[O-]
REMARK SMILES IDX 5 1 6 2 7 3 8 4 9 5 10 6 11 7 4 8 3 9 2 10 1 11
REMARK H PARENT
REMARK Flexibility Score: inf
ROOT
ATOM      1  C   UNL     1      -7.703  -3.870 -40.058  1.00  0.00     0.004 C 
ENDROOT
BRANCH   1   2
ATOM      2  C   UNL     1      -7.567  -2.352 -39.866  1.00  0.00     0.027 C 
BRANCH   2   3
ATOM      3  C   UNL     1      -8.445  -1.867 -38.749  1.00  0.00    -0.025 C 
ATOM      4  C   UNL     1      -8.583  -0.563 -38.487  1.00  0.00     0.020 C 
BRANCH   4   5
ATOM      5  C   UNL     1      -9.428  -0.072 -37.388  1.00  0.00     0.064 C 
ATOM      6  O   UNL     1      -8.934   0.689 -36.516  1.00  0.00    -0.545 OA
ATOM      7  O   UNL     1     -10.767  -0.435 -37.298  1.00  0.00    -0.545 OA
ENDBRANCH   4   5
ENDBRANCH   2   3
ENDBRANCH   1   2
BRANCH   1   8
ATOM      8  C   UNL     1      -6.352  -4.558 -40.312  1.00  0.00     0.000 C 
BRANCH   8   9
ATOM      9  C   UNL     1      -5.186  -3.847 -39.609  1.00  0.00    -0.000 C 
BRANCH   9  10
ATOM     10  C   UNL     1      -4.418  -4.818 -38.705  1.00  0.00    -0.003 C 
ATOM     11  C   UNL     1      -5.249  -5.211 -37.486  1.00  0.00     0.004 C 
ENDBRANCH   9  10
ENDBRANCH   8   9
ENDBRANCH   1   8
TORSDOF 6
ENDMDL
MODEL 2
REMARK VINA RESULT:    -3.958      3.292      5.533
REMARK INTER + INTRA:          -5.735
REMARK INTER:                  -5.405
REMARK INTRA:                  -0.330
REMARK UNBOUND:                -0.388
REMARK SMILES CCCCCCC=CC(=O)[O-]
REMARK SMILES IDX 5 1 6 2 7 3 8 4 9 5 10 6 11 7 4 8 3 9 2 10 1 11
REMARK H PARENT
REMARK Flexibility Score: inf
ROOT
ATOM      1  C   UNL     1      -8.376  -1.954 -40.455  1.00  0.00     0.004 C 
ENDROOT
BRANCH   1   2
ATOM      2  C   UNL     1      -7.476  -3.121 -40.889  1.00  0.00     0.027 C 
BRANCH   2   3
ATOM      3  C   UNL     1      -6.380  -3.360 -39.891  1.00  0.00    -0.025 C 
ATOM      4  C   UNL     1      -6.040  -4.597 -39.511  1.00  0.00     0.020 C 
BRANCH   4   5
ATOM      5  C   UNL     1      -4.979  -4.847 -38.525  1.00  0.00     0.064 C 
ATOM      6  O   UNL     1      -5.277  -4.969 -37.309  1.00  0.00    -0.545 OA
ATOM      7  O   UNL     1      -3.649  -4.953 -38.916  1.00  0.00    -0.545 OA
ENDBRANCH   4   5
ENDBRANCH   2   3
ENDBRANCH   1   2
BRANCH   1   8
ATOM      8  C   UNL     1      -8.504  -1.841 -38.928  1.00  0.00     0.000 C 
BRANCH   8   9
ATOM      9  C   UNL     1      -8.359  -0.396 -38.428  1.00  0.00    -0.000 C 
BRANCH   9  10
ATOM     10  C   UNL     1      -9.452  -0.058 -37.407  1.00  0.00    -0.003 C 
ATOM     11  C   UNL     1     -10.714  -0.878 -37.659  1.00  0.00     0.004 C 
ENDBRANCH   9  10
ENDBRANCH   8   9
ENDBRANCH   1   8
TORSDOF 6
ENDMDL
MODEL 3
REMARK VINA RESULT:    -3.772      3.422      7.151
REMARK INTER + INTRA:          -5.484
REMARK INTER:                  -5.251
REMARK INTRA:                  -0.233
REMARK UNBOUND:                -0.388
REMARK SMILES CCCCCCC=CC(=O)[O-]
REMARK SMILES IDX 5 1 6 2 7 3 8 4 9 5 10 6 11 7 4 8 3 9 2 10 1 11
REMARK H PARENT
REMARK Flexibility Score: inf
ROOT
ATOM      1  C   UNL     1     -11.108   1.413 -37.141  1.00  0.00     0.004 C 
ENDROOT
BRANCH   1   2
ATOM      2  C   UNL     1      -9.722   0.832 -36.823  1.00  0.00     0.027 C 
BRANCH   2   3
ATOM      3  C   UNL     1      -9.508  -0.477 -37.525  1.00  0.00    -0.025 C 
ATOM      4  C   UNL     1      -8.518  -0.641 -38.410  1.00  0.00     0.020 C 
BRANCH   4   5
ATOM      5  C   UNL     1      -8.304  -1.912 -39.116  1.00  0.00     0.064 C 
ATOM      6  O   UNL     1      -7.159  -2.434 -39.124  1.00  0.00    -0.545 OA
ATOM      7  O   UNL     1      -9.349  -2.550 -39.775  1.00  0.00    -0.545 OA
ENDBRANCH   4   5
ENDBRANCH   2   3
ENDBRANCH   1   2
BRANCH   1   8
ATOM      8  C   UNL     1     -11.650   2.303 -36.012  1.00  0.00     0.000 C 
BRANCH   8   9
ATOM      9  C   UNL     1     -10.701   2.372 -34.806  1.00  0.00    -0.000 C 
BRANCH   9  10
ATOM     10  C   UNL     1     -10.906   3.673 -34.022  1.00  0.00    -0.003 C 
ATOM     11  C   UNL     1      -9.923   3.777 -32.859  1.00  0.00     0.004 C 
ENDBRANCH   9  10
ENDBRANCH   8   9
ENDBRANCH   1   8
TORSDOF 6
ENDMDL
MODEL 4
REMARK VINA RESULT:    -3.770     11.316     13.111
REMARK INTER + INTRA:          -5.481
REMARK INTER:                  -5.142
REMARK INTRA:                  -0.339
REMARK UNBOUND:                -0.388
REMARK SMILES CCCCCCC=CC(=O)[O-]
REMARK SMILES IDX 5 1 6 2 7 3 8 4 9 5 10 6 11 7 4 8 3 9 2 10 1 11
REMARK H PARENT
REMARK Flexibility Score: inf
ROOT
ATOM      1  C   UNL     1       5.054  -3.534 -39.571  1.00  0.00     0.004 C 
ENDROOT
BRANCH   1   2
ATOM      2  C   UNL     1       5.718  -4.687 -38.802  1.00  0.00     0.027 C 
BRANCH   2   3
ATOM      3  C   UNL     1       5.166  -4.798 -37.410  1.00  0.00    -0.025 C 
ATOM      4  C   UNL     1       4.703  -5.959 -36.934  1.00  0.00     0.020 C 
BRANCH   4   5
ATOM      5  C   UNL     1       4.147  -6.082 -35.579  1.00  0.00     0.064 C 
ATOM      6  O   UNL     1       2.925  -5.852 -35.385  1.00  0.00    -0.545 OA
ATOM      7  O   UNL     1       4.951  -6.450 -34.506  1.00  0.00    -0.545 OA
ENDBRANCH   4   5
ENDBRANCH   2   3
ENDBRANCH   1   2
BRANCH   1   8
ATOM      8  C   UNL     1       5.905  -2.255 -39.570  1.00  0.00     0.000 C 
BRANCH   8   9
ATOM      9  C   UNL     1       5.100  -1.011 -39.163  1.00  0.00    -0.000 C 
BRANCH   9  10
ATOM     10  C   UNL     1       3.595  -1.297 -39.200  1.00  0.00    -0.003 C 
ATOM     11  C   UNL     1       2.788  -0.003 -39.226  1.00  0.00     0.004 C 
ENDBRANCH   9  10
ENDBRANCH   8   9
ENDBRANCH   1   8
TORSDOF 6
ENDMDL
MODEL 5
REMARK VINA RESULT:    -3.719      5.134      7.482
REMARK INTER + INTRA:          -5.412
REMARK INTER:                  -5.149
REMARK INTRA:                  -0.263
REMARK UNBOUND:                -0.388
REMARK SMILES CCCCCCC=CC(=O)[O-]
REMARK SMILES IDX 5 1 6 2 7 3 8 4 9 5 10 6 11 7 4 8 3 9 2 10 1 11
REMARK H PARENT
REMARK Flexibility Score: inf
ROOT
ATOM      1  C   UNL     1     -11.318   2.442 -35.842  1.00  0.00     0.004 C 
ENDROOT
BRANCH   1   2
ATOM      2  C   UNL     1     -10.608   2.225 -34.497  1.00  0.00     0.027 C 
BRANCH   2   3
ATOM      3  C   UNL     1     -10.183   3.532 -33.891  1.00  0.00    -0.025 C 
ATOM      4  C   UNL     1     -10.168   3.713 -32.566  1.00  0.00     0.020 C 
BRANCH   4   5
ATOM      5  C   UNL     1      -9.768   4.991 -31.957  1.00  0.00     0.064 C 
ATOM      6  O   UNL     1      -9.347   5.010 -30.772  1.00  0.00    -0.545 OA
ATOM      7  O   UNL     1      -9.846   6.180 -32.673  1.00  0.00    -0.545 OA
ENDBRANCH   4   5
ENDBRANCH   2   3
ENDBRANCH   1   2
BRANCH   1   8
ATOM      8  C   UNL     1     -10.880   1.431 -36.913  1.00  0.00     0.000 C 
BRANCH   8   9
ATOM      9  C   UNL     1      -9.542   0.757 -36.576  1.00  0.00    -0.000 C 
BRANCH   9  10
ATOM     10  C   UNL     1      -9.050  -0.098 -37.749  1.00  0.00    -0.003 C 
ATOM     11  C   UNL     1     -10.047  -1.205 -38.081  1.00  0.00     0.004 C 
ENDBRANCH   9  10
ENDBRANCH   8   9
ENDBRANCH   1   8
TORSDOF 6
ENDMDL
MODEL 6
REMARK VINA RESULT:    -3.689     10.749     11.758
REMARK INTER + INTRA:          -5.371
REMARK INTER:                  -4.750
REMARK INTRA:                  -0.621
REMARK UNBOUND:                -0.388
REMARK SMILES CCCCCCC=CC(=O)[O-]
REMARK SMILES IDX 5 1 6 2 7 3 8 4 9 5 10 6 11 7 4 8 3 9 2 10 1 11
REMARK H PARENT
REMARK Flexibility Score: inf
ROOT
ATOM      1  C   UNL     1      -1.239  -7.711 -32.520  1.00  0.00     0.004 C 
ENDROOT
BRANCH   1   2
ATOM      2  C   UNL     1      -1.304  -6.292 -31.935  1.00  0.00     0.027 C 
BRANCH   2   3
ATOM      3  C   UNL     1      -1.631  -6.325 -30.470  1.00  0.00    -0.025 C 
ATOM      4  C   UNL     1      -0.670  -6.348 -29.541  1.00  0.00     0.020 C 
BRANCH   4   5
ATOM      5  C   UNL     1      -0.974  -6.394 -28.103  1.00  0.00     0.064 C 
ATOM      6  O   UNL     1      -0.049  -6.229 -27.266  1.00  0.00    -0.545 OA
ATOM      7  O   UNL     1      -2.271  -6.615 -27.652  1.00  0.00    -0.545 OA
ENDBRANCH   4   5
ENDBRANCH   2   3
ENDBRANCH   1   2
BRANCH   1   8
ATOM      8  C   UNL     1      -0.004  -7.929 -33.409  1.00  0.00     0.000 C 
BRANCH   8   9
ATOM      9  C   UNL     1       0.924  -6.705 -33.440  1.00  0.00    -0.000 C 
BRANCH   9  10
ATOM     10  C   UNL     1       2.333  -7.075 -32.962  1.00  0.00    -0.003 C 
ATOM     11  C   UNL     1       2.405  -7.121 -31.439  1.00  0.00     0.004 C 
ENDBRANCH   9  10
ENDBRANCH   8   9
ENDBRANCH   1   8
TORSDOF 6
ENDMDL
MODEL 7
REMARK VINA RESULT:    -3.684      1.405      2.137
REMARK INTER + INTRA:          -5.365
REMARK INTER:                  -4.855
REMARK INTRA:                  -0.510
REMARK UNBOUND:                -0.388
REMARK SMILES CCCCCCC=CC(=O)[O-]
REMARK SMILES IDX 5 1 6 2 7 3 8 4 9 5 10 6 11 7 4 8 3 9 2 10 1 11
REMARK H PARENT
REMARK Flexibility Score: inf
ROOT
ATOM      1  C   UNL     1      -5.061  -3.828 -40.709  1.00  0.00     0.004 C 
ENDROOT
BRANCH   1   2
ATOM      2  C   UNL     1      -6.544  -3.961 -41.088  1.00  0.00     0.027 C 
BRANCH   2   3
ATOM      3  C   UNL     1      -7.342  -2.798 -40.573  1.00  0.00    -0.025 C 
ATOM      4  C   UNL     1      -7.861  -2.798 -39.341  1.00  0.00     0.020 C 
BRANCH   4   5
ATOM      5  C   UNL     1      -8.655  -1.673 -38.828  1.00  0.00     0.064 C 
ATOM      6  O   UNL     1      -8.075  -0.706 -38.268  1.00  0.00    -0.545 OA
ATOM      7  O   UNL     1     -10.040  -1.659 -38.951  1.00  0.00    -0.545 OA
ENDBRANCH   4   5
ENDBRANCH   2   3
ENDBRANCH   1   2
BRANCH   1   8
ATOM      8  C   UNL     1      -4.296  -5.154 -40.841  1.00  0.00     0.000 C 
BRANCH   8   9
ATOM      9  C   UNL     1      -4.061  -5.837 -39.485  1.00  0.00    -0.000 C 
BRANCH   9  10
ATOM     10  C   UNL     1      -4.232  -4.841 -38.333  1.00  0.00    -0.003 C 
ATOM     11  C   UNL     1      -5.317  -5.300 -37.363  1.00  0.00     0.004 C 
ENDBRANCH   9  10
ENDBRANCH   8   9
ENDBRANCH   1   8
TORSDOF 6
ENDMDL
MODEL 8
REMARK VINA RESULT:    -3.673      4.146      6.396
REMARK INTER + INTRA:          -5.350
REMARK INTER:                  -5.132
REMARK INTRA:                  -0.217
REMARK UNBOUND:                -0.388
REMARK SMILES CCCCCCC=CC(=O)[O-]
REMARK SMILES IDX 5 1 6 2 7 3 8 4 9 5 10 6 11 7 4 8 3 9 2 10 1 11
REMARK H PARENT
REMARK Flexibility Score: inf
ROOT
ATOM      1  C   UNL     1     -11.146   1.140 -36.848  1.00  0.00     0.004 C 
ENDROOT
BRANCH   1   2
ATOM      2  C   UNL     1     -11.317   2.547 -36.255  1.00  0.00     0.027 C 
BRANCH   2   3
ATOM      3  C   UNL     1     -11.203   2.522 -34.758  1.00  0.00    -0.025 C 
ATOM      4  C   UNL     1     -10.531   3.469 -34.094  1.00  0.00     0.020 C 
BRANCH   4   5
ATOM      5  C   UNL     1     -10.398   3.451 -32.630  1.00  0.00     0.064 C 
ATOM      6  O   UNL     1     -11.326   2.973 -31.927  1.00  0.00    -0.545 OA
ATOM      7  O   UNL     1      -9.261   3.954 -32.008  1.00  0.00    -0.545 OA
ENDBRANCH   4   5
ENDBRANCH   2   3
ENDBRANCH   1   2
BRANCH   1   8
ATOM      8  C   UNL     1      -9.687   0.658 -36.817  1.00  0.00     0.000 C 
BRANCH   8   9
ATOM      9  C   UNL     1      -9.477  -0.639 -37.613  1.00  0.00    -0.000 C 
BRANCH   9  10
ATOM     10  C   UNL     1      -8.335  -0.482 -38.623  1.00  0.00    -0.003 C 
ATOM     11  C   UNL     1      -8.686  -1.134 -39.958  1.00  0.00     0.004 C 
ENDBRANCH   9  10
ENDBRANCH   8   9
ENDBRANCH   1   8
TORSDOF 6
ENDMDL
MODEL 9
REMARK VINA RESULT:    -3.600      6.123      8.970
REMARK INTER + INTRA:          -5.251
REMARK INTER:                  -5.062
REMARK INTRA:                  -0.189
REMARK UNBOUND:                -0.388
REMARK SMILES CCCCCCC=CC(=O)[O-]
REMARK SMILES IDX 5 1 6 2 7 3 8 4 9 5 10 6 11 7 4 8 3 9 2 10 1 11
REMARK H PARENT
REMARK Flexibility Score: inf
ROOT
ATOM      1  C   UNL     1     -10.290   2.901 -34.253  1.00  0.00     0.004 C 
ENDROOT
BRANCH   1   2
ATOM      2  C   UNL     1     -10.728   3.495 -32.907  1.00  0.00     0.027 C 
BRANCH   2   3
ATOM      3  C   UNL     1      -9.635   4.326 -32.299  1.00  0.00    -0.025 C 
ATOM      4  C   UNL     1      -9.691   5.662 -32.303  1.00  0.00     0.020 C 
BRANCH   4   5
ATOM      5  C   UNL     1      -8.622   6.490 -31.725  1.00  0.00     0.064 C 
ATOM      6  O   UNL     1      -7.912   7.205 -32.479  1.00  0.00    -0.545 OA
ATOM      7  O   UNL     1      -8.384   6.497 -30.355  1.00  0.00    -0.545 OA
ENDBRANCH   4   5
ENDBRANCH   2   3
ENDBRANCH   1   2
BRANCH   1   8
ATOM      8  C   UNL     1     -11.454   2.260 -35.024  1.00  0.00     0.000 C 
BRANCH   8   9
ATOM      9  C   UNL     1     -11.205   2.212 -36.539  1.00  0.00    -0.000 C 
BRANCH   9  10
ATOM     10  C   UNL     1     -10.877   0.786 -36.995  1.00  0.00    -0.003 C 
ATOM     11  C   UNL     1      -9.375   0.521 -36.941  1.00  0.00     0.004 C 
ENDBRANCH   9  10
ENDBRANCH   8   9
ENDBRANCH   1   8
TORSDOF 6
ENDMDL
