MODEL 1
REMARK VINA RESULT:    -5.237      0.000      0.000
REMARK INTER + INTRA:          -5.569
REMARK INTER:                  -5.696
REMARK INTRA:                   0.127
REMARK UNBOUND:                 0.127
REMARK SMILES CC1(C)CC[C@]2(C(=O)[O-])CC[C@]3(C)C(=CC[C@H]4[C@]5(C)CC[C@@H](O)C(C)(C)[C@@H]5CC[C@]43C)[C@H]2C1
REMARK SMILES IDX 6 1 5 2 10 3 32 4 4 5 11 6 14 7 33 8 2 9 12 10 15 11 1 12
REMARK SMILES IDX 3 13 13 14 30 15 16 16 17 17 29 18 31 19 18 20 28 21 27 22
REMARK SMILES IDX 20 23 19 24 24 25 21 26 22 27 25 28 26 29 7 30 8 31 9 32
REMARK SMILES IDX 23 33
REMARK H PARENT 23 34
REMARK Flexibility Score: inf
ROOT
ATOM      1  C   UNL     1    -103.444  26.063 -42.315  1.00  0.00     0.017 C 
ATOM      2  C   UNL     1    -104.866  26.236 -42.898  1.00  0.00     0.014 C 
ATOM      3  C   UNL     1    -103.461  24.879 -41.319  1.00  0.00     0.014 C 
ATOM      4  C   UNL     1    -103.051  27.347 -41.515  1.00  0.00     0.028 C 
ATOM      5  C   UNL     1    -104.964  27.471 -43.809  1.00  0.00     0.007 C 
ATOM      6  C   UNL     1    -102.064  24.621 -40.734  1.00  0.00     0.013 C 
ATOM      7  C   UNL     1    -101.693  27.161 -40.799  1.00  0.00    -0.064 C 
ATOM      8  C   UNL     1    -103.209  28.652 -42.357  1.00  0.00     0.015 C 
ATOM      9  C   UNL     1    -104.588  28.783 -43.073  1.00  0.00    -0.035 C 
ATOM     10  C   UNL     1    -101.406  25.865 -40.002  1.00  0.00    -0.006 C 
ATOM     11  C   UNL     1    -100.874  28.224 -40.604  1.00  0.00    -0.027 C 
ATOM     12  C   UNL     1    -105.695  29.169 -42.055  1.00  0.00     0.011 C 
ATOM     13  C   UNL     1    -104.495  29.915 -44.122  1.00  0.00     0.011 C 
ATOM     14  C   UNL     1    -102.128  25.987 -38.623  1.00  0.00     0.017 C 
ATOM     15  C   UNL     1     -99.800  25.656 -39.829  1.00  0.00    -0.020 C 
ATOM     16  C   UNL     1     -99.917  28.248 -39.455  1.00  0.00     0.032 C 
ATOM     17  C   UNL     1     -99.010  26.991 -39.422  1.00  0.00     0.006 C 
ATOM     18  C   UNL     1     -99.526  24.545 -38.781  1.00  0.00     0.008 C 
ATOM     19  C   UNL     1     -99.192  25.180 -41.203  1.00  0.00     0.012 C 
ATOM     20  C   UNL     1     -98.010  26.950 -38.153  1.00  0.00    -0.025 C 
ATOM     21  C   UNL     1     -98.040  24.334 -38.560  1.00  0.00     0.005 C 
ATOM     22  C   UNL     1     -97.385  25.506 -37.785  1.00  0.00     0.003 C 
ATOM     23  C   UNL     1     -96.877  28.009 -38.413  1.00  0.00     0.010 C 
ATOM     24  C   UNL     1     -98.753  27.441 -36.870  1.00  0.00     0.012 C 
ATOM     25  C   UNL     1     -95.797  25.412 -37.787  1.00  0.00    -0.006 C 
ATOM     26  C   UNL     1     -95.709  27.524 -39.292  1.00  0.00     0.033 C 
ATOM     27  C   UNL     1     -95.275  26.056 -39.099  1.00  0.00     0.120 C 
ATOM     28  C   UNL     1     -95.168  26.059 -36.519  1.00  0.00     0.014 C 
ATOM     29  C   UNL     1     -95.326  23.924 -37.726  1.00  0.00     0.014 C 
ENDROOT
BRANCH   1  30
ATOM     30  C   UNL     1    -102.478  25.750 -43.459  1.00  0.00     0.048 C 
ATOM     31  O   UNL     1    -102.609  24.693 -44.125  1.00  0.00    -0.550 OA
ATOM     32  O   UNL     1    -101.422  26.597 -43.765  1.00  0.00    -0.550 OA
ENDBRANCH   1  30
BRANCH  27  33
ATOM     33  O   UNL     1     -93.875  25.993 -39.191  1.00  0.00    -0.393 OA
ATOM     34  H   UNL     1     -93.515  25.964 -38.269  1.00  0.00     0.210 HD
ENDBRANCH  27  33
TORSDOF 2
ENDMDL
MODEL 2
REMARK VINA RESULT:    -4.878     10.946     13.935
REMARK INTER + INTRA:          -5.180
REMARK INTER:                  -5.302
REMARK INTRA:                   0.122
REMARK UNBOUND:                 0.127
REMARK SMILES CC1(C)CC[C@]2(C(=O)[O-])CC[C@]3(C)C(=CC[C@H]4[C@]5(C)CC[C@@H](O)C(C)(C)[C@@H]5CC[C@]43C)[C@H]2C1
REMARK SMILES IDX 6 1 5 2 10 3 32 4 4 5 11 6 14 7 33 8 2 9 12 10 15 11 1 12
REMARK SMILES IDX 3 13 13 14 30 15 16 16 17 17 29 18 31 19 18 20 28 21 27 22
REMARK SMILES IDX 20 23 19 24 24 25 21 26 22 27 25 28 26 29 7 30 8 31 9 32
REMARK SMILES IDX 23 33
REMARK H PARENT 23 34
REMARK Flexibility Score: inf
ROOT
ATOM      1  C   UNL     1    -103.031  28.008 -25.728  1.00  0.00     0.017 C 
ATOM      2  C   UNL     1    -104.373  28.577 -25.213  1.00  0.00     0.014 C 
ATOM      3  C   UNL     1    -102.437  29.002 -26.754  1.00  0.00     0.014 C 
ATOM      4  C   UNL     1    -103.290  26.659 -26.473  1.00  0.00     0.028 C 
ATOM      5  C   UNL     1    -105.090  27.591 -24.275  1.00  0.00     0.007 C 
ATOM      6  C   UNL     1    -101.074  28.520 -27.275  1.00  0.00     0.013 C 
ATOM      7  C   UNL     1    -101.993  26.127 -27.125  1.00  0.00    -0.064 C 
ATOM      8  C   UNL     1    -104.091  25.638 -25.606  1.00  0.00     0.015 C 
ATOM      9  C   UNL     1    -105.380  26.228 -24.957  1.00  0.00    -0.035 C 
ATOM     10  C   UNL     1    -101.085  27.079 -27.940  1.00  0.00    -0.006 C 
ATOM     11  C   UNL     1    -101.791  24.791 -27.249  1.00  0.00    -0.027 C 
ATOM     12  C   UNL     1    -106.502  26.382 -26.019  1.00  0.00     0.011 C 
ATOM     13  C   UNL     1    -105.884  25.246 -23.875  1.00  0.00     0.011 C 
ATOM     14  C   UNL     1    -101.731  27.258 -29.350  1.00  0.00     0.017 C 
ATOM     15  C   UNL     1     -99.576  26.472 -28.037  1.00  0.00    -0.020 C 
ATOM     16  C   UNL     1    -100.933  24.250 -28.348  1.00  0.00     0.032 C 
ATOM     17  C   UNL     1     -99.527  24.904 -28.368  1.00  0.00     0.006 C 
ATOM     18  C   UNL     1     -98.763  27.258 -29.099  1.00  0.00     0.008 C 
ATOM     19  C   UNL     1     -98.856  26.656 -26.647  1.00  0.00     0.012 C 
ATOM     20  C   UNL     1     -98.596  24.392 -29.587  1.00  0.00    -0.025 C 
ATOM     21  C   UNL     1     -97.357  26.709 -29.251  1.00  0.00     0.005 C 
ATOM     22  C   UNL     1     -97.333  25.331 -29.960  1.00  0.00     0.003 C 
ATOM     23  C   UNL     1     -98.132  22.930 -29.242  1.00  0.00     0.010 C 
ATOM     24  C   UNL     1     -99.443  24.265 -30.891  1.00  0.00     0.012 C 
ATOM     25  C   UNL     1     -95.903  24.640 -29.881  1.00  0.00    -0.006 C 
ATOM     26  C   UNL     1     -96.904  22.826 -28.319  1.00  0.00     0.033 C 
ATOM     27  C   UNL     1     -95.803  23.886 -28.528  1.00  0.00     0.120 C 
ATOM     28  C   UNL     1     -95.631  23.709 -31.099  1.00  0.00     0.014 C 
ATOM     29  C   UNL     1     -94.764  25.706 -29.958  1.00  0.00     0.014 C 
ENDROOT
BRANCH   1  30
ATOM     30  C   UNL     1    -102.071  27.866 -24.545  1.00  0.00     0.048 C 
ATOM     31  O   UNL     1    -101.740  28.875 -23.875  1.00  0.00    -0.550 OA
ATOM     32  O   UNL     1    -101.519  26.639 -24.207  1.00  0.00    -0.550 OA
ENDBRANCH   1  30
BRANCH  27  33
ATOM     33  O   UNL     1     -94.554  23.264 -28.368  1.00  0.00    -0.393 OA
ATOM     34  H   UNL     1     -94.106  23.258 -29.251  1.00  0.00     0.210 HD
ENDBRANCH  27  33
TORSDOF 2
ENDMDL
MODEL 3
REMARK VINA RESULT:    -4.799      5.087      8.361
REMARK INTER + INTRA:          -5.094
REMARK INTER:                  -5.211
REMARK INTRA:                   0.117
REMARK UNBOUND:                 0.127
REMARK SMILES CC1(C)CC[C@]2(C(=O)[O-])CC[C@]3(C)C(=CC[C@H]4[C@]5(C)CC[C@@H](O)C(C)(C)[C@@H]5CC[C@]43C)[C@H]2C1
REMARK SMILES IDX 6 1 5 2 10 3 32 4 4 5 11 6 14 7 33 8 2 9 12 10 15 11 1 12
REMARK SMILES IDX 3 13 13 14 30 15 16 16 17 17 29 18 31 19 18 20 28 21 27 22
REMARK SMILES IDX 20 23 19 24 24 25 21 26 22 27 25 28 26 29 7 30 8 31 9 32
REMARK SMILES IDX 23 33
REMARK H PARENT 23 34
REMARK Flexibility Score: inf
ROOT
ATOM      1  C   UNL     1     -98.439  26.432 -37.010  1.00  0.00     0.017 C 
ATOM      2  C   UNL     1     -98.878  27.023 -38.369  1.00  0.00     0.014 C 
ATOM      3  C   UNL     1     -99.530  26.750 -35.960  1.00  0.00     0.014 C 
ATOM      4  C   UNL     1     -97.118  27.125 -36.543  1.00  0.00     0.028 C 
ATOM      5  C   UNL     1     -97.791  26.854 -39.444  1.00  0.00     0.007 C 
ATOM      6  C   UNL     1     -99.179  26.150 -34.590  1.00  0.00     0.013 C 
ATOM      7  C   UNL     1     -96.720  26.663 -35.123  1.00  0.00    -0.064 C 
ATOM      8  C   UNL     1     -95.994  27.065 -37.625  1.00  0.00     0.015 C 
ATOM      9  C   UNL     1     -96.450  27.524 -39.043  1.00  0.00    -0.035 C 
ATOM     10  C   UNL     1     -97.781  26.609 -33.997  1.00  0.00    -0.006 C 
ATOM     11  C   UNL     1     -95.412  26.592 -34.771  1.00  0.00    -0.027 C 
ATOM     12  C   UNL     1     -96.580  29.070 -39.099  1.00  0.00     0.011 C 
ATOM     13  C   UNL     1     -95.375  27.102 -40.071  1.00  0.00     0.011 C 
ATOM     14  C   UNL     1     -97.990  28.066 -33.475  1.00  0.00     0.017 C 
ATOM     15  C   UNL     1     -97.292  25.605 -32.811  1.00  0.00    -0.020 C 
ATOM     16  C   UNL     1     -94.998  26.756 -33.343  1.00  0.00     0.032 C 
ATOM     17  C   UNL     1     -95.753  25.785 -32.399  1.00  0.00     0.006 C 
ATOM     18  C   UNL     1     -98.194  25.791 -31.563  1.00  0.00     0.008 C 
ATOM     19  C   UNL     1     -97.451  24.116 -33.301  1.00  0.00     0.012 C 
ATOM     20  C   UNL     1     -95.381  25.982 -30.839  1.00  0.00    -0.025 C 
ATOM     21  C   UNL     1     -97.760  24.899 -30.416  1.00  0.00     0.005 C 
ATOM     22  C   UNL     1     -96.429  25.366 -29.773  1.00  0.00     0.003 C 
ATOM     23  C   UNL     1     -93.939  25.393 -30.621  1.00  0.00     0.010 C 
ATOM     24  C   UNL     1     -95.264  27.502 -30.504  1.00  0.00     0.012 C 
ATOM     25  C   UNL     1     -95.842  24.291 -28.759  1.00  0.00    -0.006 C 
ATOM     26  C   UNL     1     -93.875  23.870 -30.398  1.00  0.00     0.033 C 
ATOM     27  C   UNL     1     -95.023  23.254 -29.573  1.00  0.00     0.120 C 
ATOM     28  C   UNL     1     -95.003  24.949 -27.625  1.00  0.00     0.014 C 
ATOM     29  C   UNL     1     -96.991  23.554 -28.001  1.00  0.00     0.014 C 
ENDROOT
BRANCH   1  30
ATOM     30  C   UNL     1     -98.302  24.915 -37.154  1.00  0.00     0.048 C 
ATOM     31  O   UNL     1     -99.285  24.223 -37.517  1.00  0.00    -0.550 OA
ATOM     32  O   UNL     1     -97.111  24.266 -36.859  1.00  0.00    -0.550 OA
ENDBRANCH   1  30
BRANCH  27  33
ATOM     33  O   UNL     1     -94.487  22.250 -28.750  1.00  0.00    -0.393 OA
ATOM     34  H   UNL     1     -94.813  22.411 -27.829  1.00  0.00     0.210 HD
ENDBRANCH  27  33
TORSDOF 2
ENDMDL
MODEL 4
REMARK VINA RESULT:    -4.672      9.859     11.990
REMARK INTER + INTRA:          -4.955
REMARK INTER:                  -5.072
REMARK INTRA:                   0.117
REMARK UNBOUND:                 0.127
REMARK SMILES CC1(C)CC[C@]2(C(=O)[O-])CC[C@]3(C)C(=CC[C@H]4[C@]5(C)CC[C@@H](O)C(C)(C)[C@@H]5CC[C@]43C)[C@H]2C1
REMARK SMILES IDX 6 1 5 2 10 3 32 4 4 5 11 6 14 7 33 8 2 9 12 10 15 11 1 12
REMARK SMILES IDX 3 13 13 14 30 15 16 16 17 17 29 18 31 19 18 20 28 21 27 22
REMARK SMILES IDX 20 23 19 24 24 25 21 26 22 27 25 28 26 29 7 30 8 31 9 32
REMARK SMILES IDX 23 33
REMARK H PARENT 23 34
REMARK Flexibility Score: inf
ROOT
ATOM      1  C   UNL     1    -103.564  25.582 -28.599  1.00  0.00     0.017 C 
ATOM      2  C   UNL     1    -104.969  25.624 -27.954  1.00  0.00     0.014 C 
ATOM      3  C   UNL     1    -103.398  24.229 -29.331  1.00  0.00     0.014 C 
ATOM      4  C   UNL     1    -102.476  25.650 -27.480  1.00  0.00     0.028 C 
ATOM      5  C   UNL     1    -105.171  26.890 -27.104  1.00  0.00     0.007 C 
ATOM      6  C   UNL     1    -102.037  24.139 -30.036  1.00  0.00     0.013 C 
ATOM      7  C   UNL     1    -101.059  25.471 -28.071  1.00  0.00    -0.064 C 
ATOM      8  C   UNL     1    -102.672  26.870 -26.525  1.00  0.00     0.015 C 
ATOM      9  C   UNL     1    -104.121  27.016 -25.969  1.00  0.00    -0.035 C 
ATOM     10  C   UNL     1    -100.779  24.340 -29.090  1.00  0.00    -0.006 C 
ATOM     11  C   UNL     1     -99.997  26.088 -27.495  1.00  0.00    -0.027 C 
ATOM     12  C   UNL     1    -104.390  25.960 -24.863  1.00  0.00     0.011 C 
ATOM     13  C   UNL     1    -104.268  28.417 -25.332  1.00  0.00     0.011 C 
ATOM     14  C   UNL     1    -100.623  23.009 -28.289  1.00  0.00     0.017 C 
ATOM     15  C   UNL     1     -99.445  24.683 -29.959  1.00  0.00    -0.020 C 
ATOM     16  C   UNL     1     -98.624  25.506 -27.610  1.00  0.00     0.032 C 
ATOM     17  C   UNL     1     -98.222  25.238 -29.083  1.00  0.00     0.006 C 
ATOM     18  C   UNL     1     -98.996  23.425 -30.748  1.00  0.00     0.008 C 
ATOM     19  C   UNL     1     -99.789  25.810 -31.007  1.00  0.00     0.012 C 
ATOM     20  C   UNL     1     -96.771  24.544 -29.240  1.00  0.00    -0.025 C 
ATOM     21  C   UNL     1     -97.736  23.684 -31.552  1.00  0.00     0.005 C 
ATOM     22  C   UNL     1     -96.479  23.818 -30.655  1.00  0.00     0.003 C 
ATOM     23  C   UNL     1     -95.689  25.643 -28.933  1.00  0.00     0.010 C 
ATOM     24  C   UNL     1     -96.579  23.451 -28.143  1.00  0.00     0.012 C 
ATOM     25  C   UNL     1     -95.217  24.349 -31.464  1.00  0.00    -0.006 C 
ATOM     26  C   UNL     1     -95.327  26.562 -30.114  1.00  0.00     0.033 C 
ATOM     27  C   UNL     1     -95.286  25.899 -31.506  1.00  0.00     0.120 C 
ATOM     28  C   UNL     1     -93.875  23.833 -30.868  1.00  0.00     0.014 C 
ATOM     29  C   UNL     1     -95.220  23.798 -32.925  1.00  0.00     0.014 C 
ENDROOT
BRANCH   1  30
ATOM     30  C   UNL     1    -103.454  26.723 -29.613  1.00  0.00     0.048 C 
ATOM     31  O   UNL     1    -104.254  26.789 -30.579  1.00  0.00    -0.550 OA
ATOM     32  O   UNL     1    -102.459  27.685 -29.513  1.00  0.00    -0.550 OA
ENDBRANCH   1  30
BRANCH  27  33
ATOM     33  O   UNL     1     -94.215  26.450 -32.228  1.00  0.00    -0.393 OA
ATOM     34  H   UNL     1     -94.075  27.375 -31.899  1.00  0.00     0.210 HD
ENDBRANCH  27  33
TORSDOF 2
ENDMDL
MODEL 5
REMARK VINA RESULT:    -4.657      1.976      8.119
REMARK INTER + INTRA:          -4.939
REMARK INTER:                  -5.333
REMARK INTRA:                   0.395
REMARK UNBOUND:                 0.127
REMARK SMILES CC1(C)CC[C@]2(C(=O)[O-])CC[C@]3(C)C(=CC[C@H]4[C@]5(C)CC[C@@H](O)C(C)(C)[C@@H]5CC[C@]43C)[C@H]2C1
REMARK SMILES IDX 6 1 5 2 10 3 32 4 4 5 11 6 14 7 33 8 2 9 12 10 15 11 1 12
REMARK SMILES IDX 3 13 13 14 30 15 16 16 17 17 29 18 31 19 18 20 28 21 27 22
REMARK SMILES IDX 20 23 19 24 24 25 21 26 22 27 25 28 26 29 7 30 8 31 9 32
REMARK SMILES IDX 23 33
REMARK H PARENT 23 34
REMARK Flexibility Score: inf
ROOT
ATOM      1  C   UNL     1     -95.882  26.023 -38.284  1.00  0.00     0.017 C 
ATOM      2  C   UNL     1     -94.508  25.439 -37.884  1.00  0.00     0.014 C 
ATOM      3  C   UNL     1     -96.503  26.715 -37.047  1.00  0.00     0.014 C 
ATOM      4  C   UNL     1     -96.839  24.861 -38.704  1.00  0.00     0.028 C 
ATOM      5  C   UNL     1     -93.875  24.629 -39.028  1.00  0.00     0.007 C 
ATOM      6  C   UNL     1     -97.855  27.359 -37.387  1.00  0.00     0.013 C 
ATOM      7  C   UNL     1     -98.266  25.387 -38.978  1.00  0.00    -0.064 C 
ATOM      8  C   UNL     1     -96.221  23.944 -39.807  1.00  0.00     0.015 C 
ATOM      9  C   UNL     1     -94.775  23.454 -39.491  1.00  0.00    -0.035 C 
ATOM     10  C   UNL     1     -98.938  26.366 -37.985  1.00  0.00    -0.006 C 
ATOM     11  C   UNL     1     -99.049  24.781 -39.905  1.00  0.00    -0.027 C 
ATOM     12  C   UNL     1     -94.802  22.336 -38.414  1.00  0.00     0.011 C 
ATOM     13  C   UNL     1     -94.162  22.857 -40.778  1.00  0.00     0.011 C 
ATOM     14  C   UNL     1     -99.468  25.527 -36.780  1.00  0.00     0.017 C 
ATOM     15  C   UNL     1    -100.135  27.186 -38.726  1.00  0.00    -0.020 C 
ATOM     16  C   UNL     1    -100.540  24.823 -39.788  1.00  0.00     0.032 C 
ATOM     17  C   UNL     1    -101.075  26.272 -39.648  1.00  0.00     0.006 C 
ATOM     18  C   UNL     1    -100.996  27.925 -37.669  1.00  0.00     0.008 C 
ATOM     19  C   UNL     1     -99.502  28.273 -39.676  1.00  0.00     0.012 C 
ATOM     20  C   UNL     1    -102.677  26.350 -39.449  1.00  0.00    -0.025 C 
ATOM     21  C   UNL     1    -102.146  28.680 -38.307  1.00  0.00     0.005 C 
ATOM     22  C   UNL     1    -103.252  27.733 -38.840  1.00  0.00     0.003 C 
ATOM     23  C   UNL     1    -103.341  26.024 -40.837  1.00  0.00     0.010 C 
ATOM     24  C   UNL     1    -103.153  25.220 -38.483  1.00  0.00     0.012 C 
ATOM     25  C   UNL     1    -104.317  28.501 -39.737  1.00  0.00    -0.006 C 
ATOM     26  C   UNL     1    -103.448  27.210 -41.813  1.00  0.00     0.033 C 
ATOM     27  C   UNL     1    -103.763  28.582 -41.185  1.00  0.00     0.120 C 
ATOM     28  C   UNL     1    -105.724  27.836 -39.679  1.00  0.00     0.014 C 
ATOM     29  C   UNL     1    -104.559  29.947 -39.200  1.00  0.00     0.014 C 
ENDROOT
BRANCH   1  30
ATOM     30  C   UNL     1     -95.674  27.058 -39.392  1.00  0.00     0.048 C 
ATOM     31  O   UNL     1     -95.478  28.264 -39.101  1.00  0.00    -0.550 OA
ATOM     32  O   UNL     1     -95.729  26.703 -40.732  1.00  0.00    -0.550 OA
ENDBRANCH   1  30
BRANCH  27  33
ATOM     33  O   UNL     1    -104.639  29.271 -42.041  1.00  0.00    -0.393 OA
ATOM     34  H   UNL     1    -105.355  29.667 -41.483  1.00  0.00     0.210 HD
ENDBRANCH  27  33
TORSDOF 2
ENDMDL
MODEL 6
REMARK VINA RESULT:    -4.644      5.594      9.890
REMARK INTER + INTRA:          -4.925
REMARK INTER:                  -5.042
REMARK INTRA:                   0.117
REMARK UNBOUND:                 0.127
REMARK SMILES CC1(C)CC[C@]2(C(=O)[O-])CC[C@]3(C)C(=CC[C@H]4[C@]5(C)CC[C@@H](O)C(C)(C)[C@@H]5CC[C@]43C)[C@H]2C1
REMARK SMILES IDX 6 1 5 2 10 3 32 4 4 5 11 6 14 7 33 8 2 9 12 10 15 11 1 12
REMARK SMILES IDX 3 13 13 14 30 15 16 16 17 17 29 18 31 19 18 20 28 21 27 22
REMARK SMILES IDX 20 23 19 24 24 25 21 26 22 27 25 28 26 29 7 30 8 31 9 32
REMARK SMILES IDX 23 33
REMARK H PARENT 23 34
REMARK Flexibility Score: inf
ROOT
ATOM      1  C   UNL     1     -99.072  23.374 -30.848  1.00  0.00     0.017 C 
ATOM      2  C   UNL     1     -99.136  22.756 -29.433  1.00  0.00     0.014 C 
ATOM      3  C   UNL     1     -99.497  22.297 -31.875  1.00  0.00     0.014 C 
ATOM      4  C   UNL     1     -97.598  23.779 -31.173  1.00  0.00     0.028 C 
ATOM      5  C   UNL     1     -98.612  23.727 -28.361  1.00  0.00     0.007 C 
ATOM      6  C   UNL     1     -99.501  22.859 -33.304  1.00  0.00     0.013 C 
ATOM      7  C   UNL     1     -97.466  24.272 -32.632  1.00  0.00    -0.064 C 
ATOM      8  C   UNL     1     -96.973  24.700 -30.077  1.00  0.00     0.015 C 
ATOM      9  C   UNL     1     -97.148  24.167 -28.623  1.00  0.00    -0.035 C 
ATOM     10  C   UNL     1     -98.119  23.473 -33.785  1.00  0.00    -0.006 C 
ATOM     11  C   UNL     1     -96.545  25.216 -32.952  1.00  0.00    -0.027 C 
ATOM     12  C   UNL     1     -96.172  22.990 -28.353  1.00  0.00     0.011 C 
ATOM     13  C   UNL     1     -96.802  25.304 -27.634  1.00  0.00     0.011 C 
ATOM     14  C   UNL     1     -97.192  22.257 -34.102  1.00  0.00     0.017 C 
ATOM     15  C   UNL     1     -98.328  24.431 -35.086  1.00  0.00    -0.020 C 
ATOM     16  C   UNL     1     -95.966  25.279 -34.329  1.00  0.00     0.032 C 
ATOM     17  C   UNL     1     -97.062  25.356 -35.422  1.00  0.00     0.006 C 
ATOM     18  C   UNL     1     -98.688  23.565 -36.322  1.00  0.00     0.008 C 
ATOM     19  C   UNL     1     -99.535  25.408 -34.817  1.00  0.00     0.012 C 
ATOM     20  C   UNL     1     -96.473  25.355 -36.927  1.00  0.00    -0.025 C 
ATOM     21  C   UNL     1     -98.862  24.409 -37.570  1.00  0.00     0.005 C 
ATOM     22  C   UNL     1     -97.516  24.967 -38.100  1.00  0.00     0.003 C 
ATOM     23  C   UNL     1     -95.835  26.770 -37.184  1.00  0.00     0.010 C 
ATOM     24  C   UNL     1     -95.294  24.339 -37.041  1.00  0.00     0.012 C 
ATOM     25  C   UNL     1     -97.725  26.057 -39.238  1.00  0.00    -0.006 C 
ATOM     26  C   UNL     1     -96.821  27.871 -37.617  1.00  0.00     0.033 C 
ATOM     27  C   UNL     1     -97.963  27.430 -38.555  1.00  0.00     0.120 C 
ATOM     28  C   UNL     1     -96.536  26.095 -40.243  1.00  0.00     0.014 C 
ATOM     29  C   UNL     1     -98.961  25.707 -40.126  1.00  0.00     0.014 C 
ENDROOT
BRANCH   1  30
ATOM     30  C   UNL     1    -100.046  24.552 -30.916  1.00  0.00     0.048 C 
ATOM     31  O   UNL     1    -101.268  24.374 -30.688  1.00  0.00    -0.550 OA
ATOM     32  O   UNL     1     -99.617  25.825 -31.260  1.00  0.00    -0.550 OA
ENDBRANCH   1  30
BRANCH  27  33
ATOM     33  O   UNL     1     -98.182  28.451 -39.495  1.00  0.00    -0.393 OA
ATOM     34  H   UNL     1     -97.453  29.114 -39.393  1.00  0.00     0.210 HD
ENDBRANCH  27  33
TORSDOF 2
ENDMDL
MODEL 7
REMARK VINA RESULT:    -4.433      4.971     10.132
REMARK INTER + INTRA:          -4.695
REMARK INTER:                  -4.827
REMARK INTRA:                   0.132
REMARK UNBOUND:                 0.127
REMARK SMILES CC1(C)CC[C@]2(C(=O)[O-])CC[C@]3(C)C(=CC[C@H]4[C@]5(C)CC[C@@H](O)C(C)(C)[C@@H]5CC[C@]43C)[C@H]2C1
REMARK SMILES IDX 6 1 5 2 10 3 32 4 4 5 11 6 14 7 33 8 2 9 12 10 15 11 1 12
REMARK SMILES IDX 3 13 13 14 30 15 16 16 17 17 29 18 31 19 18 20 28 21 27 22
REMARK SMILES IDX 20 23 19 24 24 25 21 26 22 27 25 28 26 29 7 30 8 31 9 32
REMARK SMILES IDX 23 33
REMARK H PARENT 23 34
REMARK Flexibility Score: inf
ROOT
ATOM      1  C   UNL     1     -97.302  24.252 -31.356  1.00  0.00     0.017 C 
ATOM      2  C   UNL     1     -97.429  23.886 -29.859  1.00  0.00     0.014 C 
ATOM      3  C   UNL     1     -98.371  23.463 -32.148  1.00  0.00     0.014 C 
ATOM      4  C   UNL     1     -95.900  23.806 -31.883  1.00  0.00     0.028 C 
ATOM      5  C   UNL     1     -96.321  24.538 -29.015  1.00  0.00     0.007 C 
ATOM      6  C   UNL     1     -98.332  23.814 -33.643  1.00  0.00     0.013 C 
ATOM      7  C   UNL     1     -95.784  24.027 -33.408  1.00  0.00    -0.064 C 
ATOM      8  C   UNL     1     -94.727  24.366 -31.017  1.00  0.00     0.015 C 
ATOM      9  C   UNL     1     -94.900  24.133 -29.486  1.00  0.00    -0.035 C 
ATOM     10  C   UNL     1     -96.930  23.580 -34.348  1.00  0.00    -0.006 C 
ATOM     11  C   UNL     1     -94.583  24.327 -33.965  1.00  0.00    -0.027 C 
ATOM     12  C   UNL     1     -94.612  22.651 -29.124  1.00  0.00     0.011 C 
ATOM     13  C   UNL     1     -93.875  25.011 -28.732  1.00  0.00     0.011 C 
ATOM     14  C   UNL     1     -96.800  22.038 -34.552  1.00  0.00     0.017 C 
ATOM     15  C   UNL     1     -96.846  24.387 -35.761  1.00  0.00    -0.020 C 
ATOM     16  C   UNL     1     -94.288  23.958 -35.383  1.00  0.00     0.032 C 
ATOM     17  C   UNL     1     -95.364  24.491 -36.363  1.00  0.00     0.006 C 
ATOM     18  C   UNL     1     -97.789  23.724 -36.799  1.00  0.00     0.008 C 
ATOM     19  C   UNL     1     -97.341  25.867 -35.538  1.00  0.00     0.012 C 
ATOM     20  C   UNL     1     -95.113  24.051 -37.899  1.00  0.00    -0.025 C 
ATOM     21  C   UNL     1     -97.724  24.422 -38.145  1.00  0.00     0.005 C 
ATOM     22  C   UNL     1     -96.389  24.153 -38.886  1.00  0.00     0.003 C 
ATOM     23  C   UNL     1     -93.908  24.903 -38.441  1.00  0.00     0.010 C 
ATOM     24  C   UNL     1     -94.635  22.567 -37.959  1.00  0.00     0.012 C 
ATOM     25  C   UNL     1     -96.212  25.088 -40.160  1.00  0.00    -0.006 C 
ATOM     26  C   UNL     1     -94.270  26.311 -38.950  1.00  0.00     0.033 C 
ATOM     27  C   UNL     1     -95.617  26.442 -39.689  1.00  0.00     0.120 C 
ATOM     28  C   UNL     1     -95.349  24.416 -41.268  1.00  0.00     0.014 C 
ATOM     29  C   UNL     1     -97.586  25.349 -40.856  1.00  0.00     0.014 C 
ENDROOT
BRANCH   1  30
ATOM     30  C   UNL     1     -97.555  25.752 -31.519  1.00  0.00     0.048 C 
ATOM     31  O   UNL     1     -98.691  26.230 -31.278  1.00  0.00    -0.550 OA
ATOM     32  O   UNL     1     -96.559  26.608 -31.965  1.00  0.00    -0.550 OA
ENDBRANCH   1  30
BRANCH  27  33
ATOM     33  O   UNL     1     -95.451  27.339 -40.757  1.00  0.00    -0.393 OA
ATOM     34  H   UNL     1     -94.506  27.638 -40.754  1.00  0.00     0.210 HD
ENDBRANCH  27  33
TORSDOF 2
ENDMDL
MODEL 8
REMARK VINA RESULT:    -4.375      1.968      2.570
REMARK INTER + INTRA:          -4.632
REMARK INTER:                  -4.754
REMARK INTRA:                   0.122
REMARK UNBOUND:                 0.127
REMARK SMILES CC1(C)CC[C@]2(C(=O)[O-])CC[C@]3(C)C(=CC[C@H]4[C@]5(C)CC[C@@H](O)C(C)(C)[C@@H]5CC[C@]43C)[C@H]2C1
REMARK SMILES IDX 6 1 5 2 10 3 32 4 4 5 11 6 14 7 33 8 2 9 12 10 15 11 1 12
REMARK SMILES IDX 3 13 13 14 30 15 16 16 17 17 29 18 31 19 18 20 28 21 27 22
REMARK SMILES IDX 20 23 19 24 24 25 21 26 22 27 25 28 26 29 7 30 8 31 9 32
REMARK SMILES IDX 23 33
REMARK H PARENT 23 34
REMARK Flexibility Score: inf
ROOT
ATOM      1  C   UNL     1    -103.929  26.537 -38.797  1.00  0.00     0.017 C 
ATOM      2  C   UNL     1    -105.385  27.050 -38.725  1.00  0.00     0.014 C 
ATOM      3  C   UNL     1    -103.564  25.895 -37.438  1.00  0.00     0.014 C 
ATOM      4  C   UNL     1    -102.962  27.744 -39.024  1.00  0.00     0.028 C 
ATOM      5  C   UNL     1    -105.788  27.810 -39.999  1.00  0.00     0.007 C 
ATOM      6  C   UNL     1    -102.140  25.320 -37.455  1.00  0.00     0.013 C 
ATOM      7  C   UNL     1    -101.485  27.292 -38.963  1.00  0.00    -0.064 C 
ATOM      8  C   UNL     1    -103.365  28.612 -40.258  1.00  0.00     0.015 C 
ATOM      9  C   UNL     1    -104.867  29.027 -40.280  1.00  0.00    -0.035 C 
ATOM     10  C   UNL     1    -101.002  26.363 -37.823  1.00  0.00    -0.006 C 
ATOM     11  C   UNL     1    -100.547  27.928 -39.709  1.00  0.00    -0.027 C 
ATOM     12  C   UNL     1    -105.136  30.158 -39.252  1.00  0.00     0.011 C 
ATOM     13  C   UNL     1    -105.209  29.574 -41.686  1.00  0.00     0.011 C 
ATOM     14  C   UNL     1    -100.795  27.245 -36.551  1.00  0.00     0.017 C 
ATOM     15  C   UNL     1     -99.632  25.600 -38.261  1.00  0.00    -0.020 C 
ATOM     16  C   UNL     1     -99.120  27.968 -39.264  1.00  0.00     0.032 C 
ATOM     17  C   UNL     1     -98.557  26.552 -38.975  1.00  0.00     0.006 C 
ATOM     18  C   UNL     1     -98.991  24.922 -37.022  1.00  0.00     0.008 C 
ATOM     19  C   UNL     1     -99.983  24.468 -39.300  1.00  0.00     0.012 C 
ATOM     20  C   UNL     1     -97.037  26.563 -38.425  1.00  0.00    -0.025 C 
ATOM     21  C   UNL     1     -97.691  24.223 -37.372  1.00  0.00     0.005 C 
ATOM     22  C   UNL     1     -96.543  25.221 -37.671  1.00  0.00     0.003 C 
ATOM     23  C   UNL     1     -96.099  26.908 -39.639  1.00  0.00     0.010 C 
ATOM     24  C   UNL     1     -96.844  27.729 -37.405  1.00  0.00     0.012 C 
ATOM     25  C   UNL     1     -95.268  24.500 -38.291  1.00  0.00    -0.006 C 
ATOM     26  C   UNL     1     -95.719  25.717 -40.539  1.00  0.00     0.033 C 
ATOM     27  C   UNL     1     -95.483  24.371 -39.823  1.00  0.00     0.120 C 
ATOM     28  C   UNL     1     -93.945  25.241 -37.940  1.00  0.00     0.014 C 
ATOM     29  C   UNL     1     -95.079  23.076 -37.679  1.00  0.00     0.014 C 
ENDROOT
BRANCH   1  30
ATOM     30  C   UNL     1    -103.834  25.478 -39.899  1.00  0.00     0.048 C 
ATOM     31  O   UNL     1    -104.543  24.443 -39.842  1.00  0.00    -0.550 OA
ATOM     32  O   UNL     1    -102.949  25.615 -40.958  1.00  0.00    -0.550 OA
ENDBRANCH   1  30
BRANCH  27  33
ATOM     33  O   UNL     1     -94.406  23.721 -40.448  1.00  0.00    -0.393 OA
ATOM     34  H   UNL     1     -94.159  22.943 -39.887  1.00  0.00     0.210 HD
ENDBRANCH  27  33
TORSDOF 2
ENDMDL
MODEL 9
REMARK VINA RESULT:    -4.338      9.683     13.216
REMARK INTER + INTRA:          -4.592
REMARK INTER:                  -4.709
REMARK INTRA:                   0.117
REMARK UNBOUND:                 0.127
REMARK SMILES CC1(C)CC[C@]2(C(=O)[O-])CC[C@]3(C)C(=CC[C@H]4[C@]5(C)CC[C@@H](O)C(C)(C)[C@@H]5CC[C@]43C)[C@H]2C1
REMARK SMILES IDX 6 1 5 2 10 3 32 4 4 5 11 6 14 7 33 8 2 9 12 10 15 11 1 12
REMARK SMILES IDX 3 13 13 14 30 15 16 16 17 17 29 18 31 19 18 20 28 21 27 22
REMARK SMILES IDX 20 23 19 24 24 25 21 26 22 27 25 28 26 29 7 30 8 31 9 32
REMARK SMILES IDX 23 33
REMARK H PARENT 23 34
REMARK Flexibility Score: inf
ROOT
ATOM      1  C   UNL     1     -95.717  24.308 -29.815  1.00  0.00     0.017 C 
ATOM      2  C   UNL     1     -94.353  23.726 -30.251  1.00  0.00     0.014 C 
ATOM      3  C   UNL     1     -96.180  23.573 -28.535  1.00  0.00     0.014 C 
ATOM      4  C   UNL     1     -96.780  24.033 -30.928  1.00  0.00     0.028 C 
ATOM      5  C   UNL     1     -93.877  24.322 -31.587  1.00  0.00     0.007 C 
ATOM      6  C   UNL     1     -97.512  24.135 -28.018  1.00  0.00     0.013 C 
ATOM      7  C   UNL     1     -98.189  24.475 -30.472  1.00  0.00    -0.064 C 
ATOM      8  C   UNL     1     -96.323  24.538 -32.333  1.00  0.00     0.015 C 
ATOM      9  C   UNL     1     -94.889  24.079 -32.738  1.00  0.00    -0.035 C 
ATOM     10  C   UNL     1     -98.706  24.094 -29.063  1.00  0.00    -0.006 C 
ATOM     11  C   UNL     1     -99.089  24.927 -31.381  1.00  0.00    -0.027 C 
ATOM     12  C   UNL     1     -94.892  22.582 -33.150  1.00  0.00     0.011 C 
ATOM     13  C   UNL     1     -94.432  24.906 -33.962  1.00  0.00     0.011 C 
ATOM     14  C   UNL     1     -99.180  22.607 -29.120  1.00  0.00     0.017 C 
ATOM     15  C   UNL     1     -99.908  25.097 -28.615  1.00  0.00    -0.020 C 
ATOM     16  C   UNL     1    -100.557  24.782 -31.135  1.00  0.00     0.032 C 
ATOM     17  C   UNL     1    -100.984  25.380 -29.770  1.00  0.00     0.006 C 
ATOM     18  C   UNL     1    -100.623  24.529 -27.360  1.00  0.00     0.008 C 
ATOM     19  C   UNL     1     -99.294  26.495 -28.226  1.00  0.00     0.012 C 
ATOM     20  C   UNL     1    -102.553  25.179 -29.440  1.00  0.00    -0.025 C 
ATOM     21  C   UNL     1    -101.775  25.413 -26.920  1.00  0.00     0.005 C 
ATOM     22  C   UNL     1    -102.982  25.338 -27.890  1.00  0.00     0.003 C 
ATOM     23  C   UNL     1    -103.357  26.175 -30.355  1.00  0.00     0.010 C 
ATOM     24  C   UNL     1    -103.013  23.752 -29.873  1.00  0.00     0.012 C 
ATOM     25  C   UNL     1    -104.071  26.454 -27.577  1.00  0.00    -0.006 C 
ATOM     26  C   UNL     1    -103.474  27.614 -29.821  1.00  0.00     0.033 C 
ATOM     27  C   UNL     1    -103.644  27.762 -28.295  1.00  0.00     0.120 C 
ATOM     28  C   UNL     1    -105.507  26.003 -27.977  1.00  0.00     0.014 C 
ATOM     29  C   UNL     1    -104.171  26.722 -26.042  1.00  0.00     0.014 C 
ENDROOT
BRANCH   1  30
ATOM     30  C   UNL     1     -95.542  25.797 -29.509  1.00  0.00     0.048 C 
ATOM     31  O   UNL     1     -94.740  26.168 -28.617  1.00  0.00    -0.550 OA
ATOM     32  O   UNL     1     -96.280  26.764 -30.177  1.00  0.00    -0.550 OA
ENDBRANCH   1  30
BRANCH  27  33
ATOM     33  O   UNL     1    -104.545  28.811 -28.049  1.00  0.00    -0.393 OA
ATOM     34  H   UNL     1    -104.368  29.522 -28.716  1.00  0.00     0.210 HD
ENDBRANCH  27  33
TORSDOF 2
ENDMDL
