MODEL 1
REMARK VINA RESULT:    -5.799      0.000      0.000
REMARK INTER + INTRA:          -9.077
REMARK INTER:                  -7.833
REMARK INTRA:                  -1.244
REMARK UNBOUND:                -1.244
REMARK SMILES O=c1c(-c2ccc(O)cc2)coc2c([C@@H]3O[C@@H](CO)[C@@H](O)[C@H](O)[C@H]3O)c(O)ccc12
REMARK SMILES IDX 3 1 11 2 12 3 13 4 30 5 2 6 1 7 29 8 28 9 26 10 14 11 4 12
REMARK SMILES IDX 5 13 6 14 7 15 10 16 9 17 8 18 15 20 24 21 16 22 22 23 17 24
REMARK SMILES IDX 20 25 25 26 23 28 18 30 19 31 21 33 27 35
REMARK H PARENT 8 19 25 27 23 29 19 32 21 34 27 36
REMARK Flexibility Score: inf
ROOT
ATOM      1  C   UNL     1      46.143  37.488  48.402  1.00  0.00     0.065 A 
ATOM      2  C   UNL     1      47.087  38.195  49.159  1.00  0.00     0.208 A 
ATOM      3  O   UNL     1      46.919  39.483  49.429  1.00  0.00    -0.463 OA
ATOM      4  C   UNL     1      45.868  40.187  49.011  1.00  0.00     0.147 A 
ATOM      5  C   UNL     1      44.867  39.551  48.241  1.00  0.00     0.066 A 
ATOM      6  C   UNL     1      45.018  38.188  47.929  1.00  0.00     0.200 A 
ATOM      7  O   UNL     1      44.159  37.598  47.215  1.00  0.00    -0.288 OA
ATOM      8  C   UNL     1      43.757  40.287  47.806  1.00  0.00     0.020 A 
ATOM      9  C   UNL     1      43.626  41.628  48.155  1.00  0.00     0.047 A 
ATOM     10  C   UNL     1      44.594  42.270  48.931  1.00  0.00     0.125 A 
ATOM     11  C   UNL     1      45.761  41.564  49.339  1.00  0.00     0.069 A 
ENDROOT
BRANCH   1  12
ATOM     12  C   UNL     1      46.350  36.046  48.119  1.00  0.00    -0.011 A 
ATOM     13  C   UNL     1      45.894  35.066  49.018  1.00  0.00     0.013 A 
ATOM     14  C   UNL     1      46.100  33.709  48.751  1.00  0.00     0.047 A 
ATOM     15  C   UNL     1      46.768  33.315  47.583  1.00  0.00     0.115 A 
ATOM     16  C   UNL     1      47.025  35.642  46.953  1.00  0.00     0.013 A 
ATOM     17  C   UNL     1      47.230  34.285  46.688  1.00  0.00     0.047 A 
BRANCH  15  18
ATOM     18  O   UNL     1      46.979  31.967  47.306  1.00  0.00    -0.508 OA
ATOM     19  H   UNL     1      47.876  31.526  47.471  1.00  0.00     0.293 HD
ENDBRANCH  15  18
ENDBRANCH   1  12
BRANCH  11  20
ATOM     20  C   UNL     1      46.875  42.234  50.141  1.00  0.00     0.188 C 
ATOM     21  C   UNL     1      47.679  43.191  49.227  1.00  0.00     0.179 C 
ATOM     22  O   UNL     1      46.297  42.929  51.239  1.00  0.00    -0.362 OA
ATOM     23  C   UNL     1      48.761  43.923  50.044  1.00  0.00     0.177 C 
ATOM     24  C   UNL     1      47.261  43.569  52.070  1.00  0.00     0.176 C 
ATOM     25  C   UNL     1      48.123  44.583  51.280  1.00  0.00     0.177 C 
BRANCH  21  26
ATOM     26  O   UNL     1      48.255  42.500  48.146  1.00  0.00    -0.387 OA
ATOM     27  H   UNL     1      47.571  42.434  47.431  1.00  0.00     0.211 HD
ENDBRANCH  21  26
BRANCH  23  28
ATOM     28  O   UNL     1      49.426  44.874  49.250  1.00  0.00    -0.387 OA
ATOM     29  H   UNL     1      49.111  44.763  48.315  1.00  0.00     0.211 HD
ENDBRANCH  23  28
BRANCH  24  30
ATOM     30  C   UNL     1      48.078  42.564  52.915  1.00  0.00     0.191 C 
BRANCH  30  31
ATOM     31  O   UNL     1      48.559  43.179  54.079  1.00  0.00    -0.394 OA
ATOM     32  H   UNL     1      48.507  42.499  54.802  1.00  0.00     0.210 HD
ENDBRANCH  30  31
ENDBRANCH  24  30
BRANCH  25  33
ATOM     33  O   UNL     1      49.116  45.125  52.113  1.00  0.00    -0.388 OA
ATOM     34  H   UNL     1      49.985  44.759  51.804  1.00  0.00     0.211 HD
ENDBRANCH  25  33
ENDBRANCH  11  20
BRANCH  10  35
ATOM     35  O   UNL     1      44.340  43.602  49.276  1.00  0.00    -0.507 OA
ATOM     36  H   UNL     1      43.969  43.908  50.162  1.00  0.00     0.293 HD
ENDBRANCH  10  35
TORSDOF 9
ENDMDL
MODEL 2
REMARK VINA RESULT:    -5.667      2.163      2.725
REMARK INTER + INTRA:          -8.899
REMARK INTER:                  -7.719
REMARK INTRA:                  -1.179
REMARK UNBOUND:                -1.244
REMARK SMILES O=c1c(-c2ccc(O)cc2)coc2c([C@@H]3O[C@@H](CO)[C@@H](O)[C@H](O)[C@H]3O)c(O)ccc12
REMARK SMILES IDX 3 1 11 2 12 3 13 4 30 5 2 6 1 7 29 8 28 9 26 10 14 11 4 12
REMARK SMILES IDX 5 13 6 14 7 15 10 16 9 17 8 18 15 20 24 21 16 22 22 23 17 24
REMARK SMILES IDX 20 25 25 26 23 28 18 30 19 31 21 33 27 35
REMARK H PARENT 8 19 25 27 23 29 19 32 21 34 27 36
REMARK Flexibility Score: inf
ROOT
ATOM      1  C   UNL     1      46.149  37.583  48.098  1.00  0.00     0.065 A 
ATOM      2  C   UNL     1      47.126  38.245  48.854  1.00  0.00     0.208 A 
ATOM      3  O   UNL     1      46.789  39.004  49.888  1.00  0.00    -0.463 OA
ATOM      4  C   UNL     1      45.529  39.193  50.278  1.00  0.00     0.147 A 
ATOM      5  C   UNL     1      44.481  38.561  49.570  1.00  0.00     0.066 A 
ATOM      6  C   UNL     1      44.802  37.755  48.463  1.00  0.00     0.200 A 
ATOM      7  O   UNL     1      43.887  37.205  47.788  1.00  0.00    -0.288 OA
ATOM      8  C   UNL     1      43.155  38.752  49.982  1.00  0.00     0.020 A 
ATOM      9  C   UNL     1      42.875  39.534  51.098  1.00  0.00     0.047 A 
ATOM     10  C   UNL     1      43.897  40.151  51.823  1.00  0.00     0.125 A 
ATOM     11  C   UNL     1      45.249  40.023  51.395  1.00  0.00     0.069 A 
ENDROOT
BRANCH   1  12
ATOM     12  C   UNL     1      46.552  36.734  46.949  1.00  0.00    -0.011 A 
ATOM     13  C   UNL     1      46.389  35.338  46.997  1.00  0.00     0.013 A 
ATOM     14  C   UNL     1      46.778  34.542  45.915  1.00  0.00     0.047 A 
ATOM     15  C   UNL     1      47.338  35.131  44.773  1.00  0.00     0.115 A 
ATOM     16  C   UNL     1      47.121  37.316  45.802  1.00  0.00     0.013 A 
ATOM     17  C   UNL     1      47.509  36.518  44.722  1.00  0.00     0.047 A 
BRANCH  15  18
ATOM     18  O   UNL     1      47.729  34.349  43.690  1.00  0.00    -0.508 OA
ATOM     19  H   UNL     1      47.782  33.338  43.757  1.00  0.00     0.293 HD
ENDBRANCH  15  18
ENDBRANCH   1  12
BRANCH  11  20
ATOM     20  C   UNL     1      46.398  40.722  52.118  1.00  0.00     0.188 C 
ATOM     21  C   UNL     1      46.575  42.157  51.562  1.00  0.00     0.179 C 
ATOM     22  O   UNL     1      46.123  40.736  53.514  1.00  0.00    -0.362 OA
ATOM     23  C   UNL     1      47.686  42.894  52.335  1.00  0.00     0.177 C 
ATOM     24  C   UNL     1      47.153  41.347  54.284  1.00  0.00     0.176 C 
ATOM     25  C   UNL     1      47.415  42.808  53.848  1.00  0.00     0.177 C 
BRANCH  21  26
ATOM     26  O   UNL     1      46.854  42.140  50.184  1.00  0.00    -0.387 OA
ATOM     27  H   UNL     1      47.769  42.502  50.058  1.00  0.00     0.211 HD
ENDBRANCH  21  26
BRANCH  23  28
ATOM     28  O   UNL     1      47.783  44.231  51.913  1.00  0.00    -0.387 OA
ATOM     29  H   UNL     1      48.707  44.378  51.578  1.00  0.00     0.211 HD
ENDBRANCH  23  28
BRANCH  24  30
ATOM     30  C   UNL     1      48.426  40.473  54.370  1.00  0.00     0.191 C 
BRANCH  30  31
ATOM     31  O   UNL     1      49.092  40.693  55.585  1.00  0.00    -0.394 OA
ATOM     32  H   UNL     1      48.444  41.147  56.186  1.00  0.00     0.210 HD
ENDBRANCH  30  31
ENDBRANCH  24  30
BRANCH  25  33
ATOM     33  O   UNL     1      48.495  43.342  54.570  1.00  0.00    -0.388 OA
ATOM     34  H   UNL     1      48.721  42.687  55.281  1.00  0.00     0.211 HD
ENDBRANCH  25  33
ENDBRANCH  11  20
BRANCH  10  35
ATOM     35  O   UNL     1      43.515  40.868  52.962  1.00  0.00    -0.507 OA
ATOM     36  H   UNL     1      42.568  41.130  53.189  1.00  0.00     0.293 HD
ENDBRANCH  10  35
TORSDOF 9
ENDMDL
MODEL 3
REMARK VINA RESULT:    -5.416      1.615      1.931
REMARK INTER + INTRA:          -8.560
REMARK INTER:                  -7.435
REMARK INTRA:                  -1.125
REMARK UNBOUND:                -1.244
REMARK SMILES O=c1c(-c2ccc(O)cc2)coc2c([C@@H]3O[C@@H](CO)[C@@H](O)[C@H](O)[C@H]3O)c(O)ccc12
REMARK SMILES IDX 3 1 11 2 12 3 13 4 30 5 2 6 1 7 29 8 28 9 26 10 14 11 4 12
REMARK SMILES IDX 5 13 6 14 7 15 10 16 9 17 8 18 15 20 24 21 16 22 22 23 17 24
REMARK SMILES IDX 20 25 25 26 23 28 18 30 19 31 21 33 27 35
REMARK H PARENT 8 19 25 27 23 29 19 32 21 34 27 36
REMARK Flexibility Score: inf
ROOT
ATOM      1  C   UNL     1      45.504  37.177  49.731  1.00  0.00     0.065 A 
ATOM      2  C   UNL     1      46.520  37.907  50.363  1.00  0.00     0.208 A 
ATOM      3  O   UNL     1      46.691  39.198  50.107  1.00  0.00    -0.463 OA
ATOM      4  C   UNL     1      45.933  39.881  49.251  1.00  0.00     0.147 A 
ATOM      5  C   UNL     1      44.884  39.221  48.571  1.00  0.00     0.066 A 
ATOM      6  C   UNL     1      44.679  37.850  48.812  1.00  0.00     0.200 A 
ATOM      7  O   UNL     1      43.774  37.222  48.195  1.00  0.00    -0.288 OA
ATOM      8  C   UNL     1      44.080  39.939  47.676  1.00  0.00     0.020 A 
ATOM      9  C   UNL     1      44.294  41.300  47.481  1.00  0.00     0.047 A 
ATOM     10  C   UNL     1      45.311  41.976  48.158  1.00  0.00     0.125 A 
ATOM     11  C   UNL     1      46.181  41.261  49.030  1.00  0.00     0.069 A 
ENDROOT
BRANCH   1  12
ATOM     12  C   UNL     1      45.328  35.735  50.038  1.00  0.00    -0.011 A 
ATOM     13  C   UNL     1      44.995  35.315  51.339  1.00  0.00     0.013 A 
ATOM     14  C   UNL     1      44.839  33.955  51.625  1.00  0.00     0.047 A 
ATOM     15  C   UNL     1      45.018  32.999  50.616  1.00  0.00     0.115 A 
ATOM     16  C   UNL     1      45.512  34.768  49.034  1.00  0.00     0.013 A 
ATOM     17  C   UNL     1      45.355  33.410  49.323  1.00  0.00     0.047 A 
BRANCH  15  18
ATOM     18  O   UNL     1      44.865  31.642  50.890  1.00  0.00    -0.508 OA
ATOM     19  H   UNL     1      45.158  31.243  51.774  1.00  0.00     0.293 HD
ENDBRANCH  15  18
ENDBRANCH   1  12
BRANCH  11  20
ATOM     20  C   UNL     1      47.343  41.940  49.751  1.00  0.00     0.188 C 
ATOM     21  C   UNL     1      48.583  41.989  48.823  1.00  0.00     0.179 C 
ATOM     22  O   UNL     1      46.939  43.246  50.146  1.00  0.00    -0.362 OA
ATOM     23  C   UNL     1      49.738  42.735  49.518  1.00  0.00     0.177 C 
ATOM     24  C   UNL     1      47.950  43.957  50.855  1.00  0.00     0.176 C 
ATOM     25  C   UNL     1      49.246  44.104  50.022  1.00  0.00     0.177 C 
BRANCH  21  26
ATOM     26  O   UNL     1      48.984  40.697  48.440  1.00  0.00    -0.387 OA
ATOM     27  H   UNL     1      48.393  40.405  47.698  1.00  0.00     0.211 HD
ENDBRANCH  21  26
BRANCH  23  28
ATOM     28  O   UNL     1      50.832  42.881  48.646  1.00  0.00    -0.387 OA
ATOM     29  H   UNL     1      50.535  43.435  47.877  1.00  0.00     0.211 HD
ENDBRANCH  23  28
BRANCH  24  30
ATOM     30  C   UNL     1      48.172  43.407  52.283  1.00  0.00     0.191 C 
BRANCH  30  31
ATOM     31  O   UNL     1      48.557  44.438  53.152  1.00  0.00    -0.394 OA
ATOM     32  H   UNL     1      48.375  44.115  54.074  1.00  0.00     0.210 HD
ENDBRANCH  30  31
ENDBRANCH  24  30
BRANCH  25  33
ATOM     33  O   UNL     1      50.244  44.730  50.789  1.00  0.00    -0.388 OA
ATOM     34  H   UNL     1      50.839  44.013  51.130  1.00  0.00     0.211 HD
ENDBRANCH  25  33
ENDBRANCH  11  20
BRANCH  10  35
ATOM     35  O   UNL     1      45.406  43.354  47.936  1.00  0.00    -0.507 OA
ATOM     36  H   UNL     1      45.382  43.796  47.030  1.00  0.00     0.293 HD
ENDBRANCH  10  35
TORSDOF 9
ENDMDL
MODEL 4
REMARK VINA RESULT:    -5.322      2.531      8.242
REMARK INTER + INTRA:          -8.434
REMARK INTER:                  -7.327
REMARK INTRA:                  -1.106
REMARK UNBOUND:                -1.244
REMARK SMILES O=c1c(-c2ccc(O)cc2)coc2c([C@@H]3O[C@@H](CO)[C@@H](O)[C@H](O)[C@H]3O)c(O)ccc12
REMARK SMILES IDX 3 1 11 2 12 3 13 4 30 5 2 6 1 7 29 8 28 9 26 10 14 11 4 12
REMARK SMILES IDX 5 13 6 14 7 15 10 16 9 17 8 18 15 20 24 21 16 22 22 23 17 24
REMARK SMILES IDX 20 25 25 26 23 28 18 30 19 31 21 33 27 35
REMARK H PARENT 8 19 25 27 23 29 19 32 21 34 27 36
REMARK Flexibility Score: inf
ROOT
ATOM      1  C   UNL     1      46.413  41.934  52.888  1.00  0.00     0.065 A 
ATOM      2  C   UNL     1      46.750  40.607  52.587  1.00  0.00     0.208 A 
ATOM      3  O   UNL     1      46.368  40.050  51.445  1.00  0.00    -0.463 OA
ATOM      4  C   UNL     1      45.652  40.689  50.522  1.00  0.00     0.147 A 
ATOM      5  C   UNL     1      45.270  42.032  50.745  1.00  0.00     0.066 A 
ATOM      6  C   UNL     1      45.651  42.652  51.949  1.00  0.00     0.200 A 
ATOM      7  O   UNL     1      45.295  43.839  52.195  1.00  0.00    -0.288 OA
ATOM      8  C   UNL     1      44.523  42.710  49.772  1.00  0.00     0.020 A 
ATOM      9  C   UNL     1      44.186  42.074  48.581  1.00  0.00     0.047 A 
ATOM     10  C   UNL     1      44.571  40.755  48.332  1.00  0.00     0.125 A 
ATOM     11  C   UNL     1      45.280  40.022  49.325  1.00  0.00     0.069 A 
ENDROOT
BRANCH   1  12
ATOM     12  C   UNL     1      46.857  42.538  54.169  1.00  0.00    -0.011 A 
ATOM     13  C   UNL     1      45.934  42.791  55.200  1.00  0.00     0.013 A 
ATOM     14  C   UNL     1      46.357  43.369  56.402  1.00  0.00     0.047 A 
ATOM     15  C   UNL     1      47.705  43.703  56.586  1.00  0.00     0.115 A 
ATOM     16  C   UNL     1      48.206  42.883  54.360  1.00  0.00     0.013 A 
ATOM     17  C   UNL     1      48.626  43.460  55.562  1.00  0.00     0.047 A 
BRANCH  15  18
ATOM     18  O   UNL     1      48.137  44.278  57.779  1.00  0.00    -0.508 OA
ATOM     19  H   UNL     1      48.181  43.745  58.639  1.00  0.00     0.293 HD
ENDBRANCH  15  18
ENDBRANCH   1  12
BRANCH  11  20
ATOM     20  C   UNL     1      45.676  38.561  49.126  1.00  0.00     0.188 C 
ATOM     21  C   UNL     1      44.409  37.671  49.095  1.00  0.00     0.179 C 
ATOM     22  O   UNL     1      46.420  38.446  47.918  1.00  0.00    -0.362 OA
ATOM     23  C   UNL     1      44.795  36.204  48.825  1.00  0.00     0.177 C 
ATOM     24  C   UNL     1      46.861  37.118  47.654  1.00  0.00     0.176 C 
ATOM     25  C   UNL     1      45.681  36.121  47.569  1.00  0.00     0.177 C 
BRANCH  21  26
ATOM     26  O   UNL     1      43.680  37.781  50.293  1.00  0.00    -0.387 OA
ATOM     27  H   UNL     1      43.105  36.976  50.371  1.00  0.00     0.211 HD
ENDBRANCH  21  26
BRANCH  23  28
ATOM     28  O   UNL     1      43.646  35.405  48.687  1.00  0.00    -0.387 OA
ATOM     29  H   UNL     1      42.954  35.759  49.305  1.00  0.00     0.211 HD
ENDBRANCH  23  28
BRANCH  24  30
ATOM     30  C   UNL     1      48.001  36.672  48.599  1.00  0.00     0.191 C 
BRANCH  30  31
ATOM     31  O   UNL     1      48.894  35.826  47.926  1.00  0.00    -0.394 OA
ATOM     32  H   UNL     1      49.037  36.221  47.026  1.00  0.00     0.210 HD
ENDBRANCH  30  31
ENDBRANCH  24  30
BRANCH  25  33
ATOM     33  O   UNL     1      46.164  34.813  47.396  1.00  0.00    -0.388 OA
ATOM     34  H   UNL     1      47.153  34.875  47.343  1.00  0.00     0.211 HD
ENDBRANCH  25  33
ENDBRANCH  11  20
BRANCH  10  35
ATOM     35  O   UNL     1      44.233  40.228  47.081  1.00  0.00    -0.507 OA
ATOM     36  H   UNL     1      43.875  39.298  46.923  1.00  0.00     0.293 HD
ENDBRANCH  10  35
TORSDOF 9
ENDMDL
MODEL 5
REMARK VINA RESULT:    -5.316      3.297      8.957
REMARK INTER + INTRA:          -8.425
REMARK INTER:                  -8.246
REMARK INTRA:                  -0.179
REMARK UNBOUND:                -1.244
REMARK SMILES O=c1c(-c2ccc(O)cc2)coc2c([C@@H]3O[C@@H](CO)[C@@H](O)[C@H](O)[C@H]3O)c(O)ccc12
REMARK SMILES IDX 3 1 11 2 12 3 13 4 30 5 2 6 1 7 29 8 28 9 26 10 14 11 4 12
REMARK SMILES IDX 5 13 6 14 7 15 10 16 9 17 8 18 15 20 24 21 16 22 22 23 17 24
REMARK SMILES IDX 20 25 25 26 23 28 18 30 19 31 21 33 27 35
REMARK H PARENT 8 19 25 27 23 29 19 32 21 34 27 36
REMARK Flexibility Score: inf
ROOT
ATOM      1  C   UNL     1      45.923  43.602  54.820  1.00  0.00     0.065 A 
ATOM      2  C   UNL     1      45.115  42.659  54.169  1.00  0.00     0.208 A 
ATOM      3  O   UNL     1      45.298  42.375  52.886  1.00  0.00    -0.463 OA
ATOM      4  C   UNL     1      46.236  42.950  52.136  1.00  0.00     0.147 A 
ATOM      5  C   UNL     1      47.095  43.913  52.714  1.00  0.00     0.066 A 
ATOM      6  C   UNL     1      46.924  44.244  54.071  1.00  0.00     0.200 A 
ATOM      7  O   UNL     1      47.652  45.125  54.609  1.00  0.00    -0.288 OA
ATOM      8  C   UNL     1      48.089  44.514  51.930  1.00  0.00     0.020 A 
ATOM      9  C   UNL     1      48.247  44.144  50.598  1.00  0.00     0.047 A 
ATOM     10  C   UNL     1      47.422  43.181  50.012  1.00  0.00     0.125 A 
ATOM     11  C   UNL     1      46.367  42.594  50.768  1.00  0.00     0.069 A 
ENDROOT
BRANCH   1  12
ATOM     12  C   UNL     1      45.703  43.897  56.258  1.00  0.00    -0.011 A 
ATOM     13  C   UNL     1      46.793  44.110  57.121  1.00  0.00     0.013 A 
ATOM     14  C   UNL     1      46.580  44.379  58.477  1.00  0.00     0.047 A 
ATOM     15  C   UNL     1      45.276  44.436  58.987  1.00  0.00     0.115 A 
ATOM     16  C   UNL     1      44.398  43.949  56.780  1.00  0.00     0.013 A 
ATOM     17  C   UNL     1      44.189  44.218  58.136  1.00  0.00     0.047 A 
BRANCH  15  18
ATOM     18  O   UNL     1      45.053  44.703  60.335  1.00  0.00    -0.508 OA
ATOM     19  H   UNL     1      44.770  43.975  60.981  1.00  0.00     0.293 HD
ENDBRANCH  15  18
ENDBRANCH   1  12
BRANCH  11  20
ATOM     20  C   UNL     1      45.403  41.578  50.161  1.00  0.00     0.188 C 
ATOM     21  C   UNL     1      44.935  42.064  48.766  1.00  0.00     0.179 C 
ATOM     22  O   UNL     1      46.055  40.317  50.078  1.00  0.00    -0.362 OA
ATOM     23  C   UNL     1      44.016  41.011  48.116  1.00  0.00     0.177 C 
ATOM     24  C   UNL     1      45.225  39.288  49.547  1.00  0.00     0.176 C 
ATOM     25  C   UNL     1      44.708  39.636  48.131  1.00  0.00     0.177 C 
BRANCH  21  26
ATOM     26  O   UNL     1      44.284  43.308  48.851  1.00  0.00    -0.387 OA
ATOM     27  H   UNL     1      43.357  43.142  49.162  1.00  0.00     0.211 HD
ENDBRANCH  21  26
BRANCH  23  28
ATOM     28  O   UNL     1      43.672  41.391  46.807  1.00  0.00    -0.387 OA
ATOM     29  H   UNL     1      43.073  42.181  46.867  1.00  0.00     0.211 HD
ENDBRANCH  23  28
BRANCH  24  30
ATOM     30  C   UNL     1      44.121  38.846  50.535  1.00  0.00     0.191 C 
BRANCH  30  31
ATOM     31  O   UNL     1      43.737  37.521  50.281  1.00  0.00    -0.394 OA
ATOM     32  H   UNL     1      43.742  37.051  51.157  1.00  0.00     0.210 HD
ENDBRANCH  30  31
ENDBRANCH  24  30
BRANCH  25  33
ATOM     33  O   UNL     1      43.825  38.640  47.681  1.00  0.00    -0.388 OA
ATOM     34  H   UNL     1      43.602  38.854  46.738  1.00  0.00     0.211 HD
ENDBRANCH  25  33
ENDBRANCH  11  20
BRANCH  10  35
ATOM     35  O   UNL     1      47.701  42.837  48.685  1.00  0.00    -0.507 OA
ATOM     36  H   UNL     1      47.542  41.929  48.278  1.00  0.00     0.293 HD
ENDBRANCH  10  35
TORSDOF 9
ENDMDL
MODEL 6
REMARK VINA RESULT:    -5.305      2.941      8.769
REMARK INTER + INTRA:          -8.410
REMARK INTER:                  -8.010
REMARK INTRA:                  -0.400
REMARK UNBOUND:                -1.244
REMARK SMILES O=c1c(-c2ccc(O)cc2)coc2c([C@@H]3O[C@@H](CO)[C@@H](O)[C@H](O)[C@H]3O)c(O)ccc12
REMARK SMILES IDX 3 1 11 2 12 3 13 4 30 5 2 6 1 7 29 8 28 9 26 10 14 11 4 12
REMARK SMILES IDX 5 13 6 14 7 15 10 16 9 17 8 18 15 20 24 21 16 22 22 23 17 24
REMARK SMILES IDX 20 25 25 26 23 28 18 30 19 31 21 33 27 35
REMARK H PARENT 8 19 25 27 23 29 19 32 21 34 27 36
REMARK Flexibility Score: inf
ROOT
ATOM      1  C   UNL     1      45.731  38.116  48.052  1.00  0.00     0.065 A 
ATOM      2  C   UNL     1      46.705  37.856  47.079  1.00  0.00     0.208 A 
ATOM      3  O   UNL     1      47.141  36.621  46.864  1.00  0.00    -0.463 OA
ATOM      4  C   UNL     1      46.701  35.561  47.540  1.00  0.00     0.147 A 
ATOM      5  C   UNL     1      45.718  35.735  48.541  1.00  0.00     0.066 A 
ATOM      6  C   UNL     1      45.239  37.032  48.801  1.00  0.00     0.200 A 
ATOM      7  O   UNL     1      44.386  37.226  49.712  1.00  0.00    -0.288 OA
ATOM      8  C   UNL     1      45.247  34.621  49.249  1.00  0.00     0.020 A 
ATOM      9  C   UNL     1      45.723  33.349  48.948  1.00  0.00     0.047 A 
ATOM     10  C   UNL     1      46.680  33.153  47.950  1.00  0.00     0.125 A 
ATOM     11  C   UNL     1      47.219  34.271  47.253  1.00  0.00     0.069 A 
ENDROOT
BRANCH   1  12
ATOM     12  C   UNL     1      45.255  39.504  48.270  1.00  0.00    -0.011 A 
ATOM     13  C   UNL     1      44.215  40.037  47.486  1.00  0.00     0.013 A 
ATOM     14  C   UNL     1      43.776  41.349  47.690  1.00  0.00     0.047 A 
ATOM     15  C   UNL     1      44.373  42.146  48.675  1.00  0.00     0.115 A 
ATOM     16  C   UNL     1      45.853  40.314  49.252  1.00  0.00     0.013 A 
ATOM     17  C   UNL     1      45.412  41.625  49.453  1.00  0.00     0.047 A 
BRANCH  15  18
ATOM     18  O   UNL     1      43.944  43.454  48.886  1.00  0.00    -0.508 OA
ATOM     19  H   UNL     1      43.062  43.656  49.344  1.00  0.00     0.293 HD
ENDBRANCH  15  18
ENDBRANCH   1  12
BRANCH  11  20
ATOM     20  C   UNL     1      48.307  34.118  46.192  1.00  0.00     0.188 C 
ATOM     21  C   UNL     1      47.989  35.025  44.977  1.00  0.00     0.179 C 
ATOM     22  O   UNL     1      49.564  34.449  46.771  1.00  0.00    -0.362 OA
ATOM     23  C   UNL     1      49.118  34.929  43.932  1.00  0.00     0.177 C 
ATOM     24  C   UNL     1      50.654  34.311  45.865  1.00  0.00     0.176 C 
ATOM     25  C   UNL     1      50.476  35.194  44.607  1.00  0.00     0.177 C 
BRANCH  21  26
ATOM     26  O   UNL     1      46.749  34.691  44.403  1.00  0.00    -0.387 OA
ATOM     27  H   UNL     1      46.513  35.407  43.758  1.00  0.00     0.211 HD
ENDBRANCH  21  26
BRANCH  23  28
ATOM     28  O   UNL     1      48.894  35.828  42.875  1.00  0.00    -0.387 OA
ATOM     29  H   UNL     1      48.195  35.438  42.287  1.00  0.00     0.211 HD
ENDBRANCH  23  28
BRANCH  24  30
ATOM     30  C   UNL     1      50.990  32.833  45.560  1.00  0.00     0.191 C 
BRANCH  30  31
ATOM     31  O   UNL     1      52.357  32.686  45.286  1.00  0.00    -0.394 OA
ATOM     32  H   UNL     1      52.795  32.445  46.144  1.00  0.00     0.210 HD
ENDBRANCH  30  31
ENDBRANCH  24  30
BRANCH  25  33
ATOM     33  O   UNL     1      51.525  34.962  43.701  1.00  0.00    -0.388 OA
ATOM     34  H   UNL     1      51.555  33.984  43.538  1.00  0.00     0.211 HD
ENDBRANCH  25  33
ENDBRANCH  11  20
BRANCH  10  35
ATOM     35  O   UNL     1      47.050  31.830  47.685  1.00  0.00    -0.507 OA
ATOM     36  H   UNL     1      47.619  31.534  46.907  1.00  0.00     0.293 HD
ENDBRANCH  10  35
TORSDOF 9
ENDMDL
MODEL 7
REMARK VINA RESULT:    -5.238      2.040      3.387
REMARK INTER + INTRA:          -8.320
REMARK INTER:                  -7.557
REMARK INTRA:                  -0.763
REMARK UNBOUND:                -1.244
REMARK SMILES O=c1c(-c2ccc(O)cc2)coc2c([C@@H]3O[C@@H](CO)[C@@H](O)[C@H](O)[C@H]3O)c(O)ccc12
REMARK SMILES IDX 3 1 11 2 12 3 13 4 30 5 2 6 1 7 29 8 28 9 26 10 14 11 4 12
REMARK SMILES IDX 5 13 6 14 7 15 10 16 9 17 8 18 15 20 24 21 16 22 22 23 17 24
REMARK SMILES IDX 20 25 25 26 23 28 18 30 19 31 21 33 27 35
REMARK H PARENT 8 19 25 27 23 29 19 32 21 34 27 36
REMARK Flexibility Score: inf
ROOT
ATOM      1  C   UNL     1      47.074  35.390  47.877  1.00  0.00     0.065 A 
ATOM      2  C   UNL     1      47.623  36.636  47.544  1.00  0.00     0.208 A 
ATOM      3  O   UNL     1      47.224  37.742  48.158  1.00  0.00    -0.463 OA
ATOM      4  C   UNL     1      46.296  37.755  49.113  1.00  0.00     0.147 A 
ATOM      5  C   UNL     1      45.690  36.541  49.511  1.00  0.00     0.066 A 
ATOM      6  C   UNL     1      46.083  35.350  48.874  1.00  0.00     0.200 A 
ATOM      7  O   UNL     1      45.537  34.253  49.182  1.00  0.00    -0.288 OA
ATOM      8  C   UNL     1      44.719  36.551  50.520  1.00  0.00     0.020 A 
ATOM      9  C   UNL     1      44.373  37.744  51.147  1.00  0.00     0.047 A 
ATOM     10  C   UNL     1      44.973  38.952  50.782  1.00  0.00     0.125 A 
ATOM     11  C   UNL     1      45.921  38.982  49.721  1.00  0.00     0.069 A 
ENDROOT
BRANCH   1  12
ATOM     12  C   UNL     1      47.540  34.165  47.180  1.00  0.00    -0.011 A 
ATOM     13  C   UNL     1      48.325  33.212  47.854  1.00  0.00     0.013 A 
ATOM     14  C   UNL     1      48.769  32.064  47.189  1.00  0.00     0.047 A 
ATOM     15  C   UNL     1      48.438  31.857  45.843  1.00  0.00     0.115 A 
ATOM     16  C   UNL     1      47.219  33.953  45.828  1.00  0.00     0.013 A 
ATOM     17  C   UNL     1      47.664  32.805  45.166  1.00  0.00     0.047 A 
BRANCH  15  18
ATOM     18  O   UNL     1      48.875  30.718  45.172  1.00  0.00    -0.508 OA
ATOM     19  H   UNL     1      49.511  30.058  45.605  1.00  0.00     0.293 HD
ENDBRANCH  15  18
ENDBRANCH   1  12
BRANCH  11  20
ATOM     20  C   UNL     1      46.565  40.283  49.246  1.00  0.00     0.188 C 
ATOM     21  C   UNL     1      45.470  41.345  48.978  1.00  0.00     0.179 C 
ATOM     22  O   UNL     1      47.487  40.727  50.235  1.00  0.00    -0.362 OA
ATOM     23  C   UNL     1      46.116  42.682  48.566  1.00  0.00     0.177 C 
ATOM     24  C   UNL     1      48.165  41.927  49.873  1.00  0.00     0.176 C 
ATOM     25  C   UNL     1      47.180  43.089  49.602  1.00  0.00     0.177 C 
BRANCH  21  26
ATOM     26  O   UNL     1      44.564  40.906  47.996  1.00  0.00    -0.387 OA
ATOM     27  H   UNL     1      43.676  40.808  48.427  1.00  0.00     0.211 HD
ENDBRANCH  21  26
BRANCH  23  28
ATOM     28  O   UNL     1      45.139  43.683  48.424  1.00  0.00    -0.387 OA
ATOM     29  H   UNL     1      45.581  44.487  48.043  1.00  0.00     0.211 HD
ENDBRANCH  23  28
BRANCH  24  30
ATOM     30  C   UNL     1      49.208  41.705  48.753  1.00  0.00     0.191 C 
BRANCH  30  31
ATOM     31  O   UNL     1      50.222  42.671  48.827  1.00  0.00    -0.394 OA
ATOM     32  H   UNL     1      49.905  43.456  48.307  1.00  0.00     0.210 HD
ENDBRANCH  30  31
ENDBRANCH  24  30
BRANCH  25  33
ATOM     33  O   UNL     1      47.881  44.224  49.162  1.00  0.00    -0.388 OA
ATOM     34  H   UNL     1      48.710  43.901  48.723  1.00  0.00     0.211 HD
ENDBRANCH  25  33
ENDBRANCH  11  20
BRANCH  10  35
ATOM     35  O   UNL     1      44.598  40.084  51.513  1.00  0.00    -0.507 OA
ATOM     36  H   UNL     1      44.291  40.956  51.110  1.00  0.00     0.293 HD
ENDBRANCH  10  35
TORSDOF 9
ENDMDL
MODEL 8
REMARK VINA RESULT:    -5.217      2.580      3.407
REMARK INTER + INTRA:          -8.292
REMARK INTER:                  -7.145
REMARK INTRA:                  -1.147
REMARK UNBOUND:                -1.244
REMARK SMILES O=c1c(-c2ccc(O)cc2)coc2c([C@@H]3O[C@@H](CO)[C@@H](O)[C@H](O)[C@H]3O)c(O)ccc12
REMARK SMILES IDX 3 1 11 2 12 3 13 4 30 5 2 6 1 7 29 8 28 9 26 10 14 11 4 12
REMARK SMILES IDX 5 13 6 14 7 15 10 16 9 17 8 18 15 20 24 21 16 22 22 23 17 24
REMARK SMILES IDX 20 25 25 26 23 28 18 30 19 31 21 33 27 35
REMARK H PARENT 8 19 25 27 23 29 19 32 21 34 27 36
REMARK Flexibility Score: inf
ROOT
ATOM      1  C   UNL     1      47.954  37.471  46.981  1.00  0.00     0.065 A 
ATOM      2  C   UNL     1      48.316  38.543  47.807  1.00  0.00     0.208 A 
ATOM      3  O   UNL     1      47.407  39.178  48.537  1.00  0.00    -0.463 OA
ATOM      4  C   UNL     1      46.115  38.855  48.539  1.00  0.00     0.147 A 
ATOM      5  C   UNL     1      45.664  37.784  47.733  1.00  0.00     0.066 A 
ATOM      6  C   UNL     1      46.600  37.095  46.941  1.00  0.00     0.200 A 
ATOM      7  O   UNL     1      46.225  36.156  46.183  1.00  0.00    -0.288 OA
ATOM      8  C   UNL     1      44.307  37.437  47.739  1.00  0.00     0.020 A 
ATOM      9  C   UNL     1      43.413  38.124  48.556  1.00  0.00     0.047 A 
ATOM     10  C   UNL     1      43.841  39.172  49.374  1.00  0.00     0.125 A 
ATOM     11  C   UNL     1      45.203  39.585  49.346  1.00  0.00     0.069 A 
ENDROOT
BRANCH   1  12
ATOM     12  C   UNL     1      48.990  36.773  46.179  1.00  0.00    -0.011 A 
ATOM     13  C   UNL     1      49.672  35.659  46.702  1.00  0.00     0.013 A 
ATOM     14  C   UNL     1      50.653  35.011  45.946  1.00  0.00     0.047 A 
ATOM     15  C   UNL     1      50.967  35.469  44.659  1.00  0.00     0.115 A 
ATOM     16  C   UNL     1      49.317  37.230  44.890  1.00  0.00     0.013 A 
ATOM     17  C   UNL     1      50.298  36.580  44.136  1.00  0.00     0.047 A 
BRANCH  15  18
ATOM     18  O   UNL     1      51.942  34.831  43.897  1.00  0.00    -0.508 OA
ATOM     19  H   UNL     1      52.901  34.756  44.217  1.00  0.00     0.293 HD
ENDBRANCH  15  18
ENDBRANCH   1  12
BRANCH  11  20
ATOM     20  C   UNL     1      45.711  40.760  50.179  1.00  0.00     0.188 C 
ATOM     21  C   UNL     1      45.009  42.066  49.730  1.00  0.00     0.179 C 
ATOM     22  O   UNL     1      45.469  40.487  51.555  1.00  0.00    -0.362 OA
ATOM     23  C   UNL     1      45.464  43.244  50.612  1.00  0.00     0.177 C 
ATOM     24  C   UNL     1      45.934  41.517  52.421  1.00  0.00     0.176 C 
ATOM     25  C   UNL     1      45.284  42.884  52.098  1.00  0.00     0.177 C 
BRANCH  21  26
ATOM     26  O   UNL     1      45.255  42.336  48.372  1.00  0.00    -0.387 OA
ATOM     27  H   UNL     1      45.327  43.320  48.269  1.00  0.00     0.211 HD
ENDBRANCH  21  26
BRANCH  23  28
ATOM     28  O   UNL     1      44.755  44.413  50.286  1.00  0.00    -0.387 OA
ATOM     29  H   UNL     1      45.252  44.878  49.562  1.00  0.00     0.211 HD
ENDBRANCH  23  28
BRANCH  24  30
ATOM     30  C   UNL     1      47.477  41.556  52.523  1.00  0.00     0.191 C 
BRANCH  30  31
ATOM     31  O   UNL     1      47.874  41.998  53.793  1.00  0.00    -0.394 OA
ATOM     32  H   UNL     1      48.863  41.912  53.828  1.00  0.00     0.210 HD
ENDBRANCH  30  31
ENDBRANCH  24  30
BRANCH  25  33
ATOM     33  O   UNL     1      45.835  43.886  52.915  1.00  0.00    -0.388 OA
ATOM     34  H   UNL     1      45.465  43.753  53.826  1.00  0.00     0.211 HD
ENDBRANCH  25  33
ENDBRANCH  11  20
BRANCH  10  35
ATOM     35  O   UNL     1      42.875  39.758  50.199  1.00  0.00    -0.507 OA
ATOM     36  H   UNL     1      41.928  39.428  50.304  1.00  0.00     0.293 HD
ENDBRANCH  10  35
TORSDOF 9
ENDMDL
MODEL 9
REMARK VINA RESULT:    -5.068      4.924      7.208
REMARK INTER + INTRA:          -8.090
REMARK INTER:                  -6.842
REMARK INTRA:                  -1.248
REMARK UNBOUND:                -1.244
REMARK SMILES O=c1c(-c2ccc(O)cc2)coc2c([C@@H]3O[C@@H](CO)[C@@H](O)[C@H](O)[C@H]3O)c(O)ccc12
REMARK SMILES IDX 3 1 11 2 12 3 13 4 30 5 2 6 1 7 29 8 28 9 26 10 14 11 4 12
REMARK SMILES IDX 5 13 6 14 7 15 10 16 9 17 8 18 15 20 24 21 16 22 22 23 17 24
REMARK SMILES IDX 20 25 25 26 23 28 18 30 19 31 21 33 27 35
REMARK H PARENT 8 19 25 27 23 29 19 32 21 34 27 36
REMARK Flexibility Score: inf
ROOT
ATOM      1  C   UNL     1      52.067  38.013  52.802  1.00  0.00     0.065 A 
ATOM      2  C   UNL     1      50.864  38.572  52.346  1.00  0.00     0.208 A 
ATOM      3  O   UNL     1      50.668  39.884  52.376  1.00  0.00    -0.463 OA
ATOM      4  C   UNL     1      51.573  40.749  52.831  1.00  0.00     0.147 A 
ATOM      5  C   UNL     1      52.814  40.270  53.309  1.00  0.00     0.066 A 
ATOM      6  C   UNL     1      53.052  38.883  53.300  1.00  0.00     0.200 A 
ATOM      7  O   UNL     1      54.137  38.420  53.753  1.00  0.00    -0.288 OA
ATOM      8  C   UNL     1      53.771  41.178  53.781  1.00  0.00     0.020 A 
ATOM      9  C   UNL     1      53.512  42.545  53.751  1.00  0.00     0.047 A 
ATOM     10  C   UNL     1      52.300  43.040  53.264  1.00  0.00     0.125 A 
ATOM     11  C   UNL     1      51.287  42.139  52.832  1.00  0.00     0.069 A 
ENDROOT
BRANCH   1  12
ATOM     12  C   UNL     1      52.265  36.543  52.753  1.00  0.00    -0.011 A 
ATOM     13  C   UNL     1      52.904  35.942  51.654  1.00  0.00     0.013 A 
ATOM     14  C   UNL     1      53.081  34.556  51.609  1.00  0.00     0.047 A 
ATOM     15  C   UNL     1      52.617  33.753  52.660  1.00  0.00     0.115 A 
ATOM     16  C   UNL     1      51.797  35.729  53.799  1.00  0.00     0.013 A 
ATOM     17  C   UNL     1      51.975  34.343  53.752  1.00  0.00     0.047 A 
BRANCH  15  18
ATOM     18  O   UNL     1      52.788  32.371  52.625  1.00  0.00    -0.508 OA
ATOM     19  H   UNL     1      53.701  31.946  52.734  1.00  0.00     0.293 HD
ENDBRANCH  15  18
ENDBRANCH   1  12
BRANCH  11  20
ATOM     20  C   UNL     1      49.924  42.626  52.343  1.00  0.00     0.188 C 
ATOM     21  C   UNL     1      49.047  43.037  53.552  1.00  0.00     0.179 C 
ATOM     22  O   UNL     1      50.118  43.716  51.449  1.00  0.00    -0.362 OA
ATOM     23  C   UNL     1      47.696  43.595  53.063  1.00  0.00     0.177 C 
ATOM     24  C   UNL     1      48.902  44.227  50.913  1.00  0.00     0.176 C 
ATOM     25  C   UNL     1      47.936  44.704  52.023  1.00  0.00     0.177 C 
BRANCH  21  26
ATOM     26  O   UNL     1      48.851  41.956  54.430  1.00  0.00    -0.387 OA
ATOM     27  H   UNL     1      49.402  42.121  55.238  1.00  0.00     0.211 HD
ENDBRANCH  21  26
BRANCH  23  28
ATOM     28  O   UNL     1      46.934  44.071  54.144  1.00  0.00    -0.387 OA
ATOM     29  H   UNL     1      47.563  44.331  54.868  1.00  0.00     0.211 HD
ENDBRANCH  23  28
BRANCH  24  30
ATOM     30  C   UNL     1      48.260  43.271  49.881  1.00  0.00     0.191 C 
BRANCH  30  31
ATOM     31  O   UNL     1      47.622  44.000  48.867  1.00  0.00    -0.394 OA
ATOM     32  H   UNL     1      48.322  44.555  48.432  1.00  0.00     0.210 HD
ENDBRANCH  30  31
ENDBRANCH  24  30
BRANCH  25  33
ATOM     33  O   UNL     1      46.717  45.117  51.458  1.00  0.00    -0.388 OA
ATOM     34  H   UNL     1      46.108  44.334  51.481  1.00  0.00     0.211 HD
ENDBRANCH  25  33
ENDBRANCH  11  20
BRANCH  10  35
ATOM     35  O   UNL     1      52.162  44.432  53.223  1.00  0.00    -0.507 OA
ATOM     36  H   UNL     1      51.353  44.922  52.874  1.00  0.00     0.293 HD
ENDBRANCH  10  35
TORSDOF 9
ENDMDL
