MODEL 1
REMARK VINA RESULT:    -3.491      0.000      0.000
REMARK INTER + INTRA:          -4.121
REMARK INTER:                  -4.103
REMARK INTRA:                  -0.018
REMARK UNBOUND:                -0.018
REMARK SMILES CCCCC(=O)[O-]
REMARK SMILES IDX 4 1 5 2 6 3 7 4 3 5 2 6 1 7
REMARK H PARENT
REMARK Flexibility Score: inf
ROOT
ATOM      1  C   UNL     1     -20.259  -5.622 -12.941  1.00  0.00     0.053 C 
ENDROOT
BRANCH   1   2
ATOM      2  C   UNL     1     -20.163  -4.560 -13.993  1.00  0.00     0.041 C 
ATOM      3  O   UNL     1     -19.425  -4.730 -14.999  1.00  0.00    -0.550 OA
ATOM      4  O   UNL     1     -20.864  -3.369 -13.846  1.00  0.00    -0.550 OA
ENDBRANCH   1   2
BRANCH   1   5
ATOM      5  C   UNL     1     -20.276  -7.034 -13.548  1.00  0.00     0.006 C 
BRANCH   5   6
ATOM      6  C   UNL     1     -20.618  -8.147 -12.543  1.00  0.00    -0.003 C 
ATOM      7  C   UNL     1     -20.178  -9.532 -13.017  1.00  0.00     0.004 C 
ENDBRANCH   5   6
ENDBRANCH   1   5
TORSDOF 3
ENDMDL
MODEL 2
REMARK VINA RESULT:    -3.394      1.560      1.608
REMARK INTER + INTRA:          -4.007
REMARK INTER:                  -3.957
REMARK INTRA:                  -0.050
REMARK UNBOUND:                -0.018
REMARK SMILES CCCCC(=O)[O-]
REMARK SMILES IDX 4 1 5 2 6 3 7 4 3 5 2 6 1 7
REMARK H PARENT
REMARK Flexibility Score: inf
ROOT
ATOM      1  C   UNL     1     -20.247  -5.654 -13.097  1.00  0.00     0.053 C 
ENDROOT
BRANCH   1   2
ATOM      2  C   UNL     1     -21.600  -5.011 -13.098  1.00  0.00     0.041 C 
ATOM      3  O   UNL     1     -22.481  -5.390 -13.913  1.00  0.00    -0.550 OA
ATOM      4  O   UNL     1     -21.876  -3.970 -12.219  1.00  0.00    -0.550 OA
ENDBRANCH   1   2
BRANCH   1   5
ATOM      5  C   UNL     1     -20.289  -7.086 -13.656  1.00  0.00     0.006 C 
BRANCH   5   6
ATOM      6  C   UNL     1     -20.572  -8.167 -12.598  1.00  0.00    -0.003 C 
ATOM      7  C   UNL     1     -20.139  -9.563 -13.044  1.00  0.00     0.004 C 
ENDBRANCH   5   6
ENDBRANCH   1   5
TORSDOF 3
ENDMDL
MODEL 3
REMARK VINA RESULT:    -3.172      1.974      2.270
REMARK INTER + INTRA:          -3.747
REMARK INTER:                  -3.675
REMARK INTRA:                  -0.072
REMARK UNBOUND:                -0.018
REMARK SMILES CCCCC(=O)[O-]
REMARK SMILES IDX 4 1 5 2 6 3 7 4 3 5 2 6 1 7
REMARK H PARENT
REMARK Flexibility Score: inf
ROOT
ATOM      1  C   UNL     1     -21.566  -6.059 -13.256  1.00  0.00     0.053 C 
ENDROOT
BRANCH   1   2
ATOM      2  C   UNL     1     -22.081  -5.962 -14.659  1.00  0.00     0.041 C 
ATOM      3  O   UNL     1     -22.562  -4.879 -15.084  1.00  0.00    -0.550 OA
ATOM      4  O   UNL     1     -22.058  -7.078 -15.488  1.00  0.00    -0.550 OA
ENDBRANCH   1   2
BRANCH   1   5
ATOM      5  C   UNL     1     -20.374  -7.023 -13.145  1.00  0.00     0.006 C 
BRANCH   5   6
ATOM      6  C   UNL     1     -20.674  -8.308 -12.354  1.00  0.00    -0.003 C 
ATOM      7  C   UNL     1     -20.133  -9.565 -13.035  1.00  0.00     0.004 C 
ENDBRANCH   5   6
ENDBRANCH   1   5
TORSDOF 3
ENDMDL
MODEL 4
REMARK VINA RESULT:    -3.093     19.081     19.360
REMARK INTER + INTRA:          -3.653
REMARK INTER:                  -3.631
REMARK INTRA:                  -0.023
REMARK UNBOUND:                -0.018
REMARK SMILES CCCCC(=O)[O-]
REMARK SMILES IDX 4 1 5 2 6 3 7 4 3 5 2 6 1 7
REMARK H PARENT
REMARK Flexibility Score: inf
ROOT
ATOM      1  C   UNL     1      -7.608  -8.447  -0.317  1.00  0.00     0.053 C 
ENDROOT
BRANCH   1   2
ATOM      2  C   UNL     1      -7.215  -7.059   0.088  1.00  0.00     0.041 C 
ATOM      3  O   UNL     1      -6.181  -6.528  -0.393  1.00  0.00    -0.550 OA
ATOM      4  O   UNL     1      -7.975  -6.366   1.023  1.00  0.00    -0.550 OA
ENDBRANCH   1   2
BRANCH   1   5
ATOM      5  C   UNL     1      -6.753  -9.515   0.385  1.00  0.00     0.006 C 
BRANCH   5   6
ATOM      6  C   UNL     1      -6.375 -10.708  -0.510  1.00  0.00    -0.003 C 
ATOM      7  C   UNL     1      -5.207 -11.521   0.045  1.00  0.00     0.004 C 
ENDBRANCH   5   6
ENDBRANCH   1   5
TORSDOF 3
ENDMDL
MODEL 5
REMARK VINA RESULT:    -3.064     19.568     20.085
REMARK INTER + INTRA:          -3.619
REMARK INTER:                  -3.562
REMARK INTRA:                  -0.057
REMARK UNBOUND:                -0.018
REMARK SMILES CCCCC(=O)[O-]
REMARK SMILES IDX 4 1 5 2 6 3 7 4 3 5 2 6 1 7
REMARK H PARENT
REMARK Flexibility Score: inf
ROOT
ATOM      1  C   UNL     1      -6.636 -10.120  -0.558  1.00  0.00     0.053 C 
ENDROOT
BRANCH   1   2
ATOM      2  C   UNL     1      -6.431 -11.019   0.623  1.00  0.00     0.041 C 
ATOM      3  O   UNL     1      -6.595 -10.578   1.790  1.00  0.00    -0.550 OA
ATOM      4  O   UNL     1      -6.028 -12.335   0.433  1.00  0.00    -0.550 OA
ENDBRANCH   1   2
BRANCH   1   5
ATOM      5  C   UNL     1      -7.606  -8.970  -0.244  1.00  0.00     0.006 C 
BRANCH   5   6
ATOM      6  C   UNL     1      -6.953  -7.577  -0.243  1.00  0.00    -0.003 C 
ATOM      7  C   UNL     1      -7.606  -6.615   0.749  1.00  0.00     0.004 C 
ENDBRANCH   5   6
ENDBRANCH   1   5
TORSDOF 3
ENDMDL
MODEL 6
REMARK VINA RESULT:    -3.042     19.855     20.416
REMARK INTER + INTRA:          -3.594
REMARK INTER:                  -3.574
REMARK INTRA:                  -0.020
REMARK UNBOUND:                -0.018
REMARK SMILES CCCCC(=O)[O-]
REMARK SMILES IDX 4 1 5 2 6 3 7 4 3 5 2 6 1 7
REMARK H PARENT
REMARK Flexibility Score: inf
ROOT
ATOM      1  C   UNL     1      -6.165 -10.940  -0.244  1.00  0.00     0.053 C 
ENDROOT
BRANCH   1   2
ATOM      2  C   UNL     1      -6.093 -12.170   0.608  1.00  0.00     0.041 C 
ATOM      3  O   UNL     1      -5.828 -13.286   0.090  1.00  0.00    -0.550 OA
ATOM      4  O   UNL     1      -6.352 -12.088   1.971  1.00  0.00    -0.550 OA
ENDBRANCH   1   2
BRANCH   1   5
ATOM      5  C   UNL     1      -6.853  -9.774   0.483  1.00  0.00     0.006 C 
BRANCH   5   6
ATOM      6  C   UNL     1      -7.581  -8.791  -0.450  1.00  0.00    -0.003 C 
ATOM      7  C   UNL     1      -7.404  -7.332  -0.029  1.00  0.00     0.004 C 
ENDBRANCH   5   6
ENDBRANCH   1   5
TORSDOF 3
ENDMDL
MODEL 7
REMARK VINA RESULT:    -2.916     19.270     19.472
REMARK INTER + INTRA:          -3.445
REMARK INTER:                  -3.424
REMARK INTRA:                  -0.022
REMARK UNBOUND:                -0.018
REMARK SMILES CCCCC(=O)[O-]
REMARK SMILES IDX 4 1 5 2 6 3 7 4 3 5 2 6 1 7
REMARK H PARENT
REMARK Flexibility Score: inf
ROOT
ATOM      1  C   UNL     1      -7.287  -6.739   0.502  1.00  0.00     0.053 C 
ENDROOT
BRANCH   1   2
ATOM      2  C   UNL     1      -6.076  -5.870   0.352  1.00  0.00     0.041 C 
ATOM      3  O   UNL     1      -5.587  -5.657  -0.788  1.00  0.00    -0.550 OA
ATOM      4  O   UNL     1      -5.469  -5.322   1.476  1.00  0.00    -0.550 OA
ENDBRANCH   1   2
BRANCH   1   5
ATOM      5  C   UNL     1      -7.246  -7.952  -0.442  1.00  0.00     0.006 C 
BRANCH   5   6
ATOM      6  C   UNL     1      -7.439  -9.305   0.264  1.00  0.00    -0.003 C 
ATOM      7  C   UNL     1      -6.573 -10.415  -0.333  1.00  0.00     0.004 C 
ENDBRANCH   5   6
ENDBRANCH   1   5
TORSDOF 3
ENDMDL
MODEL 8
REMARK VINA RESULT:    -2.904     19.298     19.708
REMARK INTER + INTRA:          -3.431
REMARK INTER:                  -3.330
REMARK INTRA:                  -0.102
REMARK UNBOUND:                -0.018
REMARK SMILES CCCCC(=O)[O-]
REMARK SMILES IDX 4 1 5 2 6 3 7 4 3 5 2 6 1 7
REMARK H PARENT
REMARK Flexibility Score: inf
ROOT
ATOM      1  C   UNL     1      -7.557  -8.105  -0.285  1.00  0.00     0.053 C 
ENDROOT
BRANCH   1   2
ATOM      2  C   UNL     1      -7.025  -9.433   0.162  1.00  0.00     0.041 C 
ATOM      3  O   UNL     1      -7.047  -9.745   1.381  1.00  0.00    -0.550 OA
ATOM      4  O   UNL     1      -6.475 -10.310  -0.764  1.00  0.00    -0.550 OA
ENDBRANCH   1   2
BRANCH   1   5
ATOM      5  C   UNL     1      -6.470  -7.018  -0.279  1.00  0.00     0.006 C 
BRANCH   5   6
ATOM      6  C   UNL     1      -6.611  -5.994   0.861  1.00  0.00    -0.003 C 
ATOM      7  C   UNL     1      -7.957  -6.086   1.580  1.00  0.00     0.004 C 
ENDBRANCH   5   6
ENDBRANCH   1   5
TORSDOF 3
ENDMDL
MODEL 9
REMARK VINA RESULT:    -2.810      2.896      4.206
REMARK INTER + INTRA:          -3.321
REMARK INTER:                  -3.246
REMARK INTRA:                  -0.075
REMARK UNBOUND:                -0.018
REMARK SMILES CCCCC(=O)[O-]
REMARK SMILES IDX 4 1 5 2 6 3 7 4 3 5 2 6 1 7
REMARK H PARENT
REMARK Flexibility Score: inf
ROOT
ATOM      1  C   UNL     1     -20.224  -7.166 -13.832  1.00  0.00     0.053 C 
ENDROOT
BRANCH   1   2
ATOM      2  C   UNL     1     -20.330  -8.364 -12.939  1.00  0.00     0.041 C 
ATOM      3  O   UNL     1     -20.962  -8.290 -11.853  1.00  0.00    -0.550 OA
ATOM      4  O   UNL     1     -19.702  -9.553 -13.292  1.00  0.00    -0.550 OA
ENDBRANCH   1   2
BRANCH   1   5
ATOM      5  C   UNL     1     -20.229  -5.851 -13.035  1.00  0.00     0.006 C 
BRANCH   5   6
ATOM      6  C   UNL     1     -21.093  -4.741 -13.658  1.00  0.00    -0.003 C 
ATOM      7  C   UNL     1     -22.551  -5.159 -13.849  1.00  0.00     0.004 C 
ENDBRANCH   5   6
ENDBRANCH   1   5
TORSDOF 3
ENDMDL
