MODEL 1
REMARK VINA RESULT:    -3.913      0.000      0.000
REMARK INTER + INTRA:          -5.527
REMARK INTER:                  -5.286
REMARK INTRA:                  -0.241
REMARK UNBOUND:                -0.241
REMARK SMILES CCCCCCCC(=O)[O-]
REMARK SMILES IDX 5 1 6 2 7 3 8 4 9 5 10 6 4 7 3 8 2 9 1 10
REMARK H PARENT
REMARK Flexibility Score: inf
ROOT
ATOM      1  C   UNL     1      11.765  -8.848  -5.184  1.00  0.00     0.000 C 
ENDROOT
BRANCH   1   2
ATOM      2  C   UNL     1      12.286  -9.887  -6.194  1.00  0.00     0.006 C 
BRANCH   2   3
ATOM      3  C   UNL     1      11.808  -9.663  -7.637  1.00  0.00     0.053 C 
BRANCH   3   4
ATOM      4  C   UNL     1      10.350  -9.967  -7.798  1.00  0.00     0.041 C 
ATOM      5  O   UNL     1       9.607  -9.184  -8.445  1.00  0.00    -0.550 OA
ATOM      6  O   UNL     1       9.820 -11.133  -7.260  1.00  0.00    -0.550 OA
ENDBRANCH   3   4
ENDBRANCH   2   3
ENDBRANCH   1   2
BRANCH   1   7
ATOM      7  C   UNL     1      12.561  -8.846  -3.870  1.00  0.00     0.000 C 
BRANCH   7   8
ATOM      8  C   UNL     1      12.728  -7.419  -3.332  1.00  0.00    -0.000 C 
BRANCH   8   9
ATOM      9  C   UNL     1      13.947  -7.319  -2.408  1.00  0.00    -0.003 C 
ATOM     10  C   UNL     1      14.921  -8.467  -2.654  1.00  0.00     0.004 C 
ENDBRANCH   8   9
ENDBRANCH   7   8
ENDBRANCH   1   7
TORSDOF 6
ENDMDL
MODEL 2
REMARK VINA RESULT:    -3.909     13.775     14.806
REMARK INTER + INTRA:          -5.521
REMARK INTER:                  -5.303
REMARK INTRA:                  -0.217
REMARK UNBOUND:                -0.241
REMARK SMILES CCCCCCCC(=O)[O-]
REMARK SMILES IDX 5 1 6 2 7 3 8 4 9 5 10 6 4 7 3 8 2 9 1 10
REMARK H PARENT
REMARK Flexibility Score: inf
ROOT
ATOM      1  C   UNL     1       3.779 -17.709   0.387  1.00  0.00     0.000 C 
ENDROOT
BRANCH   1   2
ATOM      2  C   UNL     1       4.417 -18.734   1.342  1.00  0.00     0.006 C 
BRANCH   2   3
ATOM      3  C   UNL     1       3.711 -18.858   2.702  1.00  0.00     0.053 C 
BRANCH   3   4
ATOM      4  C   UNL     1       4.077 -17.738   3.627  1.00  0.00     0.041 C 
ATOM      5  O   UNL     1       5.286 -17.479   3.862  1.00  0.00    -0.550 OA
ATOM      6  O   UNL     1       3.081 -16.960   4.204  1.00  0.00    -0.550 OA
ENDBRANCH   3   4
ENDBRANCH   2   3
ENDBRANCH   1   2
BRANCH   1   7
ATOM      7  C   UNL     1       3.819 -18.159  -1.081  1.00  0.00     0.000 C 
BRANCH   7   8
ATOM      8  C   UNL     1       2.580 -17.668  -1.840  1.00  0.00    -0.000 C 
BRANCH   8   9
ATOM      9  C   UNL     1       2.436 -18.390  -3.184  1.00  0.00    -0.003 C 
ATOM     10  C   UNL     1       3.584 -19.369  -3.410  1.00  0.00     0.004 C 
ENDBRANCH   8   9
ENDBRANCH   7   8
ENDBRANCH   1   7
TORSDOF 6
ENDMDL
MODEL 3
REMARK VINA RESULT:    -3.903      3.697      5.980
REMARK INTER + INTRA:          -5.513
REMARK INTER:                  -5.331
REMARK INTRA:                  -0.182
REMARK UNBOUND:                -0.241
REMARK SMILES CCCCCCCC(=O)[O-]
REMARK SMILES IDX 5 1 6 2 7 3 8 4 9 5 10 6 4 7 3 8 2 9 1 10
REMARK H PARENT
REMARK Flexibility Score: inf
ROOT
ATOM      1  C   UNL     1      12.436  -9.073  -4.081  1.00  0.00     0.000 C 
ENDROOT
BRANCH   1   2
ATOM      2  C   UNL     1      12.110  -7.908  -3.130  1.00  0.00     0.006 C 
BRANCH   2   3
ATOM      3  C   UNL     1      13.290  -6.963  -2.856  1.00  0.00     0.053 C 
BRANCH   3   4
ATOM      4  C   UNL     1      14.376  -7.635  -2.073  1.00  0.00     0.041 C 
ATOM      5  O   UNL     1      14.227  -7.855  -0.842  1.00  0.00    -0.550 OA
ATOM      6  O   UNL     1      15.539  -8.047  -2.710  1.00  0.00    -0.550 OA
ENDBRANCH   3   4
ENDBRANCH   2   3
ENDBRANCH   1   2
BRANCH   1   7
ATOM      7  C   UNL     1      11.917  -8.839  -5.508  1.00  0.00     0.000 C 
BRANCH   7   8
ATOM      8  C   UNL     1      12.150 -10.074  -6.387  1.00  0.00    -0.000 C 
BRANCH   8   9
ATOM      9  C   UNL     1      11.829  -9.774  -7.855  1.00  0.00    -0.003 C 
ATOM     10  C   UNL     1      10.325  -9.642  -8.074  1.00  0.00     0.004 C 
ENDBRANCH   8   9
ENDBRANCH   7   8
ENDBRANCH   1   7
TORSDOF 6
ENDMDL
MODEL 4
REMARK VINA RESULT:    -3.873     10.475     11.840
REMARK INTER + INTRA:          -5.473
REMARK INTER:                  -5.273
REMARK INTRA:                  -0.200
REMARK UNBOUND:                -0.241
REMARK SMILES CCCCCCCC(=O)[O-]
REMARK SMILES IDX 5 1 6 2 7 3 8 4 9 5 10 6 4 7 3 8 2 9 1 10
REMARK H PARENT
REMARK Flexibility Score: inf
ROOT
ATOM      1  C   UNL     1      10.434 -11.368   5.157  1.00  0.00     0.000 C 
ENDROOT
BRANCH   1   2
ATOM      2  C   UNL     1      11.926 -11.443   4.788  1.00  0.00     0.006 C 
BRANCH   2   3
ATOM      3  C   UNL     1      12.720 -10.162   5.090  1.00  0.00     0.053 C 
BRANCH   3   4
ATOM      4  C   UNL     1      12.684  -9.198   3.944  1.00  0.00     0.041 C 
ATOM      5  O   UNL     1      12.309  -8.010   4.126  1.00  0.00    -0.550 OA
ATOM      6  O   UNL     1      13.096  -9.604   2.681  1.00  0.00    -0.550 OA
ENDBRANCH   3   4
ENDBRANCH   2   3
ENDBRANCH   1   2
BRANCH   1   7
ATOM      7  C   UNL     1       9.831 -12.743   5.481  1.00  0.00     0.000 C 
BRANCH   7   8
ATOM      8  C   UNL     1       8.609 -12.605   6.397  1.00  0.00    -0.000 C 
BRANCH   8   9
ATOM      9  C   UNL     1       8.262 -13.944   7.058  1.00  0.00    -0.003 C 
ATOM     10  C   UNL     1       9.395 -14.952   6.890  1.00  0.00     0.004 C 
ENDBRANCH   8   9
ENDBRANCH   7   8
ENDBRANCH   1   7
TORSDOF 6
ENDMDL
MODEL 5
REMARK VINA RESULT:    -3.869      4.089      7.069
REMARK INTER + INTRA:          -5.467
REMARK INTER:                  -5.309
REMARK INTRA:                  -0.158
REMARK UNBOUND:                -0.241
REMARK SMILES CCCCCCCC(=O)[O-]
REMARK SMILES IDX 5 1 6 2 7 3 8 4 9 5 10 6 4 7 3 8 2 9 1 10
REMARK H PARENT
REMARK Flexibility Score: inf
ROOT
ATOM      1  C   UNL     1       9.301 -12.046  -7.416  1.00  0.00     0.000 C 
ENDROOT
BRANCH   1   2
ATOM      2  C   UNL     1       9.212 -10.521  -7.222  1.00  0.00     0.006 C 
BRANCH   2   3
ATOM      3  C   UNL     1      10.068  -9.706  -8.205  1.00  0.00     0.053 C 
BRANCH   3   4
ATOM      4  C   UNL     1      11.532  -9.968  -8.023  1.00  0.00     0.041 C 
ATOM      5  O   UNL     1      12.160  -9.427  -7.076  1.00  0.00    -0.550 OA
ATOM      6  O   UNL     1      12.195 -10.834  -8.882  1.00  0.00    -0.550 OA
ENDBRANCH   3   4
ENDBRANCH   2   3
ENDBRANCH   1   2
BRANCH   1   7
ATOM      7  C   UNL     1       8.002 -12.651  -7.971  1.00  0.00     0.000 C 
BRANCH   7   8
ATOM      8  C   UNL     1       8.086 -14.182  -8.017  1.00  0.00    -0.000 C 
BRANCH   8   9
ATOM      9  C   UNL     1       7.050 -14.761  -8.987  1.00  0.00    -0.003 C 
ATOM     10  C   UNL     1       5.668 -14.827  -8.342  1.00  0.00     0.004 C 
ENDBRANCH   8   9
ENDBRANCH   7   8
ENDBRANCH   1   7
TORSDOF 6
ENDMDL
MODEL 6
REMARK VINA RESULT:    -3.849     13.579     14.778
REMARK INTER + INTRA:          -5.441
REMARK INTER:                  -5.209
REMARK INTRA:                  -0.232
REMARK UNBOUND:                -0.241
REMARK SMILES CCCCCCCC(=O)[O-]
REMARK SMILES IDX 5 1 6 2 7 3 8 4 9 5 10 6 4 7 3 8 2 9 1 10
REMARK H PARENT
REMARK Flexibility Score: inf
ROOT
ATOM      1  C   UNL     1       6.569 -15.355   4.865  1.00  0.00     0.000 C 
ENDROOT
BRANCH   1   2
ATOM      2  C   UNL     1       7.686 -15.943   5.746  1.00  0.00     0.006 C 
BRANCH   2   3
ATOM      3  C   UNL     1       7.973 -15.142   7.025  1.00  0.00     0.053 C 
BRANCH   3   4
ATOM      4  C   UNL     1       8.391 -13.735   6.723  1.00  0.00     0.041 C 
ATOM      5  O   UNL     1       7.734 -12.766   7.186  1.00  0.00    -0.550 OA
ATOM      6  O   UNL     1       9.524 -13.496   5.956  1.00  0.00    -0.550 OA
ENDBRANCH   3   4
ENDBRANCH   2   3
ENDBRANCH   1   2
BRANCH   1   7
ATOM      7  C   UNL     1       5.800 -16.430   4.083  1.00  0.00     0.000 C 
BRANCH   7   8
ATOM      8  C   UNL     1       4.312 -16.419   4.454  1.00  0.00    -0.000 C 
BRANCH   8   9
ATOM      9  C   UNL     1       3.524 -17.420   3.601  1.00  0.00    -0.003 C 
ATOM     10  C   UNL     1       4.251 -18.758   3.510  1.00  0.00     0.004 C 
ENDBRANCH   8   9
ENDBRANCH   7   8
ENDBRANCH   1   7
TORSDOF 6
ENDMDL
MODEL 7
REMARK VINA RESULT:    -3.846      4.983      6.479
REMARK INTER + INTRA:          -5.436
REMARK INTER:                  -5.203
REMARK INTRA:                  -0.233
REMARK UNBOUND:                -0.241
REMARK SMILES CCCCCCCC(=O)[O-]
REMARK SMILES IDX 5 1 6 2 7 3 8 4 9 5 10 6 4 7 3 8 2 9 1 10
REMARK H PARENT
REMARK Flexibility Score: inf
ROOT
ATOM      1  C   UNL     1       8.010 -12.640  -7.485  1.00  0.00     0.000 C 
ENDROOT
BRANCH   1   2
ATOM      2  C   UNL     1       8.178 -14.008  -8.169  1.00  0.00     0.006 C 
BRANCH   2   3
ATOM      3  C   UNL     1       6.921 -14.513  -8.894  1.00  0.00     0.053 C 
BRANCH   3   4
ATOM      4  C   UNL     1       5.782 -14.742  -7.948  1.00  0.00     0.041 C 
ATOM      5  O   UNL     1       4.753 -14.020  -8.009  1.00  0.00    -0.550 OA
ATOM      6  O   UNL     1       5.847 -15.772  -7.019  1.00  0.00    -0.550 OA
ENDBRANCH   3   4
ENDBRANCH   2   3
ENDBRANCH   1   2
BRANCH   1   7
ATOM      7  C   UNL     1       9.315 -11.831  -7.442  1.00  0.00     0.000 C 
BRANCH   7   8
ATOM      8  C   UNL     1       9.094 -10.404  -7.957  1.00  0.00    -0.000 C 
BRANCH   8   9
ATOM      9  C   UNL     1      10.414  -9.626  -8.010  1.00  0.00    -0.003 C 
ATOM     10  C   UNL     1      11.600 -10.568  -8.199  1.00  0.00     0.004 C 
ENDBRANCH   8   9
ENDBRANCH   7   8
ENDBRANCH   1   7
TORSDOF 6
ENDMDL
MODEL 8
REMARK VINA RESULT:    -3.808      5.109      6.518
REMARK INTER + INTRA:          -5.384
REMARK INTER:                  -5.164
REMARK INTRA:                  -0.221
REMARK UNBOUND:                -0.241
REMARK SMILES CCCCCCCC(=O)[O-]
REMARK SMILES IDX 5 1 6 2 7 3 8 4 9 5 10 6 4 7 3 8 2 9 1 10
REMARK H PARENT
REMARK Flexibility Score: inf
ROOT
ATOM      1  C   UNL     1      12.858  -8.477   0.530  1.00  0.00     0.000 C 
ENDROOT
BRANCH   1   2
ATOM      2  C   UNL     1      14.042  -8.816  -0.393  1.00  0.00     0.006 C 
BRANCH   2   3
ATOM      3  C   UNL     1      14.410  -7.703  -1.387  1.00  0.00     0.053 C 
BRANCH   3   4
ATOM      4  C   UNL     1      13.402  -7.578  -2.487  1.00  0.00     0.041 C 
ATOM      5  O   UNL     1      12.649  -6.570  -2.545  1.00  0.00    -0.550 OA
ATOM      6  O   UNL     1      13.315  -8.559  -3.466  1.00  0.00    -0.550 OA
ENDBRANCH   3   4
ENDBRANCH   2   3
ENDBRANCH   1   2
BRANCH   1   7
ATOM      7  C   UNL     1      12.911  -9.231   1.867  1.00  0.00     0.000 C 
BRANCH   7   8
ATOM      8  C   UNL     1      12.195  -8.442   2.971  1.00  0.00    -0.000 C 
BRANCH   8   9
ATOM      9  C   UNL     1      12.655  -8.898   4.360  1.00  0.00    -0.003 C 
ATOM     10  C   UNL     1      13.684 -10.020   4.259  1.00  0.00     0.004 C 
ENDBRANCH   8   9
ENDBRANCH   7   8
ENDBRANCH   1   7
TORSDOF 6
ENDMDL
MODEL 9
REMARK VINA RESULT:    -3.783     10.179     11.614
REMARK INTER + INTRA:          -5.351
REMARK INTER:                  -5.125
REMARK INTRA:                  -0.227
REMARK UNBOUND:                -0.241
REMARK SMILES CCCCCCCC(=O)[O-]
REMARK SMILES IDX 5 1 6 2 7 3 8 4 9 5 10 6 4 7 3 8 2 9 1 10
REMARK H PARENT
REMARK Flexibility Score: inf
ROOT
ATOM      1  C   UNL     1      11.450 -11.382   4.742  1.00  0.00     0.000 C 
ENDROOT
BRANCH   1   2
ATOM      2  C   UNL     1      10.120 -11.521   5.506  1.00  0.00     0.006 C 
BRANCH   2   3
ATOM      3  C   UNL     1       9.510 -12.930   5.466  1.00  0.00     0.053 C 
BRANCH   3   4
ATOM      4  C   UNL     1       8.322 -13.053   6.370  1.00  0.00     0.041 C 
ATOM      5  O   UNL     1       8.331 -13.880   7.320  1.00  0.00    -0.550 OA
ATOM      6  O   UNL     1       7.218 -12.231   6.183  1.00  0.00    -0.550 OA
ENDBRANCH   3   4
ENDBRANCH   2   3
ENDBRANCH   1   2
BRANCH   1   7
ATOM      7  C   UNL     1      12.490 -10.548   5.504  1.00  0.00     0.000 C 
BRANCH   7   8
ATOM      8  C   UNL     1      13.253  -9.619   4.552  1.00  0.00    -0.000 C 
BRANCH   8   9
ATOM      9  C   UNL     1      12.341  -8.507   4.020  1.00  0.00    -0.003 C 
ATOM     10  C   UNL     1      12.349  -8.471   2.495  1.00  0.00     0.004 C 
ENDBRANCH   8   9
ENDBRANCH   7   8
ENDBRANCH   1   7
TORSDOF 6
ENDMDL
