MODEL 1
REMARK VINA RESULT:    -3.782      0.000      0.000
REMARK INTER + INTRA:         -11.023
REMARK INTER:                  -8.205
REMARK INTRA:                  -2.818
REMARK UNBOUND:                -2.818
REMARK SMILES CCCCCCCCCCCCCCCCCCCCCC(=O)[O-]
REMARK SMILES IDX 12 1 11 2 10 3 9 4 8 5 7 6 6 7 5 8 4 9 3 10 2 11 1 12 13 13
REMARK SMILES IDX 14 14 15 15 16 16 17 17 18 18 19 19 20 20 21 21 22 22 23 23
REMARK SMILES IDX 24 24
REMARK H PARENT
REMARK Flexibility Score: inf
ROOT
ATOM      1  C   UNL     1      -4.330 -67.855  -4.514  1.00  0.00     0.000 C 
ENDROOT
BRANCH   1   2
ATOM      2  C   UNL     1      -3.646 -67.260  -5.755  1.00  0.00     0.000 C 
BRANCH   2   3
ATOM      3  C   UNL     1      -4.531 -67.322  -7.011  1.00  0.00     0.000 C 
BRANCH   3   4
ATOM      4  C   UNL     1      -5.178 -65.967  -7.346  1.00  0.00    -0.000 C 
BRANCH   4   5
ATOM      5  C   UNL     1      -4.185 -64.971  -7.973  1.00  0.00    -0.000 C 
BRANCH   5   6
ATOM      6  C   UNL     1      -4.092 -63.602  -7.271  1.00  0.00    -0.000 C 
BRANCH   6   7
ATOM      7  C   UNL     1      -2.661 -63.114  -6.980  1.00  0.00    -0.000 C 
BRANCH   7   8
ATOM      8  C   UNL     1      -1.702 -64.258  -6.620  1.00  0.00    -0.000 C 
BRANCH   8   9
ATOM      9  C   UNL     1      -0.499 -64.287  -7.575  1.00  0.00    -0.000 C 
BRANCH   9  10
ATOM     10  C   UNL     1       0.853 -64.257  -6.838  1.00  0.00    -0.000 C 
BRANCH  10  11
ATOM     11  C   UNL     1       1.555 -62.887  -6.836  1.00  0.00    -0.003 C 
ATOM     12  C   UNL     1       0.899 -61.877  -7.775  1.00  0.00     0.004 C 
ENDBRANCH  10  11
ENDBRANCH   9  10
ENDBRANCH   8   9
ENDBRANCH   7   8
ENDBRANCH   6   7
ENDBRANCH   5   6
ENDBRANCH   4   5
ENDBRANCH   3   4
ENDBRANCH   2   3
ENDBRANCH   1   2
BRANCH   1  13
ATOM     13  C   UNL     1      -4.423 -66.816  -3.387  1.00  0.00     0.000 C 
BRANCH  13  14
ATOM     14  C   UNL     1      -3.926 -65.421  -3.812  1.00  0.00     0.000 C 
BRANCH  14  15
ATOM     15  C   UNL     1      -5.004 -64.322  -3.835  1.00  0.00     0.000 C 
BRANCH  15  16
ATOM     16  C   UNL     1      -4.644 -63.111  -2.956  1.00  0.00     0.000 C 
BRANCH  16  17
ATOM     17  C   UNL     1      -5.539 -63.000  -1.711  1.00  0.00     0.000 C 
BRANCH  17  18
ATOM     18  C   UNL     1      -7.036 -62.926  -2.058  1.00  0.00     0.000 C 
BRANCH  18  19
ATOM     19  C   UNL     1      -7.815 -64.163  -1.587  1.00  0.00     0.000 C 
BRANCH  19  20
ATOM     20  C   UNL     1      -7.022 -65.013  -0.582  1.00  0.00     0.006 C 
BRANCH  20  21
ATOM     21  C   UNL     1      -7.303 -66.506  -0.787  1.00  0.00     0.053 C 
BRANCH  21  22
ATOM     22  C   UNL     1      -8.650 -66.864  -0.246  1.00  0.00     0.041 C 
ATOM     23  O   UNL     1      -9.100 -66.278   0.774  1.00  0.00    -0.550 OA
ATOM     24  O   UNL     1      -9.389 -67.881  -0.838  1.00  0.00    -0.550 OA
ENDBRANCH  21  22
ENDBRANCH  20  21
ENDBRANCH  19  20
ENDBRANCH  18  19
ENDBRANCH  17  18
ENDBRANCH  16  17
ENDBRANCH  15  16
ENDBRANCH  14  15
ENDBRANCH  13  14
ENDBRANCH   1  13
TORSDOF 20
ENDMDL
MODEL 2
REMARK VINA RESULT:    -3.777      3.560      6.492
REMARK INTER + INTRA:         -11.011
REMARK INTER:                  -7.575
REMARK INTRA:                  -3.435
REMARK UNBOUND:                -2.818
REMARK SMILES CCCCCCCCCCCCCCCCCCCCCC(=O)[O-]
REMARK SMILES IDX 12 1 11 2 10 3 9 4 8 5 7 6 6 7 5 8 4 9 3 10 2 11 1 12 13 13
REMARK SMILES IDX 14 14 15 15 16 16 17 17 18 18 19 19 20 20 21 21 22 22 23 23
REMARK SMILES IDX 24 24
REMARK H PARENT
REMARK Flexibility Score: inf
ROOT
ATOM      1  C   UNL     1      -8.811 -65.148  -0.715  1.00  0.00     0.000 C 
ENDROOT
BRANCH   1   2
ATOM      2  C   UNL     1      -7.373 -64.854  -1.171  1.00  0.00     0.000 C 
BRANCH   2   3
ATOM      3  C   UNL     1      -6.400 -66.000  -0.849  1.00  0.00     0.000 C 
BRANCH   3   4
ATOM      4  C   UNL     1      -5.063 -65.495  -0.277  1.00  0.00    -0.000 C 
BRANCH   4   5
ATOM      5  C   UNL     1      -4.917 -63.966  -0.364  1.00  0.00    -0.000 C 
BRANCH   5   6
ATOM      6  C   UNL     1      -3.669 -63.465  -1.119  1.00  0.00    -0.000 C 
BRANCH   6   7
ATOM      7  C   UNL     1      -3.001 -64.504  -2.039  1.00  0.00    -0.000 C 
BRANCH   7   8
ATOM      8  C   UNL     1      -3.363 -64.311  -3.519  1.00  0.00    -0.000 C 
BRANCH   8   9
ATOM      9  C   UNL     1      -4.492 -65.265  -3.937  1.00  0.00    -0.000 C 
BRANCH   9  10
ATOM     10  C   UNL     1      -4.141 -66.747  -3.711  1.00  0.00    -0.000 C 
BRANCH  10  11
ATOM     11  C   UNL     1      -4.137 -67.611  -4.984  1.00  0.00    -0.003 C 
ATOM     12  C   UNL     1      -4.125 -66.783  -6.268  1.00  0.00     0.004 C 
ENDBRANCH  10  11
ENDBRANCH   9  10
ENDBRANCH   8   9
ENDBRANCH   7   8
ENDBRANCH   6   7
ENDBRANCH   5   6
ENDBRANCH   4   5
ENDBRANCH   3   4
ENDBRANCH   2   3
ENDBRANCH   1   2
BRANCH   1  13
ATOM     13  C   UNL     1      -8.845 -66.335   0.259  1.00  0.00     0.000 C 
BRANCH  13  14
ATOM     14  C   UNL     1      -8.962 -65.903   1.732  1.00  0.00     0.000 C 
BRANCH  14  15
ATOM     15  C   UNL     1      -7.718 -66.182   2.596  1.00  0.00     0.000 C 
BRANCH  15  16
ATOM     16  C   UNL     1      -6.910 -64.911   2.912  1.00  0.00     0.000 C 
BRANCH  16  17
ATOM     17  C   UNL     1      -7.644 -63.627   2.490  1.00  0.00     0.000 C 
BRANCH  17  18
ATOM     18  C   UNL     1      -6.967 -62.352   3.025  1.00  0.00     0.000 C 
BRANCH  18  19
ATOM     19  C   UNL     1      -6.384 -61.478   1.904  1.00  0.00     0.000 C 
BRANCH  19  20
ATOM     20  C   UNL     1      -7.322 -61.365   0.693  1.00  0.00     0.006 C 
BRANCH  20  21
ATOM     21  C   UNL     1      -7.715 -59.906   0.440  1.00  0.00     0.053 C 
BRANCH  21  22
ATOM     22  C   UNL     1      -8.584 -59.398   1.546  1.00  0.00     0.041 C 
ATOM     23  O   UNL     1      -9.661 -59.987   1.828  1.00  0.00    -0.550 OA
ATOM     24  O   UNL     1      -8.230 -58.244   2.234  1.00  0.00    -0.550 OA
ENDBRANCH  21  22
ENDBRANCH  20  21
ENDBRANCH  19  20
ENDBRANCH  18  19
ENDBRANCH  17  18
ENDBRANCH  16  17
ENDBRANCH  15  16
ENDBRANCH  14  15
ENDBRANCH  13  14
ENDBRANCH   1  13
TORSDOF 20
ENDMDL
MODEL 3
REMARK VINA RESULT:    -3.768      2.587      4.307
REMARK INTER + INTRA:         -10.992
REMARK INTER:                  -7.940
REMARK INTRA:                  -3.052
REMARK UNBOUND:                -2.818
REMARK SMILES CCCCCCCCCCCCCCCCCCCCCC(=O)[O-]
REMARK SMILES IDX 12 1 11 2 10 3 9 4 8 5 7 6 6 7 5 8 4 9 3 10 2 11 1 12 13 13
REMARK SMILES IDX 14 14 15 15 16 16 17 17 18 18 19 19 20 20 21 21 22 22 23 23
REMARK SMILES IDX 24 24
REMARK H PARENT
REMARK Flexibility Score: inf
ROOT
ATOM      1  C   UNL     1      -4.339 -67.468  -6.533  1.00  0.00     0.000 C 
ENDROOT
BRANCH   1   2
ATOM      2  C   UNL     1      -3.714 -66.289  -7.295  1.00  0.00     0.000 C 
BRANCH   2   3
ATOM      3  C   UNL     1      -4.731 -65.535  -8.166  1.00  0.00     0.000 C 
BRANCH   3   4
ATOM      4  C   UNL     1      -6.088 -65.350  -7.463  1.00  0.00    -0.000 C 
BRANCH   4   5
ATOM      5  C   UNL     1      -7.282 -65.673  -8.378  1.00  0.00    -0.000 C 
BRANCH   5   6
ATOM      6  C   UNL     1      -6.972 -65.684  -9.888  1.00  0.00    -0.000 C 
BRANCH   6   7
ATOM      7  C   UNL     1      -7.207 -67.033 -10.593  1.00  0.00    -0.000 C 
BRANCH   7   8
ATOM      8  C   UNL     1      -7.491 -68.178  -9.611  1.00  0.00    -0.000 C 
BRANCH   8   9
ATOM      9  C   UNL     1      -6.230 -69.021  -9.370  1.00  0.00    -0.000 C 
BRANCH   9  10
ATOM     10  C   UNL     1      -5.241 -68.972 -10.549  1.00  0.00    -0.000 C 
BRANCH  10  11
ATOM     11  C   UNL     1      -3.775 -68.723 -10.152  1.00  0.00    -0.003 C 
ATOM     12  C   UNL     1      -3.134 -67.571 -10.923  1.00  0.00     0.004 C 
ENDBRANCH  10  11
ENDBRANCH   9  10
ENDBRANCH   8   9
ENDBRANCH   7   8
ENDBRANCH   6   7
ENDBRANCH   5   6
ENDBRANCH   4   5
ENDBRANCH   3   4
ENDBRANCH   2   3
ENDBRANCH   1   2
BRANCH   1  13
ATOM     13  C   UNL     1      -3.685 -67.639  -5.154  1.00  0.00     0.000 C 
BRANCH  13  14
ATOM     14  C   UNL     1      -4.382 -66.822  -4.051  1.00  0.00     0.000 C 
BRANCH  14  15
ATOM     15  C   UNL     1      -3.759 -65.443  -3.764  1.00  0.00     0.000 C 
BRANCH  15  16
ATOM     16  C   UNL     1      -4.778 -64.294  -3.861  1.00  0.00     0.000 C 
BRANCH  16  17
ATOM     17  C   UNL     1      -5.518 -64.048  -2.535  1.00  0.00     0.000 C 
BRANCH  17  18
ATOM     18  C   UNL     1      -4.675 -64.428  -1.304  1.00  0.00     0.000 C 
BRANCH  18  19
ATOM     19  C   UNL     1      -5.341 -65.513  -0.444  1.00  0.00     0.000 C 
BRANCH  19  20
ATOM     20  C   UNL     1      -6.875 -65.472  -0.525  1.00  0.00     0.006 C 
BRANCH  20  21
ATOM     21  C   UNL     1      -7.437 -66.834  -0.946  1.00  0.00     0.053 C 
BRANCH  21  22
ATOM     22  C   UNL     1      -8.766 -67.073  -0.305  1.00  0.00     0.041 C 
ATOM     23  O   UNL     1      -9.090 -66.443   0.738  1.00  0.00    -0.550 OA
ATOM     24  O   UNL     1      -9.630 -68.027  -0.828  1.00  0.00    -0.550 OA
ENDBRANCH  21  22
ENDBRANCH  20  21
ENDBRANCH  19  20
ENDBRANCH  18  19
ENDBRANCH  17  18
ENDBRANCH  16  17
ENDBRANCH  15  16
ENDBRANCH  14  15
ENDBRANCH  13  14
ENDBRANCH   1  13
TORSDOF 20
ENDMDL
MODEL 4
REMARK VINA RESULT:    -3.756      4.243      6.778
REMARK INTER + INTRA:         -10.965
REMARK INTER:                  -7.178
REMARK INTRA:                  -3.787
REMARK UNBOUND:                -2.818
REMARK SMILES CCCCCCCCCCCCCCCCCCCCCC(=O)[O-]
REMARK SMILES IDX 12 1 11 2 10 3 9 4 8 5 7 6 6 7 5 8 4 9 3 10 2 11 1 12 13 13
REMARK SMILES IDX 14 14 15 15 16 16 17 17 18 18 19 19 20 20 21 21 22 22 23 23
REMARK SMILES IDX 24 24
REMARK H PARENT
REMARK Flexibility Score: inf
ROOT
ATOM      1  C   UNL     1      -8.565 -65.580  -0.736  1.00  0.00     0.000 C 
ENDROOT
BRANCH   1   2
ATOM      2  C   UNL     1      -7.280 -66.420  -0.668  1.00  0.00     0.000 C 
BRANCH   2   3
ATOM      3  C   UNL     1      -6.020 -65.566  -0.453  1.00  0.00     0.000 C 
BRANCH   3   4
ATOM      4  C   UNL     1      -4.771 -66.182  -1.108  1.00  0.00    -0.000 C 
BRANCH   4   5
ATOM      5  C   UNL     1      -4.752 -66.005  -2.637  1.00  0.00    -0.000 C 
BRANCH   5   6
ATOM      6  C   UNL     1      -3.566 -65.189  -3.192  1.00  0.00    -0.000 C 
BRANCH   6   7
ATOM      7  C   UNL     1      -2.947 -64.183  -2.203  1.00  0.00    -0.000 C 
BRANCH   7   8
ATOM      8  C   UNL     1      -3.406 -62.739  -2.457  1.00  0.00    -0.000 C 
BRANCH   8   9
ATOM      9  C   UNL     1      -4.339 -62.254  -1.338  1.00  0.00    -0.000 C 
BRANCH   9  10
ATOM     10  C   UNL     1      -5.583 -61.520  -1.870  1.00  0.00    -0.000 C 
BRANCH  10  11
ATOM     11  C   UNL     1      -6.873 -62.361  -1.883  1.00  0.00    -0.003 C 
ATOM     12  C   UNL     1      -7.075 -63.125  -3.189  1.00  0.00     0.004 C 
ENDBRANCH  10  11
ENDBRANCH   9  10
ENDBRANCH   8   9
ENDBRANCH   7   8
ENDBRANCH   6   7
ENDBRANCH   5   6
ENDBRANCH   4   5
ENDBRANCH   3   4
ENDBRANCH   2   3
ENDBRANCH   1   2
BRANCH   1  13
ATOM     13  C   UNL     1      -9.286 -65.570   0.620  1.00  0.00     0.000 C 
BRANCH  13  14
ATOM     14  C   UNL     1      -8.650 -66.525   1.647  1.00  0.00     0.000 C 
BRANCH  14  15
ATOM     15  C   UNL     1      -8.380 -65.911   3.033  1.00  0.00     0.000 C 
BRANCH  15  16
ATOM     16  C   UNL     1      -6.885 -65.663   3.297  1.00  0.00     0.000 C 
BRANCH  16  17
ATOM     17  C   UNL     1      -6.438 -64.253   2.875  1.00  0.00     0.000 C 
BRANCH  17  18
ATOM     18  C   UNL     1      -7.564 -63.211   2.993  1.00  0.00     0.000 C 
BRANCH  18  19
ATOM     19  C   UNL     1      -7.753 -62.396   1.704  1.00  0.00     0.000 C 
BRANCH  19  20
ATOM     20  C   UNL     1      -6.796 -61.198   1.617  1.00  0.00     0.006 C 
BRANCH  20  21
ATOM     21  C   UNL     1      -7.498 -59.904   2.043  1.00  0.00     0.053 C 
BRANCH  21  22
ATOM     22  C   UNL     1      -8.460 -59.459   0.987  1.00  0.00     0.041 C 
ATOM     23  O   UNL     1      -8.082 -59.347  -0.209  1.00  0.00    -0.550 OA
ATOM     24  O   UNL     1      -9.762 -59.121   1.332  1.00  0.00    -0.550 OA
ENDBRANCH  21  22
ENDBRANCH  20  21
ENDBRANCH  19  20
ENDBRANCH  18  19
ENDBRANCH  17  18
ENDBRANCH  16  17
ENDBRANCH  15  16
ENDBRANCH  14  15
ENDBRANCH  13  14
ENDBRANCH   1  13
TORSDOF 20
ENDMDL
MODEL 5
REMARK VINA RESULT:    -3.738      2.659      4.313
REMARK INTER + INTRA:         -10.927
REMARK INTER:                  -8.183
REMARK INTRA:                  -2.743
REMARK UNBOUND:                -2.818
REMARK SMILES CCCCCCCCCCCCCCCCCCCCCC(=O)[O-]
REMARK SMILES IDX 12 1 11 2 10 3 9 4 8 5 7 6 6 7 5 8 4 9 3 10 2 11 1 12 13 13
REMARK SMILES IDX 14 14 15 15 16 16 17 17 18 18 19 19 20 20 21 21 22 22 23 23
REMARK SMILES IDX 24 24
REMARK H PARENT
REMARK Flexibility Score: inf
ROOT
ATOM      1  C   UNL     1      -3.719 -65.429  -4.074  1.00  0.00     0.000 C 
ENDROOT
BRANCH   1   2
ATOM      2  C   UNL     1      -4.322 -66.712  -3.480  1.00  0.00     0.000 C 
BRANCH   2   3
ATOM      3  C   UNL     1      -4.433 -67.850  -4.507  1.00  0.00     0.000 C 
BRANCH   3   4
ATOM      4  C   UNL     1      -3.538 -67.624  -5.737  1.00  0.00    -0.000 C 
BRANCH   4   5
ATOM      5  C   UNL     1      -4.203 -68.077  -7.050  1.00  0.00    -0.000 C 
BRANCH   5   6
ATOM      6  C   UNL     1      -4.745 -66.941  -7.941  1.00  0.00    -0.000 C 
BRANCH   6   7
ATOM      7  C   UNL     1      -4.243 -65.531  -7.578  1.00  0.00    -0.000 C 
BRANCH   7   8
ATOM      8  C   UNL     1      -5.200 -64.421  -8.038  1.00  0.00    -0.000 C 
BRANCH   8   9
ATOM      9  C   UNL     1      -6.324 -64.205  -7.014  1.00  0.00    -0.000 C 
BRANCH   9  10
ATOM     10  C   UNL     1      -7.729 -64.339  -7.629  1.00  0.00    -0.000 C 
BRANCH  10  11
ATOM     11  C   UNL     1      -7.779 -65.106  -8.963  1.00  0.00    -0.003 C 
ATOM     12  C   UNL     1      -8.225 -64.235 -10.136  1.00  0.00     0.004 C 
ENDBRANCH  10  11
ENDBRANCH   9  10
ENDBRANCH   8   9
ENDBRANCH   7   8
ENDBRANCH   6   7
ENDBRANCH   5   6
ENDBRANCH   4   5
ENDBRANCH   3   4
ENDBRANCH   2   3
ENDBRANCH   1   2
BRANCH   1  13
ATOM     13  C   UNL     1      -4.622 -64.218  -3.795  1.00  0.00     0.000 C 
BRANCH  13  14
ATOM     14  C   UNL     1      -3.956 -63.167  -2.888  1.00  0.00     0.000 C 
BRANCH  14  15
ATOM     15  C   UNL     1      -2.505 -63.480  -2.479  1.00  0.00     0.000 C 
BRANCH  15  16
ATOM     16  C   UNL     1      -2.378 -63.915  -1.008  1.00  0.00     0.000 C 
BRANCH  16  17
ATOM     17  C   UNL     1      -3.727 -63.897  -0.269  1.00  0.00     0.000 C 
BRANCH  17  18
ATOM     18  C   UNL     1      -4.332 -65.302  -0.101  1.00  0.00     0.000 C 
BRANCH  18  19
ATOM     19  C   UNL     1      -5.834 -65.265   0.219  1.00  0.00     0.000 C 
BRANCH  19  20
ATOM     20  C   UNL     1      -6.708 -65.571  -1.006  1.00  0.00     0.006 C 
BRANCH  20  21
ATOM     21  C   UNL     1      -7.775 -66.617  -0.669  1.00  0.00     0.053 C 
BRANCH  21  22
ATOM     22  C   UNL     1      -8.668 -66.122   0.423  1.00  0.00     0.041 C 
ATOM     23  O   UNL     1      -9.419 -65.130   0.228  1.00  0.00    -0.550 OA
ATOM     24  O   UNL     1      -8.635 -66.724   1.675  1.00  0.00    -0.550 OA
ENDBRANCH  21  22
ENDBRANCH  20  21
ENDBRANCH  19  20
ENDBRANCH  18  19
ENDBRANCH  17  18
ENDBRANCH  16  17
ENDBRANCH  15  16
ENDBRANCH  14  15
ENDBRANCH  13  14
ENDBRANCH   1  13
TORSDOF 20
ENDMDL
MODEL 6
REMARK VINA RESULT:    -3.695      3.102      6.032
REMARK INTER + INTRA:         -10.834
REMARK INTER:                  -7.471
REMARK INTRA:                  -3.363
REMARK UNBOUND:                -2.818
REMARK SMILES CCCCCCCCCCCCCCCCCCCCCC(=O)[O-]
REMARK SMILES IDX 12 1 11 2 10 3 9 4 8 5 7 6 6 7 5 8 4 9 3 10 2 11 1 12 13 13
REMARK SMILES IDX 14 14 15 15 16 16 17 17 18 18 19 19 20 20 21 21 22 22 23 23
REMARK SMILES IDX 24 24
REMARK H PARENT
REMARK Flexibility Score: inf
ROOT
ATOM      1  C   UNL     1      -8.389 -66.483  -0.580  1.00  0.00     0.000 C 
ENDROOT
BRANCH   1   2
ATOM      2  C   UNL     1      -7.079 -65.696  -0.741  1.00  0.00     0.000 C 
BRANCH   2   3
ATOM      3  C   UNL     1      -6.019 -66.461  -1.549  1.00  0.00     0.000 C 
BRANCH   3   4
ATOM      4  C   UNL     1      -4.611 -66.341  -0.939  1.00  0.00    -0.000 C 
BRANCH   4   5
ATOM      5  C   UNL     1      -4.293 -64.917  -0.449  1.00  0.00    -0.000 C 
BRANCH   5   6
ATOM      6  C   UNL     1      -3.133 -64.211  -1.179  1.00  0.00    -0.000 C 
BRANCH   6   7
ATOM      7  C   UNL     1      -3.049 -64.489  -2.692  1.00  0.00    -0.000 C 
BRANCH   7   8
ATOM      8  C   UNL     1      -4.055 -63.662  -3.507  1.00  0.00    -0.000 C 
BRANCH   8   9
ATOM      9  C   UNL     1      -4.790 -64.542  -4.528  1.00  0.00    -0.000 C 
BRANCH   9  10
ATOM     10  C   UNL     1      -3.834 -65.299  -5.467  1.00  0.00    -0.000 C 
BRANCH  10  11
ATOM     11  C   UNL     1      -4.228 -66.760  -5.748  1.00  0.00    -0.003 C 
ATOM     12  C   UNL     1      -4.243 -67.627  -4.492  1.00  0.00     0.004 C 
ENDBRANCH  10  11
ENDBRANCH   9  10
ENDBRANCH   8   9
ENDBRANCH   7   8
ENDBRANCH   6   7
ENDBRANCH   5   6
ENDBRANCH   4   5
ENDBRANCH   3   4
ENDBRANCH   2   3
ENDBRANCH   1   2
BRANCH   1  13
ATOM     13  C   UNL     1      -9.102 -66.101   0.726  1.00  0.00     0.000 C 
BRANCH  13  14
ATOM     14  C   UNL     1      -8.418 -66.680   1.978  1.00  0.00     0.000 C 
BRANCH  14  15
ATOM     15  C   UNL     1      -8.395 -65.748   3.202  1.00  0.00     0.000 C 
BRANCH  15  16
ATOM     16  C   UNL     1      -6.974 -65.308   3.595  1.00  0.00     0.000 C 
BRANCH  16  17
ATOM     17  C   UNL     1      -6.322 -64.406   2.534  1.00  0.00     0.000 C 
BRANCH  17  18
ATOM     18  C   UNL     1      -6.903 -62.981   2.525  1.00  0.00     0.000 C 
BRANCH  18  19
ATOM     19  C   UNL     1      -7.701 -62.676   1.248  1.00  0.00     0.000 C 
BRANCH  19  20
ATOM     20  C   UNL     1      -7.099 -61.518   0.437  1.00  0.00     0.006 C 
BRANCH  20  21
ATOM     21  C   UNL     1      -6.257 -62.046  -0.729  1.00  0.00     0.053 C 
BRANCH  21  22
ATOM     22  C   UNL     1      -6.917 -61.735  -2.034  1.00  0.00     0.041 C 
ATOM     23  O   UNL     1      -7.327 -62.668  -2.776  1.00  0.00    -0.550 OA
ATOM     24  O   UNL     1      -7.037 -60.417  -2.457  1.00  0.00    -0.550 OA
ENDBRANCH  21  22
ENDBRANCH  20  21
ENDBRANCH  19  20
ENDBRANCH  18  19
ENDBRANCH  17  18
ENDBRANCH  16  17
ENDBRANCH  15  16
ENDBRANCH  14  15
ENDBRANCH  13  14
ENDBRANCH   1  13
TORSDOF 20
ENDMDL
MODEL 7
REMARK VINA RESULT:    -3.691      3.753      8.921
REMARK INTER + INTRA:         -10.823
REMARK INTER:                  -7.643
REMARK INTRA:                  -3.180
REMARK UNBOUND:                -2.818
REMARK SMILES CCCCCCCCCCCCCCCCCCCCCC(=O)[O-]
REMARK SMILES IDX 12 1 11 2 10 3 9 4 8 5 7 6 6 7 5 8 4 9 3 10 2 11 1 12 13 13
REMARK SMILES IDX 14 14 15 15 16 16 17 17 18 18 19 19 20 20 21 21 22 22 23 23
REMARK SMILES IDX 24 24
REMARK H PARENT
REMARK Flexibility Score: inf
ROOT
ATOM      1  C   UNL     1      -7.009 -62.645   0.314  1.00  0.00     0.000 C 
ENDROOT
BRANCH   1   2
ATOM      2  C   UNL     1      -6.739 -62.631  -1.199  1.00  0.00     0.000 C 
BRANCH   2   3
ATOM      3  C   UNL     1      -7.435 -63.784  -1.939  1.00  0.00     0.000 C 
BRANCH   3   4
ATOM      4  C   UNL     1      -8.517 -64.467  -1.085  1.00  0.00    -0.000 C 
BRANCH   4   5
ATOM      5  C   UNL     1      -8.166 -65.924  -0.732  1.00  0.00    -0.000 C 
BRANCH   5   6
ATOM      6  C   UNL     1      -9.101 -66.597   0.294  1.00  0.00    -0.000 C 
BRANCH   6   7
ATOM      7  C   UNL     1      -8.634 -66.508   1.759  1.00  0.00    -0.000 C 
BRANCH   7   8
ATOM      8  C   UNL     1      -7.216 -65.934   1.899  1.00  0.00    -0.000 C 
BRANCH   8   9
ATOM      9  C   UNL     1      -6.955 -65.461   3.337  1.00  0.00    -0.000 C 
BRANCH   9  10
ATOM     10  C   UNL     1      -8.073 -64.554   3.883  1.00  0.00    -0.000 C 
BRANCH  10  11
ATOM     11  C   UNL     1      -8.636 -64.977   5.252  1.00  0.00    -0.003 C 
ATOM     12  C   UNL     1      -9.905 -65.819   5.142  1.00  0.00     0.004 C 
ENDBRANCH  10  11
ENDBRANCH   9  10
ENDBRANCH   8   9
ENDBRANCH   7   8
ENDBRANCH   6   7
ENDBRANCH   5   6
ENDBRANCH   4   5
ENDBRANCH   3   4
ENDBRANCH   2   3
ENDBRANCH   1   2
BRANCH   1  13
ATOM     13  C   UNL     1      -5.757 -62.227   1.099  1.00  0.00     0.000 C 
BRANCH  13  14
ATOM     14  C   UNL     1      -4.718 -63.357   1.222  1.00  0.00     0.000 C 
BRANCH  14  15
ATOM     15  C   UNL     1      -3.520 -63.253   0.259  1.00  0.00     0.000 C 
BRANCH  15  16
ATOM     16  C   UNL     1      -3.390 -64.473  -0.669  1.00  0.00     0.000 C 
BRANCH  16  17
ATOM     17  C   UNL     1      -4.458 -65.543  -0.389  1.00  0.00     0.000 C 
BRANCH  17  18
ATOM     18  C   UNL     1      -4.792 -66.391  -1.629  1.00  0.00     0.000 C 
BRANCH  18  19
ATOM     19  C   UNL     1      -4.303 -65.745  -2.935  1.00  0.00     0.000 C 
BRANCH  19  20
ATOM     20  C   UNL     1      -4.186 -66.756  -4.086  1.00  0.00     0.006 C 
BRANCH  20  21
ATOM     21  C   UNL     1      -4.050 -66.037  -5.433  1.00  0.00     0.053 C 
BRANCH  21  22
ATOM     22  C   UNL     1      -4.493 -66.929  -6.549  1.00  0.00     0.041 C 
ATOM     23  O   UNL     1      -5.037 -66.438  -7.574  1.00  0.00    -0.550 OA
ATOM     24  O   UNL     1      -4.350 -68.306  -6.438  1.00  0.00    -0.550 OA
ENDBRANCH  21  22
ENDBRANCH  20  21
ENDBRANCH  19  20
ENDBRANCH  18  19
ENDBRANCH  17  18
ENDBRANCH  16  17
ENDBRANCH  15  16
ENDBRANCH  14  15
ENDBRANCH  13  14
ENDBRANCH   1  13
TORSDOF 20
ENDMDL
MODEL 8
REMARK VINA RESULT:    -3.650      4.112     10.083
REMARK INTER + INTRA:         -10.736
REMARK INTER:                  -7.973
REMARK INTRA:                  -2.763
REMARK UNBOUND:                -2.818
REMARK SMILES CCCCCCCCCCCCCCCCCCCCCC(=O)[O-]
REMARK SMILES IDX 12 1 11 2 10 3 9 4 8 5 7 6 6 7 5 8 4 9 3 10 2 11 1 12 13 13
REMARK SMILES IDX 14 14 15 15 16 16 17 17 18 18 19 19 20 20 21 21 22 22 23 23
REMARK SMILES IDX 24 24
REMARK H PARENT
REMARK Flexibility Score: inf
ROOT
ATOM      1  C   UNL     1      -8.464 -64.372  -1.018  1.00  0.00     0.000 C 
ENDROOT
BRANCH   1   2
ATOM      2  C   UNL     1      -8.268 -65.895  -1.090  1.00  0.00     0.000 C 
BRANCH   2   3
ATOM      3  C   UNL     1      -9.138 -66.657  -0.078  1.00  0.00     0.000 C 
BRANCH   3   4
ATOM      4  C   UNL     1      -9.089 -66.034   1.329  1.00  0.00    -0.000 C 
BRANCH   4   5
ATOM      5  C   UNL     1      -7.691 -66.117   1.969  1.00  0.00    -0.000 C 
BRANCH   5   6
ATOM      6  C   UNL     1      -7.646 -65.858   3.489  1.00  0.00    -0.000 C 
BRANCH   6   7
ATOM      7  C   UNL     1      -8.484 -66.829   4.341  1.00  0.00    -0.000 C 
BRANCH   7   8
ATOM      8  C   UNL     1      -8.120 -68.302   4.100  1.00  0.00    -0.000 C 
BRANCH   8   9
ATOM      9  C   UNL     1      -8.151 -69.097   5.414  1.00  0.00    -0.000 C 
BRANCH   9  10
ATOM     10  C   UNL     1      -8.969 -68.402   6.518  1.00  0.00    -0.000 C 
BRANCH  10  11
ATOM     11  C   UNL     1     -10.352 -69.022   6.784  1.00  0.00    -0.003 C 
ATOM     12  C   UNL     1     -11.474 -67.986   6.820  1.00  0.00     0.004 C 
ENDBRANCH  10  11
ENDBRANCH   9  10
ENDBRANCH   8   9
ENDBRANCH   7   8
ENDBRANCH   6   7
ENDBRANCH   5   6
ENDBRANCH   4   5
ENDBRANCH   3   4
ENDBRANCH   2   3
ENDBRANCH   1   2
BRANCH   1  13
ATOM     13  C   UNL     1      -7.484 -63.648  -1.952  1.00  0.00     0.000 C 
BRANCH  13  14
ATOM     14  C   UNL     1      -6.643 -62.578  -1.230  1.00  0.00     0.000 C 
BRANCH  14  15
ATOM     15  C   UNL     1      -6.626 -62.686   0.305  1.00  0.00     0.000 C 
BRANCH  15  16
ATOM     16  C   UNL     1      -5.439 -63.511   0.835  1.00  0.00     0.000 C 
BRANCH  16  17
ATOM     17  C   UNL     1      -4.227 -63.474  -0.112  1.00  0.00     0.000 C 
BRANCH  17  18
ATOM     18  C   UNL     1      -3.698 -64.877  -0.456  1.00  0.00     0.000 C 
BRANCH  18  19
ATOM     19  C   UNL     1      -4.822 -65.914  -0.603  1.00  0.00     0.000 C 
BRANCH  19  20
ATOM     20  C   UNL     1      -4.792 -66.630  -1.962  1.00  0.00     0.006 C 
BRANCH  20  21
ATOM     21  C   UNL     1      -4.345 -65.675  -3.073  1.00  0.00     0.053 C 
BRANCH  21  22
ATOM     22  C   UNL     1      -4.113 -66.425  -4.346  1.00  0.00     0.041 C 
ATOM     23  O   UNL     1      -4.007 -67.681  -4.332  1.00  0.00    -0.550 OA
ATOM     24  O   UNL     1      -3.965 -65.736  -5.543  1.00  0.00    -0.550 OA
ENDBRANCH  21  22
ENDBRANCH  20  21
ENDBRANCH  19  20
ENDBRANCH  18  19
ENDBRANCH  17  18
ENDBRANCH  16  17
ENDBRANCH  15  16
ENDBRANCH  14  15
ENDBRANCH  13  14
ENDBRANCH   1  13
TORSDOF 20
ENDMDL
MODEL 9
REMARK VINA RESULT:    -3.594      6.063      9.517
REMARK INTER + INTRA:         -10.613
REMARK INTER:                  -8.171
REMARK INTRA:                  -2.442
REMARK UNBOUND:                -2.818
REMARK SMILES CCCCCCCCCCCCCCCCCCCCCC(=O)[O-]
REMARK SMILES IDX 12 1 11 2 10 3 9 4 8 5 7 6 6 7 5 8 4 9 3 10 2 11 1 12 13 13
REMARK SMILES IDX 14 14 15 15 16 16 17 17 18 18 19 19 20 20 21 21 22 22 23 23
REMARK SMILES IDX 24 24
REMARK H PARENT
REMARK Flexibility Score: inf
ROOT
ATOM      1  C   UNL     1      -8.153 -66.492   1.901  1.00  0.00     0.000 C 
ENDROOT
BRANCH   1   2
ATOM      2  C   UNL     1      -9.136 -65.735   0.993  1.00  0.00     0.000 C 
BRANCH   2   3
ATOM      3  C   UNL     1      -8.823 -65.913  -0.501  1.00  0.00     0.000 C 
BRANCH   3   4
ATOM      4  C   UNL     1      -7.480 -66.623  -0.743  1.00  0.00    -0.000 C 
BRANCH   4   5
ATOM      5  C   UNL     1      -6.357 -65.651  -1.150  1.00  0.00    -0.000 C 
BRANCH   5   6
ATOM      6  C   UNL     1      -5.321 -65.344  -0.050  1.00  0.00    -0.000 C 
BRANCH   6   7
ATOM      7  C   UNL     1      -5.279 -63.877   0.416  1.00  0.00    -0.000 C 
BRANCH   7   8
ATOM      8  C   UNL     1      -6.307 -62.992  -0.305  1.00  0.00    -0.000 C 
BRANCH   8   9
ATOM      9  C   UNL     1      -7.429 -62.561   0.651  1.00  0.00    -0.000 C 
BRANCH   9  10
ATOM     10  C   UNL     1      -6.959 -62.444   2.113  1.00  0.00    -0.000 C 
BRANCH  10  11
ATOM     11  C   UNL     1      -7.664 -61.347   2.931  1.00  0.00    -0.003 C 
ATOM     12  C   UNL     1      -8.778 -60.647   2.156  1.00  0.00     0.004 C 
ENDBRANCH  10  11
ENDBRANCH   9  10
ENDBRANCH   8   9
ENDBRANCH   7   8
ENDBRANCH   6   7
ENDBRANCH   5   6
ENDBRANCH   4   5
ENDBRANCH   3   4
ENDBRANCH   2   3
ENDBRANCH   1   2
BRANCH   1  13
ATOM     13  C   UNL     1      -7.936 -65.739   3.222  1.00  0.00     0.000 C 
BRANCH  13  14
ATOM     14  C   UNL     1      -8.106 -66.637   4.462  1.00  0.00     0.000 C 
BRANCH  14  15
ATOM     15  C   UNL     1      -8.312 -68.133   4.164  1.00  0.00     0.000 C 
BRANCH  15  16
ATOM     16  C   UNL     1      -7.841 -69.043   5.312  1.00  0.00     0.000 C 
BRANCH  16  17
ATOM     17  C   UNL     1      -6.767 -70.049   4.864  1.00  0.00     0.000 C 
BRANCH  17  18
ATOM     18  C   UNL     1      -6.561 -71.190   5.876  1.00  0.00     0.000 C 
BRANCH  18  19
ATOM     19  C   UNL     1      -6.761 -72.578   5.250  1.00  0.00     0.000 C 
BRANCH  19  20
ATOM     20  C   UNL     1      -8.016 -72.653   4.366  1.00  0.00     0.006 C 
BRANCH  20  21
ATOM     21  C   UNL     1      -9.106 -73.498   5.034  1.00  0.00     0.053 C 
BRANCH  21  22
ATOM     22  C   UNL     1     -10.288 -72.650   5.379  1.00  0.00     0.041 C 
ATOM     23  O   UNL     1     -10.128 -71.552   5.978  1.00  0.00    -0.550 OA
ATOM     24  O   UNL     1     -11.571 -73.092   5.084  1.00  0.00    -0.550 OA
ENDBRANCH  21  22
ENDBRANCH  20  21
ENDBRANCH  19  20
ENDBRANCH  18  19
ENDBRANCH  17  18
ENDBRANCH  16  17
ENDBRANCH  15  16
ENDBRANCH  14  15
ENDBRANCH  13  14
ENDBRANCH   1  13
TORSDOF 20
ENDMDL
