MODEL 1
REMARK VINA RESULT:    -4.184      0.000      0.000
REMARK INTER + INTRA:          -4.766
REMARK INTER:                  -4.551
REMARK INTRA:                  -0.215
REMARK UNBOUND:                -0.215
REMARK SMILES O=C([O-])c1ccccc1O
REMARK SMILES IDX 4 1 9 2 5 3 8 4 6 5 7 6 2 7 1 8 3 9 10 10
REMARK H PARENT 10 11
REMARK Flexibility Score: inf
ROOT
ATOM      1  C   UNL     1       5.935  19.719   0.838  1.00  0.00     0.039 A 
ATOM      2  C   UNL     1       5.543  20.217   2.108  1.00  0.00     0.124 A 
ATOM      3  C   UNL     1       7.107  18.944   0.745  1.00  0.00     0.014 A 
ATOM      4  C   UNL     1       6.355  19.985   3.225  1.00  0.00     0.047 A 
ATOM      5  C   UNL     1       7.895  18.704   1.873  1.00  0.00     0.001 A 
ATOM      6  C   UNL     1       7.525  19.232   3.109  1.00  0.00     0.004 A 
ENDROOT
BRANCH   1   7
ATOM      7  C   UNL     1       5.179  20.014  -0.398  1.00  0.00     0.075 C 
ATOM      8  O   UNL     1       4.828  19.077  -1.163  1.00  0.00    -0.545 OA
ATOM      9  O   UNL     1       4.906  21.325  -0.769  1.00  0.00    -0.545 OA
ENDBRANCH   1   7
BRANCH   2  10
ATOM     10  O   UNL     1       4.347  20.909   2.306  1.00  0.00    -0.507 OA
ATOM     11  H   UNL     1       4.263  21.712   2.915  1.00  0.00     0.293 HD
ENDBRANCH   2  10
TORSDOF 2
ENDMDL
MODEL 2
REMARK VINA RESULT:    -4.098      2.236      4.022
REMARK INTER + INTRA:          -4.672
REMARK INTER:                  -4.454
REMARK INTRA:                  -0.219
REMARK UNBOUND:                -0.215
REMARK SMILES O=C([O-])c1ccccc1O
REMARK SMILES IDX 4 1 9 2 5 3 8 4 6 5 7 6 2 7 1 8 3 9 10 10
REMARK H PARENT 10 11
REMARK Flexibility Score: inf
ROOT
ATOM      1  C   UNL     1       6.700  20.129   3.439  1.00  0.00     0.039 A 
ATOM      2  C   UNL     1       5.528  20.574   2.773  1.00  0.00     0.124 A 
ATOM      3  C   UNL     1       7.665  19.410   2.710  1.00  0.00     0.014 A 
ATOM      4  C   UNL     1       5.326  20.237   1.429  1.00  0.00     0.047 A 
ATOM      5  C   UNL     1       7.457  19.100   1.364  1.00  0.00     0.001 A 
ATOM      6  C   UNL     1       6.284  19.505   0.727  1.00  0.00     0.004 A 
ENDROOT
BRANCH   1   7
ATOM      7  C   UNL     1       6.928  20.361   4.882  1.00  0.00     0.075 C 
ATOM      8  O   UNL     1       7.031  21.536   5.324  1.00  0.00    -0.545 OA
ATOM      9  O   UNL     1       7.101  19.294   5.756  1.00  0.00    -0.545 OA
ENDBRANCH   1   7
BRANCH   2  10
ATOM     10  O   UNL     1       4.569  21.375   3.394  1.00  0.00    -0.507 OA
ATOM     11  H   UNL     1       3.821  21.007   3.965  1.00  0.00     0.293 HD
ENDBRANCH   2  10
TORSDOF 2
ENDMDL
MODEL 3
REMARK VINA RESULT:    -4.076      1.750      2.443
REMARK INTER + INTRA:          -4.648
REMARK INTER:                  -4.427
REMARK INTRA:                  -0.221
REMARK UNBOUND:                -0.215
REMARK SMILES O=C([O-])c1ccccc1O
REMARK SMILES IDX 4 1 9 2 5 3 8 4 6 5 7 6 2 7 1 8 3 9 10 10
REMARK H PARENT 10 11
REMARK Flexibility Score: inf
ROOT
ATOM      1  C   UNL     1       6.632  19.847   2.503  1.00  0.00     0.039 A 
ATOM      2  C   UNL     1       5.523  20.666   2.837  1.00  0.00     0.124 A 
ATOM      3  C   UNL     1       7.726  19.791   3.386  1.00  0.00     0.014 A 
ATOM      4  C   UNL     1       5.563  21.447   3.999  1.00  0.00     0.047 A 
ATOM      5  C   UNL     1       7.742  20.560   4.552  1.00  0.00     0.001 A 
ATOM      6  C   UNL     1       6.665  21.395   4.853  1.00  0.00     0.004 A 
ENDROOT
BRANCH   1   7
ATOM      7  C   UNL     1       6.698  19.078   1.241  1.00  0.00     0.075 C 
ATOM      8  O   UNL     1       7.605  18.221   1.071  1.00  0.00    -0.545 OA
ATOM      9  O   UNL     1       5.811  19.336   0.203  1.00  0.00    -0.545 OA
ENDBRANCH   1   7
BRANCH   2  10
ATOM     10  O   UNL     1       4.358  20.704   2.069  1.00  0.00    -0.507 OA
ATOM     11  H   UNL     1       4.120  21.473   1.457  1.00  0.00     0.293 HD
ENDBRANCH   2  10
TORSDOF 2
ENDMDL
MODEL 4
REMARK VINA RESULT:    -3.983     12.704     13.740
REMARK INTER + INTRA:          -4.547
REMARK INTER:                  -4.324
REMARK INTRA:                  -0.223
REMARK UNBOUND:                -0.215
REMARK SMILES O=C([O-])c1ccccc1O
REMARK SMILES IDX 4 1 9 2 5 3 8 4 6 5 7 6 2 7 1 8 3 9 10 10
REMARK H PARENT 10 11
REMARK Flexibility Score: inf
ROOT
ATOM      1  C   UNL     1      -6.870  16.467   1.315  1.00  0.00     0.039 A 
ATOM      2  C   UNL     1      -6.011  15.489   0.751  1.00  0.00     0.124 A 
ATOM      3  C   UNL     1      -8.016  16.860   0.599  1.00  0.00     0.014 A 
ATOM      4  C   UNL     1      -6.283  14.983  -0.527  1.00  0.00     0.047 A 
ATOM      5  C   UNL     1      -8.284  16.329  -0.665  1.00  0.00     0.001 A 
ATOM      6  C   UNL     1      -7.413  15.399  -1.231  1.00  0.00     0.004 A 
ENDROOT
BRANCH   1   7
ATOM      7  C   UNL     1      -6.586  17.118   2.613  1.00  0.00     0.075 C 
ATOM      8  O   UNL     1      -6.379  18.360   2.664  1.00  0.00    -0.545 OA
ATOM      9  O   UNL     1      -6.473  16.367   3.776  1.00  0.00    -0.545 OA
ENDBRANCH   1   7
BRANCH   2  10
ATOM     10  O   UNL     1      -4.909  14.972   1.434  1.00  0.00    -0.507 OA
ATOM     11  H   UNL     1      -4.485  14.082   1.213  1.00  0.00     0.293 HD
ENDBRANCH   2  10
TORSDOF 2
ENDMDL
MODEL 5
REMARK VINA RESULT:    -3.964      1.324      2.232
REMARK INTER + INTRA:          -4.527
REMARK INTER:                  -4.297
REMARK INTRA:                  -0.229
REMARK UNBOUND:                -0.215
REMARK SMILES O=C([O-])c1ccccc1O
REMARK SMILES IDX 4 1 9 2 5 3 8 4 6 5 7 6 2 7 1 8 3 9 10 10
REMARK H PARENT 10 11
REMARK Flexibility Score: inf
ROOT
ATOM      1  C   UNL     1       5.990  19.867   1.258  1.00  0.00     0.039 A 
ATOM      2  C   UNL     1       7.058  19.035   1.682  1.00  0.00     0.124 A 
ATOM      3  C   UNL     1       5.325  20.660   2.212  1.00  0.00     0.014 A 
ATOM      4  C   UNL     1       7.388  18.970   3.041  1.00  0.00     0.047 A 
ATOM      5  C   UNL     1       5.681  20.599   3.561  1.00  0.00     0.001 A 
ATOM      6  C   UNL     1       6.705  19.748   3.977  1.00  0.00     0.004 A 
ENDROOT
BRANCH   1   7
ATOM      7  C   UNL     1       5.522  19.904  -0.145  1.00  0.00     0.075 C 
ATOM      8  O   UNL     1       5.174  18.841  -0.723  1.00  0.00    -0.545 OA
ATOM      9  O   UNL     1       5.527  21.093  -0.866  1.00  0.00    -0.545 OA
ENDBRANCH   1   7
BRANCH   2  10
ATOM     10  O   UNL     1       7.832  18.292   0.788  1.00  0.00    -0.507 OA
ATOM     11  H   UNL     1       8.554  17.648   1.080  1.00  0.00     0.293 HD
ENDBRANCH   2  10
TORSDOF 2
ENDMDL
MODEL 6
REMARK VINA RESULT:    -3.851     14.987     15.398
REMARK INTER + INTRA:          -4.404
REMARK INTER:                  -4.154
REMARK INTRA:                  -0.249
REMARK UNBOUND:                -0.215
REMARK SMILES O=C([O-])c1ccccc1O
REMARK SMILES IDX 4 1 9 2 5 3 8 4 6 5 7 6 2 7 1 8 3 9 10 10
REMARK H PARENT 10 11
REMARK Flexibility Score: inf
ROOT
ATOM      1  C   UNL     1      -7.868  15.139  -2.713  1.00  0.00     0.039 A 
ATOM      2  C   UNL     1      -8.418  16.381  -3.124  1.00  0.00     0.124 A 
ATOM      3  C   UNL     1      -7.921  14.791  -1.350  1.00  0.00     0.014 A 
ATOM      4  C   UNL     1      -8.943  17.258  -2.166  1.00  0.00     0.047 A 
ATOM      5  C   UNL     1      -8.467  15.668  -0.410  1.00  0.00     0.001 A 
ATOM      6  C   UNL     1      -8.968  16.904  -0.817  1.00  0.00     0.004 A 
ENDROOT
BRANCH   1   7
ATOM      7  C   UNL     1      -7.207  14.213  -3.658  1.00  0.00     0.075 C 
ATOM      8  O   UNL     1      -6.497  14.667  -4.594  1.00  0.00    -0.545 OA
ATOM      9  O   UNL     1      -7.413  12.842  -3.572  1.00  0.00    -0.545 OA
ENDBRANCH   1   7
BRANCH   2  10
ATOM     10  O   UNL     1      -8.496  16.761  -4.465  1.00  0.00    -0.507 OA
ATOM     11  H   UNL     1      -8.703  16.116  -5.215  1.00  0.00     0.293 HD
ENDBRANCH   2  10
TORSDOF 2
ENDMDL
MODEL 7
REMARK VINA RESULT:    -3.781     15.406     16.942
REMARK INTER + INTRA:          -4.328
REMARK INTER:                  -4.076
REMARK INTRA:                  -0.252
REMARK UNBOUND:                -0.215
REMARK SMILES O=C([O-])c1ccccc1O
REMARK SMILES IDX 4 1 9 2 5 3 8 4 6 5 7 6 2 7 1 8 3 9 10 10
REMARK H PARENT 10 11
REMARK Flexibility Score: inf
ROOT
ATOM      1  C   UNL     1      -8.297  14.749  -5.327  1.00  0.00     0.039 A 
ATOM      2  C   UNL     1      -7.372  14.911  -6.391  1.00  0.00     0.124 A 
ATOM      3  C   UNL     1      -9.592  14.282  -5.617  1.00  0.00     0.014 A 
ATOM      4  C   UNL     1      -7.781  14.665  -7.708  1.00  0.00     0.047 A 
ATOM      5  C   UNL     1      -9.978  14.021  -6.934  1.00  0.00     0.001 A 
ATOM      6  C   UNL     1      -9.077  14.221  -7.979  1.00  0.00     0.004 A 
ENDROOT
BRANCH   1   7
ATOM      7  C   UNL     1      -7.962  15.090  -3.927  1.00  0.00     0.075 C 
ATOM      8  O   UNL     1      -8.791  15.713  -3.213  1.00  0.00    -0.545 OA
ATOM      9  O   UNL     1      -6.709  14.794  -3.403  1.00  0.00    -0.545 OA
ENDBRANCH   1   7
BRANCH   2  10
ATOM     10  O   UNL     1      -6.041  15.275  -6.182  1.00  0.00    -0.507 OA
ATOM     11  H   UNL     1      -5.541  15.922  -6.776  1.00  0.00     0.293 HD
ENDBRANCH   2  10
TORSDOF 2
ENDMDL
MODEL 8
REMARK VINA RESULT:    -3.723     12.939     13.909
REMARK INTER + INTRA:          -4.265
REMARK INTER:                  -4.013
REMARK INTRA:                  -0.251
REMARK UNBOUND:                -0.215
REMARK SMILES O=C([O-])c1ccccc1O
REMARK SMILES IDX 4 1 9 2 5 3 8 4 6 5 7 6 2 7 1 8 3 9 10 10
REMARK H PARENT 10 11
REMARK Flexibility Score: inf
ROOT
ATOM      1  C   UNL     1      -7.104  15.680   0.128  1.00  0.00     0.039 A 
ATOM      2  C   UNL     1      -6.340  15.757   1.322  1.00  0.00     0.124 A 
ATOM      3  C   UNL     1      -8.374  16.287   0.094  1.00  0.00     0.014 A 
ATOM      4  C   UNL     1      -6.885  16.375   2.454  1.00  0.00     0.047 A 
ATOM      5  C   UNL     1      -8.894  16.917   1.226  1.00  0.00     0.001 A 
ATOM      6  C   UNL     1      -8.154  16.953   2.408  1.00  0.00     0.004 A 
ENDROOT
BRANCH   1   7
ATOM      7  C   UNL     1      -6.631  14.954  -1.070  1.00  0.00     0.075 C 
ATOM      8  O   UNL     1      -6.986  15.331  -2.218  1.00  0.00    -0.545 OA
ATOM      9  O   UNL     1      -5.852  13.810  -0.948  1.00  0.00    -0.545 OA
ENDBRANCH   1   7
BRANCH   2  10
ATOM     10  O   UNL     1      -5.035  15.270   1.411  1.00  0.00    -0.507 OA
ATOM     11  H   UNL     1      -4.497  14.968   0.610  1.00  0.00     0.293 HD
ENDBRANCH   2  10
TORSDOF 2
ENDMDL
MODEL 9
REMARK VINA RESULT:    -3.708     14.925     16.508
REMARK INTER + INTRA:          -4.248
REMARK INTER:                  -4.033
REMARK INTRA:                  -0.215
REMARK UNBOUND:                -0.215
REMARK SMILES O=C([O-])c1ccccc1O
REMARK SMILES IDX 4 1 9 2 5 3 8 4 6 5 7 6 2 7 1 8 3 9 10 10
REMARK H PARENT 10 11
REMARK Flexibility Score: inf
ROOT
ATOM      1  C   UNL     1      -7.809  14.515  -6.440  1.00  0.00     0.039 A 
ATOM      2  C   UNL     1      -6.610  14.185  -5.758  1.00  0.00     0.124 A 
ATOM      3  C   UNL     1      -8.838  15.164  -5.731  1.00  0.00     0.014 A 
ATOM      4  C   UNL     1      -6.496  14.452  -4.387  1.00  0.00     0.047 A 
ATOM      5  C   UNL     1      -8.700  15.442  -4.370  1.00  0.00     0.001 A 
ATOM      6  C   UNL     1      -7.534  15.078  -3.696  1.00  0.00     0.004 A 
ENDROOT
BRANCH   1   7
ATOM      7  C   UNL     1      -8.035  14.168  -7.860  1.00  0.00     0.075 C 
ATOM      8  O   UNL     1      -8.410  15.053  -8.674  1.00  0.00    -0.545 OA
ATOM      9  O   UNL     1      -7.905  12.857  -8.302  1.00  0.00    -0.545 OA
ENDBRANCH   1   7
BRANCH   2  10
ATOM     10  O   UNL     1      -5.504  13.630  -6.406  1.00  0.00    -0.507 OA
ATOM     11  H   UNL     1      -5.449  12.659  -6.679  1.00  0.00     0.293 HD
ENDBRANCH   2  10
TORSDOF 2
ENDMDL
