MODEL 1
REMARK VINA RESULT:    -5.617      0.000      0.000
REMARK INTER + INTRA:          -5.617
REMARK INTER:                  -5.617
REMARK INTRA:                   0.000
REMARK UNBOUND:                 0.000
REMARK SMILES c1ccc2ccccc2c1
REMARK SMILES IDX 2 1 1 2 10 3 9 4 8 5 7 6 6 7 5 8 4 9 3 10
REMARK H PARENT
REMARK Flexibility Score: inf
ROOT
ATOM      1  C   UNL     1      -5.812   3.775 -37.748  1.00  0.00     0.001 A 
ATOM      2  C   UNL     1      -6.117   2.715 -36.889  1.00  0.00     0.001 A 
ATOM      3  C   UNL     1      -6.648   1.525 -37.400  1.00  0.00     0.009 A 
ATOM      4  C   UNL     1      -6.875   1.391 -38.778  1.00  0.00    -0.018 A 
ATOM      5  C   UNL     1      -7.406   0.203 -39.304  1.00  0.00     0.009 A 
ATOM      6  C   UNL     1      -7.629   0.082 -40.678  1.00  0.00     0.001 A 
ATOM      7  C   UNL     1      -7.324   1.142 -41.537  1.00  0.00     0.001 A 
ATOM      8  C   UNL     1      -6.793   2.331 -41.027  1.00  0.00     0.009 A 
ATOM      9  C   UNL     1      -6.565   2.466 -39.649  1.00  0.00    -0.018 A 
ATOM     10  C   UNL     1      -6.034   3.654 -39.123  1.00  0.00     0.009 A 
ENDROOT
TORSDOF 0
ENDMDL
MODEL 2
REMARK VINA RESULT:    -5.594      0.184      3.436
REMARK INTER + INTRA:          -5.594
REMARK INTER:                  -5.594
REMARK INTRA:                   0.000
REMARK UNBOUND:                 0.000
REMARK SMILES c1ccc2ccccc2c1
REMARK SMILES IDX 2 1 1 2 10 3 9 4 8 5 7 6 6 7 5 8 4 9 3 10
REMARK H PARENT
REMARK Flexibility Score: inf
ROOT
ATOM      1  C   UNL     1      -7.238   1.331 -41.536  1.00  0.00     0.001 A 
ATOM      2  C   UNL     1      -7.610   0.224 -40.767  1.00  0.00     0.001 A 
ATOM      3  C   UNL     1      -7.446   0.245 -39.378  1.00  0.00     0.009 A 
ATOM      4  C   UNL     1      -6.907   1.378 -38.750  1.00  0.00    -0.018 A 
ATOM      5  C   UNL     1      -6.738   1.413 -37.357  1.00  0.00     0.009 A 
ATOM      6  C   UNL     1      -6.200   2.548 -36.744  1.00  0.00     0.001 A 
ATOM      7  C   UNL     1      -5.828   3.654 -37.512  1.00  0.00     0.001 A 
ATOM      8  C   UNL     1      -5.991   3.633 -38.902  1.00  0.00     0.009 A 
ATOM      9  C   UNL     1      -6.530   2.500 -39.530  1.00  0.00    -0.018 A 
ATOM     10  C   UNL     1      -6.700   2.466 -40.923  1.00  0.00     0.009 A 
ENDROOT
TORSDOF 0
ENDMDL
MODEL 3
REMARK VINA RESULT:    -5.585      0.174      2.087
REMARK INTER + INTRA:          -5.585
REMARK INTER:                  -5.585
REMARK INTRA:                   0.000
REMARK UNBOUND:                 0.000
REMARK SMILES c1ccc2ccccc2c1
REMARK SMILES IDX 2 1 1 2 10 3 9 4 8 5 7 6 6 7 5 8 4 9 3 10
REMARK H PARENT
REMARK Flexibility Score: inf
ROOT
ATOM      1  C   UNL     1      -6.153   2.529 -36.734  1.00  0.00     0.001 A 
ATOM      2  C   UNL     1      -5.797   3.628 -37.520  1.00  0.00     0.001 A 
ATOM      3  C   UNL     1      -5.971   3.588 -38.908  1.00  0.00     0.009 A 
ATOM      4  C   UNL     1      -6.506   2.443 -39.517  1.00  0.00    -0.018 A 
ATOM      5  C   UNL     1      -6.688   2.389 -40.908  1.00  0.00     0.009 A 
ATOM      6  C   UNL     1      -7.222   1.242 -41.502  1.00  0.00     0.001 A 
ATOM      7  C   UNL     1      -7.578   0.143 -40.716  1.00  0.00     0.001 A 
ATOM      8  C   UNL     1      -7.404   0.183 -39.328  1.00  0.00     0.009 A 
ATOM      9  C   UNL     1      -6.869   1.328 -38.719  1.00  0.00    -0.018 A 
ATOM     10  C   UNL     1      -6.687   1.382 -37.329  1.00  0.00     0.009 A 
ENDROOT
TORSDOF 0
ENDMDL
MODEL 4
REMARK VINA RESULT:    -5.563      0.239      4.016
REMARK INTER + INTRA:          -5.563
REMARK INTER:                  -5.563
REMARK INTRA:                   0.000
REMARK UNBOUND:                 0.000
REMARK SMILES c1ccc2ccccc2c1
REMARK SMILES IDX 2 1 1 2 10 3 9 4 8 5 7 6 6 7 5 8 4 9 3 10
REMARK H PARENT
REMARK Flexibility Score: inf
ROOT
ATOM      1  C   UNL     1      -7.627   0.248 -40.724  1.00  0.00     0.001 A 
ATOM      2  C   UNL     1      -7.249   1.362 -41.479  1.00  0.00     0.001 A 
ATOM      3  C   UNL     1      -6.705   2.488 -40.850  1.00  0.00     0.009 A 
ATOM      4  C   UNL     1      -6.538   2.503 -39.457  1.00  0.00    -0.018 A 
ATOM      5  C   UNL     1      -5.994   3.625 -38.813  1.00  0.00     0.009 A 
ATOM      6  C   UNL     1      -5.833   3.628 -37.425  1.00  0.00     0.001 A 
ATOM      7  C   UNL     1      -6.211   2.514 -36.669  1.00  0.00     0.001 A 
ATOM      8  C   UNL     1      -6.754   1.389 -37.298  1.00  0.00     0.009 A 
ATOM      9  C   UNL     1      -6.922   1.373 -38.691  1.00  0.00    -0.018 A 
ATOM     10  C   UNL     1      -7.466   0.251 -39.335  1.00  0.00     0.009 A 
ENDROOT
TORSDOF 0
ENDMDL
MODEL 5
REMARK VINA RESULT:    -5.349     16.687     17.236
REMARK INTER + INTRA:          -5.349
REMARK INTER:                  -5.349
REMARK INTRA:                   0.000
REMARK UNBOUND:                 0.000
REMARK SMILES c1ccc2ccccc2c1
REMARK SMILES IDX 2 1 1 2 10 3 9 4 8 5 7 6 6 7 5 8 4 9 3 10
REMARK H PARENT
REMARK Flexibility Score: inf
ROOT
ATOM      1  C   UNL     1       7.410  -8.096 -36.021  1.00  0.00     0.001 A 
ATOM      2  C   UNL     1       7.469  -7.620 -34.709  1.00  0.00     0.001 A 
ATOM      3  C   UNL     1       7.846  -6.296 -34.457  1.00  0.00     0.009 A 
ATOM      4  C   UNL     1       8.167  -5.441 -35.522  1.00  0.00    -0.018 A 
ATOM      5  C   UNL     1       8.547  -4.111 -35.284  1.00  0.00     0.009 A 
ATOM      6  C   UNL     1       8.864  -3.269 -36.354  1.00  0.00     0.001 A 
ATOM      7  C   UNL     1       8.805  -3.746 -37.666  1.00  0.00     0.001 A 
ATOM      8  C   UNL     1       8.428  -5.070 -37.919  1.00  0.00     0.009 A 
ATOM      9  C   UNL     1       8.107  -5.925 -36.853  1.00  0.00    -0.018 A 
ATOM     10  C   UNL     1       7.728  -7.255 -37.091  1.00  0.00     0.009 A 
ENDROOT
TORSDOF 0
ENDMDL
MODEL 6
REMARK VINA RESULT:    -5.348     16.718     17.176
REMARK INTER + INTRA:          -5.348
REMARK INTER:                  -5.348
REMARK INTRA:                   0.000
REMARK UNBOUND:                 0.000
REMARK SMILES c1ccc2ccccc2c1
REMARK SMILES IDX 2 1 1 2 10 3 9 4 8 5 7 6 6 7 5 8 4 9 3 10
REMARK H PARENT
REMARK Flexibility Score: inf
ROOT
ATOM      1  C   UNL     1       8.871  -3.299 -36.410  1.00  0.00     0.001 A 
ATOM      2  C   UNL     1       8.833  -3.803 -37.713  1.00  0.00     0.001 A 
ATOM      3  C   UNL     1       8.458  -5.131 -37.944  1.00  0.00     0.009 A 
ATOM      4  C   UNL     1       8.118  -5.963 -36.868  1.00  0.00    -0.018 A 
ATOM      5  C   UNL     1       7.739  -7.297 -37.085  1.00  0.00     0.009 A 
ATOM      6  C   UNL     1       7.402  -8.116 -36.003  1.00  0.00     0.001 A 
ATOM      7  C   UNL     1       7.440  -7.613 -34.700  1.00  0.00     0.001 A 
ATOM      8  C   UNL     1       7.815  -6.285 -34.469  1.00  0.00     0.009 A 
ATOM      9  C   UNL     1       8.156  -5.452 -35.546  1.00  0.00    -0.018 A 
ATOM     10  C   UNL     1       8.535  -4.118 -35.328  1.00  0.00     0.009 A 
ENDROOT
TORSDOF 0
ENDMDL
MODEL 7
REMARK VINA RESULT:    -5.348     16.732     17.278
REMARK INTER + INTRA:          -5.348
REMARK INTER:                  -5.348
REMARK INTRA:                   0.000
REMARK UNBOUND:                 0.000
REMARK SMILES c1ccc2ccccc2c1
REMARK SMILES IDX 2 1 1 2 10 3 9 4 8 5 7 6 6 7 5 8 4 9 3 10
REMARK H PARENT
REMARK Flexibility Score: inf
ROOT
ATOM      1  C   UNL     1       7.386  -7.655 -34.700  1.00  0.00     0.001 A 
ATOM      2  C   UNL     1       7.348  -8.138 -36.011  1.00  0.00     0.001 A 
ATOM      3  C   UNL     1       7.699  -7.305 -37.079  1.00  0.00     0.009 A 
ATOM      4  C   UNL     1       8.092  -5.980 -36.838  1.00  0.00    -0.018 A 
ATOM      5  C   UNL     1       8.447  -5.133 -37.899  1.00  0.00     0.009 A 
ATOM      6  C   UNL     1       8.836  -3.815 -37.646  1.00  0.00     0.001 A 
ATOM      7  C   UNL     1       8.874  -3.332 -36.335  1.00  0.00     0.001 A 
ATOM      8  C   UNL     1       8.523  -4.164 -35.267  1.00  0.00     0.009 A 
ATOM      9  C   UNL     1       8.130  -5.490 -35.508  1.00  0.00    -0.018 A 
ATOM     10  C   UNL     1       7.774  -6.336 -34.446  1.00  0.00     0.009 A 
ENDROOT
TORSDOF 0
ENDMDL
MODEL 8
REMARK VINA RESULT:    -5.336     16.753     17.197
REMARK INTER + INTRA:          -5.336
REMARK INTER:                  -5.336
REMARK INTRA:                   0.000
REMARK UNBOUND:                 0.000
REMARK SMILES c1ccc2ccccc2c1
REMARK SMILES IDX 2 1 1 2 10 3 9 4 8 5 7 6 6 7 5 8 4 9 3 10
REMARK H PARENT
REMARK Flexibility Score: inf
ROOT
ATOM      1  C   UNL     1       8.836  -3.840 -37.673  1.00  0.00     0.001 A 
ATOM      2  C   UNL     1       8.940  -3.366 -36.362  1.00  0.00     0.001 A 
ATOM      3  C   UNL     1       8.634  -4.205 -35.284  1.00  0.00     0.009 A 
ATOM      4  C   UNL     1       8.223  -5.526 -35.515  1.00  0.00    -0.018 A 
ATOM      5  C   UNL     1       7.914  -6.378 -34.443  1.00  0.00     0.009 A 
ATOM      6  C   UNL     1       7.505  -7.692 -34.687  1.00  0.00     0.001 A 
ATOM      7  C   UNL     1       7.401  -8.166 -35.998  1.00  0.00     0.001 A 
ATOM      8  C   UNL     1       7.707  -7.328 -37.076  1.00  0.00     0.009 A 
ATOM      9  C   UNL     1       8.118  -6.006 -36.845  1.00  0.00    -0.018 A 
ATOM     10  C   UNL     1       8.427  -5.154 -37.917  1.00  0.00     0.009 A 
ENDROOT
TORSDOF 0
ENDMDL
MODEL 9
REMARK VINA RESULT:    -5.041      1.003      4.237
REMARK INTER + INTRA:          -5.041
REMARK INTER:                  -5.041
REMARK INTRA:                   0.000
REMARK UNBOUND:                 0.000
REMARK SMILES c1ccc2ccccc2c1
REMARK SMILES IDX 2 1 1 2 10 3 9 4 8 5 7 6 6 7 5 8 4 9 3 10
REMARK H PARENT
REMARK Flexibility Score: inf
ROOT
ATOM      1  C   UNL     1      -6.994   1.343 -39.995  1.00  0.00     0.001 A 
ATOM      2  C   UNL     1      -6.654   2.629 -40.423  1.00  0.00     0.001 A 
ATOM      3  C   UNL     1      -6.292   3.609 -39.492  1.00  0.00     0.009 A 
ATOM      4  C   UNL     1      -6.269   3.303 -38.123  1.00  0.00    -0.018 A 
ATOM      5  C   UNL     1      -5.907   4.275 -37.178  1.00  0.00     0.009 A 
ATOM      6  C   UNL     1      -5.887   3.958 -35.817  1.00  0.00     0.001 A 
ATOM      7  C   UNL     1      -6.227   2.671 -35.389  1.00  0.00     0.001 A 
ATOM      8  C   UNL     1      -6.589   1.692 -36.320  1.00  0.00     0.009 A 
ATOM      9  C   UNL     1      -6.613   1.998 -37.689  1.00  0.00    -0.018 A 
ATOM     10  C   UNL     1      -6.975   1.025 -38.634  1.00  0.00     0.009 A 
ENDROOT
TORSDOF 0
ENDMDL
