MODEL 1
REMARK VINA RESULT:    -4.444      0.000      0.000
REMARK INTER + INTRA:          -5.062
REMARK INTER:                  -4.834
REMARK INTRA:                  -0.228
REMARK UNBOUND:                -0.228
REMARK SMILES O=C([O-])c1ccccc1O
REMARK SMILES IDX 4 1 9 2 5 3 8 4 6 5 7 6 2 7 1 8 3 9 10 10
REMARK H PARENT 10 11
REMARK Flexibility Score: inf
ROOT
ATOM      1  C   UNL     1      -2.502   0.058  10.580  1.00  0.00     0.039 A 
ATOM      2  C   UNL     1      -1.939  -0.748   9.559  1.00  0.00     0.124 A 
ATOM      3  C   UNL     1      -1.645   0.818  11.398  1.00  0.00     0.014 A 
ATOM      4  C   UNL     1      -0.555  -0.727   9.344  1.00  0.00     0.047 A 
ATOM      5  C   UNL     1      -0.265   0.812  11.184  1.00  0.00     0.001 A 
ATOM      6  C   UNL     1       0.279   0.049  10.151  1.00  0.00     0.004 A 
ENDROOT
BRANCH   1   7
ATOM      7  C   UNL     1      -3.962   0.162  10.793  1.00  0.00     0.075 C 
ATOM      8  O   UNL     1      -4.716   0.507   9.845  1.00  0.00    -0.545 OA
ATOM      9  O   UNL     1      -4.530  -0.182  12.013  1.00  0.00    -0.545 OA
ENDBRANCH   1   7
BRANCH   2  10
ATOM     10  O   UNL     1      -2.706  -1.605   8.767  1.00  0.00    -0.507 OA
ATOM     11  H   UNL     1      -3.437  -2.197   9.137  1.00  0.00     0.293 HD
ENDBRANCH   2  10
TORSDOF 2
ENDMDL
MODEL 2
REMARK VINA RESULT:    -4.274      1.279      2.643
REMARK INTER + INTRA:          -4.876
REMARK INTER:                  -4.623
REMARK INTRA:                  -0.253
REMARK UNBOUND:                -0.228
REMARK SMILES O=C([O-])c1ccccc1O
REMARK SMILES IDX 4 1 9 2 5 3 8 4 6 5 7 6 2 7 1 8 3 9 10 10
REMARK H PARENT 10 11
REMARK Flexibility Score: inf
ROOT
ATOM      1  C   UNL     1      -1.271  -0.183  10.047  1.00  0.00     0.039 A 
ATOM      2  C   UNL     1      -1.158   0.597  11.225  1.00  0.00     0.124 A 
ATOM      3  C   UNL     1      -0.105  -0.500   9.326  1.00  0.00     0.014 A 
ATOM      4  C   UNL     1       0.109   0.983  11.681  1.00  0.00     0.047 A 
ATOM      5  C   UNL     1       1.150  -0.089   9.783  1.00  0.00     0.001 A 
ATOM      6  C   UNL     1       1.257   0.643  10.965  1.00  0.00     0.004 A 
ENDROOT
BRANCH   1   7
ATOM      7  C   UNL     1      -2.567  -0.711   9.567  1.00  0.00     0.075 C 
ATOM      8  O   UNL     1      -2.671  -1.922   9.233  1.00  0.00    -0.545 OA
ATOM      9  O   UNL     1      -3.698   0.094   9.541  1.00  0.00    -0.545 OA
ENDBRANCH   1   7
BRANCH   2  10
ATOM     10  O   UNL     1      -2.270   1.037  11.946  1.00  0.00    -0.507 OA
ATOM     11  H   UNL     1      -2.499   0.706  12.873  1.00  0.00     0.293 HD
ENDBRANCH   2  10
TORSDOF 2
ENDMDL
MODEL 3
REMARK VINA RESULT:    -4.251      2.317      3.768
REMARK INTER + INTRA:          -4.851
REMARK INTER:                  -4.610
REMARK INTRA:                  -0.241
REMARK UNBOUND:                -0.228
REMARK SMILES O=C([O-])c1ccccc1O
REMARK SMILES IDX 4 1 9 2 5 3 8 4 6 5 7 6 2 7 1 8 3 9 10 10
REMARK H PARENT 10 11
REMARK Flexibility Score: inf
ROOT
ATOM      1  C   UNL     1      -0.430   0.072  10.419  1.00  0.00     0.039 A 
ATOM      2  C   UNL     1      -1.448  -0.344   9.524  1.00  0.00     0.124 A 
ATOM      3  C   UNL     1      -0.776   0.890  11.511  1.00  0.00     0.014 A 
ATOM      4  C   UNL     1      -2.779   0.013   9.776  1.00  0.00     0.047 A 
ATOM      5  C   UNL     1      -2.106   1.254  11.735  1.00  0.00     0.001 A 
ATOM      6  C   UNL     1      -3.107   0.808  10.875  1.00  0.00     0.004 A 
ENDROOT
BRANCH   1   7
ATOM      7  C   UNL     1       0.979  -0.354  10.271  1.00  0.00     0.075 C 
ATOM      8  O   UNL     1       1.258  -1.574  10.130  1.00  0.00    -0.545 OA
ATOM      9  O   UNL     1       2.004   0.582  10.215  1.00  0.00    -0.545 OA
ENDBRANCH   1   7
BRANCH   2  10
ATOM     10  O   UNL     1      -1.179  -1.074   8.365  1.00  0.00    -0.507 OA
ATOM     11  H   UNL     1      -0.831  -0.656   7.513  1.00  0.00     0.293 HD
ENDBRANCH   2  10
TORSDOF 2
ENDMDL
MODEL 4
REMARK VINA RESULT:    -4.155      1.866      3.420
REMARK INTER + INTRA:          -4.747
REMARK INTER:                  -4.494
REMARK INTRA:                  -0.253
REMARK UNBOUND:                -0.228
REMARK SMILES O=C([O-])c1ccccc1O
REMARK SMILES IDX 4 1 9 2 5 3 8 4 6 5 7 6 2 7 1 8 3 9 10 10
REMARK H PARENT 10 11
REMARK Flexibility Score: inf
ROOT
ATOM      1  C   UNL     1      -1.224  -0.580  10.370  1.00  0.00     0.039 A 
ATOM      2  C   UNL     1      -2.478  -0.835   9.760  1.00  0.00     0.124 A 
ATOM      3  C   UNL     1      -1.102   0.519  11.240  1.00  0.00     0.014 A 
ATOM      4  C   UNL     1      -3.581  -0.032  10.080  1.00  0.00     0.047 A 
ATOM      5  C   UNL     1      -2.206   1.323  11.533  1.00  0.00     0.001 A 
ATOM      6  C   UNL     1      -3.446   1.041  10.962  1.00  0.00     0.004 A 
ENDROOT
BRANCH   1   7
ATOM      7  C   UNL     1      -0.047  -1.450  10.156  1.00  0.00     0.075 C 
ATOM      8  O   UNL     1       1.111  -0.953  10.139  1.00  0.00    -0.545 OA
ATOM      9  O   UNL     1      -0.190  -2.827  10.041  1.00  0.00    -0.545 OA
ENDBRANCH   1   7
BRANCH   2  10
ATOM     10  O   UNL     1      -2.663  -1.843   8.811  1.00  0.00    -0.507 OA
ATOM     11  H   UNL     1      -2.945  -2.785   9.048  1.00  0.00     0.293 HD
ENDBRANCH   2  10
TORSDOF 2
ENDMDL
MODEL 5
REMARK VINA RESULT:    -4.129      1.185      2.213
REMARK INTER + INTRA:          -4.719
REMARK INTER:                  -4.490
REMARK INTRA:                  -0.229
REMARK UNBOUND:                -0.228
REMARK SMILES O=C([O-])c1ccccc1O
REMARK SMILES IDX 4 1 9 2 5 3 8 4 6 5 7 6 2 7 1 8 3 9 10 10
REMARK H PARENT 10 11
REMARK Flexibility Score: inf
ROOT
ATOM      1  C   UNL     1      -2.744   0.267  10.433  1.00  0.00     0.039 A 
ATOM      2  C   UNL     1      -1.687   0.902  11.132  1.00  0.00     0.124 A 
ATOM      3  C   UNL     1      -2.432  -0.611   9.378  1.00  0.00     0.014 A 
ATOM      4  C   UNL     1      -0.359   0.599  10.805  1.00  0.00     0.047 A 
ATOM      5  C   UNL     1      -1.102  -0.886   9.050  1.00  0.00     0.001 A 
ATOM      6  C   UNL     1      -0.067  -0.290   9.769  1.00  0.00     0.004 A 
ENDROOT
BRANCH   1   7
ATOM      7  C   UNL     1      -4.165   0.461  10.796  1.00  0.00     0.075 C 
ATOM      8  O   UNL     1      -5.015   0.723   9.903  1.00  0.00    -0.545 OA
ATOM      9  O   UNL     1      -4.595   0.293  12.105  1.00  0.00    -0.545 OA
ENDBRANCH   1   7
BRANCH   2  10
ATOM     10  O   UNL     1      -1.909   1.859  12.125  1.00  0.00    -0.507 OA
ATOM     11  H   UNL     1      -1.805   2.853  11.972  1.00  0.00     0.293 HD
ENDBRANCH   2  10
TORSDOF 2
ENDMDL
MODEL 6
REMARK VINA RESULT:    -4.116      2.658      3.720
REMARK INTER + INTRA:          -4.704
REMARK INTER:                  -4.480
REMARK INTRA:                  -0.224
REMARK UNBOUND:                -0.228
REMARK SMILES O=C([O-])c1ccccc1O
REMARK SMILES IDX 4 1 9 2 5 3 8 4 6 5 7 6 2 7 1 8 3 9 10 10
REMARK H PARENT 10 11
REMARK Flexibility Score: inf
ROOT
ATOM      1  C   UNL     1      -2.455  -2.060  10.787  1.00  0.00     0.039 A 
ATOM      2  C   UNL     1      -2.252  -1.201   9.678  1.00  0.00     0.124 A 
ATOM      3  C   UNL     1      -3.398  -1.695  11.767  1.00  0.00     0.014 A 
ATOM      4  C   UNL     1      -3.031  -0.044   9.545  1.00  0.00     0.047 A 
ATOM      5  C   UNL     1      -4.152  -0.528  11.630  1.00  0.00     0.001 A 
ATOM      6  C   UNL     1      -3.977   0.292  10.516  1.00  0.00     0.004 A 
ENDROOT
BRANCH   1   7
ATOM      7  C   UNL     1      -1.741  -3.347  10.935  1.00  0.00     0.075 C 
ATOM      8  O   UNL     1      -2.240  -4.269  11.633  1.00  0.00    -0.545 OA
ATOM      9  O   UNL     1      -0.553  -3.584  10.256  1.00  0.00    -0.545 OA
ENDBRANCH   1   7
BRANCH   2  10
ATOM     10  O   UNL     1      -1.271  -1.437   8.713  1.00  0.00    -0.507 OA
ATOM     11  H   UNL     1      -1.030  -0.771   7.991  1.00  0.00     0.293 HD
ENDBRANCH   2  10
TORSDOF 2
ENDMDL
MODEL 7
REMARK VINA RESULT:    -4.062      2.113      3.012
REMARK INTER + INTRA:          -4.646
REMARK INTER:                  -4.440
REMARK INTRA:                  -0.205
REMARK UNBOUND:                -0.228
REMARK SMILES O=C([O-])c1ccccc1O
REMARK SMILES IDX 4 1 9 2 5 3 8 4 6 5 7 6 2 7 1 8 3 9 10 10
REMARK H PARENT 10 11
REMARK Flexibility Score: inf
ROOT
ATOM      1  C   UNL     1      -0.199  -1.247   9.982  1.00  0.00     0.039 A 
ATOM      2  C   UNL     1       0.579  -2.413  10.187  1.00  0.00     0.124 A 
ATOM      3  C   UNL     1       0.430   0.011  10.039  1.00  0.00     0.014 A 
ATOM      4  C   UNL     1       1.962  -2.298  10.380  1.00  0.00     0.047 A 
ATOM      5  C   UNL     1       1.807   0.109  10.253  1.00  0.00     0.001 A 
ATOM      6  C   UNL     1       2.574  -1.044  10.413  1.00  0.00     0.004 A 
ENDROOT
BRANCH   1   7
ATOM      7  C   UNL     1      -1.645  -1.303   9.670  1.00  0.00     0.075 C 
ATOM      8  O   UNL     1      -2.239  -0.277   9.244  1.00  0.00    -0.545 OA
ATOM      9  O   UNL     1      -2.350  -2.495   9.775  1.00  0.00    -0.545 OA
ENDBRANCH   1   7
BRANCH   2  10
ATOM     10  O   UNL     1       0.020  -3.692  10.244  1.00  0.00    -0.507 OA
ATOM     11  H   UNL     1       0.567  -4.541  10.188  1.00  0.00     0.293 HD
ENDBRANCH   2  10
TORSDOF 2
ENDMDL
MODEL 8
REMARK VINA RESULT:    -3.993      4.212      5.514
REMARK INTER + INTRA:          -4.571
REMARK INTER:                  -4.411
REMARK INTRA:                  -0.161
REMARK UNBOUND:                -0.228
REMARK SMILES O=C([O-])c1ccccc1O
REMARK SMILES IDX 4 1 9 2 5 3 8 4 6 5 7 6 2 7 1 8 3 9 10 10
REMARK H PARENT 10 11
REMARK Flexibility Score: inf
ROOT
ATOM      1  C   UNL     1       1.629   0.082   9.921  1.00  0.00     0.039 A 
ATOM      2  C   UNL     1       1.759   0.763  11.157  1.00  0.00     0.124 A 
ATOM      3  C   UNL     1       0.344  -0.279   9.475  1.00  0.00     0.014 A 
ATOM      4  C   UNL     1       0.611   1.117  11.878  1.00  0.00     0.047 A 
ATOM      5  C   UNL     1      -0.790   0.063  10.216  1.00  0.00     0.001 A 
ATOM      6  C   UNL     1      -0.657   0.769  11.411  1.00  0.00     0.004 A 
ENDROOT
BRANCH   1   7
ATOM      7  C   UNL     1       2.791  -0.229   9.060  1.00  0.00     0.075 C 
ATOM      8  O   UNL     1       3.597  -1.139   9.392  1.00  0.00    -0.545 OA
ATOM      9  O   UNL     1       2.975   0.424   7.848  1.00  0.00    -0.545 OA
ENDBRANCH   1   7
BRANCH   2  10
ATOM     10  O   UNL     1       3.000   1.072  11.720  1.00  0.00    -0.507 OA
ATOM     11  H   UNL     1       3.392   2.004  11.723  1.00  0.00     0.293 HD
ENDBRANCH   2  10
TORSDOF 2
ENDMDL
MODEL 9
REMARK VINA RESULT:    -3.939      2.393      3.431
REMARK INTER + INTRA:          -4.512
REMARK INTER:                  -4.263
REMARK INTRA:                  -0.249
REMARK UNBOUND:                -0.228
REMARK SMILES O=C([O-])c1ccccc1O
REMARK SMILES IDX 4 1 9 2 5 3 8 4 6 5 7 6 2 7 1 8 3 9 10 10
REMARK H PARENT 10 11
REMARK Flexibility Score: inf
ROOT
ATOM      1  C   UNL     1      -0.585  -2.391  10.634  1.00  0.00     0.039 A 
ATOM      2  C   UNL     1      -1.243  -1.498   9.752  1.00  0.00     0.124 A 
ATOM      3  C   UNL     1       0.661  -2.021  11.173  1.00  0.00     0.014 A 
ATOM      4  C   UNL     1      -0.675  -0.246   9.483  1.00  0.00     0.047 A 
ATOM      5  C   UNL     1       1.224  -0.777  10.878  1.00  0.00     0.001 A 
ATOM      6  C   UNL     1       0.552   0.114  10.043  1.00  0.00     0.004 A 
ENDROOT
BRANCH   1   7
ATOM      7  C   UNL     1      -1.178  -3.684  11.041  1.00  0.00     0.075 C 
ATOM      8  O   UNL     1      -2.391  -3.745  11.375  1.00  0.00    -0.545 OA
ATOM      9  O   UNL     1      -0.432  -4.855  10.997  1.00  0.00    -0.545 OA
ENDBRANCH   1   7
BRANCH   2  10
ATOM     10  O   UNL     1      -2.433  -1.825   9.098  1.00  0.00    -0.507 OA
ATOM     11  H   UNL     1      -3.135  -1.142   8.847  1.00  0.00     0.293 HD
ENDBRANCH   2  10
TORSDOF 2
ENDMDL
