MODEL 1
REMARK VINA RESULT:    -5.540      0.000      0.000
REMARK INTER + INTRA:          -6.232
REMARK INTER:                  -6.188
REMARK INTRA:                  -0.044
REMARK UNBOUND:                -0.044
REMARK SMILES O=C([O-])c1ccc(O)c(O)c1
REMARK SMILES IDX 4 1 11 2 5 3 9 4 6 5 7 6 2 7 1 8 3 9 10 10 8 12
REMARK H PARENT 10 11 8 13
REMARK Flexibility Score: inf
ROOT
ATOM      1  C   UNL     1     -31.716  -3.340 -18.210  1.00  0.00     0.001 A 
ATOM      2  C   UNL     1     -32.570  -2.820 -19.199  1.00  0.00     0.060 A 
ATOM      3  C   UNL     1     -30.327  -3.196 -18.363  1.00  0.00     0.014 A 
ATOM      4  C   UNL     1     -32.044  -2.166 -20.323  1.00  0.00     0.158 A 
ATOM      5  C   UNL     1     -29.803  -2.544 -19.483  1.00  0.00     0.051 A 
ATOM      6  C   UNL     1     -30.653  -2.028 -20.465  1.00  0.00     0.157 A 
ENDROOT
BRANCH   1   7
ATOM      7  C   UNL     1     -32.269  -4.031 -17.023  1.00  0.00     0.072 C 
ATOM      8  O   UNL     1     -31.543  -4.793 -16.330  1.00  0.00    -0.545 OA
ATOM      9  O   UNL     1     -33.597  -3.847 -16.655  1.00  0.00    -0.545 OA
ENDBRANCH   1   7
BRANCH   4  10
ATOM     10  O   UNL     1     -32.899  -1.653 -21.299  1.00  0.00    -0.504 OA
ATOM     11  H   UNL     1     -33.726  -2.156 -21.598  1.00  0.00     0.293 HD
ENDBRANCH   4  10
BRANCH   6  12
ATOM     12  O   UNL     1     -30.101  -1.383 -21.571  1.00  0.00    -0.504 OA
ATOM     13  H   UNL     1     -29.723  -0.446 -21.514  1.00  0.00     0.293 HD
ENDBRANCH   6  12
TORSDOF 3
ENDMDL
MODEL 2
REMARK VINA RESULT:    -4.992      1.291      4.176
REMARK INTER + INTRA:          -5.619
REMARK INTER:                  -5.575
REMARK INTRA:                  -0.044
REMARK UNBOUND:                -0.044
REMARK SMILES O=C([O-])c1ccc(O)c(O)c1
REMARK SMILES IDX 4 1 11 2 5 3 9 4 6 5 7 6 2 7 1 8 3 9 10 10 8 12
REMARK H PARENT 10 11 8 13
REMARK Flexibility Score: inf
ROOT
ATOM      1  C   UNL     1     -30.950  -2.284 -20.041  1.00  0.00     0.001 A 
ATOM      2  C   UNL     1     -32.336  -2.333 -20.276  1.00  0.00     0.060 A 
ATOM      3  C   UNL     1     -30.458  -2.658 -18.780  1.00  0.00     0.014 A 
ATOM      4  C   UNL     1     -33.216  -2.749 -19.267  1.00  0.00     0.158 A 
ATOM      5  C   UNL     1     -31.335  -3.073 -17.773  1.00  0.00     0.051 A 
ATOM      6  C   UNL     1     -32.712  -3.121 -18.009  1.00  0.00     0.157 A 
ENDROOT
BRANCH   1   7
ATOM      7  C   UNL     1     -30.019  -1.845 -21.105  1.00  0.00     0.072 C 
ATOM      8  O   UNL     1     -30.459  -1.394 -22.196  1.00  0.00    -0.545 OA
ATOM      9  O   UNL     1     -28.644  -1.923 -20.914  1.00  0.00    -0.545 OA
ENDBRANCH   1   7
BRANCH   4  10
ATOM     10  O   UNL     1     -34.588  -2.794 -19.509  1.00  0.00    -0.504 OA
ATOM     11  H   UNL     1     -35.262  -2.545 -18.796  1.00  0.00     0.293 HD
ENDBRANCH   4  10
BRANCH   6  12
ATOM     12  O   UNL     1     -33.562  -3.539 -16.986  1.00  0.00    -0.504 OA
ATOM     13  H   UNL     1     -34.009  -2.884 -16.356  1.00  0.00     0.293 HD
ENDBRANCH   6  12
TORSDOF 3
ENDMDL
MODEL 3
REMARK VINA RESULT:    -4.984      6.196      8.983
REMARK INTER + INTRA:          -5.610
REMARK INTER:                  -5.566
REMARK INTRA:                  -0.044
REMARK UNBOUND:                -0.044
REMARK SMILES O=C([O-])c1ccc(O)c(O)c1
REMARK SMILES IDX 4 1 11 2 5 3 9 4 6 5 7 6 2 7 1 8 3 9 10 10 8 12
REMARK H PARENT 10 11 8 13
REMARK Flexibility Score: inf
ROOT
ATOM      1  C   UNL     1     -36.424  -6.746 -15.553  1.00  0.00     0.001 A 
ATOM      2  C   UNL     1     -37.608  -7.301 -16.071  1.00  0.00     0.060 A 
ATOM      3  C   UNL     1     -36.081  -6.997 -14.214  1.00  0.00     0.014 A 
ATOM      4  C   UNL     1     -38.437  -8.094 -15.263  1.00  0.00     0.158 A 
ATOM      5  C   UNL     1     -36.907  -7.787 -13.409  1.00  0.00     0.051 A 
ATOM      6  C   UNL     1     -38.083  -8.338 -13.925  1.00  0.00     0.157 A 
ENDROOT
BRANCH   1   7
ATOM      7  C   UNL     1     -35.548  -5.909 -16.403  1.00  0.00     0.072 C 
ATOM      8  O   UNL     1     -35.883  -5.623 -17.583  1.00  0.00    -0.545 OA
ATOM      9  O   UNL     1     -34.342  -5.425 -15.910  1.00  0.00    -0.545 OA
ENDBRANCH   1   7
BRANCH   4  10
ATOM     10  O   UNL     1     -39.610  -8.639 -15.785  1.00  0.00    -0.504 OA
ATOM     11  H   UNL     1     -40.490  -8.579 -15.288  1.00  0.00     0.293 HD
ENDBRANCH   4  10
BRANCH   6  12
ATOM     12  O   UNL     1     -38.886  -9.121 -13.098  1.00  0.00    -0.504 OA
ATOM     13  H   UNL     1     -38.645  -9.308 -12.133  1.00  0.00     0.293 HD
ENDBRANCH   6  12
TORSDOF 3
ENDMDL
MODEL 4
REMARK VINA RESULT:    -4.895      7.937     10.390
REMARK INTER + INTRA:          -5.511
REMARK INTER:                  -5.469
REMARK INTRA:                  -0.041
REMARK UNBOUND:                -0.044
REMARK SMILES O=C([O-])c1ccc(O)c(O)c1
REMARK SMILES IDX 4 1 11 2 5 3 9 4 6 5 7 6 2 7 1 8 3 9 10 10 8 12
REMARK H PARENT 10 11 8 13
REMARK Flexibility Score: inf
ROOT
ATOM      1  C   UNL     1     -37.863  -6.275 -13.515  1.00  0.00     0.001 A 
ATOM      2  C   UNL     1     -38.284  -7.508 -14.046  1.00  0.00     0.060 A 
ATOM      3  C   UNL     1     -38.825  -5.388 -13.004  1.00  0.00     0.014 A 
ATOM      4  C   UNL     1     -39.645  -7.849 -14.066  1.00  0.00     0.158 A 
ATOM      5  C   UNL     1     -40.181  -5.728 -13.024  1.00  0.00     0.051 A 
ATOM      6  C   UNL     1     -40.597  -6.953 -13.552  1.00  0.00     0.157 A 
ENDROOT
BRANCH   1   7
ATOM      7  C   UNL     1     -36.428  -5.913 -13.493  1.00  0.00     0.072 C 
ATOM      8  O   UNL     1     -35.951  -5.242 -12.539  1.00  0.00    -0.545 OA
ATOM      9  O   UNL     1     -35.585  -6.310 -14.525  1.00  0.00    -0.545 OA
ENDBRANCH   1   7
BRANCH   4  10
ATOM     10  O   UNL     1     -40.052  -9.073 -14.595  1.00  0.00    -0.504 OA
ATOM     11  H   UNL     1     -40.547  -9.132 -15.477  1.00  0.00     0.293 HD
ENDBRANCH   4  10
BRANCH   6  12
ATOM     12  O   UNL     1     -41.956  -7.263 -13.558  1.00  0.00    -0.504 OA
ATOM     13  H   UNL     1     -42.463  -7.478 -12.708  1.00  0.00     0.293 HD
ENDBRANCH   6  12
TORSDOF 3
ENDMDL
MODEL 5
REMARK VINA RESULT:    -4.854      5.591      7.559
REMARK INTER + INTRA:          -5.465
REMARK INTER:                  -5.425
REMARK INTRA:                  -0.041
REMARK UNBOUND:                -0.044
REMARK SMILES O=C([O-])c1ccc(O)c(O)c1
REMARK SMILES IDX 4 1 11 2 5 3 9 4 6 5 7 6 2 7 1 8 3 9 10 10 8 12
REMARK H PARENT 10 11 8 13
REMARK Flexibility Score: inf
ROOT
ATOM      1  C   UNL     1     -36.742  -7.009 -14.845  1.00  0.00     0.001 A 
ATOM      2  C   UNL     1     -36.386  -6.203 -13.749  1.00  0.00     0.060 A 
ATOM      3  C   UNL     1     -36.148  -6.763 -16.094  1.00  0.00     0.014 A 
ATOM      4  C   UNL     1     -35.452  -5.168 -13.898  1.00  0.00     0.158 A 
ATOM      5  C   UNL     1     -35.217  -5.732 -16.243  1.00  0.00     0.051 A 
ATOM      6  C   UNL     1     -34.865  -4.932 -15.153  1.00  0.00     0.157 A 
ENDROOT
BRANCH   1   7
ATOM      7  C   UNL     1     -37.728  -8.103 -14.690  1.00  0.00     0.072 C 
ATOM      8  O   UNL     1     -37.722  -8.830 -13.661  1.00  0.00    -0.545 OA
ATOM      9  O   UNL     1     -38.676  -8.342 -15.678  1.00  0.00    -0.545 OA
ENDBRANCH   1   7
BRANCH   4  10
ATOM     10  O   UNL     1     -35.106  -4.373 -12.806  1.00  0.00    -0.504 OA
ATOM     11  H   UNL     1     -35.148  -3.362 -12.849  1.00  0.00     0.293 HD
ENDBRANCH   4  10
BRANCH   6  12
ATOM     12  O   UNL     1     -33.933  -3.911 -15.333  1.00  0.00    -0.504 OA
ATOM     13  H   UNL     1     -33.739  -3.513 -16.243  1.00  0.00     0.293 HD
ENDBRANCH   6  12
TORSDOF 3
ENDMDL
MODEL 6
REMARK VINA RESULT:    -4.794      4.925      6.612
REMARK INTER + INTRA:          -5.398
REMARK INTER:                  -5.361
REMARK INTRA:                  -0.037
REMARK UNBOUND:                -0.044
REMARK SMILES O=C([O-])c1ccc(O)c(O)c1
REMARK SMILES IDX 4 1 11 2 5 3 9 4 6 5 7 6 2 7 1 8 3 9 10 10 8 12
REMARK H PARENT 10 11 8 13
REMARK Flexibility Score: inf
ROOT
ATOM      1  C   UNL     1     -36.156  -6.516 -14.498  1.00  0.00     0.001 A 
ATOM      2  C   UNL     1     -35.993  -6.578 -15.894  1.00  0.00     0.060 A 
ATOM      3  C   UNL     1     -35.574  -5.451 -13.790  1.00  0.00     0.014 A 
ATOM      4  C   UNL     1     -35.261  -5.592 -16.571  1.00  0.00     0.158 A 
ATOM      5  C   UNL     1     -34.845  -4.468 -14.465  1.00  0.00     0.051 A 
ATOM      6  C   UNL     1     -34.684  -4.532 -15.852  1.00  0.00     0.157 A 
ENDROOT
BRANCH   1   7
ATOM      7  C   UNL     1     -36.928  -7.556 -13.781  1.00  0.00     0.072 C 
ATOM      8  O   UNL     1     -36.344  -8.390 -13.039  1.00  0.00    -0.545 OA
ATOM      9  O   UNL     1     -38.310  -7.626 -13.915  1.00  0.00    -0.545 OA
ENDBRANCH   1   7
BRANCH   4  10
ATOM     10  O   UNL     1     -35.105  -5.662 -17.955  1.00  0.00    -0.504 OA
ATOM     11  H   UNL     1     -35.466  -6.442 -18.491  1.00  0.00     0.293 HD
ENDBRANCH   4  10
BRANCH   6  12
ATOM     12  O   UNL     1     -33.951  -3.537 -16.497  1.00  0.00    -0.504 OA
ATOM     13  H   UNL     1     -34.390  -2.712 -16.887  1.00  0.00     0.293 HD
ENDBRANCH   6  12
TORSDOF 3
ENDMDL
MODEL 7
REMARK VINA RESULT:    -4.718      8.035      9.778
REMARK INTER + INTRA:          -5.313
REMARK INTER:                  -5.269
REMARK INTRA:                  -0.044
REMARK UNBOUND:                -0.044
REMARK SMILES O=C([O-])c1ccc(O)c(O)c1
REMARK SMILES IDX 4 1 11 2 5 3 9 4 6 5 7 6 2 7 1 8 3 9 10 10 8 12
REMARK H PARENT 10 11 8 13
REMARK Flexibility Score: inf
ROOT
ATOM      1  C   UNL     1     -39.006  -7.115 -13.398  1.00  0.00     0.001 A 
ATOM      2  C   UNL     1     -38.891  -5.734 -13.158  1.00  0.00     0.060 A 
ATOM      3  C   UNL     1     -37.844  -7.863 -13.648  1.00  0.00     0.014 A 
ATOM      4  C   UNL     1     -37.634  -5.111 -13.169  1.00  0.00     0.158 A 
ATOM      5  C   UNL     1     -36.592  -7.243 -13.659  1.00  0.00     0.051 A 
ATOM      6  C   UNL     1     -36.480  -5.870 -13.421  1.00  0.00     0.157 A 
ENDROOT
BRANCH   1   7
ATOM      7  C   UNL     1     -40.331  -7.775 -13.387  1.00  0.00     0.072 C 
ATOM      8  O   UNL     1     -40.421  -9.032 -13.357  1.00  0.00    -0.545 OA
ATOM      9  O   UNL     1     -41.497  -7.017 -13.408  1.00  0.00    -0.545 OA
ENDBRANCH   1   7
BRANCH   4  10
ATOM     10  O   UNL     1     -37.530  -3.741 -12.931  1.00  0.00    -0.504 OA
ATOM     11  H   UNL     1     -37.146  -3.380 -12.066  1.00  0.00     0.293 HD
ENDBRANCH   4  10
BRANCH   6  12
ATOM     12  O   UNL     1     -35.217  -5.279 -13.438  1.00  0.00    -0.504 OA
ATOM     13  H   UNL     1     -34.798  -4.880 -12.607  1.00  0.00     0.293 HD
ENDBRANCH   6  12
TORSDOF 3
ENDMDL
MODEL 8
REMARK VINA RESULT:    -4.620      6.907      8.776
REMARK INTER + INTRA:          -5.204
REMARK INTER:                  -5.168
REMARK INTRA:                  -0.036
REMARK UNBOUND:                -0.044
REMARK SMILES O=C([O-])c1ccc(O)c(O)c1
REMARK SMILES IDX 4 1 11 2 5 3 9 4 6 5 7 6 2 7 1 8 3 9 10 10 8 12
REMARK H PARENT 10 11 8 13
REMARK Flexibility Score: inf
ROOT
ATOM      1  C   UNL     1     -38.674  -7.172 -14.248  1.00  0.00     0.001 A 
ATOM      2  C   UNL     1     -38.859  -6.396 -15.406  1.00  0.00     0.060 A 
ATOM      3  C   UNL     1     -37.397  -7.690 -13.970  1.00  0.00     0.014 A 
ATOM      4  C   UNL     1     -37.786  -6.143 -16.274  1.00  0.00     0.158 A 
ATOM      5  C   UNL     1     -36.328  -7.437 -14.834  1.00  0.00     0.051 A 
ATOM      6  C   UNL     1     -36.515  -6.666 -15.985  1.00  0.00     0.157 A 
ENDROOT
BRANCH   1   7
ATOM      7  C   UNL     1     -39.804  -7.442 -13.331  1.00  0.00     0.072 C 
ATOM      8  O   UNL     1     -40.340  -8.581 -13.292  1.00  0.00    -0.545 OA
ATOM      9  O   UNL     1     -40.289  -6.441 -12.497  1.00  0.00    -0.545 OA
ENDBRANCH   1   7
BRANCH   4  10
ATOM     10  O   UNL     1     -37.980  -5.373 -17.420  1.00  0.00    -0.504 OA
ATOM     11  H   UNL     1     -37.860  -5.762 -18.348  1.00  0.00     0.293 HD
ENDBRANCH   4  10
BRANCH   6  12
ATOM     12  O   UNL     1     -35.429  -6.431 -16.828  1.00  0.00    -0.504 OA
ATOM     13  H   UNL     1     -35.544  -6.066 -17.765  1.00  0.00     0.293 HD
ENDBRANCH   6  12
TORSDOF 3
ENDMDL
