MODEL 1
REMARK VINA RESULT:    -4.887      0.000      0.000
REMARK INTER + INTRA:          -7.652
REMARK INTER:                  -6.886
REMARK INTRA:                  -0.766
REMARK UNBOUND:                -0.766
REMARK SMILES COc1ccc(-c2cc(=O)c3c(OC)c(OC)c(OC)c(OC)c3o2)cc1OC
REMARK SMILES IDX 7 1 8 2 9 3 10 4 11 5 24 6 25 7 21 8 18 9 15 10 12 11 6 12
REMARK SMILES IDX 3 13 27 14 4 15 26 16 5 17 2 18 1 19 28 20 29 21 22 22 23 23
REMARK SMILES IDX 13 24 14 25 19 26 20 27 16 28 17 29
REMARK H PARENT
REMARK Flexibility Score: inf
ROOT
ATOM      1  C   UNL     1      26.554  52.471  31.705  1.00  0.00     0.138 A 
ATOM      2  C   UNL     1      26.082  51.567  30.743  1.00  0.00     0.100 A 
ATOM      3  C   UNL     1      25.199  52.013  29.760  1.00  0.00     0.197 A 
ATOM      4  O   UNL     1      24.783  51.191  28.900  1.00  0.00    -0.289 OA
ATOM      5  C   UNL     1      24.792  53.365  29.748  1.00  0.00     0.115 A 
ATOM      6  C   UNL     1      25.298  54.211  30.757  1.00  0.00     0.188 A 
ATOM      7  O   UNL     1      26.140  53.733  31.671  1.00  0.00    -0.452 OA
ATOM      8  C   UNL     1      24.923  55.557  30.826  1.00  0.00     0.209 A 
ATOM      9  C   UNL     1      24.046  56.098  29.852  1.00  0.00     0.211 A 
ATOM     10  C   UNL     1      23.577  55.262  28.805  1.00  0.00     0.208 A 
ATOM     11  C   UNL     1      23.896  53.887  28.794  1.00  0.00     0.179 A 
ENDROOT
BRANCH   1  12
ATOM     12  C   UNL     1      27.497  52.058  32.777  1.00  0.00     0.021 A 
ATOM     13  C   UNL     1      29.296  51.212  34.783  1.00  0.00     0.160 A 
ATOM     14  C   UNL     1      29.385  50.673  33.491  1.00  0.00     0.161 A 
ATOM     15  C   UNL     1      28.302  52.165  35.070  1.00  0.00     0.051 A 
ATOM     16  C   UNL     1      28.483  51.097  32.496  1.00  0.00     0.062 A 
ATOM     17  C   UNL     1      27.410  52.580  34.078  1.00  0.00     0.016 A 
BRANCH  13  18
ATOM     18  O   UNL     1      30.209  50.773  35.755  1.00  0.00    -0.493 OA
ATOM     19  C   UNL     1      29.923  49.792  36.746  1.00  0.00     0.278 C 
ENDBRANCH  13  18
BRANCH  14  20
ATOM     20  O   UNL     1      30.383  49.719  33.236  1.00  0.00    -0.493 OA
ATOM     21  C   UNL     1      30.185  48.310  33.284  1.00  0.00     0.278 C 
ENDBRANCH  14  20
ENDBRANCH   1  12
BRANCH   8  22
ATOM     22  O   UNL     1      25.465  56.301  31.894  1.00  0.00    -0.490 OA
ATOM     23  C   UNL     1      26.636  57.111  31.869  1.00  0.00     0.278 C 
ENDBRANCH   8  22
BRANCH  11  24
ATOM     24  O   UNL     1      23.322  53.037  27.841  1.00  0.00    -0.492 OA
ATOM     25  C   UNL     1      21.917  52.825  27.752  1.00  0.00     0.278 C 
ENDBRANCH  11  24
BRANCH   9  26
ATOM     26  O   UNL     1      23.684  57.455  29.955  1.00  0.00    -0.490 OA
ATOM     27  C   UNL     1      24.349  58.570  29.371  1.00  0.00     0.279 C 
ENDBRANCH   9  26
BRANCH  10  28
ATOM     28  O   UNL     1      22.812  55.804  27.768  1.00  0.00    -0.490 OA
ATOM     29  C   UNL     1      23.395  56.294  26.564  1.00  0.00     0.278 C 
ENDBRANCH  10  28
TORSDOF 7
ENDMDL
MODEL 2
REMARK VINA RESULT:    -4.766     11.113     13.965
REMARK INTER + INTRA:          -7.482
REMARK INTER:                  -6.841
REMARK INTRA:                  -0.641
REMARK UNBOUND:                -0.766
REMARK SMILES COc1ccc(-c2cc(=O)c3c(OC)c(OC)c(OC)c(OC)c3o2)cc1OC
REMARK SMILES IDX 7 1 8 2 9 3 10 4 11 5 24 6 25 7 21 8 18 9 15 10 12 11 6 12
REMARK SMILES IDX 3 13 27 14 4 15 26 16 5 17 2 18 1 19 28 20 29 21 22 22 23 23
REMARK SMILES IDX 13 24 14 25 19 26 20 27 16 28 17 29
REMARK H PARENT
REMARK Flexibility Score: inf
ROOT
ATOM      1  C   UNL     1      14.473  49.412  33.061  1.00  0.00     0.138 A 
ATOM      2  C   UNL     1      13.555  48.603  33.746  1.00  0.00     0.100 A 
ATOM      3  C   UNL     1      13.540  47.229  33.504  1.00  0.00     0.197 A 
ATOM      4  O   UNL     1      12.712  46.512  34.127  1.00  0.00    -0.289 OA
ATOM      5  C   UNL     1      14.446  46.674  32.573  1.00  0.00     0.115 A 
ATOM      6  C   UNL     1      15.329  47.554  31.913  1.00  0.00     0.188 A 
ATOM      7  O   UNL     1      15.302  48.858  32.183  1.00  0.00    -0.452 OA
ATOM      8  C   UNL     1      16.240  47.083  30.960  1.00  0.00     0.209 A 
ATOM      9  C   UNL     1      16.306  45.697  30.670  1.00  0.00     0.211 A 
ATOM     10  C   UNL     1      15.456  44.803  31.371  1.00  0.00     0.208 A 
ATOM     11  C   UNL     1      14.485  45.298  32.268  1.00  0.00     0.179 A 
ENDROOT
BRANCH   1  12
ATOM     12  C   UNL     1      14.538  50.881  33.276  1.00  0.00     0.021 A 
ATOM     13  C   UNL     1      14.651  53.663  33.750  1.00  0.00     0.160 A 
ATOM     14  C   UNL     1      14.970  52.764  34.778  1.00  0.00     0.161 A 
ATOM     15  C   UNL     1      14.267  53.167  32.490  1.00  0.00     0.051 A 
ATOM     16  C   UNL     1      14.909  51.378  34.537  1.00  0.00     0.062 A 
ATOM     17  C   UNL     1      14.208  51.791  32.258  1.00  0.00     0.016 A 
BRANCH  13  18
ATOM     18  O   UNL     1      14.722  55.038  34.018  1.00  0.00    -0.493 OA
ATOM     19  C   UNL     1      15.775  55.893  33.585  1.00  0.00     0.278 C 
ENDBRANCH  13  18
BRANCH  14  20
ATOM     20  O   UNL     1      15.343  53.288  36.027  1.00  0.00    -0.493 OA
ATOM     21  C   UNL     1      14.441  53.539  37.099  1.00  0.00     0.278 C 
ENDBRANCH  14  20
ENDBRANCH   1  12
BRANCH   8  22
ATOM     22  O   UNL     1      17.051  48.056  30.341  1.00  0.00    -0.490 OA
ATOM     23  C   UNL     1      16.833  48.679  29.079  1.00  0.00     0.278 C 
ENDBRANCH   8  22
BRANCH  11  24
ATOM     24  O   UNL     1      13.556  44.430  32.854  1.00  0.00    -0.492 OA
ATOM     25  C   UNL     1      13.918  43.485  33.855  1.00  0.00     0.278 C 
ENDBRANCH  11  24
BRANCH   9  26
ATOM     26  O   UNL     1      17.229  45.258  29.701  1.00  0.00    -0.490 OA
ATOM     27  C   UNL     1      16.986  45.045  28.315  1.00  0.00     0.279 C 
ENDBRANCH   9  26
BRANCH  10  28
ATOM     28  O   UNL     1      15.590  43.424  31.189  1.00  0.00    -0.490 OA
ATOM     29  C   UNL     1      14.840  42.706  30.213  1.00  0.00     0.278 C 
ENDBRANCH  10  28
TORSDOF 7
ENDMDL
MODEL 3
REMARK VINA RESULT:    -4.657      2.918      6.199
REMARK INTER + INTRA:          -7.329
REMARK INTER:                  -6.503
REMARK INTRA:                  -0.826
REMARK UNBOUND:                -0.766
REMARK SMILES COc1ccc(-c2cc(=O)c3c(OC)c(OC)c(OC)c(OC)c3o2)cc1OC
REMARK SMILES IDX 7 1 8 2 9 3 10 4 11 5 24 6 25 7 21 8 18 9 15 10 12 11 6 12
REMARK SMILES IDX 3 13 27 14 4 15 26 16 5 17 2 18 1 19 28 20 29 21 22 22 23 23
REMARK SMILES IDX 13 24 14 25 19 26 20 27 16 28 17 29
REMARK H PARENT
REMARK Flexibility Score: inf
ROOT
ATOM      1  C   UNL     1      25.446  57.892  31.890  1.00  0.00     0.138 A 
ATOM      2  C   UNL     1      24.928  58.621  30.809  1.00  0.00     0.100 A 
ATOM      3  C   UNL     1      24.371  57.938  29.728  1.00  0.00     0.197 A 
ATOM      4  O   UNL     1      23.908  58.604  28.763  1.00  0.00    -0.289 OA
ATOM      5  C   UNL     1      24.336  56.526  29.735  1.00  0.00     0.115 A 
ATOM      6  C   UNL     1      24.889  55.864  30.851  1.00  0.00     0.188 A 
ATOM      7  O   UNL     1      25.408  56.564  31.857  1.00  0.00    -0.452 OA
ATOM      8  C   UNL     1      24.914  54.466  30.922  1.00  0.00     0.209 A 
ATOM      9  C   UNL     1      24.348  53.695  29.875  1.00  0.00     0.211 A 
ATOM     10  C   UNL     1      23.743  54.360  28.777  1.00  0.00     0.208 A 
ATOM     11  C   UNL     1      23.798  55.767  28.677  1.00  0.00     0.179 A 
ENDROOT
BRANCH   1  12
ATOM     12  C   UNL     1      26.052  58.561  33.070  1.00  0.00     0.021 A 
ATOM     13  C   UNL     1      27.189  59.777  35.351  1.00  0.00     0.160 A 
ATOM     14  C   UNL     1      27.183  58.380  35.233  1.00  0.00     0.161 A 
ATOM     15  C   UNL     1      26.619  60.562  34.332  1.00  0.00     0.051 A 
ATOM     16  C   UNL     1      26.611  57.779  34.094  1.00  0.00     0.062 A 
ATOM     17  C   UNL     1      26.053  59.959  33.206  1.00  0.00     0.016 A 
BRANCH  13  18
ATOM     18  O   UNL     1      27.767  60.349  36.495  1.00  0.00    -0.493 OA
ATOM     19  C   UNL     1      27.032  60.855  37.604  1.00  0.00     0.278 C 
ENDBRANCH  13  18
BRANCH  14  20
ATOM     20  O   UNL     1      27.754  57.623  36.268  1.00  0.00    -0.493 OA
ATOM     21  C   UNL     1      28.882  56.768  36.117  1.00  0.00     0.278 C 
ENDBRANCH  14  20
ENDBRANCH   1  12
BRANCH   8  22
ATOM     22  O   UNL     1      25.519  53.911  32.068  1.00  0.00    -0.490 OA
ATOM     23  C   UNL     1      26.852  53.424  32.185  1.00  0.00     0.278 C 
ENDBRANCH   8  22
BRANCH  11  24
ATOM     24  O   UNL     1      23.326  56.413  27.529  1.00  0.00    -0.492 OA
ATOM     25  C   UNL     1      24.033  56.392  26.293  1.00  0.00     0.278 C 
ENDBRANCH  11  24
BRANCH   9  26
ATOM     26  O   UNL     1      24.395  52.291  29.975  1.00  0.00    -0.490 OA
ATOM     27  C   UNL     1      25.333  51.415  29.358  1.00  0.00     0.279 C 
ENDBRANCH   9  26
BRANCH  10  28
ATOM     28  O   UNL     1      23.072  53.623  27.796  1.00  0.00    -0.490 OA
ATOM     29  C   UNL     1      21.656  53.462  27.797  1.00  0.00     0.278 C 
ENDBRANCH  10  28
TORSDOF 7
ENDMDL
MODEL 4
REMARK VINA RESULT:    -4.654      1.133      3.398
REMARK INTER + INTRA:          -7.325
REMARK INTER:                  -6.598
REMARK INTRA:                  -0.727
REMARK UNBOUND:                -0.766
REMARK SMILES COc1ccc(-c2cc(=O)c3c(OC)c(OC)c(OC)c(OC)c3o2)cc1OC
REMARK SMILES IDX 7 1 8 2 9 3 10 4 11 5 24 6 25 7 21 8 18 9 15 10 12 11 6 12
REMARK SMILES IDX 3 13 27 14 4 15 26 16 5 17 2 18 1 19 28 20 29 21 22 22 23 23
REMARK SMILES IDX 13 24 14 25 19 26 20 27 16 28 17 29
REMARK H PARENT
REMARK Flexibility Score: inf
ROOT
ATOM      1  C   UNL     1      26.829  52.994  32.289  1.00  0.00     0.138 A 
ATOM      2  C   UNL     1      26.478  54.306  32.640  1.00  0.00     0.100 A 
ATOM      3  C   UNL     1      25.574  55.008  31.843  1.00  0.00     0.197 A 
ATOM      4  O   UNL     1      25.265  56.185  32.169  1.00  0.00    -0.289 OA
ATOM      5  C   UNL     1      25.027  54.391  30.696  1.00  0.00     0.115 A 
ATOM      6  C   UNL     1      25.440  53.075  30.401  1.00  0.00     0.188 A 
ATOM      7  O   UNL     1      26.305  52.449  31.196  1.00  0.00    -0.452 OA
ATOM      8  C   UNL     1      24.961  52.404  29.269  1.00  0.00     0.209 A 
ATOM      9  C   UNL     1      24.021  53.038  28.417  1.00  0.00     0.211 A 
ATOM     10  C   UNL     1      23.563  54.342  28.742  1.00  0.00     0.208 A 
ATOM     11  C   UNL     1      24.116  55.038  29.838  1.00  0.00     0.179 A 
ENDROOT
BRANCH   1  12
ATOM     12  C   UNL     1      27.786  52.194  33.097  1.00  0.00     0.021 A 
ATOM     13  C   UNL     1      29.595  50.622  34.590  1.00  0.00     0.160 A 
ATOM     14  C   UNL     1      29.433  50.387  33.217  1.00  0.00     0.161 A 
ATOM     15  C   UNL     1      28.845  51.636  35.214  1.00  0.00     0.051 A 
ATOM     16  C   UNL     1      28.526  51.173  32.478  1.00  0.00     0.062 A 
ATOM     17  C   UNL     1      27.948  52.410  34.476  1.00  0.00     0.016 A 
BRANCH  13  18
ATOM     18  O   UNL     1      30.506  49.825  35.301  1.00  0.00    -0.493 OA
ATOM     19  C   UNL     1      30.139  48.811  36.230  1.00  0.00     0.278 C 
ENDBRANCH  13  18
BRANCH  14  20
ATOM     20  O   UNL     1      30.189  49.365  32.623  1.00  0.00    -0.493 OA
ATOM     21  C   UNL     1      30.758  49.433  31.319  1.00  0.00     0.278 C 
ENDBRANCH  14  20
ENDBRANCH   1  12
BRANCH   8  22
ATOM     22  O   UNL     1      25.465  51.105  29.055  1.00  0.00    -0.490 OA
ATOM     23  C   UNL     1      26.462  50.715  28.116  1.00  0.00     0.278 C 
ENDBRANCH   8  22
BRANCH  11  24
ATOM     24  O   UNL     1      23.767  56.374  30.075  1.00  0.00    -0.492 OA
ATOM     25  C   UNL     1      24.313  57.452  29.324  1.00  0.00     0.278 C 
ENDBRANCH  11  24
BRANCH   9  26
ATOM     26  O   UNL     1      23.565  52.338  27.284  1.00  0.00    -0.490 OA
ATOM     27  C   UNL     1      22.501  51.394  27.225  1.00  0.00     0.279 C 
ENDBRANCH   9  26
BRANCH  10  28
ATOM     28  O   UNL     1      22.549  54.935  27.985  1.00  0.00    -0.490 OA
ATOM     29  C   UNL     1      22.788  55.507  26.702  1.00  0.00     0.278 C 
ENDBRANCH  10  28
TORSDOF 7
ENDMDL
MODEL 5
REMARK VINA RESULT:    -4.645     10.954     12.312
REMARK INTER + INTRA:          -7.311
REMARK INTER:                  -6.536
REMARK INTRA:                  -0.775
REMARK UNBOUND:                -0.766
REMARK SMILES COc1ccc(-c2cc(=O)c3c(OC)c(OC)c(OC)c(OC)c3o2)cc1OC
REMARK SMILES IDX 7 1 8 2 9 3 10 4 11 5 24 6 25 7 21 8 18 9 15 10 12 11 6 12
REMARK SMILES IDX 3 13 27 14 4 15 26 16 5 17 2 18 1 19 28 20 29 21 22 22 23 23
REMARK SMILES IDX 13 24 14 25 19 26 20 27 16 28 17 29
REMARK H PARENT
REMARK Flexibility Score: inf
ROOT
ATOM      1  C   UNL     1      14.617  51.290  33.062  1.00  0.00     0.138 A 
ATOM      2  C   UNL     1      14.630  51.967  34.290  1.00  0.00     0.100 A 
ATOM      3  C   UNL     1      14.631  53.361  34.303  1.00  0.00     0.197 A 
ATOM      4  O   UNL     1      14.642  53.958  35.413  1.00  0.00    -0.289 OA
ATOM      5  C   UNL     1      14.621  54.072  33.082  1.00  0.00     0.115 A 
ATOM      6  C   UNL     1      14.622  53.321  31.888  1.00  0.00     0.188 A 
ATOM      7  O   UNL     1      14.620  51.990  31.933  1.00  0.00    -0.452 OA
ATOM      8  C   UNL     1      14.636  53.951  30.638  1.00  0.00     0.209 A 
ATOM      9  C   UNL     1      14.615  55.367  30.561  1.00  0.00     0.211 A 
ATOM     10  C   UNL     1      14.559  56.124  31.760  1.00  0.00     0.208 A 
ATOM     11  C   UNL     1      14.630  55.479  33.013  1.00  0.00     0.179 A 
ENDROOT
BRANCH   1  12
ATOM     12  C   UNL     1      14.614  49.806  32.983  1.00  0.00     0.021 A 
ATOM     13  C   UNL     1      14.647  46.990  32.776  1.00  0.00     0.160 A 
ATOM     14  C   UNL     1      15.706  47.742  32.248  1.00  0.00     0.161 A 
ATOM     15  C   UNL     1      13.570  47.648  33.397  1.00  0.00     0.051 A 
ATOM     16  C   UNL     1      15.682  49.147  32.351  1.00  0.00     0.062 A 
ATOM     17  C   UNL     1      13.553  49.041  33.496  1.00  0.00     0.016 A 
BRANCH  13  18
ATOM     18  O   UNL     1      14.697  45.592  32.660  1.00  0.00    -0.493 OA
ATOM     19  C   UNL     1      14.013  44.685  33.518  1.00  0.00     0.278 C 
ENDBRANCH  13  18
BRANCH  14  20
ATOM     20  O   UNL     1      16.763  47.058  31.627  1.00  0.00    -0.493 OA
ATOM     21  C   UNL     1      16.908  46.899  30.220  1.00  0.00     0.278 C 
ENDBRANCH  14  20
ENDBRANCH   1  12
BRANCH   8  22
ATOM     22  O   UNL     1      14.668  53.103  29.513  1.00  0.00    -0.490 OA
ATOM     23  C   UNL     1      15.823  52.641  28.819  1.00  0.00     0.278 C 
ENDBRANCH   8  22
BRANCH  11  24
ATOM     24  O   UNL     1      14.716  56.231  34.191  1.00  0.00    -0.492 OA
ATOM     25  C   UNL     1      15.848  57.035  34.505  1.00  0.00     0.278 C 
ENDBRANCH  11  24
BRANCH   9  26
ATOM     26  O   UNL     1      14.636  55.969  29.288  1.00  0.00    -0.490 OA
ATOM     27  C   UNL     1      15.779  56.407  28.561  1.00  0.00     0.279 C 
ENDBRANCH   9  26
BRANCH  10  28
ATOM     28  O   UNL     1      14.415  57.513  31.704  1.00  0.00    -0.490 OA
ATOM     29  C   UNL     1      13.140  58.147  31.664  1.00  0.00     0.278 C 
ENDBRANCH  10  28
TORSDOF 7
ENDMDL
MODEL 6
REMARK VINA RESULT:    -4.628      3.142      6.027
REMARK INTER + INTRA:          -7.288
REMARK INTER:                  -6.695
REMARK INTRA:                  -0.593
REMARK UNBOUND:                -0.766
REMARK SMILES COc1ccc(-c2cc(=O)c3c(OC)c(OC)c(OC)c(OC)c3o2)cc1OC
REMARK SMILES IDX 7 1 8 2 9 3 10 4 11 5 24 6 25 7 21 8 18 9 15 10 12 11 6 12
REMARK SMILES IDX 3 13 27 14 4 15 26 16 5 17 2 18 1 19 28 20 29 21 22 22 23 23
REMARK SMILES IDX 13 24 14 25 19 26 20 27 16 28 17 29
REMARK H PARENT
REMARK Flexibility Score: inf
ROOT
ATOM      1  C   UNL     1      24.722  56.697  30.589  1.00  0.00     0.138 A 
ATOM      2  C   UNL     1      23.841  57.260  29.655  1.00  0.00     0.100 A 
ATOM      3  C   UNL     1      23.273  56.447  28.673  1.00  0.00     0.197 A 
ATOM      4  O   UNL     1      22.481  56.964  27.840  1.00  0.00    -0.289 OA
ATOM      5  C   UNL     1      23.594  55.072  28.633  1.00  0.00     0.115 A 
ATOM      6  C   UNL     1      24.499  54.582  29.597  1.00  0.00     0.188 A 
ATOM      7  O   UNL     1      25.011  55.402  30.513  1.00  0.00    -0.452 OA
ATOM      8  C   UNL     1      24.885  53.237  29.608  1.00  0.00     0.209 A 
ATOM      9  C   UNL     1      24.338  52.337  28.659  1.00  0.00     0.211 A 
ATOM     10  C   UNL     1      23.386  52.816  27.721  1.00  0.00     0.208 A 
ATOM     11  C   UNL     1      23.069  54.190  27.667  1.00  0.00     0.179 A 
ENDROOT
BRANCH   1  12
ATOM     12  C   UNL     1      25.358  57.509  31.658  1.00  0.00     0.021 A 
ATOM     13  C   UNL     1      26.561  59.001  33.733  1.00  0.00     0.160 A 
ATOM     14  C   UNL     1      26.673  57.603  33.720  1.00  0.00     0.161 A 
ATOM     15  C   UNL     1      25.839  59.648  32.712  1.00  0.00     0.051 A 
ATOM     16  C   UNL     1      26.068  56.864  32.685  1.00  0.00     0.062 A 
ATOM     17  C   UNL     1      25.242  58.909  31.689  1.00  0.00     0.016 A 
BRANCH  13  18
ATOM     18  O   UNL     1      27.174  59.712  34.776  1.00  0.00    -0.493 OA
ATOM     19  C   UNL     1      26.647  60.894  35.367  1.00  0.00     0.278 C 
ENDBRANCH  13  18
BRANCH  14  20
ATOM     20  O   UNL     1      27.393  56.985  34.755  1.00  0.00    -0.493 OA
ATOM     21  C   UNL     1      28.341  55.939  34.567  1.00  0.00     0.278 C 
ENDBRANCH  14  20
ENDBRANCH   1  12
BRANCH   8  22
ATOM     22  O   UNL     1      25.819  52.865  30.597  1.00  0.00    -0.490 OA
ATOM     23  C   UNL     1      25.548  52.200  31.827  1.00  0.00     0.278 C 
ENDBRANCH   8  22
BRANCH  11  24
ATOM     24  O   UNL     1      22.238  54.684  26.655  1.00  0.00    -0.492 OA
ATOM     25  C   UNL     1      20.821  54.548  26.694  1.00  0.00     0.278 C 
ENDBRANCH  11  24
BRANCH   9  26
ATOM     26  O   UNL     1      24.753  50.992  28.693  1.00  0.00    -0.490 OA
ATOM     27  C   UNL     1      25.655  50.345  27.802  1.00  0.00     0.279 C 
ENDBRANCH   9  26
BRANCH  10  28
ATOM     28  O   UNL     1      22.745  51.923  26.858  1.00  0.00    -0.490 OA
ATOM     29  C   UNL     1      21.701  51.057  27.294  1.00  0.00     0.278 C 
ENDBRANCH  10  28
TORSDOF 7
ENDMDL
MODEL 7
REMARK VINA RESULT:    -4.605     11.313     12.523
REMARK INTER + INTRA:          -7.256
REMARK INTER:                  -6.455
REMARK INTRA:                  -0.801
REMARK UNBOUND:                -0.766
REMARK SMILES COc1ccc(-c2cc(=O)c3c(OC)c(OC)c(OC)c(OC)c3o2)cc1OC
REMARK SMILES IDX 7 1 8 2 9 3 10 4 11 5 24 6 25 7 21 8 18 9 15 10 12 11 6 12
REMARK SMILES IDX 3 13 27 14 4 15 26 16 5 17 2 18 1 19 28 20 29 21 22 22 23 23
REMARK SMILES IDX 13 24 14 25 19 26 20 27 16 28 17 29
REMARK H PARENT
REMARK Flexibility Score: inf
ROOT
ATOM      1  C   UNL     1      14.527  50.578  32.251  1.00  0.00     0.138 A 
ATOM      2  C   UNL     1      14.754  50.981  30.928  1.00  0.00     0.100 A 
ATOM      3  C   UNL     1      14.725  52.338  30.611  1.00  0.00     0.197 A 
ATOM      4  O   UNL     1      14.932  52.688  29.418  1.00  0.00    -0.289 OA
ATOM      5  C   UNL     1      14.465  53.287  31.625  1.00  0.00     0.115 A 
ATOM      6  C   UNL     1      14.231  52.804  32.929  1.00  0.00     0.188 A 
ATOM      7  O   UNL     1      14.272  51.496  33.177  1.00  0.00    -0.452 OA
ATOM      8  C   UNL     1      13.943  53.679  33.983  1.00  0.00     0.209 A 
ATOM      9  C   UNL     1      13.916  55.078  33.753  1.00  0.00     0.211 A 
ATOM     10  C   UNL     1      14.203  55.570  32.452  1.00  0.00     0.208 A 
ATOM     11  C   UNL     1      14.409  54.674  31.382  1.00  0.00     0.179 A 
ENDROOT
BRANCH   1  12
ATOM     12  C   UNL     1      14.546  49.147  32.652  1.00  0.00     0.021 A 
ATOM     13  C   UNL     1      14.621  46.414  33.359  1.00  0.00     0.160 A 
ATOM     14  C   UNL     1      15.675  46.975  32.623  1.00  0.00     0.161 A 
ATOM     15  C   UNL     1      13.529  47.219  33.731  1.00  0.00     0.051 A 
ATOM     16  C   UNL     1      15.630  48.339  32.271  1.00  0.00     0.062 A 
ATOM     17  C   UNL     1      13.491  48.569  33.378  1.00  0.00     0.016 A 
BRANCH  13  18
ATOM     18  O   UNL     1      14.693  45.054  33.698  1.00  0.00    -0.493 OA
ATOM     19  C   UNL     1      13.950  44.022  33.057  1.00  0.00     0.278 C 
ENDBRANCH  13  18
BRANCH  14  20
ATOM     20  O   UNL     1      16.748  46.146  32.260  1.00  0.00    -0.493 OA
ATOM     21  C   UNL     1      17.109  45.831  30.919  1.00  0.00     0.278 C 
ENDBRANCH  14  20
ENDBRANCH   1  12
BRANCH   8  22
ATOM     22  O   UNL     1      13.696  53.084  35.237  1.00  0.00    -0.490 OA
ATOM     23  C   UNL     1      14.606  52.970  36.327  1.00  0.00     0.278 C 
ENDBRANCH   8  22
BRANCH  11  24
ATOM     24  O   UNL     1      14.554  55.156  30.075  1.00  0.00    -0.492 OA
ATOM     25  C   UNL     1      13.461  55.678  29.327  1.00  0.00     0.278 C 
ENDBRANCH  11  24
BRANCH   9  26
ATOM     26  O   UNL     1      13.617  55.930  34.833  1.00  0.00    -0.490 OA
ATOM     27  C   UNL     1      12.330  56.379  35.245  1.00  0.00     0.279 C 
ENDBRANCH   9  26
BRANCH  10  28
ATOM     28  O   UNL     1      14.301  56.947  32.232  1.00  0.00    -0.490 OA
ATOM     29  C   UNL     1      15.528  57.657  32.373  1.00  0.00     0.278 C 
ENDBRANCH  10  28
TORSDOF 7
ENDMDL
MODEL 8
REMARK VINA RESULT:    -4.566     11.252     13.507
REMARK INTER + INTRA:          -7.200
REMARK INTER:                  -6.360
REMARK INTRA:                  -0.840
REMARK UNBOUND:                -0.766
REMARK SMILES COc1ccc(-c2cc(=O)c3c(OC)c(OC)c(OC)c(OC)c3o2)cc1OC
REMARK SMILES IDX 7 1 8 2 9 3 10 4 11 5 24 6 25 7 21 8 18 9 15 10 12 11 6 12
REMARK SMILES IDX 3 13 27 14 4 15 26 16 5 17 2 18 1 19 28 20 29 21 22 22 23 23
REMARK SMILES IDX 13 24 14 25 19 26 20 27 16 28 17 29
REMARK H PARENT
REMARK Flexibility Score: inf
ROOT
ATOM      1  C   UNL     1      14.665  49.925  32.989  1.00  0.00     0.138 A 
ATOM      2  C   UNL     1      14.036  48.862  33.653  1.00  0.00     0.100 A 
ATOM      3  C   UNL     1      14.148  47.571  33.138  1.00  0.00     0.197 A 
ATOM      4  O   UNL     1      13.579  46.624  33.745  1.00  0.00    -0.289 OA
ATOM      5  C   UNL     1      14.890  47.351  31.957  1.00  0.00     0.115 A 
ATOM      6  C   UNL     1      15.482  48.472  31.338  1.00  0.00     0.188 A 
ATOM      7  O   UNL     1      15.345  49.684  31.873  1.00  0.00    -0.452 OA
ATOM      8  C   UNL     1      16.213  48.340  30.151  1.00  0.00     0.209 A 
ATOM      9  C   UNL     1      16.395  47.059  29.572  1.00  0.00     0.211 A 
ATOM     10  C   UNL     1      15.846  45.923  30.222  1.00  0.00     0.208 A 
ATOM     11  C   UNL     1      15.041  46.079  31.371  1.00  0.00     0.179 A 
ENDROOT
BRANCH   1  12
ATOM     12  C   UNL     1      14.584  51.322  33.488  1.00  0.00     0.021 A 
ATOM     13  C   UNL     1      14.433  54.000  34.373  1.00  0.00     0.160 A 
ATOM     14  C   UNL     1      13.968  53.658  33.095  1.00  0.00     0.161 A 
ATOM     15  C   UNL     1      14.980  53.003  35.201  1.00  0.00     0.051 A 
ATOM     16  C   UNL     1      14.049  52.321  32.658  1.00  0.00     0.062 A 
ATOM     17  C   UNL     1      15.058  51.680  34.761  1.00  0.00     0.016 A 
BRANCH  13  18
ATOM     18  O   UNL     1      14.338  55.339  34.783  1.00  0.00    -0.493 OA
ATOM     19  C   UNL     1      15.364  56.311  34.609  1.00  0.00     0.278 C 
ENDBRANCH  13  18
BRANCH  14  20
ATOM     20  O   UNL     1      13.433  54.675  32.288  1.00  0.00    -0.493 OA
ATOM     21  C   UNL     1      14.087  55.236  31.155  1.00  0.00     0.278 C 
ENDBRANCH  14  20
ENDBRANCH   1  12
BRANCH   8  22
ATOM     22  O   UNL     1      16.734  49.531  29.604  1.00  0.00    -0.490 OA
ATOM     23  C   UNL     1      16.154  50.328  28.577  1.00  0.00     0.278 C 
ENDBRANCH   8  22
BRANCH  11  24
ATOM     24  O   UNL     1      14.386  44.975  31.930  1.00  0.00    -0.492 OA
ATOM     25  C   UNL     1      13.248  44.373  31.323  1.00  0.00     0.278 C 
ENDBRANCH  11  24
BRANCH   9  26
ATOM     26  O   UNL     1      17.130  46.962  28.375  1.00  0.00    -0.490 OA
ATOM     27  C   UNL     1      16.614  46.907  27.050  1.00  0.00     0.279 C 
ENDBRANCH   9  26
BRANCH  10  28
ATOM     28  O   UNL     1      16.116  44.641  29.735  1.00  0.00    -0.490 OA
ATOM     29  C   UNL     1      17.256  43.892  30.147  1.00  0.00     0.278 C 
ENDBRANCH  10  28
TORSDOF 7
ENDMDL
