MODEL 1
REMARK VINA RESULT:     6.883      0.000      0.000
REMARK INTER + INTRA:           9.006
REMARK INTER:                   9.297
REMARK INTRA:                  -0.291
REMARK UNBOUND:                -0.291
REMARK SMILES O=c1c(-c2ccc(O)cc2)coc2c([C@H]3O[C@H](CO)[C@H](O)[C@H](O)[C@H]3O)c(O)ccc12
REMARK SMILES IDX 3 1 11 2 12 3 13 4 30 5 2 6 1 7 29 8 28 9 26 10 14 11 4 12
REMARK SMILES IDX 5 13 6 14 7 15 10 16 9 17 8 18 15 20 24 21 16 22 22 23 17 24
REMARK SMILES IDX 20 25 25 26 23 28 18 30 19 31 21 33 27 35
REMARK H PARENT 8 19 25 27 23 29 19 32 21 34 27 36
REMARK Flexibility Score: inf
ROOT
ATOM      1  C   UNL     1      14.288  -9.238  26.298  1.00  0.00     0.065 A 
ATOM      2  C   UNL     1      14.998 -10.421  26.551  1.00  0.00     0.208 A 
ATOM      3  O   UNL     1      14.606 -11.262  27.500  1.00  0.00    -0.463 OA
ATOM      4  C   UNL     1      13.535 -11.051  28.263  1.00  0.00     0.147 A 
ATOM      5  C   UNL     1      12.755  -9.888  28.068  1.00  0.00     0.066 A 
ATOM      6  C   UNL     1      13.141  -8.977  27.069  1.00  0.00     0.200 A 
ATOM      7  O   UNL     1      12.450  -7.943  26.850  1.00  0.00    -0.288 OA
ATOM      8  C   UNL     1      11.616  -9.679  28.860  1.00  0.00     0.020 A 
ATOM      9  C   UNL     1      11.248 -10.614  29.824  1.00  0.00     0.047 A 
ATOM     10  C   UNL     1      12.011 -11.771  30.024  1.00  0.00     0.125 A 
ATOM     11  C   UNL     1      13.184 -11.991  29.261  1.00  0.00     0.069 A 
ENDROOT
BRANCH   1  12
ATOM     12  C   UNL     1      14.751  -8.309  25.237  1.00  0.00    -0.011 A 
ATOM     13  C   UNL     1      14.616  -8.647  23.879  1.00  0.00     0.013 A 
ATOM     14  C   UNL     1      15.045  -7.763  22.884  1.00  0.00     0.047 A 
ATOM     15  C   UNL     1      15.609  -6.533  23.231  1.00  0.00     0.115 A 
ATOM     16  C   UNL     1      15.313  -7.066  25.579  1.00  0.00     0.013 A 
ATOM     17  C   UNL     1      15.742  -6.185  24.581  1.00  0.00     0.047 A 
BRANCH  15  18
ATOM     18  O   UNL     1      16.034  -5.662  22.229  1.00  0.00    -0.508 OA
ATOM     19  H   UNL     1      16.250  -5.994  21.297  1.00  0.00     0.293 HD
ENDBRANCH  15  18
ENDBRANCH   1  12
BRANCH  11  20
ATOM     20  C   UNL     1      14.023 -13.251  29.441  1.00  0.00     0.188 C 
ATOM     21  C   UNL     1      14.132 -14.023  28.106  1.00  0.00     0.179 C 
ATOM     22  O   UNL     1      13.475 -14.064  30.469  1.00  0.00    -0.362 OA
ATOM     23  C   UNL     1      15.015 -15.263  28.294  1.00  0.00     0.177 C 
ATOM     24  C   UNL     1      14.274 -15.205  30.757  1.00  0.00     0.176 C 
ATOM     25  C   UNL     1      14.521 -16.085  29.501  1.00  0.00     0.177 C 
BRANCH  21  26
ATOM     26  O   UNL     1      12.860 -14.427  27.660  1.00  0.00    -0.387 OA
ATOM     27  H   UNL     1      12.582 -13.787  26.955  1.00  0.00     0.211 HD
ENDBRANCH  21  26
BRANCH  23  28
ATOM     28  O   UNL     1      16.353 -14.866  28.466  1.00  0.00    -0.387 OA
ATOM     29  H   UNL     1      16.392 -13.890  28.288  1.00  0.00     0.211 HD
ENDBRANCH  23  28
BRANCH  24  30
ATOM     30  C   UNL     1      15.548 -14.848  31.553  1.00  0.00     0.191 C 
BRANCH  30  31
ATOM     31  O   UNL     1      15.807 -15.847  32.498  1.00  0.00    -0.394 OA
ATOM     32  H   UNL     1      16.749 -15.718  32.787  1.00  0.00     0.210 HD
ENDBRANCH  30  31
ENDBRANCH  24  30
BRANCH  25  33
ATOM     33  O   UNL     1      15.425 -17.125  29.776  1.00  0.00    -0.388 OA
ATOM     34  H   UNL     1      16.260 -16.917  29.279  1.00  0.00     0.211 HD
ENDBRANCH  25  33
ENDBRANCH  11  20
BRANCH  10  35
ATOM     35  O   UNL     1      11.596 -12.703  30.975  1.00  0.00    -0.507 OA
ATOM     36  H   UNL     1      10.618 -12.940  31.100  1.00  0.00     0.293 HD
ENDBRANCH  10  35
TORSDOF 9
ENDMDL
MODEL 2
REMARK VINA RESULT:     7.089      6.147     11.606
REMARK INTER + INTRA:           9.284
REMARK INTER:                   9.627
REMARK INTRA:                  -0.343
REMARK UNBOUND:                -0.291
REMARK SMILES O=c1c(-c2ccc(O)cc2)coc2c([C@H]3O[C@H](CO)[C@H](O)[C@H](O)[C@H]3O)c(O)ccc12
REMARK SMILES IDX 3 1 11 2 12 3 13 4 30 5 2 6 1 7 29 8 28 9 26 10 14 11 4 12
REMARK SMILES IDX 5 13 6 14 7 15 10 16 9 17 8 18 15 20 24 21 16 22 22 23 17 24
REMARK SMILES IDX 20 25 25 26 23 28 18 30 19 31 21 33 27 35
REMARK H PARENT 8 19 25 27 23 29 19 32 21 34 27 36
REMARK Flexibility Score: inf
ROOT
ATOM      1  C   UNL     1      16.007  -5.385  25.548  1.00  0.00     0.065 A 
ATOM      2  C   UNL     1      15.256  -4.202  25.490  1.00  0.00     0.208 A 
ATOM      3  O   UNL     1      15.635  -3.120  26.159  1.00  0.00    -0.463 OA
ATOM      4  C   UNL     1      16.731  -3.077  26.914  1.00  0.00     0.147 A 
ATOM      5  C   UNL     1      17.553  -4.222  27.020  1.00  0.00     0.066 A 
ATOM      6  C   UNL     1      17.182  -5.386  26.322  1.00  0.00     0.200 A 
ATOM      7  O   UNL     1      17.909  -6.417  26.372  1.00  0.00    -0.288 OA
ATOM      8  C   UNL     1      18.718  -4.168  27.799  1.00  0.00     0.020 A 
ATOM      9  C   UNL     1      19.069  -2.992  28.456  1.00  0.00     0.047 A 
ATOM     10  C   UNL     1      18.265  -1.849  28.357  1.00  0.00     0.125 A 
ATOM     11  C   UNL     1      17.067  -1.887  27.602  1.00  0.00     0.069 A 
ENDROOT
BRANCH   1  12
ATOM     12  C   UNL     1      15.558  -6.585  24.799  1.00  0.00    -0.011 A 
ATOM     13  C   UNL     1      15.624  -6.620  23.395  1.00  0.00     0.013 A 
ATOM     14  C   UNL     1      15.208  -7.758  22.696  1.00  0.00     0.047 A 
ATOM     15  C   UNL     1      14.727  -8.873  23.387  1.00  0.00     0.115 A 
ATOM     16  C   UNL     1      15.080  -7.713  25.489  1.00  0.00     0.013 A 
ATOM     17  C   UNL     1      14.664  -8.849  24.786  1.00  0.00     0.047 A 
BRANCH  15  18
ATOM     18  O   UNL     1      14.315  -9.999  22.677  1.00  0.00    -0.508 OA
ATOM     19  H   UNL     1      14.086  -9.949  21.692  1.00  0.00     0.293 HD
ENDBRANCH  15  18
ENDBRANCH   1  12
BRANCH  11  20
ATOM     20  C   UNL     1      16.181  -0.654  27.459  1.00  0.00     0.188 C 
ATOM     21  C   UNL     1      16.065  -0.244  25.973  1.00  0.00     0.179 C 
ATOM     22  O   UNL     1      16.684   0.408  28.255  1.00  0.00    -0.362 OA
ATOM     23  C   UNL     1      15.137   0.970  25.841  1.00  0.00     0.177 C 
ATOM     24  C   UNL     1      15.841   1.554  28.245  1.00  0.00     0.176 C 
ATOM     25  C   UNL     1      15.583   2.084  26.807  1.00  0.00     0.177 C 
BRANCH  21  26
ATOM     26  O   UNL     1      17.329   0.085  25.448  1.00  0.00    -0.387 OA
ATOM     27  H   UNL     1      17.340   1.067  25.306  1.00  0.00     0.211 HD
ENDBRANCH  21  26
BRANCH  23  28
ATOM     28  O   UNL     1      13.811   0.578  26.098  1.00  0.00    -0.387 OA
ATOM     29  H   UNL     1      13.221   1.213  25.614  1.00  0.00     0.211 HD
ENDBRANCH  23  28
BRANCH  24  30
ATOM     30  C   UNL     1      14.568   1.358  29.096  1.00  0.00     0.191 C 
BRANCH  30  31
ATOM     31  O   UNL     1      14.253   2.554  29.753  1.00  0.00    -0.394 OA
ATOM     32  H   UNL     1      13.318   2.772  29.498  1.00  0.00     0.210 HD
ENDBRANCH  30  31
ENDBRANCH  24  30
BRANCH  25  33
ATOM     33  O   UNL     1      14.638   3.125  26.809  1.00  0.00    -0.388 OA
ATOM     34  H   UNL     1      14.224   3.137  25.906  1.00  0.00     0.211 HD
ENDBRANCH  25  33
ENDBRANCH  11  20
BRANCH  10  35
ATOM     35  O   UNL     1      18.663  -0.679  29.001  1.00  0.00    -0.507 OA
ATOM     36  H   UNL     1      17.995  -0.060  29.446  1.00  0.00     0.293 HD
ENDBRANCH  10  35
TORSDOF 9
ENDMDL
MODEL 3
REMARK VINA RESULT:     7.977      6.287     12.037
REMARK INTER + INTRA:          10.484
REMARK INTER:                  10.082
REMARK INTRA:                   0.402
REMARK UNBOUND:                -0.291
REMARK SMILES O=c1c(-c2ccc(O)cc2)coc2c([C@H]3O[C@H](CO)[C@H](O)[C@H](O)[C@H]3O)c(O)ccc12
REMARK SMILES IDX 3 1 11 2 12 3 13 4 30 5 2 6 1 7 29 8 28 9 26 10 14 11 4 12
REMARK SMILES IDX 5 13 6 14 7 15 10 16 9 17 8 18 15 20 24 21 16 22 22 23 17 24
REMARK SMILES IDX 20 25 25 26 23 28 18 30 19 31 21 33 27 35
REMARK H PARENT 8 19 25 27 23 29 19 32 21 34 27 36
REMARK Flexibility Score: inf
ROOT
ATOM      1  C   UNL     1      16.115  -4.708  25.788  1.00  0.00     0.065 A 
ATOM      2  C   UNL     1      15.448  -3.483  25.646  1.00  0.00     0.208 A 
ATOM      3  O   UNL     1      15.869  -2.399  26.286  1.00  0.00    -0.463 OA
ATOM      4  C   UNL     1      16.932  -2.393  27.088  1.00  0.00     0.147 A 
ATOM      5  C   UNL     1      17.671  -3.583  27.279  1.00  0.00     0.066 A 
ATOM      6  C   UNL     1      17.253  -4.750  26.614  1.00  0.00     0.200 A 
ATOM      7  O   UNL     1      17.906  -5.824  26.741  1.00  0.00    -0.288 OA
ATOM      8  C   UNL     1      18.803  -3.570  28.107  1.00  0.00     0.020 A 
ATOM      9  C   UNL     1      19.204  -2.391  28.730  1.00  0.00     0.047 A 
ATOM     10  C   UNL     1      18.482  -1.205  28.547  1.00  0.00     0.125 A 
ATOM     11  C   UNL     1      17.318  -1.198  27.740  1.00  0.00     0.069 A 
ENDROOT
BRANCH   1  12
ATOM     12  C   UNL     1      15.620  -5.908  25.070  1.00  0.00    -0.011 A 
ATOM     13  C   UNL     1      15.706  -5.994  23.669  1.00  0.00     0.013 A 
ATOM     14  C   UNL     1      15.246  -7.132  23.000  1.00  0.00     0.047 A 
ATOM     15  C   UNL     1      14.698  -8.198  23.718  1.00  0.00     0.115 A 
ATOM     16  C   UNL     1      15.075  -6.989  25.788  1.00  0.00     0.013 A 
ATOM     17  C   UNL     1      14.614  -8.125  25.115  1.00  0.00     0.047 A 
BRANCH  15  18
ATOM     18  O   UNL     1      14.243  -9.325  23.038  1.00  0.00    -0.508 OA
ATOM     19  H   UNL     1      14.591  -9.565  22.117  1.00  0.00     0.293 HD
ENDBRANCH  15  18
ENDBRANCH   1  12
BRANCH  11  20
ATOM     20  C   UNL     1      16.524   0.082  27.505  1.00  0.00     0.188 C 
ATOM     21  C   UNL     1      15.886   0.572  28.825  1.00  0.00     0.179 C 
ATOM     22  O   UNL     1      15.543  -0.125  26.498  1.00  0.00    -0.362 OA
ATOM     23  C   UNL     1      15.129   1.883  28.580  1.00  0.00     0.177 C 
ATOM     24  C   UNL     1      14.840   1.063  26.159  1.00  0.00     0.176 C 
ATOM     25  C   UNL     1      14.160   1.720  27.393  1.00  0.00     0.177 C 
BRANCH  21  26
ATOM     26  O   UNL     1      14.991  -0.389  29.331  1.00  0.00    -0.387 OA
ATOM     27  H   UNL     1      15.425  -1.275  29.228  1.00  0.00     0.211 HD
ENDBRANCH  21  26
BRANCH  23  28
ATOM     28  O   UNL     1      16.048   2.920  28.344  1.00  0.00    -0.387 OA
ATOM     29  H   UNL     1      15.888   3.615  29.035  1.00  0.00     0.211 HD
ENDBRANCH  23  28
BRANCH  24  30
ATOM     30  C   UNL     1      15.688   2.028  25.303  1.00  0.00     0.191 C 
BRANCH  30  31
ATOM     31  O   UNL     1      14.908   3.125  24.917  1.00  0.00    -0.394 OA
ATOM     32  H   UNL     1      14.432   3.428  25.734  1.00  0.00     0.210 HD
ENDBRANCH  30  31
ENDBRANCH  24  30
BRANCH  25  33
ATOM     33  O   UNL     1      13.593   2.962  27.062  1.00  0.00    -0.388 OA
ATOM     34  H   UNL     1      12.613   2.816  26.976  1.00  0.00     0.211 HD
ENDBRANCH  25  33
ENDBRANCH  11  20
BRANCH  10  35
ATOM     35  O   UNL     1      18.930  -0.035  29.159  1.00  0.00    -0.507 OA
ATOM     36  H   UNL     1      18.311   0.749  29.332  1.00  0.00     0.293 HD
ENDBRANCH  10  35
TORSDOF 9
ENDMDL
