MODEL 1
REMARK VINA RESULT:    61.756      0.000      0.000
REMARK INTER + INTRA:          68.543
REMARK INTER:                  67.171
REMARK INTRA:                   1.372
REMARK UNBOUND:                 1.372
REMARK SMILES C[C@@H]1[C@H](C)CC[C@]2(C(=O)[O-])CC[C@]3(C)C(=CC[C@H]4[C@@]5(C)CC[C@@H](O)C(C)(C)[C@@H]5CC[C@@]43C)[C@@H]12
REMARK SMILES IDX 7 1 6 2 11 3 33 4 5 5 12 6 15 7 2 8 3 9 13 10 16 11 1 12
REMARK SMILES IDX 4 13 14 14 31 15 17 16 18 17 30 18 32 19 19 20 29 21 28 22
REMARK SMILES IDX 21 23 20 24 25 25 22 26 23 27 26 28 27 29 8 30 9 31 10 32
REMARK SMILES IDX 24 33
REMARK H PARENT 24 34
REMARK Flexibility Score: inf
ROOT
ATOM      1  C   UNL     1     -54.162   9.403 -15.057  1.00  0.00     0.017 C 
ATOM      2  C   UNL     1     -55.682   9.478 -14.749  1.00  0.00     0.014 C 
ATOM      3  C   UNL     1     -53.517  10.773 -14.695  1.00  0.00     0.014 C 
ATOM      4  C   UNL     1     -53.949   9.173 -16.593  1.00  0.00     0.030 C 
ATOM      5  C   UNL     1     -56.434   8.240 -15.258  1.00  0.00     0.004 C 
ATOM      6  C   UNL     1     -52.027  10.900 -15.112  1.00  0.00     0.013 C 
ATOM      7  C   UNL     1     -52.441   9.199 -16.883  1.00  0.00    -0.063 C 
ATOM      8  C   UNL     1     -54.778   7.980 -17.181  1.00  0.00    -0.003 C 
ATOM      9  C   UNL     1     -56.284   8.062 -16.781  1.00  0.00    -0.011 C 
ATOM     10  C   UNL     1     -51.720  10.546 -16.622  1.00  0.00    -0.006 C 
ATOM     11  C   UNL     1     -51.756   8.029 -16.987  1.00  0.00    -0.027 C 
ATOM     12  C   UNL     1     -54.613   7.875 -18.711  1.00  0.00     0.008 C 
ATOM     13  C   UNL     1     -57.093   9.132 -17.548  1.00  0.00     0.008 C 
ATOM     14  C   UNL     1     -52.352  11.663 -17.513  1.00  0.00     0.017 C 
ATOM     15  C   UNL     1     -50.140  10.448 -16.972  1.00  0.00    -0.020 C 
ATOM     16  C   UNL     1     -50.263   7.892 -16.983  1.00  0.00     0.032 C 
ATOM     17  C   UNL     1     -49.561   9.112 -16.359  1.00  0.00     0.006 C 
ATOM     18  C   UNL     1     -49.352  11.719 -16.442  1.00  0.00     0.008 C 
ATOM     19  C   UNL     1     -49.970  10.391 -18.533  1.00  0.00     0.012 C 
ATOM     20  C   UNL     1     -47.967   8.940 -16.228  1.00  0.00    -0.025 C 
ATOM     21  C   UNL     1     -48.039  11.429 -15.695  1.00  0.00     0.005 C 
ATOM     22  C   UNL     1     -47.264  10.328 -16.439  1.00  0.00     0.003 C 
ATOM     23  C   UNL     1     -47.350   7.961 -17.276  1.00  0.00     0.010 C 
ATOM     24  C   UNL     1     -47.723   8.332 -14.805  1.00  0.00     0.012 C 
ATOM     25  C   UNL     1     -45.690  10.354 -16.338  1.00  0.00    -0.006 C 
ATOM     26  C   UNL     1     -45.808   7.884 -17.221  1.00  0.00     0.033 C 
ATOM     27  C   UNL     1     -45.098   9.257 -17.300  1.00  0.00     0.120 C 
ATOM     28  C   UNL     1     -45.167  10.142 -14.890  1.00  0.00     0.014 C 
ATOM     29  C   UNL     1     -45.150  11.739 -16.803  1.00  0.00     0.014 C 
ENDROOT
BRANCH   1  30
ATOM     30  C   UNL     1     -53.548   8.324 -14.162  1.00  0.00     0.048 C 
ATOM     31  O   UNL     1     -52.394   7.879 -14.421  1.00  0.00    -0.550 OA
ATOM     32  O   UNL     1     -54.180   7.876 -13.009  1.00  0.00    -0.550 OA
ENDBRANCH   1  30
BRANCH  27  33
ATOM     33  O   UNL     1     -45.042   9.698 -18.639  1.00  0.00    -0.393 OA
ATOM     34  H   UNL     1     -45.671   9.153 -19.176  1.00  0.00     0.210 HD
ENDBRANCH  27  33
TORSDOF 2
ENDMDL
