MODEL 1
REMARK VINA RESULT:    -5.790      0.000      0.000
REMARK INTER + INTRA:         -11.683
REMARK INTER:                 -10.868
REMARK INTRA:                  -0.815
REMARK UNBOUND:                -0.815
REMARK SMILES O=C([O-])CCCCCCCCCCCCCCC(=O)[O-]
REMARK SMILES IDX 10 1 9 2 8 3 7 4 6 5 5 6 4 7 2 8 1 9 3 10 11 11 12 12 13 13
REMARK SMILES IDX 14 14 15 15 16 16 17 17 18 18 19 19 20 20
REMARK H PARENT
REMARK Flexibility Score: inf
ROOT
ATOM      1  C   UNL     1       0.557 -26.357  -0.017  1.00  0.00     0.000 C 
ENDROOT
BRANCH   1   2
ATOM      2  C   UNL     1      -0.919 -26.051  -0.326  1.00  0.00     0.000 C 
BRANCH   2   3
ATOM      3  C   UNL     1      -1.102 -25.148  -1.554  1.00  0.00     0.000 C 
BRANCH   3   4
ATOM      4  C   UNL     1      -2.209 -24.112  -1.310  1.00  0.00     0.000 C 
BRANCH   4   5
ATOM      5  C   UNL     1      -2.349 -23.733   0.173  1.00  0.00     0.000 C 
BRANCH   5   6
ATOM      6  C   UNL     1      -3.803 -23.794   0.665  1.00  0.00     0.006 C 
BRANCH   6   7
ATOM      7  C   UNL     1      -4.144 -25.191   1.192  1.00  0.00     0.053 C 
BRANCH   7   8
ATOM      8  C   UNL     1      -4.878 -25.979   0.154  1.00  0.00     0.041 C 
ATOM      9  O   UNL     1      -5.953 -25.539  -0.334  1.00  0.00    -0.550 OA
ATOM     10  O   UNL     1      -4.402 -27.223  -0.241  1.00  0.00    -0.550 OA
ENDBRANCH   7   8
ENDBRANCH   6   7
ENDBRANCH   5   6
ENDBRANCH   4   5
ENDBRANCH   3   4
ENDBRANCH   2   3
ENDBRANCH   1   2
BRANCH   1  11
ATOM     11  C   UNL     1       0.897 -27.852   0.155  1.00  0.00     0.000 C 
BRANCH  11  12
ATOM     12  C   UNL     1       2.395 -28.170   0.311  1.00  0.00     0.000 C 
BRANCH  12  13
ATOM     13  C   UNL     1       2.719 -28.911   1.621  1.00  0.00     0.000 C 
BRANCH  13  14
ATOM     14  C   UNL     1       4.219 -29.251   1.748  1.00  0.00     0.000 C 
BRANCH  14  15
ATOM     15  C   UNL     1       4.624 -29.778   3.135  1.00  0.00     0.000 C 
BRANCH  15  16
ATOM     16  C   UNL     1       3.570 -29.489   4.216  1.00  0.00     0.006 C 
BRANCH  16  17
ATOM     17  C   UNL     1       3.264 -30.726   5.072  1.00  0.00     0.053 C 
BRANCH  17  18
ATOM     18  C   UNL     1       2.133 -30.480   6.023  1.00  0.00     0.041 C 
ATOM     19  O   UNL     1       1.195 -31.315   6.124  1.00  0.00    -0.550 OA
ATOM     20  O   UNL     1       2.127 -29.341   6.819  1.00  0.00    -0.550 OA
ENDBRANCH  17  18
ENDBRANCH  16  17
ENDBRANCH  15  16
ENDBRANCH  14  15
ENDBRANCH  13  14
ENDBRANCH  12  13
ENDBRANCH  11  12
ENDBRANCH   1  11
TORSDOF 15
ENDMDL
MODEL 2
REMARK VINA RESULT:    -5.769      1.667      8.846
REMARK INTER + INTRA:         -11.643
REMARK INTER:                 -10.834
REMARK INTRA:                  -0.809
REMARK UNBOUND:                -0.815
REMARK SMILES O=C([O-])CCCCCCCCCCCCCCC(=O)[O-]
REMARK SMILES IDX 10 1 9 2 8 3 7 4 6 5 5 6 4 7 2 8 1 9 3 10 11 11 12 12 13 13
REMARK SMILES IDX 14 14 15 15 16 16 17 17 18 18 19 19 20 20
REMARK H PARENT
REMARK Flexibility Score: inf
ROOT
ATOM      1  C   UNL     1       0.138 -27.305  -0.070  1.00  0.00     0.000 C 
ENDROOT
BRANCH   1   2
ATOM      2  C   UNL     1       1.644 -27.617  -0.036  1.00  0.00     0.000 C 
BRANCH   2   3
ATOM      3  C   UNL     1       2.031 -28.595   1.083  1.00  0.00     0.000 C 
BRANCH   3   4
ATOM      4  C   UNL     1       3.431 -29.177   0.840  1.00  0.00     0.000 C 
BRANCH   4   5
ATOM      5  C   UNL     1       4.252 -29.305   2.134  1.00  0.00     0.000 C 
BRANCH   5   6
ATOM      6  C   UNL     1       3.383 -29.209   3.397  1.00  0.00     0.006 C 
BRANCH   6   7
ATOM      7  C   UNL     1       3.321 -30.555   4.123  1.00  0.00     0.053 C 
BRANCH   7   8
ATOM      8  C   UNL     1       3.099 -30.351   5.589  1.00  0.00     0.041 C 
ATOM      9  O   UNL     1       2.961 -29.189   6.053  1.00  0.00    -0.550 OA
ATOM     10  O   UNL     1       3.094 -31.442   6.449  1.00  0.00    -0.550 OA
ENDBRANCH   7   8
ENDBRANCH   6   7
ENDBRANCH   5   6
ENDBRANCH   4   5
ENDBRANCH   3   4
ENDBRANCH   2   3
ENDBRANCH   1   2
BRANCH   1  11
ATOM     11  C   UNL     1      -0.221 -25.813  -0.222  1.00  0.00     0.000 C 
BRANCH  11  12
ATOM     12  C   UNL     1      -0.974 -25.448  -1.515  1.00  0.00     0.000 C 
BRANCH  12  13
ATOM     13  C   UNL     1      -2.007 -24.325  -1.311  1.00  0.00     0.000 C 
BRANCH  13  14
ATOM     14  C   UNL     1      -3.395 -24.695  -1.876  1.00  0.00     0.000 C 
BRANCH  14  15
ATOM     15  C   UNL     1      -4.110 -25.811  -1.094  1.00  0.00     0.000 C 
BRANCH  15  16
ATOM     16  C   UNL     1      -5.052 -25.270  -0.006  1.00  0.00     0.006 C 
BRANCH  16  17
ATOM     17  C   UNL     1      -4.318 -25.002   1.315  1.00  0.00     0.053 C 
BRANCH  17  18
ATOM     18  C   UNL     1      -4.468 -23.578   1.757  1.00  0.00     0.041 C 
ATOM     19  O   UNL     1      -3.636 -22.708   1.386  1.00  0.00    -0.550 OA
ATOM     20  O   UNL     1      -5.543 -23.205   2.554  1.00  0.00    -0.550 OA
ENDBRANCH  17  18
ENDBRANCH  16  17
ENDBRANCH  15  16
ENDBRANCH  14  15
ENDBRANCH  13  14
ENDBRANCH  12  13
ENDBRANCH  11  12
ENDBRANCH   1  11
TORSDOF 15
ENDMDL
MODEL 3
REMARK VINA RESULT:    -5.763      1.035      8.676
REMARK INTER + INTRA:         -11.633
REMARK INTER:                 -10.914
REMARK INTRA:                  -0.718
REMARK UNBOUND:                -0.815
REMARK SMILES O=C([O-])CCCCCCCCCCCCCCC(=O)[O-]
REMARK SMILES IDX 10 1 9 2 8 3 7 4 6 5 5 6 4 7 2 8 1 9 3 10 11 11 12 12 13 13
REMARK SMILES IDX 14 14 15 15 16 16 17 17 18 18 19 19 20 20
REMARK H PARENT
REMARK Flexibility Score: inf
ROOT
ATOM      1  C   UNL     1       1.301 -27.860  -0.164  1.00  0.00     0.000 C 
ENDROOT
BRANCH   1   2
ATOM      2  C   UNL     1       1.996 -28.441   1.080  1.00  0.00     0.000 C 
BRANCH   2   3
ATOM      3  C   UNL     1       3.457 -28.834   0.824  1.00  0.00     0.000 C 
BRANCH   3   4
ATOM      4  C   UNL     1       4.059 -29.529   2.054  1.00  0.00     0.000 C 
BRANCH   4   5
ATOM      5  C   UNL     1       3.259 -29.258   3.338  1.00  0.00     0.000 C 
BRANCH   5   6
ATOM      6  C   UNL     1       3.954 -29.803   4.595  1.00  0.00     0.006 C 
BRANCH   6   7
ATOM      7  C   UNL     1       3.120 -29.521   5.848  1.00  0.00     0.053 C 
BRANCH   7   8
ATOM      8  C   UNL     1       2.096 -30.594   6.049  1.00  0.00     0.041 C 
ATOM      9  O   UNL     1       2.385 -31.797   5.815  1.00  0.00    -0.550 OA
ATOM     10  O   UNL     1       0.808 -30.260   6.448  1.00  0.00    -0.550 OA
ENDBRANCH   7   8
ENDBRANCH   6   7
ENDBRANCH   5   6
ENDBRANCH   4   5
ENDBRANCH   3   4
ENDBRANCH   2   3
ENDBRANCH   1   2
BRANCH   1  11
ATOM     11  C   UNL     1       0.817 -26.402  -0.026  1.00  0.00     0.000 C 
BRANCH  11  12
ATOM     12  C   UNL     1      -0.650 -26.157  -0.425  1.00  0.00     0.000 C 
BRANCH  12  13
ATOM     13  C   UNL     1      -1.058 -24.676  -0.333  1.00  0.00     0.000 C 
BRANCH  13  14
ATOM     14  C   UNL     1      -2.496 -24.431  -0.837  1.00  0.00     0.000 C 
BRANCH  14  15
ATOM     15  C   UNL     1      -3.478 -23.998   0.266  1.00  0.00     0.000 C 
BRANCH  15  16
ATOM     16  C   UNL     1      -4.293 -25.170   0.835  1.00  0.00     0.006 C 
BRANCH  16  17
ATOM     17  C   UNL     1      -5.280 -25.743  -0.192  1.00  0.00     0.053 C 
BRANCH  17  18
ATOM     18  C   UNL     1      -4.931 -27.148  -0.578  1.00  0.00     0.041 C 
ATOM     19  O   UNL     1      -5.495 -27.694  -1.562  1.00  0.00    -0.550 OA
ATOM     20  O   UNL     1      -3.962 -27.845   0.133  1.00  0.00    -0.550 OA
ENDBRANCH  17  18
ENDBRANCH  16  17
ENDBRANCH  15  16
ENDBRANCH  14  15
ENDBRANCH  13  14
ENDBRANCH  12  13
ENDBRANCH  11  12
ENDBRANCH   1  11
TORSDOF 15
ENDMDL
MODEL 4
REMARK VINA RESULT:    -5.732      1.634      8.736
REMARK INTER + INTRA:         -11.574
REMARK INTER:                 -11.100
REMARK INTRA:                  -0.475
REMARK UNBOUND:                -0.815
REMARK SMILES O=C([O-])CCCCCCCCCCCCCCC(=O)[O-]
REMARK SMILES IDX 10 1 9 2 8 3 7 4 6 5 5 6 4 7 2 8 1 9 3 10 11 11 12 12 13 13
REMARK SMILES IDX 14 14 15 15 16 16 17 17 18 18 19 19 20 20
REMARK H PARENT
REMARK Flexibility Score: inf
ROOT
ATOM      1  C   UNL     1       1.998 -28.176   0.885  1.00  0.00     0.000 C 
ENDROOT
BRANCH   1   2
ATOM      2  C   UNL     1       3.351 -28.734   0.411  1.00  0.00     0.000 C 
BRANCH   2   3
ATOM      3  C   UNL     1       4.216 -29.270   1.561  1.00  0.00     0.000 C 
BRANCH   3   4
ATOM      4  C   UNL     1       3.348 -29.978   2.613  1.00  0.00     0.000 C 
BRANCH   4   5
ATOM      5  C   UNL     1       3.394 -29.281   3.983  1.00  0.00     0.000 C 
BRANCH   5   6
ATOM      6  C   UNL     1       4.129 -30.113   5.045  1.00  0.00     0.006 C 
BRANCH   6   7
ATOM      7  C   UNL     1       3.141 -30.939   5.873  1.00  0.00     0.053 C 
BRANCH   7   8
ATOM      8  C   UNL     1       2.073 -30.061   6.445  1.00  0.00     0.041 C 
ATOM      9  O   UNL     1       0.867 -30.418   6.399  1.00  0.00    -0.550 OA
ATOM     10  O   UNL     1       2.404 -28.824   6.985  1.00  0.00    -0.550 OA
ENDBRANCH   7   8
ENDBRANCH   6   7
ENDBRANCH   5   6
ENDBRANCH   4   5
ENDBRANCH   3   4
ENDBRANCH   2   3
ENDBRANCH   1   2
BRANCH   1  11
ATOM     11  C   UNL     1       0.986 -27.862  -0.237  1.00  0.00     0.000 C 
BRANCH  11  12
ATOM     12  C   UNL     1       0.769 -26.366  -0.525  1.00  0.00     0.000 C 
BRANCH  12  13
ATOM     13  C   UNL     1      -0.650 -25.886  -0.170  1.00  0.00     0.000 C 
BRANCH  13  14
ATOM     14  C   UNL     1      -1.353 -25.199  -1.360  1.00  0.00     0.000 C 
BRANCH  14  15
ATOM     15  C   UNL     1      -2.860 -24.972  -1.149  1.00  0.00     0.000 C 
BRANCH  15  16
ATOM     16  C   UNL     1      -3.324 -25.323   0.274  1.00  0.00     0.006 C 
BRANCH  16  17
ATOM     17  C   UNL     1      -4.668 -24.668   0.623  1.00  0.00     0.053 C 
BRANCH  17  18
ATOM     18  C   UNL     1      -4.495 -23.494   1.537  1.00  0.00     0.041 C 
ATOM     19  O   UNL     1      -3.476 -22.760   1.441  1.00  0.00    -0.550 OA
ATOM     20  O   UNL     1      -5.473 -23.192   2.477  1.00  0.00    -0.550 OA
ENDBRANCH  17  18
ENDBRANCH  16  17
ENDBRANCH  15  16
ENDBRANCH  14  15
ENDBRANCH  13  14
ENDBRANCH  12  13
ENDBRANCH  11  12
ENDBRANCH   1  11
TORSDOF 15
ENDMDL
MODEL 5
REMARK VINA RESULT:    -5.718      1.145      1.737
REMARK INTER + INTRA:         -11.548
REMARK INTER:                 -10.802
REMARK INTRA:                  -0.746
REMARK UNBOUND:                -0.815
REMARK SMILES O=C([O-])CCCCCCCCCCCCCCC(=O)[O-]
REMARK SMILES IDX 10 1 9 2 8 3 7 4 6 5 5 6 4 7 2 8 1 9 3 10 11 11 12 12 13 13
REMARK SMILES IDX 14 14 15 15 16 16 17 17 18 18 19 19 20 20
REMARK H PARENT
REMARK Flexibility Score: inf
ROOT
ATOM      1  C   UNL     1       2.292 -27.716  -0.406  1.00  0.00     0.000 C 
ENDROOT
BRANCH   1   2
ATOM      2  C   UNL     1       1.370 -26.808  -1.240  1.00  0.00     0.000 C 
BRANCH   2   3
ATOM      3  C   UNL     1       0.091 -26.403  -0.494  1.00  0.00     0.000 C 
BRANCH   3   4
ATOM      4  C   UNL     1      -0.766 -25.460  -1.352  1.00  0.00     0.000 C 
BRANCH   4   5
ATOM      5  C   UNL     1      -2.269 -25.591  -1.055  1.00  0.00     0.000 C 
BRANCH   5   6
ATOM      6  C   UNL     1      -2.550 -26.016   0.395  1.00  0.00     0.006 C 
BRANCH   6   7
ATOM      7  C   UNL     1      -3.989 -26.515   0.549  1.00  0.00     0.053 C 
BRANCH   7   8
ATOM      8  C   UNL     1      -4.958 -25.393   0.343  1.00  0.00     0.041 C 
ATOM      9  O   UNL     1      -5.866 -25.492  -0.523  1.00  0.00    -0.550 OA
ATOM     10  O   UNL     1      -4.827 -24.218   1.072  1.00  0.00    -0.550 OA
ENDBRANCH   7   8
ENDBRANCH   6   7
ENDBRANCH   5   6
ENDBRANCH   4   5
ENDBRANCH   3   4
ENDBRANCH   2   3
ENDBRANCH   1   2
BRANCH   1  11
ATOM     11  C   UNL     1       1.770 -28.068   1.002  1.00  0.00     0.000 C 
BRANCH  11  12
ATOM     12  C   UNL     1       2.421 -29.301   1.654  1.00  0.00     0.000 C 
BRANCH  12  13
ATOM     13  C   UNL     1       3.957 -29.292   1.554  1.00  0.00     0.000 C 
BRANCH  13  14
ATOM     14  C   UNL     1       4.633 -29.703   2.880  1.00  0.00     0.000 C 
BRANCH  14  15
ATOM     15  C   UNL     1       3.718 -29.585   4.110  1.00  0.00     0.000 C 
BRANCH  15  16
ATOM     16  C   UNL     1       4.276 -30.310   5.344  1.00  0.00     0.006 C 
BRANCH  16  17
ATOM     17  C   UNL     1       3.171 -30.977   6.175  1.00  0.00     0.053 C 
BRANCH  17  18
ATOM     18  C   UNL     1       2.082 -30.012   6.530  1.00  0.00     0.041 C 
ATOM     19  O   UNL     1       0.874 -30.331   6.368  1.00  0.00    -0.550 OA
ATOM     20  O   UNL     1       2.398 -28.770   7.067  1.00  0.00    -0.550 OA
ENDBRANCH  17  18
ENDBRANCH  16  17
ENDBRANCH  15  16
ENDBRANCH  14  15
ENDBRANCH  13  14
ENDBRANCH  12  13
ENDBRANCH  11  12
ENDBRANCH   1  11
TORSDOF 15
ENDMDL
MODEL 6
REMARK VINA RESULT:    -5.666      1.228      8.810
REMARK INTER + INTRA:         -11.449
REMARK INTER:                 -10.695
REMARK INTRA:                  -0.754
REMARK UNBOUND:                -0.815
REMARK SMILES O=C([O-])CCCCCCCCCCCCCCC(=O)[O-]
REMARK SMILES IDX 10 1 9 2 8 3 7 4 6 5 5 6 4 7 2 8 1 9 3 10 11 11 12 12 13 13
REMARK SMILES IDX 14 14 15 15 16 16 17 17 18 18 19 19 20 20
REMARK H PARENT
REMARK Flexibility Score: inf
ROOT
ATOM      1  C   UNL     1       1.828 -28.202   1.378  1.00  0.00     0.000 C 
ENDROOT
BRANCH   1   2
ATOM      2  C   UNL     1       2.784 -28.939   2.332  1.00  0.00     0.000 C 
BRANCH   2   3
ATOM      3  C   UNL     1       4.145 -29.252   1.695  1.00  0.00     0.000 C 
BRANCH   3   4
ATOM      4  C   UNL     1       4.982 -30.157   2.611  1.00  0.00     0.000 C 
BRANCH   4   5
ATOM      5  C   UNL     1       4.138 -30.837   3.702  1.00  0.00     0.000 C 
BRANCH   5   6
ATOM      6  C   UNL     1       4.614 -30.489   5.120  1.00  0.00     0.006 C 
BRANCH   6   7
ATOM      7  C   UNL     1       3.682 -31.093   6.174  1.00  0.00     0.053 C 
BRANCH   7   8
ATOM      8  C   UNL     1       2.410 -30.308   6.261  1.00  0.00     0.041 C 
ATOM      9  O   UNL     1       2.439 -29.087   6.563  1.00  0.00    -0.550 OA
ATOM     10  O   UNL     1       1.189 -30.939   6.057  1.00  0.00    -0.550 OA
ENDBRANCH   7   8
ENDBRANCH   6   7
ENDBRANCH   5   6
ENDBRANCH   4   5
ENDBRANCH   3   4
ENDBRANCH   2   3
ENDBRANCH   1   2
BRANCH   1  11
ATOM     11  C   UNL     1       2.282 -28.145  -0.095  1.00  0.00     0.000 C 
BRANCH  11  12
ATOM     12  C   UNL     1       1.717 -26.968  -0.911  1.00  0.00     0.000 C 
BRANCH  12  13
ATOM     13  C   UNL     1       0.583 -26.224  -0.183  1.00  0.00     0.000 C 
BRANCH  13  14
ATOM     14  C   UNL     1      -0.564 -25.824  -1.137  1.00  0.00     0.000 C 
BRANCH  14  15
ATOM     15  C   UNL     1      -1.324 -24.560  -0.703  1.00  0.00     0.000 C 
BRANCH  15  16
ATOM     16  C   UNL     1      -2.664 -24.872  -0.018  1.00  0.00     0.006 C 
BRANCH  16  17
ATOM     17  C   UNL     1      -3.301 -23.623   0.608  1.00  0.00     0.053 C 
BRANCH  17  18
ATOM     18  C   UNL     1      -4.663 -23.911   1.162  1.00  0.00     0.041 C 
ATOM     19  O   UNL     1      -5.378 -24.812   0.651  1.00  0.00    -0.550 OA
ATOM     20  O   UNL     1      -5.131 -23.202   2.262  1.00  0.00    -0.550 OA
ENDBRANCH  17  18
ENDBRANCH  16  17
ENDBRANCH  15  16
ENDBRANCH  14  15
ENDBRANCH  13  14
ENDBRANCH  12  13
ENDBRANCH  11  12
ENDBRANCH   1  11
TORSDOF 15
ENDMDL
MODEL 7
REMARK VINA RESULT:    -5.655      1.779      3.103
REMARK INTER + INTRA:         -11.428
REMARK INTER:                 -10.494
REMARK INTRA:                  -0.934
REMARK UNBOUND:                -0.815
REMARK SMILES O=C([O-])CCCCCCCCCCCCCCC(=O)[O-]
REMARK SMILES IDX 10 1 9 2 8 3 7 4 6 5 5 6 4 7 2 8 1 9 3 10 11 11 12 12 13 13
REMARK SMILES IDX 14 14 15 15 16 16 17 17 18 18 19 19 20 20
REMARK H PARENT
REMARK Flexibility Score: inf
ROOT
ATOM      1  C   UNL     1       1.927 -28.554   1.110  1.00  0.00     0.000 C 
ENDROOT
BRANCH   1   2
ATOM      2  C   UNL     1       2.531 -28.144  -0.245  1.00  0.00     0.000 C 
BRANCH   2   3
ATOM      3  C   UNL     1       1.705 -27.074  -0.972  1.00  0.00     0.000 C 
BRANCH   3   4
ATOM      4  C   UNL     1       0.789 -26.329   0.011  1.00  0.00     0.000 C 
BRANCH   4   5
ATOM      5  C   UNL     1      -0.692 -26.392  -0.397  1.00  0.00     0.000 C 
BRANCH   5   6
ATOM      6  C   UNL     1      -1.208 -25.057  -0.956  1.00  0.00     0.006 C 
BRANCH   6   7
ATOM      7  C   UNL     1      -2.591 -24.724  -0.388  1.00  0.00     0.053 C 
BRANCH   7   8
ATOM      8  C   UNL     1      -2.539 -23.460   0.411  1.00  0.00     0.041 C 
ATOM      9  O   UNL     1      -1.492 -22.760   0.423  1.00  0.00    -0.550 OA
ATOM     10  O   UNL     1      -3.630 -23.078   1.181  1.00  0.00    -0.550 OA
ENDBRANCH   7   8
ENDBRANCH   6   7
ENDBRANCH   5   6
ENDBRANCH   4   5
ENDBRANCH   3   4
ENDBRANCH   2   3
ENDBRANCH   1   2
BRANCH   1  11
ATOM     11  C   UNL     1       2.705 -29.646   1.873  1.00  0.00     0.000 C 
BRANCH  11  12
ATOM     12  C   UNL     1       3.559 -29.141   3.050  1.00  0.00     0.000 C 
BRANCH  12  13
ATOM     13  C   UNL     1       4.811 -30.002   3.296  1.00  0.00     0.000 C 
BRANCH  13  14
ATOM     14  C   UNL     1       4.478 -31.506   3.401  1.00  0.00     0.000 C 
BRANCH  14  15
ATOM     15  C   UNL     1       4.853 -32.135   4.754  1.00  0.00     0.000 C 
BRANCH  15  16
ATOM     16  C   UNL     1       4.088 -31.515   5.935  1.00  0.00     0.006 C 
BRANCH  16  17
ATOM     17  C   UNL     1       2.573 -31.475   5.687  1.00  0.00     0.053 C 
BRANCH  17  18
ATOM     18  C   UNL     1       1.942 -30.261   6.296  1.00  0.00     0.041 C 
ATOM     19  O   UNL     1       0.729 -30.280   6.635  1.00  0.00    -0.550 OA
ATOM     20  O   UNL     1       2.699 -29.116   6.515  1.00  0.00    -0.550 OA
ENDBRANCH  17  18
ENDBRANCH  16  17
ENDBRANCH  15  16
ENDBRANCH  14  15
ENDBRANCH  13  14
ENDBRANCH  12  13
ENDBRANCH  11  12
ENDBRANCH   1  11
TORSDOF 15
ENDMDL
MODEL 8
REMARK VINA RESULT:    -5.518      1.746      9.104
REMARK INTER + INTRA:         -11.171
REMARK INTER:                 -10.223
REMARK INTRA:                  -0.948
REMARK UNBOUND:                -0.815
REMARK SMILES O=C([O-])CCCCCCCCCCCCCCC(=O)[O-]
REMARK SMILES IDX 10 1 9 2 8 3 7 4 6 5 5 6 4 7 2 8 1 9 3 10 11 11 12 12 13 13
REMARK SMILES IDX 14 14 15 15 16 16 17 17 18 18 19 19 20 20
REMARK H PARENT
REMARK Flexibility Score: inf
ROOT
ATOM      1  C   UNL     1       2.513 -28.490  -0.398  1.00  0.00     0.000 C 
ENDROOT
BRANCH   1   2
ATOM      2  C   UNL     1       3.989 -28.807  -0.104  1.00  0.00     0.000 C 
BRANCH   2   3
ATOM      3  C   UNL     1       4.240 -29.206   1.357  1.00  0.00     0.000 C 
BRANCH   3   4
ATOM      4  C   UNL     1       3.093 -28.724   2.259  1.00  0.00     0.000 C 
BRANCH   4   5
ATOM      5  C   UNL     1       3.131 -29.364   3.656  1.00  0.00     0.000 C 
BRANCH   5   6
ATOM      6  C   UNL     1       4.495 -29.990   3.984  1.00  0.00     0.006 C 
BRANCH   6   7
ATOM      7  C   UNL     1       4.363 -31.497   4.220  1.00  0.00     0.053 C 
BRANCH   7   8
ATOM      8  C   UNL     1       4.597 -31.825   5.661  1.00  0.00     0.041 C 
ATOM      9  O   UNL     1       3.623 -31.944   6.450  1.00  0.00    -0.550 OA
ATOM     10  O   UNL     1       5.893 -31.950   6.144  1.00  0.00    -0.550 OA
ENDBRANCH   7   8
ENDBRANCH   6   7
ENDBRANCH   5   6
ENDBRANCH   4   5
ENDBRANCH   3   4
ENDBRANCH   2   3
ENDBRANCH   1   2
BRANCH   1  11
ATOM     11  C   UNL     1       2.272 -27.288  -1.335  1.00  0.00     0.000 C 
BRANCH  11  12
ATOM     12  C   UNL     1       1.135 -26.342  -0.909  1.00  0.00     0.000 C 
BRANCH  12  13
ATOM     13  C   UNL     1       0.070 -27.035  -0.040  1.00  0.00     0.000 C 
BRANCH  13  14
ATOM     14  C   UNL     1      -1.278 -26.284  -0.053  1.00  0.00     0.000 C 
BRANCH  14  15
ATOM     15  C   UNL     1      -1.433 -25.301  -1.226  1.00  0.00     0.000 C 
BRANCH  15  16
ATOM     16  C   UNL     1      -2.645 -24.368  -1.069  1.00  0.00     0.006 C 
BRANCH  16  17
ATOM     17  C   UNL     1      -2.731 -23.761   0.338  1.00  0.00     0.053 C 
BRANCH  17  18
ATOM     18  C   UNL     1      -4.127 -23.809   0.881  1.00  0.00     0.041 C 
ATOM     19  O   UNL     1      -4.485 -23.004   1.782  1.00  0.00    -0.550 OA
ATOM     20  O   UNL     1      -5.042 -24.723   0.373  1.00  0.00    -0.550 OA
ENDBRANCH  17  18
ENDBRANCH  16  17
ENDBRANCH  15  16
ENDBRANCH  14  15
ENDBRANCH  13  14
ENDBRANCH  12  13
ENDBRANCH  11  12
ENDBRANCH   1  11
TORSDOF 15
ENDMDL
MODEL 9
REMARK VINA RESULT:    -5.485      1.110      8.404
REMARK INTER + INTRA:         -11.111
REMARK INTER:                 -10.109
REMARK INTRA:                  -1.002
REMARK UNBOUND:                -0.815
REMARK SMILES O=C([O-])CCCCCCCCCCCCCCC(=O)[O-]
REMARK SMILES IDX 10 1 9 2 8 3 7 4 6 5 5 6 4 7 2 8 1 9 3 10 11 11 12 12 13 13
REMARK SMILES IDX 14 14 15 15 16 16 17 17 18 18 19 19 20 20
REMARK H PARENT
REMARK Flexibility Score: inf
ROOT
ATOM      1  C   UNL     1       0.948 -26.246  -1.652  1.00  0.00     0.000 C 
ENDROOT
BRANCH   1   2
ATOM      2  C   UNL     1       1.952 -27.086  -0.842  1.00  0.00     0.000 C 
BRANCH   2   3
ATOM      3  C   UNL     1       1.276 -28.148   0.037  1.00  0.00     0.000 C 
BRANCH   3   4
ATOM      4  C   UNL     1       1.847 -28.120   1.462  1.00  0.00     0.000 C 
BRANCH   4   5
ATOM      5  C   UNL     1       3.179 -28.880   1.581  1.00  0.00     0.000 C 
BRANCH   5   6
ATOM      6  C   UNL     1       3.527 -29.240   3.033  1.00  0.00     0.006 C 
BRANCH   6   7
ATOM      7  C   UNL     1       3.047 -30.654   3.376  1.00  0.00     0.053 C 
BRANCH   7   8
ATOM      8  C   UNL     1       3.104 -30.883   4.854  1.00  0.00     0.041 C 
ATOM      9  O   UNL     1       2.183 -31.517   5.433  1.00  0.00    -0.550 OA
ATOM     10  O   UNL     1       4.150 -30.353   5.600  1.00  0.00    -0.550 OA
ENDBRANCH   7   8
ENDBRANCH   6   7
ENDBRANCH   5   6
ENDBRANCH   4   5
ENDBRANCH   3   4
ENDBRANCH   2   3
ENDBRANCH   1   2
BRANCH   1  11
ATOM     11  C   UNL     1      -0.350 -25.874  -0.907  1.00  0.00     0.000 C 
BRANCH  11  12
ATOM     12  C   UNL     1      -1.524 -25.449  -1.807  1.00  0.00     0.000 C 
BRANCH  12  13
ATOM     13  C   UNL     1      -2.116 -24.083  -1.416  1.00  0.00     0.000 C 
BRANCH  13  14
ATOM     14  C   UNL     1      -1.730 -23.665   0.018  1.00  0.00     0.000 C 
BRANCH  14  15
ATOM     15  C   UNL     1      -2.927 -23.251   0.892  1.00  0.00     0.000 C 
BRANCH  15  16
ATOM     16  C   UNL     1      -4.167 -24.129   0.662  1.00  0.00     0.006 C 
BRANCH  16  17
ATOM     17  C   UNL     1      -3.993 -25.542   1.236  1.00  0.00     0.053 C 
BRANCH  17  18
ATOM     18  C   UNL     1      -4.458 -26.594   0.277  1.00  0.00     0.041 C 
ATOM     19  O   UNL     1      -3.988 -27.761   0.339  1.00  0.00    -0.550 OA
ATOM     20  O   UNL     1      -5.432 -26.295  -0.668  1.00  0.00    -0.550 OA
ENDBRANCH  17  18
ENDBRANCH  16  17
ENDBRANCH  15  16
ENDBRANCH  14  15
ENDBRANCH  13  14
ENDBRANCH  12  13
ENDBRANCH  11  12
ENDBRANCH   1  11
TORSDOF 15
ENDMDL
