MODEL 1
REMARK VINA RESULT:    -3.916      0.000      0.000
REMARK INTER + INTRA:          -6.281
REMARK INTER:                  -5.519
REMARK INTRA:                  -0.762
REMARK UNBOUND:                -0.762
REMARK SMILES C=CCCCCCCC(=O)[O-]
REMARK SMILES IDX 6 1 7 2 8 3 9 4 10 5 11 6 5 7 4 8 3 9 2 10 1 11
REMARK H PARENT
REMARK Flexibility Score: inf
ROOT
ATOM      1  C   UNL     1     -20.610  17.547  -3.726  1.00  0.00     0.000 C 
ENDROOT
BRANCH   1   2
ATOM      2  C   UNL     1     -21.374  16.287  -4.150  1.00  0.00     0.006 C 
BRANCH   2   3
ATOM      3  C   UNL     1     -22.755  16.644  -4.706  1.00  0.00     0.053 C 
BRANCH   3   4
ATOM      4  C   UNL     1     -22.929  16.077  -6.080  1.00  0.00     0.041 C 
ATOM      5  O   UNL     1     -22.178  15.149  -6.482  1.00  0.00    -0.550 OA
ATOM      6  O   UNL     1     -23.887  16.606  -6.935  1.00  0.00    -0.550 OA
ENDBRANCH   3   4
ENDBRANCH   2   3
ENDBRANCH   1   2
BRANCH   1   7
ATOM      7  C   UNL     1     -21.576  18.667  -3.320  1.00  0.00     0.000 C 
BRANCH   7   8
ATOM      8  C   UNL     1     -21.695  18.767  -1.794  1.00  0.00     0.004 C 
BRANCH   8   9
ATOM      9  C   UNL     1     -23.086  18.327  -1.322  1.00  0.00     0.027 C 
BRANCH   9  10
ATOM     10  C   UNL     1     -23.025  17.007  -0.603  1.00  0.00    -0.035 C 
ATOM     11  C   UNL     1     -21.862  16.405  -0.335  1.00  0.00     0.004 C 
ENDBRANCH   9  10
ENDBRANCH   8   9
ENDBRANCH   7   8
ENDBRANCH   1   7
TORSDOF 7
ENDMDL
MODEL 2
REMARK VINA RESULT:    -3.855      1.555      2.941
REMARK INTER + INTRA:          -6.194
REMARK INTER:                  -5.464
REMARK INTRA:                  -0.731
REMARK UNBOUND:                -0.762
REMARK SMILES C=CCCCCCCC(=O)[O-]
REMARK SMILES IDX 6 1 7 2 8 3 9 4 10 5 11 6 5 7 4 8 3 9 2 10 1 11
REMARK H PARENT
REMARK Flexibility Score: inf
ROOT
ATOM      1  C   UNL     1     -21.913  16.598  -0.644  1.00  0.00     0.000 C 
ENDROOT
BRANCH   1   2
ATOM      2  C   UNL     1     -21.252  15.800  -1.773  1.00  0.00     0.006 C 
BRANCH   2   3
ATOM      3  C   UNL     1     -22.105  15.837  -3.044  1.00  0.00     0.053 C 
BRANCH   3   4
ATOM      4  C   UNL     1     -21.253  16.125  -4.239  1.00  0.00     0.041 C 
ATOM      5  O   UNL     1     -20.300  16.944  -4.155  1.00  0.00    -0.550 OA
ATOM      6  O   UNL     1     -21.540  15.527  -5.460  1.00  0.00    -0.550 OA
ENDBRANCH   3   4
ENDBRANCH   2   3
ENDBRANCH   1   2
BRANCH   1   7
ATOM      7  C   UNL     1     -23.239  17.214  -1.106  1.00  0.00     0.000 C 
BRANCH   7   8
ATOM      8  C   UNL     1     -23.133  18.740  -1.207  1.00  0.00     0.004 C 
BRANCH   8   9
ATOM      9  C   UNL     1     -22.971  19.185  -2.666  1.00  0.00     0.027 C 
BRANCH   9  10
ATOM     10  C   UNL     1     -21.622  19.806  -2.900  1.00  0.00    -0.035 C 
ATOM     11  C   UNL     1     -20.727  19.935  -1.916  1.00  0.00     0.004 C 
ENDBRANCH   9  10
ENDBRANCH   8   9
ENDBRANCH   7   8
ENDBRANCH   1   7
TORSDOF 7
ENDMDL
MODEL 3
REMARK VINA RESULT:    -3.798      1.345      2.119
REMARK INTER + INTRA:          -6.114
REMARK INTER:                  -5.478
REMARK INTRA:                  -0.636
REMARK UNBOUND:                -0.762
REMARK SMILES C=CCCCCCCC(=O)[O-]
REMARK SMILES IDX 6 1 7 2 8 3 9 4 10 5 11 6 5 7 4 8 3 9 2 10 1 11
REMARK H PARENT
REMARK Flexibility Score: inf
ROOT
ATOM      1  C   UNL     1     -21.623  15.871  -3.165  1.00  0.00     0.000 C 
ENDROOT
BRANCH   1   2
ATOM      2  C   UNL     1     -21.521  16.199  -4.660  1.00  0.00     0.006 C 
BRANCH   2   3
ATOM      3  C   UNL     1     -22.895  16.128  -5.331  1.00  0.00     0.053 C 
BRANCH   3   4
ATOM      4  C   UNL     1     -22.779  15.536  -6.700  1.00  0.00     0.041 C 
ATOM      5  O   UNL     1     -21.834  14.748  -6.971  1.00  0.00    -0.550 OA
ATOM      6  O   UNL     1     -23.685  15.891  -7.691  1.00  0.00    -0.550 OA
ENDBRANCH   3   4
ENDBRANCH   2   3
ENDBRANCH   1   2
BRANCH   1   7
ATOM      7  C   UNL     1     -21.067  17.018  -2.311  1.00  0.00     0.000 C 
BRANCH   7   8
ATOM      8  C   UNL     1     -20.607  18.187  -3.189  1.00  0.00     0.004 C 
BRANCH   8   9
ATOM      9  C   UNL     1     -21.415  19.454  -2.885  1.00  0.00     0.027 C 
BRANCH   9  10
ATOM     10  C   UNL     1     -22.795  19.116  -2.394  1.00  0.00    -0.035 C 
ATOM     11  C   UNL     1     -23.874  19.266  -3.169  1.00  0.00     0.004 C 
ENDBRANCH   9  10
ENDBRANCH   8   9
ENDBRANCH   7   8
ENDBRANCH   1   7
TORSDOF 7
ENDMDL
MODEL 4
REMARK VINA RESULT:    -3.788      1.138      2.058
REMARK INTER + INTRA:          -6.100
REMARK INTER:                  -5.495
REMARK INTRA:                  -0.605
REMARK UNBOUND:                -0.762
REMARK SMILES C=CCCCCCCC(=O)[O-]
REMARK SMILES IDX 6 1 7 2 8 3 9 4 10 5 11 6 5 7 4 8 3 9 2 10 1 11
REMARK H PARENT
REMARK Flexibility Score: inf
ROOT
ATOM      1  C   UNL     1     -21.293  15.917  -3.086  1.00  0.00     0.000 C 
ENDROOT
BRANCH   1   2
ATOM      2  C   UNL     1     -21.243  15.914  -4.619  1.00  0.00     0.006 C 
BRANCH   2   3
ATOM      3  C   UNL     1     -22.621  16.219  -5.213  1.00  0.00     0.053 C 
BRANCH   3   4
ATOM      4  C   UNL     1     -22.744  15.625  -6.581  1.00  0.00     0.041 C 
ATOM      5  O   UNL     1     -21.865  14.830  -7.007  1.00  0.00    -0.550 OA
ATOM      6  O   UNL     1     -23.803  15.987  -7.404  1.00  0.00    -0.550 OA
ENDBRANCH   3   4
ENDBRANCH   2   3
ENDBRANCH   1   2
BRANCH   1   7
ATOM      7  C   UNL     1     -22.670  16.362  -2.580  1.00  0.00     0.000 C 
BRANCH   7   8
ATOM      8  C   UNL     1     -22.542  17.501  -1.561  1.00  0.00     0.004 C 
BRANCH   8   9
ATOM      9  C   UNL     1     -22.982  18.837  -2.173  1.00  0.00     0.027 C 
BRANCH   9  10
ATOM     10  C   UNL     1     -21.830  19.535  -2.843  1.00  0.00    -0.035 C 
ATOM     11  C   UNL     1     -20.791  20.004  -2.146  1.00  0.00     0.004 C 
ENDBRANCH   9  10
ENDBRANCH   8   9
ENDBRANCH   7   8
ENDBRANCH   1   7
TORSDOF 7
ENDMDL
MODEL 5
REMARK VINA RESULT:    -3.756      2.900      4.893
REMARK INTER + INTRA:          -6.055
REMARK INTER:                  -5.545
REMARK INTRA:                  -0.509
REMARK UNBOUND:                -0.762
REMARK SMILES C=CCCCCCCC(=O)[O-]
REMARK SMILES IDX 6 1 7 2 8 3 9 4 10 5 11 6 5 7 4 8 3 9 2 10 1 11
REMARK H PARENT
REMARK Flexibility Score: inf
ROOT
ATOM      1  C   UNL     1     -21.877  15.915  -2.606  1.00  0.00     0.000 C 
ENDROOT
BRANCH   1   2
ATOM      2  C   UNL     1     -21.612  17.076  -1.639  1.00  0.00     0.006 C 
BRANCH   2   3
ATOM      3  C   UNL     1     -20.533  18.013  -2.189  1.00  0.00     0.053 C 
BRANCH   3   4
ATOM      4  C   UNL     1     -21.068  19.403  -2.329  1.00  0.00     0.041 C 
ATOM      5  O   UNL     1     -20.441  20.376  -1.833  1.00  0.00    -0.550 OA
ATOM      6  O   UNL     1     -22.285  19.619  -2.962  1.00  0.00    -0.550 OA
ENDBRANCH   3   4
ENDBRANCH   2   3
ENDBRANCH   1   2
BRANCH   1   7
ATOM      7  C   UNL     1     -20.967  16.004  -3.837  1.00  0.00     0.000 C 
BRANCH   7   8
ATOM      8  C   UNL     1     -21.776  15.869  -5.132  1.00  0.00     0.004 C 
BRANCH   8   9
ATOM      9  C   UNL     1     -23.105  16.628  -5.031  1.00  0.00     0.027 C 
BRANCH   9  10
ATOM     10  C   UNL     1     -23.897  16.512  -6.305  1.00  0.00    -0.035 C 
ATOM     11  C   UNL     1     -23.418  15.869  -7.375  1.00  0.00     0.004 C 
ENDBRANCH   9  10
ENDBRANCH   8   9
ENDBRANCH   7   8
ENDBRANCH   1   7
TORSDOF 7
ENDMDL
MODEL 6
REMARK VINA RESULT:    -3.707      3.244      4.344
REMARK INTER + INTRA:          -5.986
REMARK INTER:                  -5.252
REMARK INTRA:                  -0.734
REMARK UNBOUND:                -0.762
REMARK SMILES C=CCCCCCCC(=O)[O-]
REMARK SMILES IDX 6 1 7 2 8 3 9 4 10 5 11 6 5 7 4 8 3 9 2 10 1 11
REMARK H PARENT
REMARK Flexibility Score: inf
ROOT
ATOM      1  C   UNL     1     -21.175  15.991  -3.740  1.00  0.00     0.000 C 
ENDROOT
BRANCH   1   2
ATOM      2  C   UNL     1     -22.005  15.691  -2.486  1.00  0.00     0.006 C 
BRANCH   2   3
ATOM      3  C   UNL     1     -21.158  15.839  -1.219  1.00  0.00     0.053 C 
BRANCH   3   4
ATOM      4  C   UNL     1     -21.999  16.323  -0.080  1.00  0.00     0.041 C 
ATOM      5  O   UNL     1     -21.697  16.019   1.104  1.00  0.00    -0.550 OA
ATOM      6  O   UNL     1     -23.144  17.070  -0.329  1.00  0.00    -0.550 OA
ENDBRANCH   3   4
ENDBRANCH   2   3
ENDBRANCH   1   2
BRANCH   1   7
ATOM      7  C   UNL     1     -21.114  17.499  -4.013  1.00  0.00     0.000 C 
BRANCH   7   8
ATOM      8  C   UNL     1     -22.450  18.174  -3.681  1.00  0.00     0.004 C 
BRANCH   8   9
ATOM      9  C   UNL     1     -22.230  19.472  -2.895  1.00  0.00     0.027 C 
BRANCH   9  10
ATOM     10  C   UNL     1     -20.895  19.471  -2.204  1.00  0.00    -0.035 C 
ATOM     11  C   UNL     1     -20.339  20.596  -1.745  1.00  0.00     0.004 C 
ENDBRANCH   9  10
ENDBRANCH   8   9
ENDBRANCH   7   8
ENDBRANCH   1   7
TORSDOF 7
ENDMDL
MODEL 7
REMARK VINA RESULT:    -3.701      2.819      4.886
REMARK INTER + INTRA:          -5.978
REMARK INTER:                  -5.421
REMARK INTRA:                  -0.557
REMARK UNBOUND:                -0.762
REMARK SMILES C=CCCCCCCC(=O)[O-]
REMARK SMILES IDX 6 1 7 2 8 3 9 4 10 5 11 6 5 7 4 8 3 9 2 10 1 11
REMARK H PARENT
REMARK Flexibility Score: inf
ROOT
ATOM      1  C   UNL     1     -21.093  18.275  -3.437  1.00  0.00     0.000 C 
ENDROOT
BRANCH   1   2
ATOM      2  C   UNL     1     -21.003  18.265  -1.907  1.00  0.00     0.006 C 
BRANCH   2   3
ATOM      3  C   UNL     1     -22.266  17.663  -1.286  1.00  0.00     0.053 C 
BRANCH   3   4
ATOM      4  C   UNL     1     -21.934  16.418  -0.526  1.00  0.00     0.041 C 
ATOM      5  O   UNL     1     -22.427  16.224   0.617  1.00  0.00    -0.550 OA
ATOM      6  O   UNL     1     -21.042  15.496  -1.056  1.00  0.00    -0.550 OA
ENDBRANCH   3   4
ENDBRANCH   2   3
ENDBRANCH   1   2
BRANCH   1   7
ATOM      7  C   UNL     1     -20.311  17.105  -4.044  1.00  0.00     0.000 C 
BRANCH   7   8
ATOM      8  C   UNL     1     -21.252  15.968  -4.459  1.00  0.00     0.004 C 
BRANCH   8   9
ATOM      9  C   UNL     1     -22.631  16.511  -4.851  1.00  0.00     0.027 C 
BRANCH   9  10
ATOM     10  C   UNL     1     -23.117  15.891  -6.132  1.00  0.00    -0.035 C 
ATOM     11  C   UNL     1     -22.324  15.125  -6.888  1.00  0.00     0.004 C 
ENDBRANCH   9  10
ENDBRANCH   8   9
ENDBRANCH   7   8
ENDBRANCH   1   7
TORSDOF 7
ENDMDL
MODEL 8
REMARK VINA RESULT:    -3.619      3.046      4.981
REMARK INTER + INTRA:          -5.862
REMARK INTER:                  -5.373
REMARK INTRA:                  -0.489
REMARK UNBOUND:                -0.762
REMARK SMILES C=CCCCCCCC(=O)[O-]
REMARK SMILES IDX 6 1 7 2 8 3 9 4 10 5 11 6 5 7 4 8 3 9 2 10 1 11
REMARK H PARENT
REMARK Flexibility Score: inf
ROOT
ATOM      1  C   UNL     1     -22.037  16.200  -2.500  1.00  0.00     0.000 C 
ENDROOT
BRANCH   1   2
ATOM      2  C   UNL     1     -21.296  17.150  -1.552  1.00  0.00     0.006 C 
BRANCH   2   3
ATOM      3  C   UNL     1     -20.400  18.116  -2.333  1.00  0.00     0.053 C 
BRANCH   3   4
ATOM      4  C   UNL     1     -20.995  19.489  -2.342  1.00  0.00     0.041 C 
ATOM      5  O   UNL     1     -22.031  19.726  -3.018  1.00  0.00    -0.550 OA
ATOM      6  O   UNL     1     -20.378  20.520  -1.645  1.00  0.00    -0.550 OA
ENDBRANCH   3   4
ENDBRANCH   2   3
ENDBRANCH   1   2
BRANCH   1   7
ATOM      7  C   UNL     1     -23.497  16.634  -2.685  1.00  0.00     0.000 C 
BRANCH   7   8
ATOM      8  C   UNL     1     -23.921  16.529  -4.155  1.00  0.00     0.004 C 
BRANCH   8   9
ATOM      9  C   UNL     1     -22.699  16.421  -5.074  1.00  0.00     0.027 C 
BRANCH   9  10
ATOM     10  C   UNL     1     -23.031  15.675  -6.337  1.00  0.00    -0.035 C 
ATOM     11  C   UNL     1     -23.661  16.265  -7.357  1.00  0.00     0.004 C 
ENDBRANCH   9  10
ENDBRANCH   8   9
ENDBRANCH   7   8
ENDBRANCH   1   7
TORSDOF 7
ENDMDL
MODEL 9
REMARK VINA RESULT:    -3.561      1.469      2.096
REMARK INTER + INTRA:          -5.780
REMARK INTER:                  -5.125
REMARK INTRA:                  -0.655
REMARK UNBOUND:                -0.762
REMARK SMILES C=CCCCCCCC(=O)[O-]
REMARK SMILES IDX 6 1 7 2 8 3 9 4 10 5 11 6 5 7 4 8 3 9 2 10 1 11
REMARK H PARENT
REMARK Flexibility Score: inf
ROOT
ATOM      1  C   UNL     1     -23.994  18.036  -3.883  1.00  0.00     0.000 C 
ENDROOT
BRANCH   1   2
ATOM      2  C   UNL     1     -23.538  16.587  -4.091  1.00  0.00     0.006 C 
BRANCH   2   3
ATOM      3  C   UNL     1     -23.390  16.266  -5.581  1.00  0.00     0.053 C 
BRANCH   3   4
ATOM      4  C   UNL     1     -22.074  15.607  -5.846  1.00  0.00     0.041 C 
ATOM      5  O   UNL     1     -21.896  14.954  -6.909  1.00  0.00    -0.550 OA
ATOM      6  O   UNL     1     -21.060  15.669  -4.899  1.00  0.00    -0.550 OA
ENDBRANCH   3   4
ENDBRANCH   2   3
ENDBRANCH   1   2
BRANCH   1   7
ATOM      7  C   UNL     1     -23.067  18.771  -2.907  1.00  0.00     0.000 C 
BRANCH   7   8
ATOM      8  C   UNL     1     -21.602  18.659  -3.346  1.00  0.00     0.004 C 
BRANCH   8   9
ATOM      9  C   UNL     1     -20.707  18.238  -2.174  1.00  0.00     0.027 C 
BRANCH   9  10
ATOM     10  C   UNL     1     -21.404  17.244  -1.287  1.00  0.00    -0.035 C 
ATOM     11  C   UNL     1     -21.180  15.930  -1.391  1.00  0.00     0.004 C 
ENDBRANCH   9  10
ENDBRANCH   8   9
ENDBRANCH   7   8
ENDBRANCH   1   7
TORSDOF 7
ENDMDL
