MODEL 1
REMARK VINA RESULT:    -4.041      0.000      0.000
REMARK INTER + INTRA:          -4.733
REMARK INTER:                  -4.631
REMARK INTRA:                  -0.101
REMARK UNBOUND:                -0.101
REMARK SMILES COc1cc(C(=O)[O-])ccc1O
REMARK SMILES IDX 5 1 9 2 4 3 10 4 3 5 11 6 6 7 7 8 8 9 2 10 1 11 12 12
REMARK H PARENT 12 13
REMARK Flexibility Score: inf
ROOT
ATOM      1  C   UNL     1      11.611  31.632  -6.027  1.00  0.00     0.001 A 
ATOM      2  C   UNL     1      12.024  31.272  -4.735  1.00  0.00     0.014 A 
ATOM      3  C   UNL     1      12.106  30.911  -7.129  1.00  0.00     0.060 A 
ATOM      4  C   UNL     1      12.913  30.214  -4.546  1.00  0.00     0.051 A 
ATOM      5  C   UNL     1      13.005  29.841  -6.945  1.00  0.00     0.161 A 
ATOM      6  C   UNL     1      13.406  29.497  -5.641  1.00  0.00     0.157 A 
ENDROOT
BRANCH   1   7
ATOM      7  C   UNL     1      10.667  32.756  -6.222  1.00  0.00     0.072 C 
ATOM      8  O   UNL     1       9.967  33.180  -5.264  1.00  0.00    -0.545 OA
ATOM      9  O   UNL     1      10.539  33.360  -7.469  1.00  0.00    -0.545 OA
ENDBRANCH   1   7
BRANCH   5  10
ATOM     10  O   UNL     1      13.516  29.104  -8.025  1.00  0.00    -0.493 OA
ATOM     11  C   UNL     1      14.648  29.485  -8.800  1.00  0.00     0.278 C 
ENDBRANCH   5  10
BRANCH   6  12
ATOM     12  O   UNL     1      14.293  28.446  -5.413  1.00  0.00    -0.504 OA
ATOM     13  H   UNL     1      13.982  27.534  -5.102  1.00  0.00     0.293 HD
ENDBRANCH   6  12
TORSDOF 3
ENDMDL
MODEL 2
REMARK VINA RESULT:    -4.039      2.339      3.176
REMARK INTER + INTRA:          -4.731
REMARK INTER:                  -4.628
REMARK INTRA:                  -0.102
REMARK UNBOUND:                -0.101
REMARK SMILES COc1cc(C(=O)[O-])ccc1O
REMARK SMILES IDX 5 1 9 2 4 3 10 4 3 5 11 6 6 7 7 8 8 9 2 10 1 11 12 12
REMARK H PARENT 12 13
REMARK Flexibility Score: inf
ROOT
ATOM      1  C   UNL     1      10.638  30.511  -3.214  1.00  0.00     0.001 A 
ATOM      2  C   UNL     1      10.460  29.410  -2.362  1.00  0.00     0.014 A 
ATOM      3  C   UNL     1      11.804  30.587  -3.998  1.00  0.00     0.060 A 
ATOM      4  C   UNL     1      11.424  28.405  -2.294  1.00  0.00     0.051 A 
ATOM      5  C   UNL     1      12.782  29.574  -3.934  1.00  0.00     0.161 A 
ATOM      6  C   UNL     1      12.583  28.479  -3.073  1.00  0.00     0.157 A 
ENDROOT
BRANCH   1   7
ATOM      7  C   UNL     1       9.611  31.575  -3.283  1.00  0.00     0.072 C 
ATOM      8  O   UNL     1       8.792  31.739  -2.339  1.00  0.00    -0.545 OA
ATOM      9  O   UNL     1       9.537  32.411  -4.392  1.00  0.00    -0.545 OA
ENDBRANCH   1   7
BRANCH   5  10
ATOM     10  O   UNL     1      13.955  29.622  -4.704  1.00  0.00    -0.493 OA
ATOM     11  C   UNL     1      14.032  29.278  -6.083  1.00  0.00     0.278 C 
ENDBRANCH   5  10
BRANCH   6  12
ATOM     12  O   UNL     1      13.524  27.456  -2.978  1.00  0.00    -0.504 OA
ATOM     13  H   UNL     1      14.474  27.622  -2.667  1.00  0.00     0.293 HD
ENDBRANCH   6  12
TORSDOF 3
ENDMDL
MODEL 3
REMARK VINA RESULT:    -4.031      1.254      2.822
REMARK INTER + INTRA:          -4.721
REMARK INTER:                  -4.628
REMARK INTRA:                  -0.093
REMARK UNBOUND:                -0.101
REMARK SMILES COc1cc(C(=O)[O-])ccc1O
REMARK SMILES IDX 5 1 9 2 4 3 10 4 3 5 11 6 6 7 7 8 8 9 2 10 1 11 12 12
REMARK H PARENT 12 13
REMARK Flexibility Score: inf
ROOT
ATOM      1  C   UNL     1      11.340  31.520  -6.114  1.00  0.00     0.001 A 
ATOM      2  C   UNL     1      12.035  31.059  -7.243  1.00  0.00     0.014 A 
ATOM      3  C   UNL     1      11.652  30.980  -4.852  1.00  0.00     0.060 A 
ATOM      4  C   UNL     1      13.021  30.081  -7.117  1.00  0.00     0.051 A 
ATOM      5  C   UNL     1      12.647  29.991  -4.718  1.00  0.00     0.161 A 
ATOM      6  C   UNL     1      13.331  29.544  -5.864  1.00  0.00     0.157 A 
ENDROOT
BRANCH   1   7
ATOM      7  C   UNL     1      10.295  32.559  -6.253  1.00  0.00     0.072 C 
ATOM      8  O   UNL     1       9.159  32.269  -6.714  1.00  0.00    -0.545 OA
ATOM      9  O   UNL     1      10.554  33.873  -5.877  1.00  0.00    -0.545 OA
ENDBRANCH   1   7
BRANCH   5  10
ATOM     10  O   UNL     1      12.979  29.433  -3.473  1.00  0.00    -0.493 OA
ATOM     11  C   UNL     1      12.133  28.569  -2.722  1.00  0.00     0.278 C 
ENDBRANCH   5  10
BRANCH   6  12
ATOM     12  O   UNL     1      14.322  28.567  -5.777  1.00  0.00    -0.504 OA
ATOM     13  H   UNL     1      15.137  28.675  -5.186  1.00  0.00     0.293 HD
ENDBRANCH   6  12
TORSDOF 3
ENDMDL
MODEL 4
REMARK VINA RESULT:    -4.021     10.864     12.451
REMARK INTER + INTRA:          -4.710
REMARK INTER:                  -4.617
REMARK INTRA:                  -0.093
REMARK UNBOUND:                -0.101
REMARK SMILES COc1cc(C(=O)[O-])ccc1O
REMARK SMILES IDX 5 1 9 2 4 3 10 4 3 5 11 6 6 7 7 8 8 9 2 10 1 11 12 12
REMARK H PARENT 12 13
REMARK Flexibility Score: inf
ROOT
ATOM      1  C   UNL     1       9.779  30.508   6.459  1.00  0.00     0.001 A 
ATOM      2  C   UNL     1      10.737  31.399   5.951  1.00  0.00     0.014 A 
ATOM      3  C   UNL     1       8.992  29.765   5.559  1.00  0.00     0.060 A 
ATOM      4  C   UNL     1      10.906  31.547   4.574  1.00  0.00     0.051 A 
ATOM      5  C   UNL     1       9.158  29.911   4.166  1.00  0.00     0.161 A 
ATOM      6  C   UNL     1      10.125  30.810   3.680  1.00  0.00     0.157 A 
ENDROOT
BRANCH   1   7
ATOM      7  C   UNL     1       9.603  30.354   7.920  1.00  0.00     0.072 C 
ATOM      8  O   UNL     1       8.661  30.940   8.519  1.00  0.00    -0.545 OA
ATOM      9  O   UNL     1      10.478  29.560   8.655  1.00  0.00    -0.545 OA
ENDBRANCH   1   7
BRANCH   5  10
ATOM     10  O   UNL     1       8.387  29.184   3.245  1.00  0.00    -0.493 OA
ATOM     11  C   UNL     1       8.702  27.876   2.780  1.00  0.00     0.278 C 
ENDBRANCH   5  10
BRANCH   6  12
ATOM     12  O   UNL     1      10.322  30.985   2.311  1.00  0.00    -0.504 OA
ATOM     13  H   UNL     1      11.203  30.768   1.860  1.00  0.00     0.293 HD
ENDBRANCH   6  12
TORSDOF 3
ENDMDL
MODEL 5
REMARK VINA RESULT:    -3.999      1.213      1.483
REMARK INTER + INTRA:          -4.685
REMARK INTER:                  -4.607
REMARK INTRA:                  -0.078
REMARK UNBOUND:                -0.101
REMARK SMILES COc1cc(C(=O)[O-])ccc1O
REMARK SMILES IDX 5 1 9 2 4 3 10 4 3 5 11 6 6 7 7 8 8 9 2 10 1 11 12 12
REMARK H PARENT 12 13
REMARK Flexibility Score: inf
ROOT
ATOM      1  C   UNL     1      11.395  31.558  -5.562  1.00  0.00     0.001 A 
ATOM      2  C   UNL     1      10.917  31.197  -4.292  1.00  0.00     0.014 A 
ATOM      3  C   UNL     1      12.495  30.865  -6.101  1.00  0.00     0.060 A 
ATOM      4  C   UNL     1      11.524  30.166  -3.575  1.00  0.00     0.051 A 
ATOM      5  C   UNL     1      13.112  29.822  -5.381  1.00  0.00     0.161 A 
ATOM      6  C   UNL     1      12.616  29.477  -4.110  1.00  0.00     0.157 A 
ENDROOT
BRANCH   1   7
ATOM      7  C   UNL     1      10.748  32.654  -6.319  1.00  0.00     0.072 C 
ATOM      8  O   UNL     1      10.583  33.787  -5.793  1.00  0.00    -0.545 OA
ATOM      9  O   UNL     1      10.312  32.446  -7.623  1.00  0.00    -0.545 OA
ENDBRANCH   1   7
BRANCH   5  10
ATOM     10  O   UNL     1      14.210  29.113  -5.893  1.00  0.00    -0.493 OA
ATOM     11  C   UNL     1      14.421  28.836  -7.273  1.00  0.00     0.278 C 
ENDBRANCH   5  10
BRANCH   6  12
ATOM     12  O   UNL     1      13.196  28.452  -3.364  1.00  0.00    -0.504 OA
ATOM     13  H   UNL     1      13.770  27.733  -3.788  1.00  0.00     0.293 HD
ENDBRANCH   6  12
TORSDOF 3
ENDMDL
MODEL 6
REMARK VINA RESULT:    -3.955      1.776      2.325
REMARK INTER + INTRA:          -4.635
REMARK INTER:                  -4.531
REMARK INTRA:                  -0.104
REMARK UNBOUND:                -0.101
REMARK SMILES COc1cc(C(=O)[O-])ccc1O
REMARK SMILES IDX 5 1 9 2 4 3 10 4 3 5 11 6 6 7 7 8 8 9 2 10 1 11 12 12
REMARK H PARENT 12 13
REMARK Flexibility Score: inf
ROOT
ATOM      1  C   UNL     1      11.023  30.805  -3.951  1.00  0.00     0.001 A 
ATOM      2  C   UNL     1      11.770  29.895  -3.186  1.00  0.00     0.014 A 
ATOM      3  C   UNL     1      11.388  31.033  -5.291  1.00  0.00     0.060 A 
ATOM      4  C   UNL     1      12.858  29.225  -3.747  1.00  0.00     0.051 A 
ATOM      5  C   UNL     1      12.486  30.359  -5.863  1.00  0.00     0.161 A 
ATOM      6  C   UNL     1      13.220  29.451  -5.078  1.00  0.00     0.157 A 
ENDROOT
BRANCH   1   7
ATOM      7  C   UNL     1       9.870  31.513  -3.351  1.00  0.00     0.072 C 
ATOM      8  O   UNL     1       9.398  31.147  -2.241  1.00  0.00    -0.545 OA
ATOM      9  O   UNL     1       9.289  32.594  -4.007  1.00  0.00    -0.545 OA
ENDBRANCH   1   7
BRANCH   5  10
ATOM     10  O   UNL     1      12.874  30.566  -7.197  1.00  0.00    -0.493 OA
ATOM     11  C   UNL     1      12.276  29.929  -8.321  1.00  0.00     0.278 C 
ENDBRANCH   5  10
BRANCH   6  12
ATOM     12  O   UNL     1      14.314  28.764  -5.604  1.00  0.00    -0.504 OA
ATOM     13  H   UNL     1      14.778  29.056  -6.455  1.00  0.00     0.293 HD
ENDBRANCH   6  12
TORSDOF 3
ENDMDL
MODEL 7
REMARK VINA RESULT:    -3.870      1.709      4.738
REMARK INTER + INTRA:          -4.537
REMARK INTER:                  -4.440
REMARK INTRA:                  -0.097
REMARK UNBOUND:                -0.101
REMARK SMILES COc1cc(C(=O)[O-])ccc1O
REMARK SMILES IDX 5 1 9 2 4 3 10 4 3 5 11 6 6 7 7 8 8 9 2 10 1 11 12 12
REMARK H PARENT 12 13
REMARK Flexibility Score: inf
ROOT
ATOM      1  C   UNL     1      13.643  29.632  -6.689  1.00  0.00     0.001 A 
ATOM      2  C   UNL     1      12.678  30.453  -7.294  1.00  0.00     0.014 A 
ATOM      3  C   UNL     1      13.588  29.425  -5.298  1.00  0.00     0.060 A 
ATOM      4  C   UNL     1      11.679  31.054  -6.528  1.00  0.00     0.051 A 
ATOM      5  C   UNL     1      12.581  30.029  -4.519  1.00  0.00     0.161 A 
ATOM      6  C   UNL     1      11.624  30.848  -5.147  1.00  0.00     0.157 A 
ENDROOT
BRANCH   1   7
ATOM      7  C   UNL     1      14.701  28.997  -7.506  1.00  0.00     0.072 C 
ATOM      8  O   UNL     1      15.899  29.378  -7.414  1.00  0.00    -0.545 OA
ATOM      9  O   UNL     1      14.387  27.968  -8.388  1.00  0.00    -0.545 OA
ENDBRANCH   1   7
BRANCH   5  10
ATOM     10  O   UNL     1      12.501  29.841  -3.129  1.00  0.00    -0.493 OA
ATOM     11  C   UNL     1      11.942  28.694  -2.500  1.00  0.00     0.278 C 
ENDBRANCH   5  10
BRANCH   6  12
ATOM     12  O   UNL     1      10.611  31.465  -4.414  1.00  0.00    -0.504 OA
ATOM     13  H   UNL     1      10.661  32.438  -4.137  1.00  0.00     0.293 HD
ENDBRANCH   6  12
TORSDOF 3
ENDMDL
MODEL 8
REMARK VINA RESULT:    -3.821      1.939      4.123
REMARK INTER + INTRA:          -4.481
REMARK INTER:                  -4.382
REMARK INTRA:                  -0.099
REMARK UNBOUND:                -0.101
REMARK SMILES COc1cc(C(=O)[O-])ccc1O
REMARK SMILES IDX 5 1 9 2 4 3 10 4 3 5 11 6 6 7 7 8 8 9 2 10 1 11 12 12
REMARK H PARENT 12 13
REMARK Flexibility Score: inf
ROOT
ATOM      1  C   UNL     1      13.118  29.825  -6.787  1.00  0.00     0.001 A 
ATOM      2  C   UNL     1      14.022  29.240  -5.886  1.00  0.00     0.014 A 
ATOM      3  C   UNL     1      12.034  30.567  -6.283  1.00  0.00     0.060 A 
ATOM      4  C   UNL     1      13.848  29.393  -4.510  1.00  0.00     0.051 A 
ATOM      5  C   UNL     1      11.853  30.725  -4.894  1.00  0.00     0.161 A 
ATOM      6  C   UNL     1      12.771  30.131  -4.009  1.00  0.00     0.157 A 
ENDROOT
BRANCH   1   7
ATOM      7  C   UNL     1      13.307  29.659  -8.246  1.00  0.00     0.072 C 
ATOM      8  O   UNL     1      12.315  29.498  -9.007  1.00  0.00    -0.545 OA
ATOM      9  O   UNL     1      14.583  29.680  -8.797  1.00  0.00    -0.545 OA
ENDBRANCH   1   7
BRANCH   5  10
ATOM     10  O   UNL     1      10.781  31.460  -4.362  1.00  0.00    -0.493 OA
ATOM     11  C   UNL     1       9.473  30.941  -4.148  1.00  0.00     0.278 C 
ENDBRANCH   5  10
BRANCH   6  12
ATOM     12  O   UNL     1      12.630  30.262  -2.628  1.00  0.00    -0.504 OA
ATOM     13  H   UNL     1      12.318  29.497  -2.042  1.00  0.00     0.293 HD
ENDBRANCH   6  12
TORSDOF 3
ENDMDL
MODEL 9
REMARK VINA RESULT:    -3.774      2.373      4.899
REMARK INTER + INTRA:          -4.427
REMARK INTER:                  -4.326
REMARK INTRA:                  -0.101
REMARK UNBOUND:                -0.101
REMARK SMILES COc1cc(C(=O)[O-])ccc1O
REMARK SMILES IDX 5 1 9 2 4 3 10 4 3 5 11 6 6 7 7 8 8 9 2 10 1 11 12 12
REMARK H PARENT 12 13
REMARK Flexibility Score: inf
ROOT
ATOM      1  C   UNL     1      12.264  30.188  -5.367  1.00  0.00     0.001 A 
ATOM      2  C   UNL     1      11.380  31.215  -5.733  1.00  0.00     0.014 A 
ATOM      3  C   UNL     1      12.206  29.671  -4.059  1.00  0.00     0.060 A 
ATOM      4  C   UNL     1      10.457  31.716  -4.815  1.00  0.00     0.051 A 
ATOM      5  C   UNL     1      11.276  30.173  -3.126  1.00  0.00     0.161 A 
ATOM      6  C   UNL     1      10.400  31.203  -3.516  1.00  0.00     0.157 A 
ENDROOT
BRANCH   1   7
ATOM      7  C   UNL     1      13.241  29.660  -6.345  1.00  0.00     0.072 C 
ATOM      8  O   UNL     1      14.325  29.147  -5.957  1.00  0.00    -0.545 OA
ATOM      9  O   UNL     1      12.976  29.724  -7.709  1.00  0.00    -0.545 OA
ENDBRANCH   1   7
BRANCH   5  10
ATOM     10  O   UNL     1      11.196  29.677  -1.815  1.00  0.00    -0.493 OA
ATOM     11  C   UNL     1      10.455  28.524  -1.430  1.00  0.00     0.278 C 
ENDBRANCH   5  10
BRANCH   6  12
ATOM     12  O   UNL     1       9.464  31.728  -2.625  1.00  0.00    -0.504 OA
ATOM     13  H   UNL     1       9.703  32.446  -1.952  1.00  0.00     0.293 HD
ENDBRANCH   6  12
TORSDOF 3
ENDMDL
