MODEL 1
REMARK VINA RESULT:    -4.268      0.000      0.000
REMARK INTER + INTRA:          -6.910
REMARK INTER:                  -6.264
REMARK INTRA:                  -0.645
REMARK UNBOUND:                -0.645
REMARK SMILES O=C([O-])CCCCCCCC(=O)[O-]
REMARK SMILES IDX 7 1 6 2 5 3 4 4 2 5 1 6 3 7 8 8 9 9 10 10 11 11 12 12 13 13
REMARK H PARENT
REMARK Flexibility Score: inf
ROOT
ATOM      1  C   UNL     1       9.034   7.051  28.354  1.00  0.00     0.000 C 
ENDROOT
BRANCH   1   2
ATOM      2  C   UNL     1       8.905   7.443  29.837  1.00  0.00     0.000 C 
BRANCH   2   3
ATOM      3  C   UNL     1       9.818   6.607  30.749  1.00  0.00     0.006 C 
BRANCH   3   4
ATOM      4  C   UNL     1       9.416   5.127  30.794  1.00  0.00     0.053 C 
BRANCH   4   5
ATOM      5  C   UNL     1      10.466   4.282  30.146  1.00  0.00     0.041 C 
ATOM      6  O   UNL     1      10.181   3.574  29.144  1.00  0.00    -0.550 OA
ATOM      7  O   UNL     1      11.748   4.237  30.678  1.00  0.00    -0.550 OA
ENDBRANCH   4   5
ENDBRANCH   3   4
ENDBRANCH   2   3
ENDBRANCH   1   2
BRANCH   1   8
ATOM      8  C   UNL     1      10.412   7.395  27.761  1.00  0.00     0.000 C 
BRANCH   8   9
ATOM      9  C   UNL     1      11.052   6.292  26.895  1.00  0.00     0.006 C 
BRANCH   9  10
ATOM     10  C   UNL     1      12.376   5.741  27.456  1.00  0.00     0.053 C 
BRANCH  10  11
ATOM     11  C   UNL     1      13.579   6.317  26.770  1.00  0.00     0.041 C 
ATOM     12  O   UNL     1      13.607   6.419  25.515  1.00  0.00    -0.550 OA
ATOM     13  O   UNL     1      14.653   6.780  27.520  1.00  0.00    -0.550 OA
ENDBRANCH  10  11
ENDBRANCH   9  10
ENDBRANCH   8   9
ENDBRANCH   1   8
TORSDOF 8
ENDMDL
MODEL 2
REMARK VINA RESULT:    -4.169     14.082     15.594
REMARK INTER + INTRA:          -6.764
REMARK INTER:                  -6.081
REMARK INTRA:                  -0.682
REMARK UNBOUND:                -0.645
REMARK SMILES O=C([O-])CCCCCCCC(=O)[O-]
REMARK SMILES IDX 7 1 6 2 5 3 4 4 2 5 1 6 3 7 8 8 9 9 10 10 11 11 12 12 13 13
REMARK H PARENT
REMARK Flexibility Score: inf
ROOT
ATOM      1  C   UNL     1       7.082   7.231  15.332  1.00  0.00     0.000 C 
ENDROOT
BRANCH   1   2
ATOM      2  C   UNL     1       5.900   8.151  14.977  1.00  0.00     0.000 C 
BRANCH   2   3
ATOM      3  C   UNL     1       4.683   7.370  14.456  1.00  0.00     0.006 C 
BRANCH   3   4
ATOM      4  C   UNL     1       3.418   7.623  15.287  1.00  0.00     0.053 C 
BRANCH   4   5
ATOM      5  C   UNL     1       3.537   6.971  16.628  1.00  0.00     0.041 C 
ATOM      6  O   UNL     1       3.572   7.672  17.673  1.00  0.00    -0.550 OA
ATOM      7  O   UNL     1       3.659   5.590  16.721  1.00  0.00    -0.550 OA
ENDBRANCH   4   5
ENDBRANCH   3   4
ENDBRANCH   2   3
ENDBRANCH   1   2
BRANCH   1   8
ATOM      8  C   UNL     1       8.336   7.511  14.485  1.00  0.00     0.000 C 
BRANCH   8   9
ATOM      9  C   UNL     1       8.093   8.307  13.187  1.00  0.00     0.006 C 
BRANCH   9  10
ATOM     10  C   UNL     1       8.178   7.460  11.904  1.00  0.00     0.053 C 
BRANCH  10  11
ATOM     11  C   UNL     1       6.916   6.700  11.628  1.00  0.00     0.041 C 
ATOM     12  O   UNL     1       6.031   7.188  10.877  1.00  0.00    -0.550 OA
ATOM     13  O   UNL     1       6.734   5.432  12.166  1.00  0.00    -0.550 OA
ENDBRANCH  10  11
ENDBRANCH   9  10
ENDBRANCH   8   9
ENDBRANCH   1   8
TORSDOF 8
ENDMDL
MODEL 3
REMARK VINA RESULT:    -4.164      0.477      4.390
REMARK INTER + INTRA:          -6.756
REMARK INTER:                  -6.099
REMARK INTRA:                  -0.657
REMARK UNBOUND:                -0.645
REMARK SMILES O=C([O-])CCCCCCCC(=O)[O-]
REMARK SMILES IDX 7 1 6 2 5 3 4 4 2 5 1 6 3 7 8 8 9 9 10 10 11 11 12 12 13 13
REMARK H PARENT
REMARK Flexibility Score: inf
ROOT
ATOM      1  C   UNL     1       9.842   7.726  28.453  1.00  0.00     0.000 C 
ENDROOT
BRANCH   1   2
ATOM      2  C   UNL     1       9.645   6.777  27.258  1.00  0.00     0.000 C 
BRANCH   2   3
ATOM      3  C   UNL     1      10.944   6.542  26.471  1.00  0.00     0.006 C 
BRANCH   3   4
ATOM      4  C   UNL     1      12.122   6.153  27.375  1.00  0.00     0.053 C 
BRANCH   4   5
ATOM      5  C   UNL     1      13.420   6.387  26.669  1.00  0.00     0.041 C 
ATOM      6  O   UNL     1      13.486   6.293  25.415  1.00  0.00    -0.550 OA
ATOM      7  O   UNL     1      14.569   6.661  27.400  1.00  0.00    -0.550 OA
ENDBRANCH   4   5
ENDBRANCH   3   4
ENDBRANCH   2   3
ENDBRANCH   1   2
BRANCH   1   8
ATOM      8  C   UNL     1       8.987   7.341  29.672  1.00  0.00     0.000 C 
BRANCH   8   9
ATOM      9  C   UNL     1       9.733   6.591  30.793  1.00  0.00     0.006 C 
BRANCH   9  10
ATOM     10  C   UNL     1       9.486   5.071  30.806  1.00  0.00     0.053 C 
BRANCH  10  11
ATOM     11  C   UNL     1      10.509   4.312  30.015  1.00  0.00     0.041 C 
ATOM     12  O   UNL     1      10.177   3.697  28.968  1.00  0.00    -0.550 OA
ATOM     13  O   UNL     1      11.841   4.319  30.413  1.00  0.00    -0.550 OA
ENDBRANCH  10  11
ENDBRANCH   9  10
ENDBRANCH   8   9
ENDBRANCH   1   8
TORSDOF 8
ENDMDL
MODEL 4
REMARK VINA RESULT:    -4.137     14.034     16.164
REMARK INTER + INTRA:          -6.718
REMARK INTER:                  -5.958
REMARK INTRA:                  -0.759
REMARK UNBOUND:                -0.645
REMARK SMILES O=C([O-])CCCCCCCC(=O)[O-]
REMARK SMILES IDX 7 1 6 2 5 3 4 4 2 5 1 6 3 7 8 8 9 9 10 10 11 11 12 12 13 13
REMARK H PARENT
REMARK Flexibility Score: inf
ROOT
ATOM      1  C   UNL     1       7.116   7.375  15.263  1.00  0.00     0.000 C 
ENDROOT
BRANCH   1   2
ATOM      2  C   UNL     1       6.932   5.951  14.711  1.00  0.00     0.000 C 
BRANCH   2   3
ATOM      3  C   UNL     1       7.848   5.661  13.512  1.00  0.00     0.006 C 
BRANCH   3   4
ATOM      4  C   UNL     1       7.065   5.319  12.237  1.00  0.00     0.053 C 
BRANCH   4   5
ATOM      5  C   UNL     1       6.520   6.563  11.610  1.00  0.00     0.041 C 
ATOM      6  O   UNL     1       7.213   7.614  11.581  1.00  0.00    -0.550 OA
ATOM      7  O   UNL     1       5.228   6.576  11.102  1.00  0.00    -0.550 OA
ENDBRANCH   4   5
ENDBRANCH   3   4
ENDBRANCH   2   3
ENDBRANCH   1   2
BRANCH   1   8
ATOM      8  C   UNL     1       5.901   8.282  15.001  1.00  0.00     0.000 C 
BRANCH   8   9
ATOM      9  C   UNL     1       4.602   7.550  14.608  1.00  0.00     0.006 C 
BRANCH   9  10
ATOM     10  C   UNL     1       3.419   7.814  15.558  1.00  0.00     0.053 C 
BRANCH  10  11
ATOM     11  C   UNL     1       3.507   7.019  16.826  1.00  0.00     0.041 C 
ATOM     12  O   UNL     1       3.433   7.593  17.944  1.00  0.00    -0.550 OA
ATOM     13  O   UNL     1       3.628   5.635  16.773  1.00  0.00    -0.550 OA
ENDBRANCH  10  11
ENDBRANCH   9  10
ENDBRANCH   8   9
ENDBRANCH   1   8
TORSDOF 8
ENDMDL
MODEL 5
REMARK VINA RESULT:    -4.134     14.185     15.668
REMARK INTER + INTRA:          -6.713
REMARK INTER:                  -5.967
REMARK INTRA:                  -0.745
REMARK UNBOUND:                -0.645
REMARK SMILES O=C([O-])CCCCCCCC(=O)[O-]
REMARK SMILES IDX 7 1 6 2 5 3 4 4 2 5 1 6 3 7 8 8 9 9 10 10 11 11 12 12 13 13
REMARK H PARENT
REMARK Flexibility Score: inf
ROOT
ATOM      1  C   UNL     1       7.141   7.419  15.201  1.00  0.00     0.000 C 
ENDROOT
BRANCH   1   2
ATOM      2  C   UNL     1       5.839   8.237  15.122  1.00  0.00     0.000 C 
BRANCH   2   3
ATOM      3  C   UNL     1       4.712   7.482  14.399  1.00  0.00     0.006 C 
BRANCH   3   4
ATOM      4  C   UNL     1       3.388   7.512  15.172  1.00  0.00     0.053 C 
BRANCH   4   5
ATOM      5  C   UNL     1       3.547   6.851  16.505  1.00  0.00     0.041 C 
ATOM      6  O   UNL     1       3.767   5.613  16.576  1.00  0.00    -0.550 OA
ATOM      7  O   UNL     1       3.403   7.593  17.670  1.00  0.00    -0.550 OA
ENDBRANCH   4   5
ENDBRANCH   3   4
ENDBRANCH   2   3
ENDBRANCH   1   2
BRANCH   1   8
ATOM      8  C   UNL     1       6.965   5.965  14.730  1.00  0.00     0.000 C 
BRANCH   8   9
ATOM      9  C   UNL     1       7.853   5.541  13.544  1.00  0.00     0.006 C 
BRANCH   9  10
ATOM     10  C   UNL     1       7.898   6.566  12.395  1.00  0.00     0.053 C 
BRANCH  10  11
ATOM     11  C   UNL     1       6.782   6.381  11.411  1.00  0.00     0.041 C 
ATOM     12  O   UNL     1       6.398   5.224  11.095  1.00  0.00    -0.550 OA
ATOM     13  O   UNL     1       6.136   7.488  10.875  1.00  0.00    -0.550 OA
ENDBRANCH  10  11
ENDBRANCH   9  10
ENDBRANCH   8   9
ENDBRANCH   1   8
TORSDOF 8
ENDMDL
MODEL 6
REMARK VINA RESULT:    -4.063     14.074     16.132
REMARK INTER + INTRA:          -6.609
REMARK INTER:                  -5.915
REMARK INTRA:                  -0.694
REMARK UNBOUND:                -0.645
REMARK SMILES O=C([O-])CCCCCCCC(=O)[O-]
REMARK SMILES IDX 7 1 6 2 5 3 4 4 2 5 1 6 3 7 8 8 9 9 10 10 11 11 12 12 13 13
REMARK H PARENT
REMARK Flexibility Score: inf
ROOT
ATOM      1  C   UNL     1       7.101   8.678  14.386  1.00  0.00     0.000 C 
ENDROOT
BRANCH   1   2
ATOM      2  C   UNL     1       8.224   8.270  13.416  1.00  0.00     0.000 C 
BRANCH   2   3
ATOM      3  C   UNL     1       7.704   7.994  11.996  1.00  0.00     0.006 C 
BRANCH   3   4
ATOM      4  C   UNL     1       7.837   6.519  11.593  1.00  0.00     0.053 C 
BRANCH   4   5
ATOM      5  C   UNL     1       6.860   5.681  12.355  1.00  0.00     0.041 C 
ATOM      6  O   UNL     1       7.266   4.877  13.234  1.00  0.00    -0.550 OA
ATOM      7  O   UNL     1       5.504   5.752  12.059  1.00  0.00    -0.550 OA
ENDBRANCH   4   5
ENDBRANCH   3   4
ENDBRANCH   2   3
ENDBRANCH   1   2
BRANCH   1   8
ATOM      8  C   UNL     1       7.074   7.823  15.665  1.00  0.00     0.000 C 
BRANCH   8   9
ATOM      9  C   UNL     1       5.890   6.843  15.781  1.00  0.00     0.006 C 
BRANCH   9  10
ATOM     10  C   UNL     1       4.605   7.324  15.083  1.00  0.00     0.053 C 
BRANCH  10  11
ATOM     11  C   UNL     1       3.456   7.483  16.034  1.00  0.00     0.041 C 
ATOM     12  O   UNL     1       2.450   8.167  15.706  1.00  0.00    -0.550 OA
ATOM     13  O   UNL     1       3.477   6.841  17.266  1.00  0.00    -0.550 OA
ENDBRANCH  10  11
ENDBRANCH   9  10
ENDBRANCH   8   9
ENDBRANCH   1   8
TORSDOF 8
ENDMDL
MODEL 7
REMARK VINA RESULT:    -4.001      1.735      2.603
REMARK INTER + INTRA:          -6.518
REMARK INTER:                  -6.043
REMARK INTRA:                  -0.475
REMARK UNBOUND:                -0.645
REMARK SMILES O=C([O-])CCCCCCCC(=O)[O-]
REMARK SMILES IDX 7 1 6 2 5 3 4 4 2 5 1 6 3 7 8 8 9 9 10 10 11 11 12 12 13 13
REMARK H PARENT
REMARK Flexibility Score: inf
ROOT
ATOM      1  C   UNL     1      10.906   6.330  26.957  1.00  0.00     0.000 C 
ENDROOT
BRANCH   1   2
ATOM      2  C   UNL     1       9.676   5.520  27.402  1.00  0.00     0.000 C 
BRANCH   2   3
ATOM      3  C   UNL     1      10.056   4.172  28.035  1.00  0.00     0.006 C 
BRANCH   3   4
ATOM      4  C   UNL     1       9.669   4.083  29.517  1.00  0.00     0.053 C 
BRANCH   4   5
ATOM      5  C   UNL     1      10.678   4.795  30.362  1.00  0.00     0.041 C 
ATOM      6  O   UNL     1      10.335   5.790  31.053  1.00  0.00    -0.550 OA
ATOM      7  O   UNL     1      12.006   4.390  30.348  1.00  0.00    -0.550 OA
ENDBRANCH   4   5
ENDBRANCH   3   4
ENDBRANCH   2   3
ENDBRANCH   1   2
BRANCH   1   8
ATOM      8  C   UNL     1      12.214   5.522  27.025  1.00  0.00     0.000 C 
BRANCH   8   9
ATOM      9  C   UNL     1      13.509   6.357  27.015  1.00  0.00     0.006 C 
BRANCH   9  10
ATOM     10  C   UNL     1      13.569   7.411  25.894  1.00  0.00     0.053 C 
BRANCH  10  11
ATOM     11  C   UNL     1      14.973   7.736  25.479  1.00  0.00     0.041 C 
ATOM     12  O   UNL     1      15.840   8.026  26.345  1.00  0.00    -0.550 OA
ATOM     13  O   UNL     1      15.335   7.675  24.139  1.00  0.00    -0.550 OA
ENDBRANCH  10  11
ENDBRANCH   9  10
ENDBRANCH   8   9
ENDBRANCH   1   8
TORSDOF 8
ENDMDL
MODEL 8
REMARK VINA RESULT:    -3.930      1.535      4.958
REMARK INTER + INTRA:          -6.414
REMARK INTER:                  -5.901
REMARK INTRA:                  -0.512
REMARK UNBOUND:                -0.645
REMARK SMILES O=C([O-])CCCCCCCC(=O)[O-]
REMARK SMILES IDX 7 1 6 2 5 3 4 4 2 5 1 6 3 7 8 8 9 9 10 10 11 11 12 12 13 13
REMARK H PARENT
REMARK Flexibility Score: inf
ROOT
ATOM      1  C   UNL     1      10.501   7.560  27.560  1.00  0.00     0.000 C 
ENDROOT
BRANCH   1   2
ATOM      2  C   UNL     1      11.293   8.396  26.539  1.00  0.00     0.000 C 
BRANCH   2   3
ATOM      3  C   UNL     1      11.842   7.547  25.381  1.00  0.00     0.006 C 
BRANCH   3   4
ATOM      4  C   UNL     1      13.372   7.434  25.403  1.00  0.00     0.053 C 
BRANCH   4   5
ATOM      5  C   UNL     1      13.804   6.394  26.388  1.00  0.00     0.041 C 
ATOM      6  O   UNL     1      14.470   6.721  27.405  1.00  0.00    -0.550 OA
ATOM      7  O   UNL     1      13.514   5.055  26.157  1.00  0.00    -0.550 OA
ENDBRANCH   4   5
ENDBRANCH   3   4
ENDBRANCH   2   3
ENDBRANCH   1   2
BRANCH   1   8
ATOM      8  C   UNL     1      10.260   6.114  27.092  1.00  0.00     0.000 C 
BRANCH   8   9
ATOM      9  C   UNL     1       9.034   5.414  27.712  1.00  0.00     0.006 C 
BRANCH   9  10
ATOM     10  C   UNL     1       9.377   4.162  28.540  1.00  0.00     0.053 C 
BRANCH  10  11
ATOM     11  C   UNL     1       9.757   4.489  29.953  1.00  0.00     0.041 C 
ATOM     12  O   UNL     1      10.488   3.703  30.612  1.00  0.00    -0.550 OA
ATOM     13  O   UNL     1       9.340   5.683  30.528  1.00  0.00    -0.550 OA
ENDBRANCH  10  11
ENDBRANCH   9  10
ENDBRANCH   8   9
ENDBRANCH   1   8
TORSDOF 8
ENDMDL
MODEL 9
REMARK VINA RESULT:    -3.913      1.784      5.734
REMARK INTER + INTRA:          -6.389
REMARK INTER:                  -5.888
REMARK INTRA:                  -0.501
REMARK UNBOUND:                -0.645
REMARK SMILES O=C([O-])CCCCCCCC(=O)[O-]
REMARK SMILES IDX 7 1 6 2 5 3 4 4 2 5 1 6 3 7 8 8 9 9 10 10 11 11 12 12 13 13
REMARK H PARENT
REMARK Flexibility Score: inf
ROOT
ATOM      1  C   UNL     1      11.403   6.955  27.058  1.00  0.00     0.000 C 
ENDROOT
BRANCH   1   2
ATOM      2  C   UNL     1      12.622   6.016  27.040  1.00  0.00     0.000 C 
BRANCH   2   3
ATOM      3  C   UNL     1      13.501   6.218  25.795  1.00  0.00     0.006 C 
BRANCH   3   4
ATOM      4  C   UNL     1      13.783   7.697  25.502  1.00  0.00     0.053 C 
BRANCH   4   5
ATOM      5  C   UNL     1      15.241   7.907  25.237  1.00  0.00     0.041 C 
ATOM      6  O   UNL     1      15.996   8.331  26.150  1.00  0.00    -0.550 OA
ATOM      7  O   UNL     1      15.755   7.682  23.966  1.00  0.00    -0.550 OA
ENDBRANCH   4   5
ENDBRANCH   3   4
ENDBRANCH   2   3
ENDBRANCH   1   2
BRANCH   1   8
ATOM      8  C   UNL     1      10.093   6.229  27.411  1.00  0.00     0.000 C 
BRANCH   8   9
ATOM      9  C   UNL     1      10.144   4.691  27.322  1.00  0.00     0.006 C 
BRANCH   9  10
ATOM     10  C   UNL     1       9.684   3.970  28.603  1.00  0.00     0.053 C 
BRANCH  10  11
ATOM     11  C   UNL     1      10.298   4.548  29.843  1.00  0.00     0.041 C 
ATOM     12  O   UNL     1       9.572   5.085  30.721  1.00  0.00    -0.550 OA
ATOM     13  O   UNL     1      11.669   4.456  30.049  1.00  0.00    -0.550 OA
ENDBRANCH  10  11
ENDBRANCH   9  10
ENDBRANCH   8   9
ENDBRANCH   1   8
TORSDOF 8
ENDMDL
