MODEL 1
REMARK VINA RESULT:    -6.839      0.000      0.000
REMARK INTER + INTRA:          -8.797
REMARK INTER:                  -8.438
REMARK INTRA:                  -0.359
REMARK UNBOUND:                -0.359
REMARK SMILES O=C1c2c(O)cc(O)cc2O[C@@H](c2cc(O)c(O)c(O)c2)[C@@H]1O
REMARK SMILES IDX 12 1 22 2 2 3 1 4 3 5 4 6 6 7 7 8 9 9 10 10 11 11 13 12
REMARK SMILES IDX 14 13 15 14 21 15 17 16 19 17 16 18 18 20 20 22 23 24 5 26
REMARK SMILES IDX 8 28
REMARK H PARENT 16 19 18 21 20 23 23 25 5 27 8 29
REMARK Flexibility Score: inf
ROOT
ATOM      1  C   UNL     1     -23.129  61.253  33.188  1.00  0.00     0.240 C 
ATOM      2  C   UNL     1     -23.780  60.646  31.933  1.00  0.00     0.231 C 
ATOM      3  C   UNL     1     -25.232  61.054  31.836  1.00  0.00     0.202 C 
ATOM      4  O   UNL     1     -25.798  60.980  30.715  1.00  0.00    -0.291 OA
ATOM      5  C   UNL     1     -26.005  61.377  33.072  1.00  0.00     0.105 A 
ATOM      6  C   UNL     1     -27.388  61.711  33.085  1.00  0.00     0.133 A 
ATOM      7  C   UNL     1     -28.065  61.796  34.308  1.00  0.00     0.093 A 
ATOM      8  C   UNL     1     -27.389  61.609  35.518  1.00  0.00     0.123 A 
ATOM      9  C   UNL     1     -26.021  61.346  35.512  1.00  0.00     0.093 A 
ATOM     10  C   UNL     1     -25.327  61.249  34.304  1.00  0.00     0.138 A 
ATOM     11  O   UNL     1     -23.949  61.018  34.331  1.00  0.00    -0.481 OA
ENDROOT
BRANCH   1  12
ATOM     12  C   UNL     1     -21.751  60.679  33.418  1.00  0.00     0.003 A 
ATOM     13  C   UNL     1     -21.533  59.293  33.342  1.00  0.00     0.058 A 
ATOM     14  C   UNL     1     -20.249  58.762  33.528  1.00  0.00     0.161 A 
ATOM     15  C   UNL     1     -20.662  61.531  33.659  1.00  0.00     0.058 A 
ATOM     16  C   UNL     1     -19.167  59.622  33.783  1.00  0.00     0.200 A 
ATOM     17  C   UNL     1     -19.375  61.006  33.846  1.00  0.00     0.161 A 
BRANCH  14  18
ATOM     18  O   UNL     1     -20.045  57.386  33.457  1.00  0.00    -0.504 OA
ATOM     19  H   UNL     1     -20.820  56.736  33.396  1.00  0.00     0.293 HD
ENDBRANCH  14  18
BRANCH  16  20
ATOM     20  O   UNL     1     -17.880  59.117  33.972  1.00  0.00    -0.502 OA
ATOM     21  H   UNL     1     -17.699  58.126  34.074  1.00  0.00     0.293 HD
ENDBRANCH  16  20
BRANCH  17  22
ATOM     22  O   UNL     1     -18.298  61.855  34.092  1.00  0.00    -0.504 OA
ATOM     23  H   UNL     1     -17.657  62.126  33.355  1.00  0.00     0.293 HD
ENDBRANCH  17  22
ENDBRANCH   1  12
BRANCH   2  24
ATOM     24  O   UNL     1     -23.079  61.077  30.794  1.00  0.00    -0.381 OA
ATOM     25  H   UNL     1     -23.129  62.069  30.782  1.00  0.00     0.211 HD
ENDBRANCH   2  24
BRANCH   6  26
ATOM     26  O   UNL     1     -28.122  61.990  31.931  1.00  0.00    -0.507 OA
ATOM     27  H   UNL     1     -28.905  62.626  31.897  1.00  0.00     0.293 HD
ENDBRANCH   6  26
BRANCH   8  28
ATOM     28  O   UNL     1     -28.068  61.696  36.732  1.00  0.00    -0.508 OA
ATOM     29  H   UNL     1     -27.797  62.364  37.444  1.00  0.00     0.293 HD
ENDBRANCH   8  28
TORSDOF 7
ENDMDL
MODEL 2
REMARK VINA RESULT:    -6.795      1.449      2.125
REMARK INTER + INTRA:          -8.743
REMARK INTER:                  -8.366
REMARK INTRA:                  -0.377
REMARK UNBOUND:                -0.359
REMARK SMILES O=C1c2c(O)cc(O)cc2O[C@@H](c2cc(O)c(O)c(O)c2)[C@@H]1O
REMARK SMILES IDX 12 1 22 2 2 3 1 4 3 5 4 6 6 7 7 8 9 9 10 10 11 11 13 12
REMARK SMILES IDX 14 13 15 14 21 15 17 16 19 17 16 18 18 20 20 22 23 24 5 26
REMARK SMILES IDX 8 28
REMARK H PARENT 16 19 18 21 20 23 23 25 5 27 8 29
REMARK Flexibility Score: inf
ROOT
ATOM      1  C   UNL     1     -23.101  60.531  33.656  1.00  0.00     0.240 C 
ATOM      2  C   UNL     1     -23.663  59.262  32.992  1.00  0.00     0.231 C 
ATOM      3  C   UNL     1     -25.147  59.404  32.744  1.00  0.00     0.202 C 
ATOM      4  O   UNL     1     -25.682  58.655  31.885  1.00  0.00    -0.291 OA
ATOM      5  C   UNL     1     -25.972  60.293  33.614  1.00  0.00     0.105 A 
ATOM      6  C   UNL     1     -27.382  60.444  33.495  1.00  0.00     0.133 A 
ATOM      7  C   UNL     1     -28.087  61.140  34.485  1.00  0.00     0.093 A 
ATOM      8  C   UNL     1     -27.418  61.735  35.559  1.00  0.00     0.123 A 
ATOM      9  C   UNL     1     -26.031  61.647  35.644  1.00  0.00     0.093 A 
ATOM     10  C   UNL     1     -25.308  60.950  34.673  1.00  0.00     0.138 A 
ATOM     11  O   UNL     1     -23.914  60.906  34.767  1.00  0.00    -0.481 OA
ENDROOT
BRANCH   1  12
ATOM     12  C   UNL     1     -21.676  60.322  34.111  1.00  0.00     0.003 A 
ATOM     13  C   UNL     1     -20.667  61.226  33.734  1.00  0.00     0.058 A 
ATOM     14  C   UNL     1     -19.350  61.048  34.179  1.00  0.00     0.161 A 
ATOM     15  C   UNL     1     -21.354  59.251  34.958  1.00  0.00     0.058 A 
ATOM     16  C   UNL     1     -19.033  59.964  35.016  1.00  0.00     0.200 A 
ATOM     17  C   UNL     1     -20.038  59.068  35.405  1.00  0.00     0.161 A 
BRANCH  14  18
ATOM     18  O   UNL     1     -18.356  61.946  33.794  1.00  0.00    -0.504 OA
ATOM     19  H   UNL     1     -17.459  61.629  33.444  1.00  0.00     0.293 HD
ENDBRANCH  14  18
BRANCH  16  20
ATOM     20  O   UNL     1     -17.729  59.766  35.470  1.00  0.00    -0.502 OA
ATOM     21  H   UNL     1     -17.244  58.885  35.348  1.00  0.00     0.293 HD
ENDBRANCH  16  20
BRANCH  17  22
ATOM     22  O   UNL     1     -19.721  57.999  36.241  1.00  0.00    -0.504 OA
ATOM     23  H   UNL     1     -20.271  57.147  36.245  1.00  0.00     0.293 HD
ENDBRANCH  17  22
ENDBRANCH   1  12
BRANCH   2  24
ATOM     24  O   UNL     1     -22.989  59.038  31.780  1.00  0.00    -0.381 OA
ATOM     25  H   UNL     1     -23.282  59.747  31.150  1.00  0.00     0.211 HD
ENDBRANCH   2  24
BRANCH   6  26
ATOM     26  O   UNL     1     -28.119  59.949  32.418  1.00  0.00    -0.507 OA
ATOM     27  H   UNL     1     -28.904  60.427  32.001  1.00  0.00     0.293 HD
ENDBRANCH   6  26
BRANCH   8  28
ATOM     28  O   UNL     1     -28.124  62.428  36.540  1.00  0.00    -0.508 OA
ATOM     29  H   UNL     1     -27.909  63.392  36.766  1.00  0.00     0.293 HD
ENDBRANCH   8  28
TORSDOF 7
ENDMDL
MODEL 3
REMARK VINA RESULT:    -6.670      1.732      3.336
REMARK INTER + INTRA:          -8.588
REMARK INTER:                  -8.324
REMARK INTRA:                  -0.264
REMARK UNBOUND:                -0.359
REMARK SMILES O=C1c2c(O)cc(O)cc2O[C@@H](c2cc(O)c(O)c(O)c2)[C@@H]1O
REMARK SMILES IDX 12 1 22 2 2 3 1 4 3 5 4 6 6 7 7 8 9 9 10 10 11 11 13 12
REMARK SMILES IDX 14 13 15 14 21 15 17 16 19 17 16 18 18 20 20 22 23 24 5 26
REMARK SMILES IDX 8 28
REMARK H PARENT 16 19 18 21 20 23 23 25 5 27 8 29
REMARK Flexibility Score: inf
ROOT
ATOM      1  C   UNL     1     -22.849  59.896  34.492  1.00  0.00     0.240 C 
ATOM      2  C   UNL     1     -23.684  60.742  35.469  1.00  0.00     0.231 C 
ATOM      3  C   UNL     1     -25.104  60.883  34.971  1.00  0.00     0.202 C 
ATOM      4  O   UNL     1     -25.998  61.197  35.800  1.00  0.00    -0.291 OA
ATOM      5  C   UNL     1     -25.397  60.814  33.508  1.00  0.00     0.105 A 
ATOM      6  C   UNL     1     -26.690  60.995  32.943  1.00  0.00     0.133 A 
ATOM      7  C   UNL     1     -26.825  61.114  31.554  1.00  0.00     0.093 A 
ATOM      8  C   UNL     1     -25.713  61.002  30.712  1.00  0.00     0.123 A 
ATOM      9  C   UNL     1     -24.455  60.758  31.259  1.00  0.00     0.093 A 
ATOM     10  C   UNL     1     -24.296  60.645  32.641  1.00  0.00     0.138 A 
ATOM     11  O   UNL     1     -23.027  60.367  33.157  1.00  0.00    -0.481 OA
ENDROOT
BRANCH   1  12
ATOM     12  C   UNL     1     -21.384  59.930  34.857  1.00  0.00     0.003 A 
ATOM     13  C   UNL     1     -20.833  58.939  35.687  1.00  0.00     0.058 A 
ATOM     14  C   UNL     1     -19.467  58.954  36.004  1.00  0.00     0.161 A 
ATOM     15  C   UNL     1     -20.547  60.924  34.328  1.00  0.00     0.058 A 
ATOM     16  C   UNL     1     -18.639  59.962  35.481  1.00  0.00     0.200 A 
ATOM     17  C   UNL     1     -19.180  60.944  34.642  1.00  0.00     0.161 A 
BRANCH  14  18
ATOM     18  O   UNL     1     -18.932  57.971  36.833  1.00  0.00    -0.504 OA
ATOM     19  H   UNL     1     -19.271  57.829  37.777  1.00  0.00     0.293 HD
ENDBRANCH  14  18
BRANCH  16  20
ATOM     20  O   UNL     1     -17.277  59.998  35.783  1.00  0.00    -0.502 OA
ATOM     21  H   UNL     1     -16.708  59.161  35.810  1.00  0.00     0.293 HD
ENDBRANCH  16  20
BRANCH  17  22
ATOM     22  O   UNL     1     -18.354  61.937  34.120  1.00  0.00    -0.504 OA
ATOM     23  H   UNL     1     -18.730  62.805  33.756  1.00  0.00     0.293 HD
ENDBRANCH  17  22
ENDBRANCH   1  12
BRANCH   2  24
ATOM     24  O   UNL     1     -23.674  60.130  36.734  1.00  0.00    -0.381 OA
ATOM     25  H   UNL     1     -23.447  59.174  36.592  1.00  0.00     0.211 HD
ENDBRANCH   2  24
BRANCH   6  26
ATOM     26  O   UNL     1     -27.862  61.040  33.701  1.00  0.00    -0.507 OA
ATOM     27  H   UNL     1     -27.893  61.272  34.683  1.00  0.00     0.293 HD
ENDBRANCH   6  26
BRANCH   8  28
ATOM     28  O   UNL     1     -25.853  61.119  29.331  1.00  0.00    -0.508 OA
ATOM     29  H   UNL     1     -25.449  61.896  28.822  1.00  0.00     0.293 HD
ENDBRANCH   8  28
TORSDOF 7
ENDMDL
MODEL 4
REMARK VINA RESULT:    -6.562     16.450     19.489
REMARK INTER + INTRA:          -8.455
REMARK INTER:                  -8.333
REMARK INTRA:                  -0.122
REMARK UNBOUND:                -0.359
REMARK SMILES O=C1c2c(O)cc(O)cc2O[C@@H](c2cc(O)c(O)c(O)c2)[C@@H]1O
REMARK SMILES IDX 12 1 22 2 2 3 1 4 3 5 4 6 6 7 7 8 9 9 10 10 11 11 13 12
REMARK SMILES IDX 14 13 15 14 21 15 17 16 19 17 16 18 18 20 20 22 23 24 5 26
REMARK SMILES IDX 8 28
REMARK H PARENT 16 19 18 21 20 23 23 25 5 27 8 29
REMARK Flexibility Score: inf
ROOT
ATOM      1  C   UNL     1     -14.573  45.611  25.856  1.00  0.00     0.240 C 
ATOM      2  C   UNL     1     -15.053  47.067  25.988  1.00  0.00     0.231 C 
ATOM      3  C   UNL     1     -15.767  47.274  27.303  1.00  0.00     0.202 C 
ATOM      4  O   UNL     1     -15.879  48.449  27.742  1.00  0.00    -0.291 OA
ATOM      5  C   UNL     1     -16.460  46.131  27.970  1.00  0.00     0.105 A 
ATOM      6  C   UNL     1     -17.207  46.243  29.175  1.00  0.00     0.133 A 
ATOM      7  C   UNL     1     -17.985  45.161  29.608  1.00  0.00     0.093 A 
ATOM      8  C   UNL     1     -17.994  43.955  28.899  1.00  0.00     0.123 A 
ATOM      9  C   UNL     1     -17.211  43.820  27.755  1.00  0.00     0.093 A 
ATOM     10  C   UNL     1     -16.435  44.888  27.301  1.00  0.00     0.138 A 
ATOM     11  O   UNL     1     -15.635  44.712  26.168  1.00  0.00    -0.481 OA
ENDROOT
BRANCH   1  12
ATOM     12  C   UNL     1     -14.057  45.332  24.464  1.00  0.00     0.003 A 
ATOM     13  C   UNL     1     -12.766  45.742  24.086  1.00  0.00     0.058 A 
ATOM     14  C   UNL     1     -12.276  45.458  22.803  1.00  0.00     0.161 A 
ATOM     15  C   UNL     1     -14.843  44.614  23.550  1.00  0.00     0.058 A 
ATOM     16  C   UNL     1     -13.076  44.750  21.889  1.00  0.00     0.200 A 
ATOM     17  C   UNL     1     -14.357  44.328  22.265  1.00  0.00     0.161 A 
BRANCH  14  18
ATOM     18  O   UNL     1     -10.998  45.874  22.436  1.00  0.00    -0.504 OA
ATOM     19  H   UNL     1     -10.828  46.800  22.060  1.00  0.00     0.293 HD
ENDBRANCH  14  18
BRANCH  16  20
ATOM     20  O   UNL     1     -12.611  44.457  20.607  1.00  0.00    -0.502 OA
ATOM     21  H   UNL     1     -12.201  43.561  20.374  1.00  0.00     0.293 HD
ENDBRANCH  16  20
BRANCH  17  22
ATOM     22  O   UNL     1     -15.144  43.620  21.358  1.00  0.00    -0.504 OA
ATOM     23  H   UNL     1     -15.778  42.890  21.662  1.00  0.00     0.293 HD
ENDBRANCH  17  22
ENDBRANCH   1  12
BRANCH   2  24
ATOM     24  O   UNL     1     -13.946  47.928  25.897  1.00  0.00    -0.381 OA
ATOM     25  H   UNL     1     -13.205  47.406  25.491  1.00  0.00     0.211 HD
ENDBRANCH   2  24
BRANCH   6  26
ATOM     26  O   UNL     1     -17.195  47.381  29.985  1.00  0.00    -0.507 OA
ATOM     27  H   UNL     1     -17.117  47.360  30.990  1.00  0.00     0.293 HD
ENDBRANCH   6  26
BRANCH   8  28
ATOM     28  O   UNL     1     -18.768  42.881  29.335  1.00  0.00    -0.508 OA
ATOM     29  H   UNL     1     -18.349  41.994  29.587  1.00  0.00     0.293 HD
ENDBRANCH   8  28
TORSDOF 7
ENDMDL
MODEL 5
REMARK VINA RESULT:    -6.533     16.453     19.445
REMARK INTER + INTRA:          -8.419
REMARK INTER:                  -8.317
REMARK INTRA:                  -0.101
REMARK UNBOUND:                -0.359
REMARK SMILES O=C1c2c(O)cc(O)cc2O[C@@H](c2cc(O)c(O)c(O)c2)[C@@H]1O
REMARK SMILES IDX 12 1 22 2 2 3 1 4 3 5 4 6 6 7 7 8 9 9 10 10 11 11 13 12
REMARK SMILES IDX 14 13 15 14 21 15 17 16 19 17 16 18 18 20 20 22 23 24 5 26
REMARK SMILES IDX 8 28
REMARK H PARENT 16 19 18 21 20 23 23 25 5 27 8 29
REMARK Flexibility Score: inf
ROOT
ATOM      1  C   UNL     1     -14.554  45.560  25.860  1.00  0.00     0.240 C 
ATOM      2  C   UNL     1     -15.023  47.021  25.973  1.00  0.00     0.231 C 
ATOM      3  C   UNL     1     -15.718  47.255  27.295  1.00  0.00     0.202 C 
ATOM      4  O   UNL     1     -15.817  48.438  27.715  1.00  0.00    -0.291 OA
ATOM      5  C   UNL     1     -16.409  46.129  27.990  1.00  0.00     0.105 A 
ATOM      6  C   UNL     1     -17.139  46.266  29.203  1.00  0.00     0.133 A 
ATOM      7  C   UNL     1     -17.917  45.197  29.665  1.00  0.00     0.093 A 
ATOM      8  C   UNL     1     -17.944  43.979  28.978  1.00  0.00     0.123 A 
ATOM      9  C   UNL     1     -17.178  43.820  27.825  1.00  0.00     0.093 A 
ATOM     10  C   UNL     1     -16.401  44.875  27.342  1.00  0.00     0.138 A 
ATOM     11  O   UNL     1     -15.618  44.674  26.202  1.00  0.00    -0.481 OA
ENDROOT
BRANCH   1  12
ATOM     12  C   UNL     1     -14.059  45.254  24.466  1.00  0.00     0.003 A 
ATOM     13  C   UNL     1     -14.887  44.589  23.545  1.00  0.00     0.058 A 
ATOM     14  C   UNL     1     -14.438  44.330  22.242  1.00  0.00     0.161 A 
ATOM     15  C   UNL     1     -12.784  45.676  24.061  1.00  0.00     0.058 A 
ATOM     16  C   UNL     1     -13.154  44.745  21.849  1.00  0.00     0.200 A 
ATOM     17  C   UNL     1     -12.330  45.419  22.759  1.00  0.00     0.161 A 
BRANCH  14  18
ATOM     18  O   UNL     1     -15.264  43.665  21.339  1.00  0.00    -0.504 OA
ATOM     19  H   UNL     1     -14.994  43.531  20.371  1.00  0.00     0.293 HD
ENDBRANCH  14  18
BRANCH  16  20
ATOM     20  O   UNL     1     -12.685  44.497  20.559  1.00  0.00    -0.502 OA
ATOM     21  H   UNL     1     -12.369  43.580  20.267  1.00  0.00     0.293 HD
ENDBRANCH  16  20
BRANCH  17  22
ATOM     22  O   UNL     1     -11.061  45.835  22.362  1.00  0.00    -0.504 OA
ATOM     23  H   UNL     1     -10.356  46.111  23.038  1.00  0.00     0.293 HD
ENDBRANCH  17  22
ENDBRANCH   1  12
BRANCH   2  24
ATOM     24  O   UNL     1     -13.912  47.873  25.853  1.00  0.00    -0.381 OA
ATOM     25  H   UNL     1     -14.265  48.786  25.684  1.00  0.00     0.211 HD
ENDBRANCH   2  24
BRANCH   6  26
ATOM     26  O   UNL     1     -17.109  47.417  29.993  1.00  0.00    -0.507 OA
ATOM     27  H   UNL     1     -17.511  47.483  30.916  1.00  0.00     0.293 HD
ENDBRANCH   6  26
BRANCH   8  28
ATOM     28  O   UNL     1     -18.719  42.918  29.441  1.00  0.00    -0.508 OA
ATOM     29  H   UNL     1     -19.719  43.011  29.573  1.00  0.00     0.293 HD
ENDBRANCH   8  28
TORSDOF 7
ENDMDL
MODEL 6
REMARK VINA RESULT:    -6.491      3.002      5.330
REMARK INTER + INTRA:          -8.368
REMARK INTER:                  -8.040
REMARK INTRA:                  -0.329
REMARK UNBOUND:                -0.359
REMARK SMILES O=C1c2c(O)cc(O)cc2O[C@@H](c2cc(O)c(O)c(O)c2)[C@@H]1O
REMARK SMILES IDX 12 1 22 2 2 3 1 4 3 5 4 6 6 7 7 8 9 9 10 10 11 11 13 12
REMARK SMILES IDX 14 13 15 14 21 15 17 16 19 17 16 18 18 20 20 22 23 24 5 26
REMARK SMILES IDX 8 28
REMARK H PARENT 16 19 18 21 20 23 23 25 5 27 8 29
REMARK Flexibility Score: inf
ROOT
ATOM      1  C   UNL     1     -23.936  61.075  30.886  1.00  0.00     0.240 C 
ATOM      2  C   UNL     1     -25.364  60.568  31.150  1.00  0.00     0.231 C 
ATOM      3  C   UNL     1     -25.757  60.814  32.589  1.00  0.00     0.202 C 
ATOM      4  O   UNL     1     -26.983  60.824  32.878  1.00  0.00    -0.291 OA
ATOM      5  C   UNL     1     -24.712  60.877  33.653  1.00  0.00     0.105 A 
ATOM      6  C   UNL     1     -24.991  61.043  35.038  1.00  0.00     0.133 A 
ATOM      7  C   UNL     1     -23.960  60.885  35.973  1.00  0.00     0.093 A 
ATOM      8  C   UNL     1     -22.651  60.619  35.560  1.00  0.00     0.123 A 
ATOM      9  C   UNL     1     -22.362  60.521  34.201  1.00  0.00     0.093 A 
ATOM     10  C   UNL     1     -23.375  60.667  33.251  1.00  0.00     0.138 A 
ATOM     11  O   UNL     1     -23.048  60.596  31.894  1.00  0.00    -0.481 OA
ENDROOT
BRANCH   1  12
ATOM     12  C   UNL     1     -23.447  60.641  29.524  1.00  0.00     0.003 A 
ATOM     13  C   UNL     1     -22.674  61.508  28.733  1.00  0.00     0.058 A 
ATOM     14  C   UNL     1     -22.196  61.095  27.481  1.00  0.00     0.161 A 
ATOM     15  C   UNL     1     -23.719  59.346  29.056  1.00  0.00     0.058 A 
ATOM     16  C   UNL     1     -22.485  59.801  27.014  1.00  0.00     0.200 A 
ATOM     17  C   UNL     1     -23.244  58.928  27.804  1.00  0.00     0.161 A 
BRANCH  14  18
ATOM     18  O   UNL     1     -21.436  61.964  26.702  1.00  0.00    -0.504 OA
ATOM     19  H   UNL     1     -21.822  62.828  26.339  1.00  0.00     0.293 HD
ENDBRANCH  14  18
BRANCH  16  20
ATOM     20  O   UNL     1     -22.022  59.368  25.772  1.00  0.00    -0.502 OA
ATOM     21  H   UNL     1     -21.660  60.010  25.078  1.00  0.00     0.293 HD
ENDBRANCH  16  20
BRANCH  17  22
ATOM     22  O   UNL     1     -23.521  57.643  27.341  1.00  0.00    -0.504 OA
ATOM     23  H   UNL     1     -24.386  57.428  26.856  1.00  0.00     0.293 HD
ENDBRANCH  17  22
ENDBRANCH   1  12
BRANCH   2  24
ATOM     24  O   UNL     1     -26.255  61.226  30.285  1.00  0.00    -0.381 OA
ATOM     25  H   UNL     1     -25.814  62.069  30.001  1.00  0.00     0.211 HD
ENDBRANCH   2  24
BRANCH   6  26
ATOM     26  O   UNL     1     -26.251  61.385  35.533  1.00  0.00    -0.507 OA
ATOM     27  H   UNL     1     -27.121  61.045  35.152  1.00  0.00     0.293 HD
ENDBRANCH   6  26
BRANCH   8  28
ATOM     28  O   UNL     1     -21.628  60.464  36.494  1.00  0.00    -0.508 OA
ATOM     29  H   UNL     1     -20.661  60.369  36.209  1.00  0.00     0.293 HD
ENDBRANCH   8  28
TORSDOF 7
ENDMDL
MODEL 7
REMARK VINA RESULT:    -6.407      1.582      7.106
REMARK INTER + INTRA:          -8.264
REMARK INTER:                  -7.942
REMARK INTRA:                  -0.322
REMARK UNBOUND:                -0.359
REMARK SMILES O=C1c2c(O)cc(O)cc2O[C@@H](c2cc(O)c(O)c(O)c2)[C@@H]1O
REMARK SMILES IDX 12 1 22 2 2 3 1 4 3 5 4 6 6 7 7 8 9 9 10 10 11 11 13 12
REMARK SMILES IDX 14 13 15 14 21 15 17 16 19 17 16 18 18 20 20 22 23 24 5 26
REMARK SMILES IDX 8 28
REMARK H PARENT 16 19 18 21 20 23 23 25 5 27 8 29
REMARK Flexibility Score: inf
ROOT
ATOM      1  C   UNL     1     -23.641  59.496  34.120  1.00  0.00     0.240 C 
ATOM      2  C   UNL     1     -23.328  58.279  33.232  1.00  0.00     0.231 C 
ATOM      3  C   UNL     1     -22.006  57.661  33.625  1.00  0.00     0.202 C 
ATOM      4  O   UNL     1     -21.781  56.470  33.285  1.00  0.00    -0.291 OA
ATOM      5  C   UNL     1     -20.941  58.500  34.251  1.00  0.00     0.105 A 
ATOM      6  C   UNL     1     -19.647  58.021  34.597  1.00  0.00     0.133 A 
ATOM      7  C   UNL     1     -18.657  58.932  34.989  1.00  0.00     0.093 A 
ATOM      8  C   UNL     1     -18.939  60.297  35.095  1.00  0.00     0.123 A 
ATOM      9  C   UNL     1     -20.223  60.761  34.820  1.00  0.00     0.093 A 
ATOM     10  C   UNL     1     -21.224  59.873  34.420  1.00  0.00     0.138 A 
ATOM     11  O   UNL     1     -22.511  60.363  34.183  1.00  0.00    -0.481 OA
ENDROOT
BRANCH   1  12
ATOM     12  C   UNL     1     -24.841  60.254  33.602  1.00  0.00     0.003 A 
ATOM     13  C   UNL     1     -25.767  60.821  34.495  1.00  0.00     0.058 A 
ATOM     14  C   UNL     1     -26.865  61.548  34.014  1.00  0.00     0.161 A 
ATOM     15  C   UNL     1     -25.016  60.442  32.222  1.00  0.00     0.058 A 
ATOM     16  C   UNL     1     -27.039  61.721  32.631  1.00  0.00     0.200 A 
ATOM     17  C   UNL     1     -26.113  61.168  31.737  1.00  0.00     0.161 A 
BRANCH  14  18
ATOM     18  O   UNL     1     -27.780  62.102  34.907  1.00  0.00    -0.504 OA
ATOM     19  H   UNL     1     -28.654  61.638  35.129  1.00  0.00     0.293 HD
ENDBRANCH  14  18
BRANCH  16  20
ATOM     20  O   UNL     1     -28.125  62.439  32.129  1.00  0.00    -0.502 OA
ATOM     21  H   UNL     1     -28.873  61.994  31.611  1.00  0.00     0.293 HD
ENDBRANCH  16  20
BRANCH  17  22
ATOM     22  O   UNL     1     -26.286  61.348  30.366  1.00  0.00    -0.504 OA
ATOM     23  H   UNL     1     -27.159  61.118  29.906  1.00  0.00     0.293 HD
ENDBRANCH  17  22
ENDBRANCH   1  12
BRANCH   2  24
ATOM     24  O   UNL     1     -24.361  57.335  33.361  1.00  0.00    -0.381 OA
ATOM     25  H   UNL     1     -24.784  57.488  34.247  1.00  0.00     0.211 HD
ENDBRANCH   2  24
BRANCH   6  26
ATOM     26  O   UNL     1     -19.301  56.668  34.594  1.00  0.00    -0.507 OA
ATOM     27  H   UNL     1     -18.457  56.300  34.183  1.00  0.00     0.293 HD
ENDBRANCH   6  26
BRANCH   8  28
ATOM     28  O   UNL     1     -17.951  61.198  35.486  1.00  0.00    -0.508 OA
ATOM     29  H   UNL     1     -17.052  61.235  35.019  1.00  0.00     0.293 HD
ENDBRANCH   8  28
TORSDOF 7
ENDMDL
MODEL 8
REMARK VINA RESULT:    -6.366      1.649      2.084
REMARK INTER + INTRA:          -8.214
REMARK INTER:                  -7.838
REMARK INTRA:                  -0.376
REMARK UNBOUND:                -0.359
REMARK SMILES O=C1c2c(O)cc(O)cc2O[C@@H](c2cc(O)c(O)c(O)c2)[C@@H]1O
REMARK SMILES IDX 12 1 22 2 2 3 1 4 3 5 4 6 6 7 7 8 9 9 10 10 11 11 13 12
REMARK SMILES IDX 14 13 15 14 21 15 17 16 19 17 16 18 18 20 20 22 23 24 5 26
REMARK SMILES IDX 8 28
REMARK H PARENT 16 19 18 21 20 23 23 25 5 27 8 29
REMARK Flexibility Score: inf
ROOT
ATOM      1  C   UNL     1     -21.736  61.173  33.173  1.00  0.00     0.240 C 
ATOM      2  C   UNL     1     -21.733  61.306  31.641  1.00  0.00     0.231 C 
ATOM      3  C   UNL     1     -23.078  61.786  31.145  1.00  0.00     0.202 C 
ATOM      4  O   UNL     1     -23.140  62.309  30.002  1.00  0.00    -0.291 OA
ATOM      5  C   UNL     1     -24.315  61.491  31.928  1.00  0.00     0.105 A 
ATOM      6  C   UNL     1     -25.628  61.848  31.513  1.00  0.00     0.133 A 
ATOM      7  C   UNL     1     -26.733  61.349  32.214  1.00  0.00     0.093 A 
ATOM      8  C   UNL     1     -26.562  60.549  33.349  1.00  0.00     0.123 A 
ATOM      9  C   UNL     1     -25.277  60.252  33.797  1.00  0.00     0.093 A 
ATOM     10  C   UNL     1     -24.161  60.732  33.109  1.00  0.00     0.138 A 
ATOM     11  O   UNL     1     -22.885  60.444  33.602  1.00  0.00    -0.481 OA
ENDROOT
BRANCH   1  12
ATOM     12  C   UNL     1     -20.482  60.489  33.663  1.00  0.00     0.003 A 
ATOM     13  C   UNL     1     -20.100  59.241  33.141  1.00  0.00     0.058 A 
ATOM     14  C   UNL     1     -18.921  58.618  33.575  1.00  0.00     0.161 A 
ATOM     15  C   UNL     1     -19.657  61.118  34.608  1.00  0.00     0.058 A 
ATOM     16  C   UNL     1     -18.108  59.249  34.531  1.00  0.00     0.200 A 
ATOM     17  C   UNL     1     -18.477  60.499  35.045  1.00  0.00     0.161 A 
BRANCH  14  18
ATOM     18  O   UNL     1     -18.555  57.378  33.056  1.00  0.00    -0.504 OA
ATOM     19  H   UNL     1     -19.219  56.790  32.566  1.00  0.00     0.293 HD
ENDBRANCH  14  18
BRANCH  16  20
ATOM     20  O   UNL     1     -16.931  58.649  34.979  1.00  0.00    -0.502 OA
ATOM     21  H   UNL     1     -16.061  58.718  34.465  1.00  0.00     0.293 HD
ENDBRANCH  16  20
BRANCH  17  22
ATOM     22  O   UNL     1     -17.663  61.124  35.988  1.00  0.00    -0.504 OA
ATOM     23  H   UNL     1     -16.805  61.593  35.723  1.00  0.00     0.293 HD
ENDBRANCH  17  22
ENDBRANCH   1  12
BRANCH   2  24
ATOM     24  O   UNL     1     -20.727  62.209  31.257  1.00  0.00    -0.381 OA
ATOM     25  H   UNL     1     -19.856  61.769  31.445  1.00  0.00     0.211 HD
ENDBRANCH   2  24
BRANCH   6  26
ATOM     26  O   UNL     1     -25.889  62.702  30.440  1.00  0.00    -0.507 OA
ATOM     27  H   UNL     1     -25.328  62.749  29.603  1.00  0.00     0.293 HD
ENDBRANCH   6  26
BRANCH   8  28
ATOM     28  O   UNL     1     -27.664  60.056  34.044  1.00  0.00    -0.508 OA
ATOM     29  H   UNL     1     -27.833  59.061  34.134  1.00  0.00     0.293 HD
ENDBRANCH   8  28
TORSDOF 7
ENDMDL
MODEL 9
REMARK VINA RESULT:    -6.359      3.412      7.001
REMARK INTER + INTRA:          -8.205
REMARK INTER:                  -7.985
REMARK INTRA:                  -0.221
REMARK UNBOUND:                -0.359
REMARK SMILES O=C1c2c(O)cc(O)cc2O[C@@H](c2cc(O)c(O)c(O)c2)[C@@H]1O
REMARK SMILES IDX 12 1 22 2 2 3 1 4 3 5 4 6 6 7 7 8 9 9 10 10 11 11 13 12
REMARK SMILES IDX 14 13 15 14 21 15 17 16 19 17 16 18 18 20 20 22 23 24 5 26
REMARK SMILES IDX 8 28
REMARK H PARENT 16 19 18 21 20 23 23 25 5 27 8 29
REMARK Flexibility Score: inf
ROOT
ATOM      1  C   UNL     1     -24.963  60.140  30.408  1.00  0.00     0.240 C 
ATOM      2  C   UNL     1     -24.016  61.187  29.797  1.00  0.00     0.231 C 
ATOM      3  C   UNL     1     -23.393  60.662  28.524  1.00  0.00     0.202 C 
ATOM      4  O   UNL     1     -22.915  61.492  27.708  1.00  0.00    -0.291 OA
ATOM      5  C   UNL     1     -23.208  59.193  28.329  1.00  0.00     0.105 A 
ATOM      6  C   UNL     1     -22.578  58.611  27.194  1.00  0.00     0.133 A 
ATOM      7  C   UNL     1     -22.272  57.244  27.201  1.00  0.00     0.093 A 
ATOM      8  C   UNL     1     -22.624  56.434  28.286  1.00  0.00     0.123 A 
ATOM      9  C   UNL     1     -23.300  56.989  29.371  1.00  0.00     0.093 A 
ATOM     10  C   UNL     1     -23.608  58.351  29.389  1.00  0.00     0.138 A 
ATOM     11  O   UNL     1     -24.316  58.871  30.476  1.00  0.00    -0.481 OA
ENDROOT
BRANCH   1  12
ATOM     12  C   UNL     1     -25.419  60.558  31.787  1.00  0.00     0.003 A 
ATOM     13  C   UNL     1     -24.672  60.204  32.923  1.00  0.00     0.058 A 
ATOM     14  C   UNL     1     -25.080  60.616  34.200  1.00  0.00     0.161 A 
ATOM     15  C   UNL     1     -26.568  61.349  31.941  1.00  0.00     0.058 A 
ATOM     16  C   UNL     1     -26.239  61.396  34.347  1.00  0.00     0.200 A 
ATOM     17  C   UNL     1     -26.980  61.764  33.216  1.00  0.00     0.161 A 
BRANCH  14  18
ATOM     18  O   UNL     1     -24.336  60.253  35.321  1.00  0.00    -0.504 OA
ATOM     19  H   UNL     1     -23.349  60.033  35.256  1.00  0.00     0.293 HD
ENDBRANCH  14  18
BRANCH  16  20
ATOM     20  O   UNL     1     -26.666  61.817  35.607  1.00  0.00    -0.502 OA
ATOM     21  H   UNL     1     -26.057  62.317  36.242  1.00  0.00     0.293 HD
ENDBRANCH  16  20
BRANCH  17  22
ATOM     22  O   UNL     1     -28.125  62.544  33.365  1.00  0.00    -0.504 OA
ATOM     23  H   UNL     1     -28.395  62.925  34.265  1.00  0.00     0.293 HD
ENDBRANCH  17  22
ENDBRANCH   1  12
BRANCH   2  24
ATOM     24  O   UNL     1     -24.737  62.364  29.533  1.00  0.00    -0.381 OA
ATOM     25  H   UNL     1     -25.324  62.176  28.755  1.00  0.00     0.211 HD
ENDBRANCH   2  24
BRANCH   6  26
ATOM     26  O   UNL     1     -22.261  59.327  26.039  1.00  0.00    -0.507 OA
ATOM     27  H   UNL     1     -22.455  59.007  25.102  1.00  0.00     0.293 HD
ENDBRANCH   6  26
BRANCH   8  28
ATOM     28  O   UNL     1     -22.319  55.075  28.287  1.00  0.00    -0.508 OA
ATOM     29  H   UNL     1     -23.033  54.371  28.145  1.00  0.00     0.293 HD
ENDBRANCH   8  28
TORSDOF 7
ENDMDL
