MODEL 1
REMARK VINA RESULT:     4.823      0.000      0.000
REMARK INTER + INTRA:           8.110
REMARK INTER:                   7.361
REMARK INTRA:                   0.750
REMARK UNBOUND:                 0.750
REMARK SMILES CC1=CCC[C@H](C)C(=O)C[C@H](C(C)C)C(=O)C1
REMARK SMILES IDX 8 1 9 2 6 3 7 4 5 5 4 6 3 7 2 8 1 9 10 11 11 12 15 13 16 14
REMARK SMILES IDX 17 15 12 17 13 18 14 19
REMARK H PARENT
REMARK Flexibility Score: 70.00
ROOT
ATOM      1  C   UNL     1      11.970  39.444 -17.331  1.00  0.00     0.136 C 
ATOM      2  O   UNL     1      12.503  40.028 -18.264  1.00  0.00    -0.299 OA
ENDROOT
BRANCH   1   3
ATOM      3  C   UNL     1      11.894  40.160 -15.991  1.00  0.00     0.053 C 
ATOM      4  C   UNL     1      10.492  40.686 -15.648  1.00  0.00     0.016 C 
BRANCH   3   5
ATOM      5  C   UNL     1      12.535  39.334 -14.853  1.00  0.00     0.015 C 
BRANCH   5   6
ATOM      6  C   UNL     1      13.856  38.641 -15.241  1.00  0.00     0.028 C 
BRANCH   6   7
ATOM      7  C   UNL     1      14.092  37.362 -14.475  1.00  0.00    -0.028 C 
ATOM      8  C   UNL     1      13.520  36.166 -14.758  1.00  0.00    -0.070 CG0
ATOM      9  C   UNL     1      13.814  35.012 -13.831  1.00  0.00     0.039 C 
ATOM     10  G   UNL     1      12.632  35.923 -15.973  1.00  0.00     0.000 G0
ENDBRANCH   6   7
ENDBRANCH   5   6
ENDBRANCH   3   5
ENDBRANCH   1   3
BRANCH   1  11
ATOM     11  C   UNL     1      11.400  38.061 -17.584  1.00  0.00     0.087 C 
BRANCH  11  12
ATOM     12  C   UNL     1      12.413  37.120 -18.291  1.00  0.00     0.066 C 
BRANCH  12  13
ATOM     13  C   UNL     1      13.254  36.357 -17.277  1.00  0.00     0.140 C 
ATOM     14  O   UNL     1      14.437  36.137 -17.494  1.00  0.00    -0.299 OA
BRANCH  13  15
ATOM     15  C   UNL     1      12.643  35.910 -15.971  1.00  0.00     0.106 CG0
ATOM     16  G   UNL     1      13.536  36.163 -14.762  1.00  0.00     0.000 G0
ENDBRANCH  13  15
ENDBRANCH  12  13
BRANCH  12  17
ATOM     17  C   UNL     1      11.747  36.160 -19.332  1.00  0.00    -0.006 C 
ATOM     18  C   UNL     1      10.796  36.870 -20.314  1.00  0.00     0.008 C 
ATOM     19  C   UNL     1      12.802  35.362 -20.117  1.00  0.00     0.008 C 
ENDBRANCH  12  17
ENDBRANCH  11  12
ENDBRANCH   1  11
TORSDOF 1
ENDMDL
MODEL 2
REMARK VINA RESULT:     5.957      1.614      4.682
REMARK INTER + INTRA:           9.841
REMARK INTER:                   8.692
REMARK INTRA:                   1.149
REMARK UNBOUND:                 0.750
REMARK SMILES CC1=CCC[C@H](C)C(=O)C[C@H](C(C)C)C(=O)C1
REMARK SMILES IDX 8 1 9 2 6 3 7 4 5 5 4 6 3 7 2 8 1 9 10 11 11 12 15 13 16 14
REMARK SMILES IDX 17 15 12 17 13 18 14 19
REMARK H PARENT
REMARK Flexibility Score: 70.00
ROOT
ATOM      1  C   UNL     1      13.740  37.644 -14.997  1.00  0.00     0.136 C 
ATOM      2  O   UNL     1      14.743  38.344 -15.007  1.00  0.00    -0.299 OA
ENDROOT
BRANCH   1   3
ATOM      3  C   UNL     1      13.906  36.164 -14.684  1.00  0.00     0.053 C 
ATOM      4  C   UNL     1      13.653  35.810 -13.211  1.00  0.00     0.016 C 
BRANCH   3   5
ATOM      5  C   UNL     1      13.125  35.270 -15.673  1.00  0.00     0.015 C 
BRANCH   5   6
ATOM      6  C   UNL     1      11.734  35.813 -16.053  1.00  0.00     0.028 C 
BRANCH   6   7
ATOM      7  C   UNL     1      11.430  35.665 -17.524  1.00  0.00    -0.028 C 
ATOM      8  C   UNL     1      11.869  36.497 -18.500  1.00  0.00    -0.070 CG0
ATOM      9  C   UNL     1      11.396  36.235 -19.909  1.00  0.00     0.039 C 
ATOM     10  G   UNL     1      12.834  37.651 -18.252  1.00  0.00     0.000 G0
ENDBRANCH   6   7
ENDBRANCH   5   6
ENDBRANCH   3   5
ENDBRANCH   1   3
BRANCH   1  11
ATOM     11  C   UNL     1      12.402  38.306 -15.269  1.00  0.00     0.087 C 
BRANCH  11  12
ATOM     12  C   UNL     1      12.500  39.427 -16.339  1.00  0.00     0.066 C 
BRANCH  12  13
ATOM     13  C   UNL     1      12.157  38.896 -17.724  1.00  0.00     0.140 C 
ATOM     14  O   UNL     1      11.372  39.500 -18.441  1.00  0.00    -0.299 OA
BRANCH  13  15
ATOM     15  C   UNL     1      12.824  37.645 -18.241  1.00  0.00     0.106 CG0
ATOM     16  G   UNL     1      11.852  36.501 -18.506  1.00  0.00     0.000 G0
ENDBRANCH  13  15
ENDBRANCH  12  13
BRANCH  12  17
ATOM     17  C   UNL     1      11.663  40.701 -15.983  1.00  0.00    -0.006 C 
ATOM     18  C   UNL     1      10.372  40.398 -15.199  1.00  0.00     0.008 C 
ATOM     19  C   UNL     1      12.507  41.731 -15.215  1.00  0.00     0.008 C 
ENDBRANCH  12  17
ENDBRANCH  11  12
ENDBRANCH   1  11
TORSDOF 1
ENDMDL
MODEL 3
REMARK VINA RESULT:     5.957      1.709      3.697
REMARK INTER + INTRA:           9.841
REMARK INTER:                   8.282
REMARK INTRA:                   1.559
REMARK UNBOUND:                 0.750
REMARK SMILES CC1=CCC[C@H](C)C(=O)C[C@H](C(C)C)C(=O)C1
REMARK SMILES IDX 8 1 9 2 6 3 7 4 5 5 4 6 3 7 2 8 1 9 10 11 11 12 15 13 16 14
REMARK SMILES IDX 17 15 12 17 13 18 14 19
REMARK H PARENT
REMARK Flexibility Score: 70.00
ROOT
ATOM      1  C   UNL     1      12.556  36.138 -15.977  1.00  0.00     0.136 C 
ATOM      2  O   UNL     1      11.399  35.739 -15.984  1.00  0.00    -0.299 OA
ENDROOT
BRANCH   1   3
ATOM      3  C   UNL     1      13.244  36.302 -14.630  1.00  0.00     0.053 C 
ATOM      4  C   UNL     1      13.453  34.979 -13.876  1.00  0.00     0.016 C 
BRANCH   3   5
ATOM      5  C   UNL     1      14.527  37.157 -14.733  1.00  0.00     0.015 C 
BRANCH   5   6
ATOM      6  C   UNL     1      14.311  38.547 -15.364  1.00  0.00     0.028 C 
BRANCH   6   7
ATOM      7  C   UNL     1      12.881  39.018 -15.263  1.00  0.00    -0.028 C 
ATOM      8  C   UNL     1      12.088  39.339 -16.315  1.00  0.00    -0.070 CG0
ATOM      9  C   UNL     1      10.708  39.870 -16.015  1.00  0.00     0.039 C 
ATOM     10  G   UNL     1      12.506  39.160 -17.770  1.00  0.00     0.000 G0
ENDBRANCH   6   7
ENDBRANCH   5   6
ENDBRANCH   3   5
ENDBRANCH   1   3
BRANCH   1  11
ATOM     11  C   UNL     1      13.226  36.415 -17.309  1.00  0.00     0.087 C 
BRANCH  11  12
ATOM     12  C   UNL     1      12.204  36.633 -18.456  1.00  0.00     0.066 C 
BRANCH  12  13
ATOM     13  C   UNL     1      11.735  38.081 -18.505  1.00  0.00     0.140 C 
ATOM     14  O   UNL     1      10.710  38.379 -19.101  1.00  0.00    -0.299 OA
BRANCH  13  15
ATOM     15  C   UNL     1      12.508  39.151 -17.775  1.00  0.00     0.106 CG0
ATOM     16  G   UNL     1      12.083  39.325 -16.321  1.00  0.00     0.000 G0
ENDBRANCH  13  15
ENDBRANCH  12  13
BRANCH  12  17
ATOM     17  C   UNL     1      12.718  36.142 -19.850  1.00  0.00    -0.006 C 
ATOM     18  C   UNL     1      14.144  35.560 -19.818  1.00  0.00     0.008 C 
ATOM     19  C   UNL     1      11.755  35.121 -20.478  1.00  0.00     0.008 C 
ENDBRANCH  12  17
ENDBRANCH  11  12
ENDBRANCH   1  11
TORSDOF 1
ENDMDL
MODEL 4
REMARK VINA RESULT:     6.253      1.395      3.984
REMARK INTER + INTRA:          10.293
REMARK INTER:                   9.513
REMARK INTRA:                   0.780
REMARK UNBOUND:                 0.750
REMARK SMILES CC1=CCC[C@H](C)C(=O)C[C@H](C(C)C)C(=O)C1
REMARK SMILES IDX 8 1 9 2 6 3 7 4 5 5 4 6 3 7 2 8 1 9 10 11 11 12 15 13 16 14
REMARK SMILES IDX 17 15 12 17 13 18 14 19
REMARK H PARENT
REMARK Flexibility Score: 70.00
ROOT
ATOM      1  C   UNL     1      12.864  39.530 -15.434  1.00  0.00     0.136 C 
ATOM      2  O   UNL     1      13.308  40.670 -15.470  1.00  0.00    -0.299 OA
ENDROOT
BRANCH   1   3
ATOM      3  C   UNL     1      11.364  39.345 -15.614  1.00  0.00     0.053 C 
ATOM      4  C   UNL     1      10.515  40.277 -14.735  1.00  0.00     0.016 C 
BRANCH   3   5
ATOM      5  C   UNL     1      10.950  39.361 -17.103  1.00  0.00     0.015 C 
BRANCH   5   6
ATOM      6  C   UNL     1      12.106  39.083 -18.083  1.00  0.00     0.028 C 
BRANCH   6   7
ATOM      7  C   UNL     1      11.770  38.017 -19.097  1.00  0.00    -0.028 C 
ATOM      8  C   UNL     1      11.711  36.686 -18.842  1.00  0.00    -0.070 CG0
ATOM      9  C   UNL     1      11.436  35.762 -20.002  1.00  0.00     0.039 C 
ATOM     10  G   UNL     1      11.873  36.088 -17.449  1.00  0.00     0.000 G0
ENDBRANCH   6   7
ENDBRANCH   5   6
ENDBRANCH   3   5
ENDBRANCH   1   3
BRANCH   1  11
ATOM     11  C   UNL     1      13.840  38.386 -15.242  1.00  0.00     0.087 C 
BRANCH  11  12
ATOM     12  C   UNL     1      13.156  36.996 -15.343  1.00  0.00     0.066 C 
BRANCH  12  13
ATOM     13  C   UNL     1      13.163  36.484 -16.777  1.00  0.00     0.140 C 
ATOM     14  O   UNL     1      14.218  36.340 -17.378  1.00  0.00    -0.299 OA
BRANCH  13  15
ATOM     15  C   UNL     1      11.867  36.101 -17.449  1.00  0.00     0.106 CG0
ATOM     16  G   UNL     1      11.710  36.686 -18.848  1.00  0.00     0.000 G0
ENDBRANCH  13  15
ENDBRANCH  12  13
BRANCH  12  17
ATOM     17  C   UNL     1      13.741  35.940 -14.347  1.00  0.00    -0.006 C 
ATOM     18  C   UNL     1      14.000  36.494 -12.933  1.00  0.00     0.008 C 
ATOM     19  C   UNL     1      12.846  34.693 -14.260  1.00  0.00     0.008 C 
ENDBRANCH  12  17
ENDBRANCH  11  12
ENDBRANCH   1  11
TORSDOF 1
ENDMDL
MODEL 5
REMARK VINA RESULT:     6.303      1.413      3.823
REMARK INTER + INTRA:          10.370
REMARK INTER:                   8.732
REMARK INTRA:                   1.637
REMARK UNBOUND:                 0.750
REMARK SMILES CC1=CCC[C@H](C)C(=O)C[C@H](C(C)C)C(=O)C1
REMARK SMILES IDX 8 1 9 2 6 3 7 4 5 5 4 6 3 7 2 8 1 9 10 11 11 12 15 13 16 14
REMARK SMILES IDX 17 15 12 17 13 18 14 19
REMARK H PARENT
REMARK Flexibility Score: 70.00
ROOT
ATOM      1  C   UNL     1      11.610  38.507 -18.441  1.00  0.00     0.136 C 
ATOM      2  O   UNL     1      11.009  39.283 -19.170  1.00  0.00    -0.299 OA
ENDROOT
BRANCH   1   3
ATOM      3  C   UNL     1      11.295  37.023 -18.566  1.00  0.00     0.053 C 
ATOM      4  C   UNL     1      11.373  36.493 -20.007  1.00  0.00     0.016 C 
BRANCH   3   5
ATOM      5  C   UNL     1      12.096  36.171 -17.556  1.00  0.00     0.015 C 
BRANCH   5   6
ATOM      6  C   UNL     1      11.220  35.351 -16.587  1.00  0.00     0.028 C 
BRANCH   6   7
ATOM      7  C   UNL     1      11.910  35.065 -15.276  1.00  0.00    -0.028 C 
ATOM      8  C   UNL     1      13.081  35.616 -14.872  1.00  0.00    -0.070 CG0
ATOM      9  C   UNL     1      13.660  35.147 -13.560  1.00  0.00     0.039 C 
ATOM     10  G   UNL     1      13.817  36.698 -15.655  1.00  0.00     0.000 G0
ENDBRANCH   6   7
ENDBRANCH   5   6
ENDBRANCH   3   5
ENDBRANCH   1   3
BRANCH   1  11
ATOM     11  C   UNL     1      12.641  39.074 -17.484  1.00  0.00     0.087 C 
BRANCH  11  12
ATOM     12  C   UNL     1      12.284  38.808 -15.997  1.00  0.00     0.066 C 
BRANCH  12  13
ATOM     13  C   UNL     1      13.427  38.110 -15.274  1.00  0.00     0.140 C 
ATOM     14  O   UNL     1      14.006  38.666 -14.351  1.00  0.00    -0.299 OA
BRANCH  13  15
ATOM     15  C   UNL     1      13.821  36.705 -15.659  1.00  0.00     0.106 CG0
ATOM     16  G   UNL     1      13.097  35.629 -14.859  1.00  0.00     0.000 G0
ENDBRANCH  13  15
ENDBRANCH  12  13
BRANCH  12  17
ATOM     17  C   UNL     1      11.809  40.089 -15.232  1.00  0.00    -0.006 C 
ATOM     18  C   UNL     1      12.494  41.385 -15.704  1.00  0.00     0.008 C 
ATOM     19  C   UNL     1      10.282  40.253 -15.303  1.00  0.00     0.008 C 
ENDBRANCH  12  17
ENDBRANCH  11  12
ENDBRANCH   1  11
TORSDOF 1
ENDMDL
MODEL 6
REMARK VINA RESULT:     6.359      1.547      3.849
REMARK INTER + INTRA:          10.454
REMARK INTER:                   8.365
REMARK INTRA:                   2.090
REMARK UNBOUND:                 0.750
REMARK SMILES CC1=CCC[C@H](C)C(=O)C[C@H](C(C)C)C(=O)C1
REMARK SMILES IDX 8 1 9 2 6 3 7 4 5 5 4 6 3 7 2 8 1 9 10 11 11 12 15 13 16 14
REMARK SMILES IDX 17 15 12 17 13 18 14 19
REMARK H PARENT
REMARK Flexibility Score: 70.00
ROOT
ATOM      1  C   UNL     1      11.625  37.880 -18.768  1.00  0.00     0.136 C 
ATOM      2  O   UNL     1      10.755  38.082 -19.604  1.00  0.00    -0.299 OA
ENDROOT
BRANCH   1   3
ATOM      3  C   UNL     1      12.143  36.458 -18.608  1.00  0.00     0.053 C 
ATOM      4  C   UNL     1      11.447  35.439 -19.524  1.00  0.00     0.016 C 
BRANCH   3   5
ATOM      5  C   UNL     1      13.685  36.390 -18.674  1.00  0.00     0.015 C 
BRANCH   5   6
ATOM      6  C   UNL     1      14.398  36.991 -17.447  1.00  0.00     0.028 C 
BRANCH   6   7
ATOM      7  C   UNL     1      14.387  36.068 -16.254  1.00  0.00    -0.028 C 
ATOM      8  C   UNL     1      13.435  36.049 -15.289  1.00  0.00    -0.070 CG0
ATOM      9  C   UNL     1      13.634  35.108 -14.126  1.00  0.00     0.039 C 
ATOM     10  G   UNL     1      12.169  36.898 -15.338  1.00  0.00     0.000 G0
ENDBRANCH   6   7
ENDBRANCH   5   6
ENDBRANCH   3   5
ENDBRANCH   1   3
BRANCH   1  11
ATOM     11  C   UNL     1      12.142  39.063 -17.972  1.00  0.00     0.087 C 
BRANCH  11  12
ATOM     12  C   UNL     1      11.551  39.120 -16.538  1.00  0.00     0.066 C 
BRANCH  12  13
ATOM     13  C   UNL     1      12.422  38.352 -15.553  1.00  0.00     0.140 C 
ATOM     14  O   UNL     1      13.298  38.927 -14.923  1.00  0.00    -0.299 OA
BRANCH  13  15
ATOM     15  C   UNL     1      12.175  36.883 -15.312  1.00  0.00     0.106 CG0
ATOM     16  G   UNL     1      13.451  36.049 -15.271  1.00  0.00     0.000 G0
ENDBRANCH  13  15
ENDBRANCH  12  13
BRANCH  12  17
ATOM     17  C   UNL     1      11.260  40.575 -16.042  1.00  0.00    -0.006 C 
ATOM     18  C   UNL     1      10.247  40.648 -14.883  1.00  0.00     0.008 C 
ATOM     19  C   UNL     1      12.555  41.303 -15.645  1.00  0.00     0.008 C 
ENDBRANCH  12  17
ENDBRANCH  11  12
ENDBRANCH   1  11
TORSDOF 1
ENDMDL
MODEL 7
REMARK VINA RESULT:     7.621      1.623      4.670
REMARK INTER + INTRA:          12.381
REMARK INTER:                  10.923
REMARK INTRA:                   1.458
REMARK UNBOUND:                 0.750
REMARK SMILES CC1=CCC[C@H](C)C(=O)C[C@H](C(C)C)C(=O)C1
REMARK SMILES IDX 8 1 9 2 6 3 7 4 5 5 4 6 3 7 2 8 1 9 10 11 11 12 15 13 16 14
REMARK SMILES IDX 17 15 12 17 13 18 14 19
REMARK H PARENT
REMARK Flexibility Score: 70.00
ROOT
ATOM      1  C   UNL     1      13.257  36.169 -18.229  1.00  0.00     0.136 C 
ATOM      2  O   UNL     1      14.462  35.993 -18.339  1.00  0.00    -0.299 OA
ENDROOT
BRANCH   1   3
ATOM      3  C   UNL     1      12.449  36.386 -19.499  1.00  0.00     0.053 C 
ATOM      4  C   UNL     1      11.760  35.115 -20.021  1.00  0.00     0.016 C 
BRANCH   3   5
ATOM      5  C   UNL     1      11.495  37.596 -19.382  1.00  0.00     0.015 C 
BRANCH   5   6
ATOM      6  C   UNL     1      11.091  37.945 -17.936  1.00  0.00     0.028 C 
BRANCH   6   7
ATOM      7  C   UNL     1      11.614  39.288 -17.490  1.00  0.00    -0.028 C 
ATOM      8  C   UNL     1      12.098  39.568 -16.255  1.00  0.00    -0.070 CG0
ATOM      9  C   UNL     1      12.503  40.993 -15.968  1.00  0.00     0.039 C 
ATOM     10  G   UNL     1      12.282  38.519 -15.165  1.00  0.00     0.000 G0
ENDBRANCH   6   7
ENDBRANCH   5   6
ENDBRANCH   3   5
ENDBRANCH   1   3
BRANCH   1  11
ATOM     11  C   UNL     1      12.652  36.131 -16.838  1.00  0.00     0.087 C 
BRANCH  11  12
ATOM     12  C   UNL     1      13.704  36.384 -15.724  1.00  0.00     0.066 C 
BRANCH  12  13
ATOM     13  C   UNL     1      13.614  37.810 -15.199  1.00  0.00     0.140 C 
ATOM     14  O   UNL     1      14.623  38.402 -14.841  1.00  0.00    -0.299 OA
BRANCH  13  15
ATOM     15  C   UNL     1      12.284  38.520 -15.162  1.00  0.00     0.106 CG0
ATOM     16  G   UNL     1      12.123  39.570 -16.256  1.00  0.00     0.000 G0
ENDBRANCH  13  15
ENDBRANCH  12  13
BRANCH  12  17
ATOM     17  C   UNL     1      13.648  35.334 -14.565  1.00  0.00    -0.006 C 
ATOM     18  C   UNL     1      13.987  35.917 -13.180  1.00  0.00     0.008 C 
ATOM     19  C   UNL     1      12.283  34.628 -14.511  1.00  0.00     0.008 C 
ENDBRANCH  12  17
ENDBRANCH  11  12
ENDBRANCH   1  11
TORSDOF 1
ENDMDL
