MODEL 1
REMARK VINA RESULT:    -5.834      0.000      0.000
REMARK INTER + INTRA:          -6.629
REMARK INTER:                  -6.516
REMARK INTRA:                  -0.114
REMARK UNBOUND:                -0.114
REMARK SMILES COc1cc2ccc(=O)oc2cc1OC
REMARK SMILES IDX 3 1 13 2 12 3 11 4 5 5 4 6 6 7 7 8 8 9 9 10 10 11 2 12 1 13
REMARK SMILES IDX 14 14 15 15
REMARK H PARENT
REMARK Flexibility Score: inf
ROOT
ATOM      1  C   UNL     1      45.092   7.127  15.459  1.00  0.00     0.161 A 
ATOM      2  C   UNL     1      46.262   6.380  15.677  1.00  0.00     0.164 A 
ATOM      3  C   UNL     1      46.862   6.373  16.951  1.00  0.00     0.098 A 
ATOM      4  C   UNL     1      46.301   7.106  18.000  1.00  0.00     0.142 A 
ATOM      5  C   UNL     1      45.128   7.856  17.783  1.00  0.00     0.022 A 
ATOM      6  C   UNL     1      44.527   7.866  16.518  1.00  0.00     0.062 A 
ATOM      7  C   UNL     1      44.591   8.579  18.854  1.00  0.00     0.019 A 
ATOM      8  C   UNL     1      45.226   8.538  20.095  1.00  0.00     0.094 A 
ATOM      9  C   UNL     1      46.386   7.771  20.236  1.00  0.00     0.336 A 
ATOM     10  O   UNL     1      46.975   7.720  21.348  1.00  0.00    -0.246 OA
ATOM     11  O   UNL     1      46.876   7.093  19.201  1.00  0.00    -0.423 OA
ENDROOT
BRANCH   1  12
ATOM     12  O   UNL     1      44.521   7.111  14.176  1.00  0.00    -0.493 OA
ATOM     13  C   UNL     1      43.184   6.714  13.892  1.00  0.00     0.278 C 
ENDBRANCH   1  12
BRANCH   2  14
ATOM     14  O   UNL     1      46.798   5.655  14.599  1.00  0.00    -0.493 OA
ATOM     15  C   UNL     1      47.924   4.790  14.689  1.00  0.00     0.278 C 
ENDBRANCH   2  14
TORSDOF 2
ENDMDL
MODEL 2
REMARK VINA RESULT:    -5.646      1.230      2.843
REMARK INTER + INTRA:          -6.419
REMARK INTER:                  -6.305
REMARK INTRA:                  -0.115
REMARK UNBOUND:                -0.114
REMARK SMILES COc1cc2ccc(=O)oc2cc1OC
REMARK SMILES IDX 3 1 13 2 12 3 11 4 5 5 4 6 6 7 7 8 8 9 9 10 10 11 2 12 1 13
REMARK SMILES IDX 14 14 15 15
REMARK H PARENT
REMARK Flexibility Score: inf
ROOT
ATOM      1  C   UNL     1      46.138   6.672  16.099  1.00  0.00     0.161 A 
ATOM      2  C   UNL     1      44.967   7.420  15.891  1.00  0.00     0.164 A 
ATOM      3  C   UNL     1      44.386   8.123  16.964  1.00  0.00     0.098 A 
ATOM      4  C   UNL     1      44.966   8.081  18.235  1.00  0.00     0.142 A 
ATOM      5  C   UNL     1      46.140   7.330  18.445  1.00  0.00     0.022 A 
ATOM      6  C   UNL     1      46.723   6.629  17.381  1.00  0.00     0.062 A 
ATOM      7  C   UNL     1      46.697   7.308  19.728  1.00  0.00     0.019 A 
ATOM      8  C   UNL     1      46.079   8.022  20.754  1.00  0.00     0.094 A 
ATOM      9  C   UNL     1      44.917   8.744  20.472  1.00  0.00     0.336 A 
ATOM     10  O   UNL     1      44.344   9.396  21.385  1.00  0.00    -0.246 OA
ATOM     11  O   UNL     1      44.408   8.748  19.242  1.00  0.00    -0.423 OA
ENDROOT
BRANCH   1  12
ATOM     12  O   UNL     1      46.691   5.983  15.007  1.00  0.00    -0.493 OA
ATOM     13  C   UNL     1      47.806   5.103  15.088  1.00  0.00     0.278 C 
ENDBRANCH   1  12
BRANCH   2  14
ATOM     14  O   UNL     1      44.412   7.440  14.601  1.00  0.00    -0.493 OA
ATOM     15  C   UNL     1      43.305   6.645  14.187  1.00  0.00     0.278 C 
ENDBRANCH   2  14
TORSDOF 2
ENDMDL
MODEL 3
REMARK VINA RESULT:    -5.627      1.503      5.356
REMARK INTER + INTRA:          -6.399
REMARK INTER:                  -6.308
REMARK INTRA:                  -0.091
REMARK UNBOUND:                -0.114
REMARK SMILES COc1cc2ccc(=O)oc2cc1OC
REMARK SMILES IDX 3 1 13 2 12 3 11 4 5 5 4 6 6 7 7 8 8 9 9 10 10 11 2 12 1 13
REMARK SMILES IDX 14 14 15 15
REMARK H PARENT
REMARK Flexibility Score: inf
ROOT
ATOM      1  C   UNL     1      45.329   8.670  20.714  1.00  0.00     0.161 A 
ATOM      2  C   UNL     1      46.440   7.811  20.749  1.00  0.00     0.164 A 
ATOM      3  C   UNL     1      46.816   7.103  19.590  1.00  0.00     0.098 A 
ATOM      4  C   UNL     1      46.090   7.251  18.406  1.00  0.00     0.142 A 
ATOM      5  C   UNL     1      44.975   8.112  18.369  1.00  0.00     0.022 A 
ATOM      6  C   UNL     1      44.597   8.818  19.518  1.00  0.00     0.062 A 
ATOM      7  C   UNL     1      44.269   8.238  17.168  1.00  0.00     0.019 A 
ATOM      8  C   UNL     1      44.684   7.514  16.051  1.00  0.00     0.094 A 
ATOM      9  C   UNL     1      45.799   6.679  16.162  1.00  0.00     0.336 A 
ATOM     10  O   UNL     1      46.191   6.017  15.164  1.00  0.00    -0.246 OA
ATOM     11  O   UNL     1      46.453   6.578  17.317  1.00  0.00    -0.423 OA
ENDROOT
BRANCH   1  12
ATOM     12  O   UNL     1      44.983   9.359  21.887  1.00  0.00    -0.493 OA
ATOM     13  C   UNL     1      44.068   8.880  22.866  1.00  0.00     0.278 C 
ENDBRANCH   1  12
BRANCH   2  14
ATOM     14  O   UNL     1      47.146   7.687  21.957  1.00  0.00    -0.493 OA
ATOM     15  C   UNL     1      48.082   6.653  22.243  1.00  0.00     0.278 C 
ENDBRANCH   2  14
TORSDOF 2
ENDMDL
MODEL 4
REMARK VINA RESULT:    -5.605      1.667      5.990
REMARK INTER + INTRA:          -6.374
REMARK INTER:                  -6.328
REMARK INTRA:                  -0.045
REMARK UNBOUND:                -0.114
REMARK SMILES COc1cc2ccc(=O)oc2cc1OC
REMARK SMILES IDX 3 1 13 2 12 3 11 4 5 5 4 6 6 7 7 8 8 9 9 10 10 11 2 12 1 13
REMARK SMILES IDX 14 14 15 15
REMARK H PARENT
REMARK Flexibility Score: inf
ROOT
ATOM      1  C   UNL     1      46.375   7.929  20.700  1.00  0.00     0.161 A 
ATOM      2  C   UNL     1      45.197   8.691  20.614  1.00  0.00     0.164 A 
ATOM      3  C   UNL     1      44.481   8.739  19.402  1.00  0.00     0.098 A 
ATOM      4  C   UNL     1      44.937   8.035  18.284  1.00  0.00     0.142 A 
ATOM      5  C   UNL     1      46.118   7.271  18.369  1.00  0.00     0.022 A 
ATOM      6  C   UNL     1      46.833   7.220  19.572  1.00  0.00     0.062 A 
ATOM      7  C   UNL     1      46.547   6.579  17.231  1.00  0.00     0.019 A 
ATOM      8  C   UNL     1      45.801   6.662  16.057  1.00  0.00     0.094 A 
ATOM      9  C   UNL     1      44.639   7.439  16.047  1.00  0.00     0.336 A 
ATOM     10  O   UNL     1      43.950   7.527  14.996  1.00  0.00    -0.246 OA
ATOM     11  O   UNL     1      44.254   8.088  17.143  1.00  0.00    -0.423 OA
ENDROOT
BRANCH   1  12
ATOM     12  O   UNL     1      47.063   7.903  21.924  1.00  0.00    -0.493 OA
ATOM     13  C   UNL     1      47.995   6.898  22.305  1.00  0.00     0.278 C 
ENDBRANCH   1  12
BRANCH   2  14
ATOM     14  O   UNL     1      44.770   9.385  21.758  1.00  0.00    -0.493 OA
ATOM     15  C   UNL     1      43.999   8.811  22.809  1.00  0.00     0.278 C 
ENDBRANCH   2  14
TORSDOF 2
ENDMDL
MODEL 5
REMARK VINA RESULT:    -5.479      2.066      3.952
REMARK INTER + INTRA:          -6.233
REMARK INTER:                  -6.130
REMARK INTRA:                  -0.103
REMARK UNBOUND:                -0.114
REMARK SMILES COc1cc2ccc(=O)oc2cc1OC
REMARK SMILES IDX 3 1 13 2 12 3 11 4 5 5 4 6 6 7 7 8 8 9 9 10 10 11 2 12 1 13
REMARK SMILES IDX 14 14 15 15
REMARK H PARENT
REMARK Flexibility Score: inf
ROOT
ATOM      1  C   UNL     1      45.851   7.364  18.048  1.00  0.00     0.161 A 
ATOM      2  C   UNL     1      44.924   8.389  18.300  1.00  0.00     0.164 A 
ATOM      3  C   UNL     1      44.857   8.974  19.580  1.00  0.00     0.098 A 
ATOM      4  C   UNL     1      45.706   8.539  20.601  1.00  0.00     0.142 A 
ATOM      5  C   UNL     1      46.636   7.511  20.350  1.00  0.00     0.022 A 
ATOM      6  C   UNL     1      46.707   6.927  19.079  1.00  0.00     0.062 A 
ATOM      7  C   UNL     1      47.472   7.099  21.393  1.00  0.00     0.019 A 
ATOM      8  C   UNL     1      47.363   7.711  22.641  1.00  0.00     0.094 A 
ATOM      9  C   UNL     1      46.417   8.725  22.816  1.00  0.00     0.336 A 
ATOM     10  O   UNL     1      46.302   9.292  23.935  1.00  0.00    -0.246 OA
ATOM     11  O   UNL     1      45.634   9.098  21.807  1.00  0.00    -0.423 OA
ENDROOT
BRANCH   1  12
ATOM     12  O   UNL     1      45.891   6.804  16.761  1.00  0.00    -0.493 OA
ATOM     13  C   UNL     1      47.024   6.149  16.200  1.00  0.00     0.278 C 
ENDBRANCH   1  12
BRANCH   2  14
ATOM     14  O   UNL     1      44.086   8.800  17.250  1.00  0.00    -0.493 OA
ATOM     15  C   UNL     1      43.361  10.025  17.229  1.00  0.00     0.278 C 
ENDBRANCH   2  14
TORSDOF 2
ENDMDL
MODEL 6
REMARK VINA RESULT:    -5.433      1.581      4.769
REMARK INTER + INTRA:          -6.182
REMARK INTER:                  -6.073
REMARK INTRA:                  -0.109
REMARK UNBOUND:                -0.114
REMARK SMILES COc1cc2ccc(=O)oc2cc1OC
REMARK SMILES IDX 3 1 13 2 12 3 11 4 5 5 4 6 6 7 7 8 8 9 9 10 10 11 2 12 1 13
REMARK SMILES IDX 14 14 15 15
REMARK H PARENT
REMARK Flexibility Score: inf
ROOT
ATOM      1  C   UNL     1      44.968   8.104  17.662  1.00  0.00     0.161 A 
ATOM      2  C   UNL     1      46.091   7.653  18.377  1.00  0.00     0.164 A 
ATOM      3  C   UNL     1      46.973   6.728  17.785  1.00  0.00     0.098 A 
ATOM      4  C   UNL     1      46.737   6.255  16.491  1.00  0.00     0.142 A 
ATOM      5  C   UNL     1      45.611   6.706  15.773  1.00  0.00     0.022 A 
ATOM      6  C   UNL     1      44.732   7.626  16.358  1.00  0.00     0.062 A 
ATOM      7  C   UNL     1      45.404   6.214  14.481  1.00  0.00     0.019 A 
ATOM      8  C   UNL     1      46.308   5.299  13.943  1.00  0.00     0.094 A 
ATOM      9  C   UNL     1      47.403   4.897  14.714  1.00  0.00     0.336 A 
ATOM     10  O   UNL     1      48.232   4.071  14.247  1.00  0.00    -0.246 OA
ATOM     11  O   UNL     1      47.576   5.381  15.941  1.00  0.00    -0.423 OA
ENDROOT
BRANCH   1  12
ATOM     12  O   UNL     1      44.111   9.027  18.283  1.00  0.00    -0.493 OA
ATOM     13  C   UNL     1      43.352  10.014  17.594  1.00  0.00     0.278 C 
ENDBRANCH   1  12
BRANCH   2  14
ATOM     14  O   UNL     1      46.296   8.150  19.675  1.00  0.00    -0.493 OA
ATOM     15  C   UNL     1      46.770   7.374  20.770  1.00  0.00     0.278 C 
ENDBRANCH   2  14
TORSDOF 2
ENDMDL
MODEL 7
REMARK VINA RESULT:    -5.263      4.109      7.017
REMARK INTER + INTRA:          -5.992
REMARK INTER:                  -5.858
REMARK INTRA:                  -0.134
REMARK UNBOUND:                -0.114
REMARK SMILES COc1cc2ccc(=O)oc2cc1OC
REMARK SMILES IDX 3 1 13 2 12 3 11 4 5 5 4 6 6 7 7 8 8 9 9 10 10 11 2 12 1 13
REMARK SMILES IDX 14 14 15 15
REMARK H PARENT
REMARK Flexibility Score: inf
ROOT
ATOM      1  C   UNL     1      46.472   8.172  22.425  1.00  0.00     0.161 A 
ATOM      2  C   UNL     1      45.429   8.409  21.513  1.00  0.00     0.164 A 
ATOM      3  C   UNL     1      44.172   8.836  21.984  1.00  0.00     0.098 A 
ATOM      4  C   UNL     1      43.955   9.023  23.351  1.00  0.00     0.142 A 
ATOM      5  C   UNL     1      45.000   8.785  24.267  1.00  0.00     0.022 A 
ATOM      6  C   UNL     1      46.252   8.361  23.804  1.00  0.00     0.062 A 
ATOM      7  C   UNL     1      44.751   8.982  25.629  1.00  0.00     0.019 A 
ATOM      8  C   UNL     1      43.487   9.404  26.040  1.00  0.00     0.094 A 
ATOM      9  C   UNL     1      42.499   9.621  25.075  1.00  0.00     0.336 A 
ATOM     10  O   UNL     1      41.352  10.004  25.425  1.00  0.00    -0.246 OA
ATOM     11  O   UNL     1      42.763   9.426  23.785  1.00  0.00    -0.423 OA
ENDROOT
BRANCH   1  12
ATOM     12  O   UNL     1      47.712   7.747  21.921  1.00  0.00    -0.493 OA
ATOM     13  C   UNL     1      48.288   6.469  22.165  1.00  0.00     0.278 C 
ENDBRANCH   1  12
BRANCH   2  14
ATOM     14  O   UNL     1      45.683   8.211  20.146  1.00  0.00    -0.493 OA
ATOM     15  C   UNL     1      45.678   9.243  19.166  1.00  0.00     0.278 C 
ENDBRANCH   2  14
TORSDOF 2
ENDMDL
MODEL 8
REMARK VINA RESULT:    -5.261      1.801      2.909
REMARK INTER + INTRA:          -5.990
REMARK INTER:                  -5.970
REMARK INTRA:                  -0.020
REMARK UNBOUND:                -0.114
REMARK SMILES COc1cc2ccc(=O)oc2cc1OC
REMARK SMILES IDX 3 1 13 2 12 3 11 4 5 5 4 6 6 7 7 8 8 9 9 10 10 11 2 12 1 13
REMARK SMILES IDX 14 14 15 15
REMARK H PARENT
REMARK Flexibility Score: inf
ROOT
ATOM      1  C   UNL     1      44.863   8.785  17.950  1.00  0.00     0.161 A 
ATOM      2  C   UNL     1      45.614   7.681  17.511  1.00  0.00     0.164 A 
ATOM      3  C   UNL     1      46.461   7.008  18.413  1.00  0.00     0.098 A 
ATOM      4  C   UNL     1      46.561   7.431  19.741  1.00  0.00     0.142 A 
ATOM      5  C   UNL     1      45.809   8.539  20.182  1.00  0.00     0.022 A 
ATOM      6  C   UNL     1      44.964   9.212  19.290  1.00  0.00     0.062 A 
ATOM      7  C   UNL     1      45.930   8.938  21.517  1.00  0.00     0.019 A 
ATOM      8  C   UNL     1      46.784   8.235  22.367  1.00  0.00     0.094 A 
ATOM      9  C   UNL     1      47.499   7.146  21.859  1.00  0.00     0.336 A 
ATOM     10  O   UNL     1      48.275   6.498  22.610  1.00  0.00    -0.246 OA
ATOM     11  O   UNL     1      47.364   6.788  20.584  1.00  0.00    -0.423 OA
ENDROOT
BRANCH   1  12
ATOM     12  O   UNL     1      44.029   9.433  17.025  1.00  0.00    -0.493 OA
ATOM     13  C   UNL     1      43.022  10.378  17.369  1.00  0.00     0.278 C 
ENDBRANCH   1  12
BRANCH   2  14
ATOM     14  O   UNL     1      45.489   7.284  16.170  1.00  0.00    -0.493 OA
ATOM     15  C   UNL     1      44.426   6.485  15.661  1.00  0.00     0.278 C 
ENDBRANCH   2  14
TORSDOF 2
ENDMDL
MODEL 9
REMARK VINA RESULT:    -4.383      1.613      5.744
REMARK INTER + INTRA:          -5.010
REMARK INTER:                  -4.888
REMARK INTRA:                  -0.121
REMARK UNBOUND:                -0.114
REMARK SMILES COc1cc2ccc(=O)oc2cc1OC
REMARK SMILES IDX 3 1 13 2 12 3 11 4 5 5 4 6 6 7 7 8 8 9 9 10 10 11 2 12 1 13
REMARK SMILES IDX 14 14 15 15
REMARK H PARENT
REMARK Flexibility Score: inf
ROOT
ATOM      1  C   UNL     1      46.245   8.060  20.022  1.00  0.00     0.161 A 
ATOM      2  C   UNL     1      45.625   9.139  19.370  1.00  0.00     0.164 A 
ATOM      3  C   UNL     1      45.519   9.141  17.965  1.00  0.00     0.098 A 
ATOM      4  C   UNL     1      46.029   8.077  17.216  1.00  0.00     0.142 A 
ATOM      5  C   UNL     1      46.652   6.994  17.869  1.00  0.00     0.022 A 
ATOM      6  C   UNL     1      46.759   6.987  19.266  1.00  0.00     0.062 A 
ATOM      7  C   UNL     1      47.152   5.945  17.091  1.00  0.00     0.019 A 
ATOM      8  C   UNL     1      47.021   5.998  15.704  1.00  0.00     0.094 A 
ATOM      9  C   UNL     1      46.391   7.104  15.126  1.00  0.00     0.336 A 
ATOM     10  O   UNL     1      46.262   7.171  13.875  1.00  0.00    -0.246 OA
ATOM     11  O   UNL     1      45.924   8.089  15.890  1.00  0.00    -0.423 OA
ENDROOT
BRANCH   1  12
ATOM     12  O   UNL     1      46.333   8.090  21.423  1.00  0.00    -0.493 OA
ATOM     13  C   UNL     1      47.399   7.526  22.178  1.00  0.00     0.278 C 
ENDBRANCH   1  12
BRANCH   2  14
ATOM     14  O   UNL     1      45.124  10.190  20.155  1.00  0.00    -0.493 OA
ATOM     15  C   UNL     1      43.745  10.394  20.447  1.00  0.00     0.278 C 
ENDBRANCH   2  14
TORSDOF 2
ENDMDL
