MODEL 1
REMARK VINA RESULT:    -4.665      0.000      0.000
REMARK INTER + INTRA:          -8.394
REMARK INTER:                  -7.257
REMARK INTRA:                  -1.138
REMARK UNBOUND:                -1.138
REMARK SMILES COc1cc(CNC(=O)CCCCC=CC(C)C)ccc1O
REMARK SMILES IDX 11 1 12 2 13 3 14 4 15 5 16 6 17 7 18 8 10 9 8 10 9 11 7 12
REMARK SMILES IDX 6 14 5 15 4 16 19 17 3 18 20 19 21 20 2 21 1 22 22 23
REMARK H PARENT 7 13 22 24
REMARK Flexibility Score: inf
ROOT
ATOM      1  C   UNL     1     157.104 160.472 145.470  1.00  0.00     0.010 C 
ENDROOT
BRANCH   1   2
ATOM      2  C   UNL     1     156.974 159.186 146.299  1.00  0.00     0.005 C 
BRANCH   2   3
ATOM      3  C   UNL     1     157.550 157.983 145.542  1.00  0.00     0.027 C 
BRANCH   3   4
ATOM      4  C   UNL     1     158.931 157.646 146.031  1.00  0.00    -0.031 C 
ATOM      5  C   UNL     1     159.277 157.795 147.321  1.00  0.00    -0.028 C 
BRANCH   5   6
ATOM      6  C   UNL     1     160.660 157.466 147.839  1.00  0.00     0.005 C 
ATOM      7  C   UNL     1     161.468 158.738 148.118  1.00  0.00     0.012 C 
ATOM      8  C   UNL     1     161.408 156.530 146.883  1.00  0.00     0.012 C 
ENDBRANCH   5   6
ENDBRANCH   3   4
ENDBRANCH   2   3
ENDBRANCH   1   2
BRANCH   1   9
ATOM      9  C   UNL     1     157.283 161.717 146.349  1.00  0.00     0.100 C 
BRANCH   9  10
ATOM     10  C   UNL     1     158.513 161.624 147.205  1.00  0.00     0.220 C 
ATOM     11  O   UNL     1     159.644 161.524 146.655  1.00  0.00    -0.275 OA
ATOM     12  N   UNL     1     158.397 161.607 148.634  1.00  0.00    -0.352 N 
ATOM     13  H   UNL     1     157.447 161.633 149.068  1.00  0.00     0.163 HD
BRANCH  12  14
ATOM     14  C   UNL     1     159.560 161.523 149.514  1.00  0.00     0.151 C 
BRANCH  14  15
ATOM     15  C   UNL     1     159.132 161.630 150.954  1.00  0.00    -0.025 A 
ATOM     16  C   UNL     1     157.773 161.526 151.290  1.00  0.00     0.056 A 
ATOM     17  C   UNL     1     160.077 161.860 151.964  1.00  0.00     0.009 A 
ATOM     18  C   UNL     1     157.355 161.641 152.631  1.00  0.00     0.160 A 
ATOM     19  C   UNL     1     159.669 161.976 153.294  1.00  0.00     0.050 A 
ATOM     20  C   UNL     1     158.317 161.867 153.633  1.00  0.00     0.157 A 
BRANCH  18  21
ATOM     21  O   UNL     1     156.004 161.539 152.999  1.00  0.00    -0.493 OA
ATOM     22  C   UNL     1     155.187 160.396 152.765  1.00  0.00     0.278 C 
ENDBRANCH  18  21
BRANCH  20  23
ATOM     23  O   UNL     1     157.947 161.987 154.973  1.00  0.00    -0.504 OA
ATOM     24  H   UNL     1     158.427 162.609 155.613  1.00  0.00     0.293 HD
ENDBRANCH  20  23
ENDBRANCH  14  15
ENDBRANCH  12  14
ENDBRANCH   9  10
ENDBRANCH   1   9
TORSDOF 10
ENDMDL
MODEL 2
REMARK VINA RESULT:    -4.554      2.612      7.076
REMARK INTER + INTRA:          -8.221
REMARK INTER:                  -7.283
REMARK INTRA:                  -0.938
REMARK UNBOUND:                -1.138
REMARK SMILES COc1cc(CNC(=O)CCCCC=CC(C)C)ccc1O
REMARK SMILES IDX 11 1 12 2 13 3 14 4 15 5 16 6 17 7 18 8 10 9 8 10 9 11 7 12
REMARK SMILES IDX 6 14 5 15 4 16 19 17 3 18 20 19 21 20 2 21 1 22 22 23
REMARK H PARENT 7 13 22 24
REMARK Flexibility Score: inf
ROOT
ATOM      1  C   UNL     1     160.260 161.385 152.994  1.00  0.00     0.010 C 
ENDROOT
BRANCH   1   2
ATOM      2  C   UNL     1     159.123 161.960 153.850  1.00  0.00     0.005 C 
BRANCH   2   3
ATOM      3  C   UNL     1     158.361 163.053 153.090  1.00  0.00     0.027 C 
BRANCH   3   4
ATOM      4  C   UNL     1     156.920 162.674 152.896  1.00  0.00    -0.031 C 
ATOM      5  C   UNL     1     156.510 161.396 152.980  1.00  0.00    -0.028 C 
BRANCH   5   6
ATOM      6  C   UNL     1     155.067 160.986 152.786  1.00  0.00     0.005 C 
ATOM      7  C   UNL     1     154.150 161.679 153.801  1.00  0.00     0.012 C 
ATOM      8  C   UNL     1     154.906 159.462 152.843  1.00  0.00     0.012 C 
ENDBRANCH   5   6
ENDBRANCH   3   4
ENDBRANCH   2   3
ENDBRANCH   1   2
BRANCH   1   9
ATOM      9  C   UNL     1     161.075 162.480 152.294  1.00  0.00     0.100 C 
BRANCH   9  10
ATOM     10  C   UNL     1     161.743 161.970 151.050  1.00  0.00     0.220 C 
ATOM     11  O   UNL     1     162.247 162.790 150.236  1.00  0.00    -0.275 OA
ATOM     12  N   UNL     1     161.769 160.563 150.772  1.00  0.00    -0.352 N 
ATOM     13  H   UNL     1     161.295 159.904 151.431  1.00  0.00     0.163 HD
BRANCH  12  14
ATOM     14  C   UNL     1     162.409 160.010 149.581  1.00  0.00     0.151 C 
BRANCH  14  15
ATOM     15  C   UNL     1     161.439 159.144 148.823  1.00  0.00    -0.025 A 
ATOM     16  C   UNL     1     160.108 159.556 148.664  1.00  0.00     0.056 A 
ATOM     17  C   UNL     1     161.847 157.912 148.293  1.00  0.00     0.009 A 
ATOM     18  C   UNL     1     159.183 158.748 147.972  1.00  0.00     0.160 A 
ATOM     19  C   UNL     1     160.937 157.106 147.607  1.00  0.00     0.050 A 
ATOM     20  C   UNL     1     159.611 157.516 147.443  1.00  0.00     0.157 A 
BRANCH  18  21
ATOM     21  O   UNL     1     157.845 159.135 147.795  1.00  0.00    -0.493 OA
ATOM     22  C   UNL     1     157.415 160.470 147.553  1.00  0.00     0.278 C 
ENDBRANCH  18  21
BRANCH  20  23
ATOM     23  O   UNL     1     158.729 156.685 146.750  1.00  0.00    -0.504 OA
ATOM     24  H   UNL     1     158.688 155.686 146.913  1.00  0.00     0.293 HD
ENDBRANCH  20  23
ENDBRANCH  14  15
ENDBRANCH  12  14
ENDBRANCH   9  10
ENDBRANCH   1   9
TORSDOF 10
ENDMDL
MODEL 3
REMARK VINA RESULT:    -4.542     12.359     14.724
REMARK INTER + INTRA:          -8.203
REMARK INTER:                  -7.329
REMARK INTRA:                  -0.874
REMARK UNBOUND:                -1.138
REMARK SMILES COc1cc(CNC(=O)CCCCC=CC(C)C)ccc1O
REMARK SMILES IDX 11 1 12 2 13 3 14 4 15 5 16 6 17 7 18 8 10 9 8 10 9 11 7 12
REMARK SMILES IDX 6 14 5 15 4 16 19 17 3 18 20 19 21 20 2 21 1 22 22 23
REMARK H PARENT 7 13 22 24
REMARK Flexibility Score: inf
ROOT
ATOM      1  C   UNL     1     158.008 145.219 146.801  1.00  0.00     0.010 C 
ENDROOT
BRANCH   1   2
ATOM      2  C   UNL     1     157.155 144.108 147.429  1.00  0.00     0.005 C 
BRANCH   2   3
ATOM      3  C   UNL     1     156.419 143.304 146.351  1.00  0.00     0.027 C 
BRANCH   3   4
ATOM      4  C   UNL     1     155.684 144.212 145.405  1.00  0.00    -0.031 C 
ATOM      5  C   UNL     1     154.504 144.766 145.733  1.00  0.00    -0.028 C 
BRANCH   5   6
ATOM      6  C   UNL     1     153.742 145.681 144.801  1.00  0.00     0.005 C 
ATOM      7  C   UNL     1     153.879 145.229 143.342  1.00  0.00     0.012 C 
ATOM      8  C   UNL     1     154.175 147.141 144.972  1.00  0.00     0.012 C 
ENDBRANCH   5   6
ENDBRANCH   3   4
ENDBRANCH   2   3
ENDBRANCH   1   2
BRANCH   1   9
ATOM      9  C   UNL     1     157.969 146.517 147.619  1.00  0.00     0.100 C 
BRANCH   9  10
ATOM     10  C   UNL     1     159.339 146.930 148.075  1.00  0.00     0.220 C 
ATOM     11  O   UNL     1     159.696 148.132 147.953  1.00  0.00    -0.275 OA
ATOM     12  N   UNL     1     160.246 145.954 148.607  1.00  0.00    -0.352 N 
ATOM     13  H   UNL     1     159.950 144.952 148.646  1.00  0.00     0.163 HD
BRANCH  12  14
ATOM     14  C   UNL     1     161.586 146.300 149.071  1.00  0.00     0.151 C 
BRANCH  14  15
ATOM     15  C   UNL     1     161.592 146.470 150.567  1.00  0.00    -0.025 A 
ATOM     16  C   UNL     1     161.348 147.732 151.129  1.00  0.00     0.056 A 
ATOM     17  C   UNL     1     161.863 145.381 151.407  1.00  0.00     0.009 A 
ATOM     18  C   UNL     1     161.367 147.911 152.527  1.00  0.00     0.160 A 
ATOM     19  C   UNL     1     161.884 145.551 152.793  1.00  0.00     0.050 A 
ATOM     20  C   UNL     1     161.637 146.807 153.356  1.00  0.00     0.157 A 
BRANCH  18  21
ATOM     21  O   UNL     1     161.126 149.161 153.120  1.00  0.00    -0.493 OA
ATOM     22  C   UNL     1     160.041 150.020 152.780  1.00  0.00     0.278 C 
ENDBRANCH  18  21
BRANCH  20  23
ATOM     23  O   UNL     1     161.665 146.939 154.745  1.00  0.00    -0.504 OA
ATOM     24  H   UNL     1     162.516 147.156 155.251  1.00  0.00     0.293 HD
ENDBRANCH  20  23
ENDBRANCH  14  15
ENDBRANCH  12  14
ENDBRANCH   9  10
ENDBRANCH   1   9
TORSDOF 10
ENDMDL
MODEL 4
REMARK VINA RESULT:    -4.519     12.077     14.468
REMARK INTER + INTRA:          -8.166
REMARK INTER:                  -7.156
REMARK INTRA:                  -1.009
REMARK UNBOUND:                -1.138
REMARK SMILES COc1cc(CNC(=O)CCCCC=CC(C)C)ccc1O
REMARK SMILES IDX 11 1 12 2 13 3 14 4 15 5 16 6 17 7 18 8 10 9 8 10 9 11 7 12
REMARK SMILES IDX 6 14 5 15 4 16 19 17 3 18 20 19 21 20 2 21 1 22 22 23
REMARK H PARENT 7 13 22 24
REMARK Flexibility Score: inf
ROOT
ATOM      1  C   UNL     1     158.033 146.398 147.593  1.00  0.00     0.010 C 
ENDROOT
BRANCH   1   2
ATOM      2  C   UNL     1     157.686 146.729 146.134  1.00  0.00     0.005 C 
BRANCH   2   3
ATOM      3  C   UNL     1     158.690 146.086 145.170  1.00  0.00     0.027 C 
BRANCH   3   4
ATOM      4  C   UNL     1     160.098 146.501 145.497  1.00  0.00    -0.031 C 
ATOM      5  C   UNL     1     160.445 147.796 145.596  1.00  0.00    -0.028 C 
BRANCH   5   6
ATOM      6  C   UNL     1     161.853 148.243 145.921  1.00  0.00     0.005 C 
ATOM      7  C   UNL     1     162.383 149.226 144.870  1.00  0.00     0.012 C 
ATOM      8  C   UNL     1     162.796 147.045 146.086  1.00  0.00     0.012 C 
ENDBRANCH   5   6
ENDBRANCH   3   4
ENDBRANCH   2   3
ENDBRANCH   1   2
BRANCH   1   9
ATOM      9  C   UNL     1     157.988 144.890 147.876  1.00  0.00     0.100 C 
BRANCH   9  10
ATOM     10  C   UNL     1     159.214 144.422 148.604  1.00  0.00     0.220 C 
ATOM     11  O   UNL     1     159.224 143.276 149.128  1.00  0.00    -0.275 OA
ATOM     12  N   UNL     1     160.348 145.291 148.738  1.00  0.00    -0.352 N 
ATOM     13  H   UNL     1     160.298 146.258 148.346  1.00  0.00     0.163 HD
BRANCH  12  14
ATOM     14  C   UNL     1     161.568 144.886 149.431  1.00  0.00     0.151 C 
BRANCH  14  15
ATOM     15  C   UNL     1     161.607 145.487 150.811  1.00  0.00    -0.025 A 
ATOM     16  C   UNL     1     161.594 146.881 150.969  1.00  0.00     0.056 A 
ATOM     17  C   UNL     1     161.681 144.665 151.945  1.00  0.00     0.009 A 
ATOM     18  C   UNL     1     161.647 147.458 152.253  1.00  0.00     0.160 A 
ATOM     19  C   UNL     1     161.735 145.230 153.220  1.00  0.00     0.050 A 
ATOM     20  C   UNL     1     161.718 146.619 153.381  1.00  0.00     0.157 A 
BRANCH  18  21
ATOM     21  O   UNL     1     161.634 148.850 152.444  1.00  0.00    -0.493 OA
ATOM     22  C   UNL     1     160.471 149.666 152.352  1.00  0.00     0.278 C 
ENDBRANCH  18  21
BRANCH  20  23
ATOM     23  O   UNL     1     161.771 147.148 154.671  1.00  0.00    -0.504 OA
ATOM     24  H   UNL     1     162.489 146.882 155.335  1.00  0.00     0.293 HD
ENDBRANCH  20  23
ENDBRANCH  14  15
ENDBRANCH  12  14
ENDBRANCH   9  10
ENDBRANCH   1   9
TORSDOF 10
ENDMDL
MODEL 5
REMARK VINA RESULT:    -4.518      2.681      6.950
REMARK INTER + INTRA:          -8.165
REMARK INTER:                  -6.966
REMARK INTRA:                  -1.199
REMARK UNBOUND:                -1.138
REMARK SMILES COc1cc(CNC(=O)CCCCC=CC(C)C)ccc1O
REMARK SMILES IDX 11 1 12 2 13 3 14 4 15 5 16 6 17 7 18 8 10 9 8 10 9 11 7 12
REMARK SMILES IDX 6 14 5 15 4 16 19 17 3 18 20 19 21 20 2 21 1 22 22 23
REMARK H PARENT 7 13 22 24
REMARK Flexibility Score: inf
ROOT
ATOM      1  C   UNL     1     160.546 161.653 153.102  1.00  0.00     0.010 C 
ENDROOT
BRANCH   1   2
ATOM      2  C   UNL     1     159.280 162.513 153.219  1.00  0.00     0.005 C 
BRANCH   2   3
ATOM      3  C   UNL     1     158.380 162.337 151.990  1.00  0.00     0.027 C 
BRANCH   3   4
ATOM      4  C   UNL     1     156.961 162.049 152.396  1.00  0.00    -0.031 C 
ATOM      5  C   UNL     1     156.370 160.877 152.107  1.00  0.00    -0.028 C 
BRANCH   5   6
ATOM      6  C   UNL     1     154.944 160.562 152.500  1.00  0.00     0.005 C 
ATOM      7  C   UNL     1     154.447 161.507 153.601  1.00  0.00     0.012 C 
ATOM      8  C   UNL     1     154.789 159.095 152.916  1.00  0.00     0.012 C 
ENDBRANCH   5   6
ENDBRANCH   3   4
ENDBRANCH   2   3
ENDBRANCH   1   2
BRANCH   1   9
ATOM      9  C   UNL     1     161.688 162.388 152.387  1.00  0.00     0.100 C 
BRANCH   9  10
ATOM     10  C   UNL     1     161.906 161.861 150.998  1.00  0.00     0.220 C 
ATOM     11  O   UNL     1     162.434 162.607 150.129  1.00  0.00    -0.275 OA
ATOM     12  N   UNL     1     161.478 160.537 150.654  1.00  0.00    -0.352 N 
ATOM     13  H   UNL     1     160.990 159.956 151.373  1.00  0.00     0.163 HD
BRANCH  12  14
ATOM     14  C   UNL     1     161.669 159.972 149.320  1.00  0.00     0.151 C 
BRANCH  14  15
ATOM     15  C   UNL     1     160.339 159.756 148.650  1.00  0.00    -0.025 A 
ATOM     16  C   UNL     1     160.185 158.720 147.717  1.00  0.00     0.056 A 
ATOM     17  C   UNL     1     159.254 160.599 148.931  1.00  0.00     0.009 A 
ATOM     18  C   UNL     1     158.950 158.516 147.068  1.00  0.00     0.160 A 
ATOM     19  C   UNL     1     158.028 160.403 148.291  1.00  0.00     0.050 A 
ATOM     20  C   UNL     1     157.870 159.368 147.364  1.00  0.00     0.157 A 
BRANCH  18  21
ATOM     21  O   UNL     1     158.764 157.487 146.131  1.00  0.00    -0.493 OA
ATOM     22  C   UNL     1     159.666 156.403 145.932  1.00  0.00     0.278 C 
ENDBRANCH  18  21
BRANCH  20  23
ATOM     23  O   UNL     1     156.630 159.202 146.746  1.00  0.00    -0.504 OA
ATOM     24  H   UNL     1     156.211 159.925 146.173  1.00  0.00     0.293 HD
ENDBRANCH  20  23
ENDBRANCH  14  15
ENDBRANCH  12  14
ENDBRANCH   9  10
ENDBRANCH   1   9
TORSDOF 10
ENDMDL
MODEL 6
REMARK VINA RESULT:    -4.462      2.033      2.929
REMARK INTER + INTRA:          -8.078
REMARK INTER:                  -7.292
REMARK INTRA:                  -0.786
REMARK UNBOUND:                -1.138
REMARK SMILES COc1cc(CNC(=O)CCCCC=CC(C)C)ccc1O
REMARK SMILES IDX 11 1 12 2 13 3 14 4 15 5 16 6 17 7 18 8 10 9 8 10 9 11 7 12
REMARK SMILES IDX 6 14 5 15 4 16 19 17 3 18 20 19 21 20 2 21 1 22 22 23
REMARK H PARENT 7 13 22 24
REMARK Flexibility Score: inf
ROOT
ATOM      1  C   UNL     1     157.404 158.838 146.575  1.00  0.00     0.010 C 
ENDROOT
BRANCH   1   2
ATOM      2  C   UNL     1     157.598 158.283 145.156  1.00  0.00     0.005 C 
BRANCH   2   3
ATOM      3  C   UNL     1     156.276 157.758 144.585  1.00  0.00     0.027 C 
BRANCH   3   4
ATOM      4  C   UNL     1     156.334 156.272 144.364  1.00  0.00    -0.031 C 
ATOM      5  C   UNL     1     157.448 155.565 144.616  1.00  0.00    -0.028 C 
BRANCH   5   6
ATOM      6  C   UNL     1     157.535 154.071 144.400  1.00  0.00     0.005 C 
ATOM      7  C   UNL     1     156.306 153.353 144.971  1.00  0.00     0.012 C 
ATOM      8  C   UNL     1     158.832 153.496 144.980  1.00  0.00     0.012 C 
ENDBRANCH   5   6
ENDBRANCH   3   4
ENDBRANCH   2   3
ENDBRANCH   1   2
BRANCH   1   9
ATOM      9  C   UNL     1     158.406 158.247 147.575  1.00  0.00     0.100 C 
BRANCH   9  10
ATOM     10  C   UNL     1     159.210 159.316 148.257  1.00  0.00     0.220 C 
ATOM     11  O   UNL     1     160.415 159.092 148.550  1.00  0.00    -0.275 OA
ATOM     12  N   UNL     1     158.598 160.564 148.609  1.00  0.00    -0.352 N 
ATOM     13  H   UNL     1     157.582 160.708 148.408  1.00  0.00     0.163 HD
BRANCH  12  14
ATOM     14  C   UNL     1     159.333 161.640 149.267  1.00  0.00     0.151 C 
BRANCH  14  15
ATOM     15  C   UNL     1     159.048 161.637 150.746  1.00  0.00    -0.025 A 
ATOM     16  C   UNL     1     157.768 161.298 151.211  1.00  0.00     0.056 A 
ATOM     17  C   UNL     1     160.044 161.994 151.665  1.00  0.00     0.009 A 
ATOM     18  C   UNL     1     157.481 161.307 152.591  1.00  0.00     0.160 A 
ATOM     19  C   UNL     1     159.766 162.005 153.033  1.00  0.00     0.050 A 
ATOM     20  C   UNL     1     158.494 161.664 153.501  1.00  0.00     0.157 A 
BRANCH  18  21
ATOM     21  O   UNL     1     156.211 160.972 153.088  1.00  0.00    -0.493 OA
ATOM     22  C   UNL     1     155.118 160.539 152.284  1.00  0.00     0.278 C 
ENDBRANCH  18  21
BRANCH  20  23
ATOM     23  O   UNL     1     158.253 161.686 154.875  1.00  0.00    -0.504 OA
ATOM     24  H   UNL     1     158.974 161.921 155.546  1.00  0.00     0.293 HD
ENDBRANCH  20  23
ENDBRANCH  14  15
ENDBRANCH  12  14
ENDBRANCH   9  10
ENDBRANCH   1   9
TORSDOF 10
ENDMDL
MODEL 7
REMARK VINA RESULT:    -4.374      2.813      7.170
REMARK INTER + INTRA:          -7.941
REMARK INTER:                  -6.752
REMARK INTRA:                  -1.189
REMARK UNBOUND:                -1.138
REMARK SMILES COc1cc(CNC(=O)CCCCC=CC(C)C)ccc1O
REMARK SMILES IDX 11 1 12 2 13 3 14 4 15 5 16 6 17 7 18 8 10 9 8 10 9 11 7 12
REMARK SMILES IDX 6 14 5 15 4 16 19 17 3 18 20 19 21 20 2 21 1 22 22 23
REMARK H PARENT 7 13 22 24
REMARK Flexibility Score: inf
ROOT
ATOM      1  C   UNL     1     161.868 161.359 152.011  1.00  0.00     0.010 C 
ENDROOT
BRANCH   1   2
ATOM      2  C   UNL     1     160.491 161.421 152.687  1.00  0.00     0.005 C 
BRANCH   2   3
ATOM      3  C   UNL     1     159.381 161.651 151.655  1.00  0.00     0.027 C 
BRANCH   3   4
ATOM      4  C   UNL     1     158.025 161.632 152.305  1.00  0.00    -0.031 C 
ATOM      5  C   UNL     1     156.956 161.101 151.688  1.00  0.00    -0.028 C 
BRANCH   5   6
ATOM      6  C   UNL     1     155.580 161.071 152.316  1.00  0.00     0.005 C 
ATOM      7  C   UNL     1     155.510 161.981 153.548  1.00  0.00     0.012 C 
ATOM      8  C   UNL     1     155.153 159.639 152.658  1.00  0.00     0.012 C 
ENDBRANCH   5   6
ENDBRANCH   3   4
ENDBRANCH   2   3
ENDBRANCH   1   2
BRANCH   1   9
ATOM      9  C   UNL     1     162.618 160.059 152.331  1.00  0.00     0.100 C 
BRANCH   9  10
ATOM     10  C   UNL     1     162.473 159.047 151.232  1.00  0.00     0.220 C 
ATOM     11  O   UNL     1     162.872 157.866 151.420  1.00  0.00    -0.275 OA
ATOM     12  N   UNL     1     161.926 159.434 149.963  1.00  0.00    -0.352 N 
ATOM     13  H   UNL     1     161.655 160.431 149.808  1.00  0.00     0.163 HD
BRANCH  12  14
ATOM     14  C   UNL     1     161.758 158.491 148.861  1.00  0.00     0.151 C 
BRANCH  14  15
ATOM     15  C   UNL     1     160.388 158.638 148.254  1.00  0.00    -0.025 A 
ATOM     16  C   UNL     1     159.934 157.701 147.314  1.00  0.00     0.056 A 
ATOM     17  C   UNL     1     159.567 159.720 148.601  1.00  0.00     0.009 A 
ATOM     18  C   UNL     1     158.661 157.835 146.724  1.00  0.00     0.160 A 
ATOM     19  C   UNL     1     158.305 159.860 148.020  1.00  0.00     0.050 A 
ATOM     20  C   UNL     1     157.848 158.925 147.086  1.00  0.00     0.157 A 
BRANCH  18  21
ATOM     21  O   UNL     1     158.178 156.912 145.782  1.00  0.00    -0.493 OA
ATOM     22  C   UNL     1     158.506 156.926 144.396  1.00  0.00     0.278 C 
ENDBRANCH  18  21
BRANCH  20  23
ATOM     23  O   UNL     1     156.581 159.096 146.527  1.00  0.00    -0.504 OA
ATOM     24  H   UNL     1     155.879 159.690 146.951  1.00  0.00     0.293 HD
ENDBRANCH  20  23
ENDBRANCH  14  15
ENDBRANCH  12  14
ENDBRANCH   9  10
ENDBRANCH   1   9
TORSDOF 10
ENDMDL
MODEL 8
REMARK VINA RESULT:    -4.372      2.240      3.675
REMARK INTER + INTRA:          -7.938
REMARK INTER:                  -7.264
REMARK INTRA:                  -0.674
REMARK UNBOUND:                -1.138
REMARK SMILES COc1cc(CNC(=O)CCCCC=CC(C)C)ccc1O
REMARK SMILES IDX 11 1 12 2 13 3 14 4 15 5 16 6 17 7 18 8 10 9 8 10 9 11 7 12
REMARK SMILES IDX 6 14 5 15 4 16 19 17 3 18 20 19 21 20 2 21 1 22 22 23
REMARK H PARENT 7 13 22 24
REMARK Flexibility Score: inf
ROOT
ATOM      1  C   UNL     1     158.140 158.619 145.973  1.00  0.00     0.010 C 
ENDROOT
BRANCH   1   2
ATOM      2  C   UNL     1     156.716 159.114 145.684  1.00  0.00     0.005 C 
BRANCH   2   3
ATOM      3  C   UNL     1     156.211 158.581 144.337  1.00  0.00     0.027 C 
BRANCH   3   4
ATOM      4  C   UNL     1     155.742 157.158 144.459  1.00  0.00    -0.031 C 
ATOM      5  C   UNL     1     154.484 156.802 144.145  1.00  0.00    -0.028 C 
BRANCH   5   6
ATOM      6  C   UNL     1     153.985 155.379 144.261  1.00  0.00     0.005 C 
ATOM      7  C   UNL     1     152.797 155.282 145.225  1.00  0.00     0.012 C 
ATOM      8  C   UNL     1     155.111 154.422 144.669  1.00  0.00     0.012 C 
ENDBRANCH   5   6
ENDBRANCH   3   4
ENDBRANCH   2   3
ENDBRANCH   1   2
BRANCH   1   9
ATOM      9  C   UNL     1     158.334 158.226 147.443  1.00  0.00     0.100 C 
BRANCH   9  10
ATOM     10  C   UNL     1     159.242 159.182 148.161  1.00  0.00     0.220 C 
ATOM     11  O   UNL     1     160.431 158.842 148.407  1.00  0.00    -0.275 OA
ATOM     12  N   UNL     1     158.746 160.454 148.600  1.00  0.00    -0.352 N 
ATOM     13  H   UNL     1     157.742 160.694 148.437  1.00  0.00     0.163 HD
BRANCH  12  14
ATOM     14  C   UNL     1     159.585 161.425 149.298  1.00  0.00     0.151 C 
BRANCH  14  15
ATOM     15  C   UNL     1     159.217 161.478 150.757  1.00  0.00    -0.025 A 
ATOM     16  C   UNL     1     157.870 161.397 151.142  1.00  0.00     0.056 A 
ATOM     17  C   UNL     1     160.207 161.634 151.737  1.00  0.00     0.009 A 
ATOM     18  C   UNL     1     157.508 161.463 152.503  1.00  0.00     0.160 A 
ATOM     19  C   UNL     1     159.855 161.701 153.086  1.00  0.00     0.050 A 
ATOM     20  C   UNL     1     158.515 161.616 153.474  1.00  0.00     0.157 A 
BRANCH  18  21
ATOM     21  O   UNL     1     156.170 161.383 152.920  1.00  0.00    -0.493 OA
ATOM     22  C   UNL     1     155.344 160.233 152.767  1.00  0.00     0.278 C 
ENDBRANCH  18  21
BRANCH  20  23
ATOM     23  O   UNL     1     158.201 161.685 154.832  1.00  0.00    -0.504 OA
ATOM     24  H   UNL     1     158.460 160.955 155.485  1.00  0.00     0.293 HD
ENDBRANCH  20  23
ENDBRANCH  14  15
ENDBRANCH  12  14
ENDBRANCH   9  10
ENDBRANCH   1   9
TORSDOF 10
ENDMDL
MODEL 9
REMARK VINA RESULT:    -4.348     10.907     13.483
REMARK INTER + INTRA:          -7.901
REMARK INTER:                  -7.178
REMARK INTRA:                  -0.723
REMARK UNBOUND:                -1.138
REMARK SMILES COc1cc(CNC(=O)CCCCC=CC(C)C)ccc1O
REMARK SMILES IDX 11 1 12 2 13 3 14 4 15 5 16 6 17 7 18 8 10 9 8 10 9 11 7 12
REMARK SMILES IDX 6 14 5 15 4 16 19 17 3 18 20 19 21 20 2 21 1 22 22 23
REMARK H PARENT 7 13 22 24
REMARK Flexibility Score: inf
ROOT
ATOM      1  C   UNL     1     158.389 147.156 145.961  1.00  0.00     0.010 C 
ENDROOT
BRANCH   1   2
ATOM      2  C   UNL     1     159.221 148.363 145.503  1.00  0.00     0.005 C 
BRANCH   2   3
ATOM      3  C   UNL     1     158.658 148.960 144.208  1.00  0.00     0.027 C 
BRANCH   3   4
ATOM      4  C   UNL     1     157.492 149.865 144.492  1.00  0.00    -0.031 C 
ATOM      5  C   UNL     1     156.260 149.592 144.027  1.00  0.00    -0.028 C 
BRANCH   5   6
ATOM      6  C   UNL     1     155.069 150.485 144.295  1.00  0.00     0.005 C 
ATOM      7  C   UNL     1     154.140 150.556 143.077  1.00  0.00     0.012 C 
ATOM      8  C   UNL     1     155.508 151.885 144.740  1.00  0.00     0.012 C 
ENDBRANCH   5   6
ENDBRANCH   3   4
ENDBRANCH   2   3
ENDBRANCH   1   2
BRANCH   1   9
ATOM      9  C   UNL     1     158.245 147.091 147.487  1.00  0.00     0.100 C 
BRANCH   9  10
ATOM     10  C   UNL     1     159.363 146.314 148.120  1.00  0.00     0.220 C 
ATOM     11  O   UNL     1     159.210 145.083 148.348  1.00  0.00    -0.275 OA
ATOM     12  N   UNL     1     160.577 146.976 148.500  1.00  0.00    -0.352 N 
ATOM     13  H   UNL     1     160.661 148.008 148.355  1.00  0.00     0.163 HD
BRANCH  12  14
ATOM     14  C   UNL     1     161.697 146.269 149.114  1.00  0.00     0.151 C 
BRANCH  14  15
ATOM     15  C   UNL     1     161.678 146.460 150.607  1.00  0.00    -0.025 A 
ATOM     16  C   UNL     1     161.350 147.711 151.150  1.00  0.00     0.056 A 
ATOM     17  C   UNL     1     162.011 145.402 151.466  1.00  0.00     0.009 A 
ATOM     18  C   UNL     1     161.345 147.910 152.545  1.00  0.00     0.160 A 
ATOM     19  C   UNL     1     162.008 145.592 152.849  1.00  0.00     0.050 A 
ATOM     20  C   UNL     1     161.677 146.837 153.392  1.00  0.00     0.157 A 
BRANCH  18  21
ATOM     21  O   UNL     1     161.019 149.151 153.118  1.00  0.00    -0.493 OA
ATOM     22  C   UNL     1     160.317 150.191 152.445  1.00  0.00     0.278 C 
ENDBRANCH  18  21
BRANCH  20  23
ATOM     23  O   UNL     1     161.684 146.990 154.779  1.00  0.00    -0.504 OA
ATOM     24  H   UNL     1     161.499 147.880 155.226  1.00  0.00     0.293 HD
ENDBRANCH  20  23
ENDBRANCH  14  15
ENDBRANCH  12  14
ENDBRANCH   9  10
ENDBRANCH   1   9
TORSDOF 10
ENDMDL
