MODEL 1
REMARK VINA RESULT:    -6.635      0.000      0.000
REMARK INTER + INTRA:          -9.842
REMARK INTER:                  -8.962
REMARK INTRA:                  -0.880
REMARK UNBOUND:                -0.880
REMARK SMILES CC[C@@H](CC[C@@H](C)[C@@H]1CC[C@H]2[C@@H]3CC(=O)C4=CC(=O)CC[C@]4(C)[C@H]3CC[C@]21C)C(C)C
REMARK SMILES IDX 4 1 3 2 2 3 1 4 29 5 30 6 31 7 5 8 6 9 7 10 8 11 9 12 27 13
REMARK SMILES IDX 10 14 11 15 26 16 28 17 12 18 25 19 24 20 13 21 22 22 14 23
REMARK SMILES IDX 16 24 21 25 23 26 15 27 17 28 20 29 18 30 19 31
REMARK H PARENT
REMARK Flexibility Score: inf
ROOT
ATOM      1  C   UNL     1      11.577 -14.999 -36.213  1.00  0.00     0.004 C 
ENDROOT
BRANCH   1   2
ATOM      2  C   UNL     1      10.525 -14.191 -37.040  1.00  0.00    -0.009 C 
BRANCH   2   3
ATOM      3  C   UNL     1      11.220 -13.315 -38.124  1.00  0.00     0.000 C 
ATOM      4  C   UNL     1      12.732 -13.114 -37.926  1.00  0.00     0.004 C 
ENDBRANCH   2   3
BRANCH   2   5
ATOM      5  C   UNL     1       9.524 -13.409 -36.111  1.00  0.00    -0.014 C 
ATOM      6  C   UNL     1      10.001 -13.324 -34.645  1.00  0.00     0.007 C 
ATOM      7  C   UNL     1       9.294 -11.967 -36.620  1.00  0.00     0.007 C 
ENDBRANCH   2   5
ENDBRANCH   1   2
BRANCH   1   8
ATOM      8  C   UNL     1      11.322 -16.531 -36.222  1.00  0.00     0.004 C 
BRANCH   8   9
ATOM      9  C   UNL     1      10.116 -16.986 -35.344  1.00  0.00    -0.011 C 
ATOM     10  C   UNL     1       8.900 -17.306 -36.239  1.00  0.00     0.008 C 
BRANCH   9  11
ATOM     11  C   UNL     1      10.533 -18.161 -34.379  1.00  0.00    -0.002 C 
ATOM     12  C   UNL     1       9.323 -18.950 -33.877  1.00  0.00     0.005 C 
ATOM     13  C   UNL     1      11.353 -17.806 -33.080  1.00  0.00    -0.026 C 
ATOM     14  C   UNL     1       9.014 -18.437 -32.476  1.00  0.00     0.005 C 
ATOM     15  C   UNL     1      10.299 -17.782 -31.927  1.00  0.00    -0.001 C 
ATOM     16  C   UNL     1      12.387 -18.944 -32.814  1.00  0.00     0.007 C 
ATOM     17  C   UNL     1      12.127 -16.464 -33.206  1.00  0.00     0.012 C 
ATOM     18  C   UNL     1      10.738 -18.465 -30.585  1.00  0.00     0.004 C 
ATOM     19  C   UNL     1      13.129 -18.822 -31.465  1.00  0.00     0.005 C 
ATOM     20  C   UNL     1      12.266 -18.249 -30.303  1.00  0.00     0.003 C 
ATOM     21  C   UNL     1       9.827 -17.954 -29.428  1.00  0.00     0.085 C 
ATOM     22  C   UNL     1      12.727 -18.768 -28.882  1.00  0.00    -0.000 C 
ATOM     23  C   UNL     1      10.361 -18.298 -28.070  1.00  0.00     0.159 C 
ATOM     24  C   UNL     1      11.798 -18.127 -27.848  1.00  0.00     0.005 C 
ATOM     25  C   UNL     1      14.226 -18.410 -28.583  1.00  0.00     0.020 C 
ATOM     26  C   UNL     1      12.589 -20.320 -28.752  1.00  0.00     0.017 C 
ATOM     27  O   UNL     1       9.583 -18.566 -27.117  1.00  0.00    -0.295 OA
ATOM     28  C   UNL     1      12.205 -17.219 -26.943  1.00  0.00     0.055 C 
ATOM     29  C   UNL     1      14.440 -16.959 -28.156  1.00  0.00     0.081 C 
ATOM     30  C   UNL     1      13.560 -16.654 -26.990  1.00  0.00     0.156 C 
ATOM     31  O   UNL     1      13.923 -15.817 -26.123  1.00  0.00    -0.295 OA
ENDBRANCH   9  11
ENDBRANCH   8   9
ENDBRANCH   1   8
TORSDOF 6
ENDMDL
MODEL 2
REMARK VINA RESULT:    -6.296      3.261      8.011
REMARK INTER + INTRA:          -9.384
REMARK INTER:                  -8.199
REMARK INTRA:                  -1.185
REMARK UNBOUND:                -0.880
REMARK SMILES CC[C@@H](CC[C@@H](C)[C@@H]1CC[C@H]2[C@@H]3CC(=O)C4=CC(=O)CC[C@]4(C)[C@H]3CC[C@]21C)C(C)C
REMARK SMILES IDX 4 1 3 2 2 3 1 4 29 5 30 6 31 7 5 8 6 9 7 10 8 11 9 12 27 13
REMARK SMILES IDX 10 14 11 15 26 16 28 17 12 18 25 19 24 20 13 21 22 22 14 23
REMARK SMILES IDX 16 24 21 25 23 26 15 27 17 28 20 29 18 30 19 31
REMARK H PARENT
REMARK Flexibility Score: inf
ROOT
ATOM      1  C   UNL     1      13.896 -18.528 -28.083  1.00  0.00     0.004 C 
ENDROOT
BRANCH   1   2
ATOM      2  C   UNL     1      13.143 -17.255 -27.577  1.00  0.00    -0.009 C 
BRANCH   2   3
ATOM      3  C   UNL     1      11.677 -17.595 -27.176  1.00  0.00     0.000 C 
ATOM      4  C   UNL     1      11.396 -17.575 -25.665  1.00  0.00     0.004 C 
ENDBRANCH   2   3
BRANCH   2   5
ATOM      5  C   UNL     1      13.283 -16.053 -28.583  1.00  0.00    -0.014 C 
ATOM      6  C   UNL     1      11.922 -15.461 -29.010  1.00  0.00     0.007 C 
ATOM      7  C   UNL     1      14.131 -14.909 -27.979  1.00  0.00     0.007 C 
ENDBRANCH   2   5
ENDBRANCH   1   2
BRANCH   1   8
ATOM      8  C   UNL     1      12.956 -19.584 -28.726  1.00  0.00     0.004 C 
BRANCH   8   9
ATOM      9  C   UNL     1      12.925 -19.550 -30.285  1.00  0.00    -0.011 C 
ATOM     10  C   UNL     1      13.031 -20.984 -30.848  1.00  0.00     0.008 C 
BRANCH   9  11
ATOM     11  C   UNL     1      11.676 -18.743 -30.808  1.00  0.00    -0.002 C 
ATOM     12  C   UNL     1      10.619 -19.656 -31.430  1.00  0.00     0.005 C 
ATOM     13  C   UNL     1      11.913 -17.609 -31.876  1.00  0.00    -0.026 C 
ATOM     14  C   UNL     1      10.804 -19.577 -32.940  1.00  0.00     0.005 C 
ATOM     15  C   UNL     1      11.548 -18.261 -33.249  1.00  0.00    -0.001 C 
ATOM     16  C   UNL     1      10.931 -16.431 -31.584  1.00  0.00     0.007 C 
ATOM     17  C   UNL     1      13.364 -17.051 -31.850  1.00  0.00     0.012 C 
ATOM     18  C   UNL     1      10.709 -17.368 -34.229  1.00  0.00     0.004 C 
ATOM     19  C   UNL     1      10.921 -15.333 -32.670  1.00  0.00     0.005 C 
ATOM     20  C   UNL     1      11.117 -15.857 -34.121  1.00  0.00     0.003 C 
ATOM     21  C   UNL     1      10.838 -17.934 -35.675  1.00  0.00     0.085 C 
ATOM     22  C   UNL     1      10.425 -14.937 -35.207  1.00  0.00    -0.000 C 
ATOM     23  C   UNL     1      10.341 -16.981 -36.720  1.00  0.00     0.159 C 
ATOM     24  C   UNL     1      10.701 -15.569 -36.573  1.00  0.00     0.005 C 
ATOM     25  C   UNL     1      10.964 -13.463 -35.155  1.00  0.00     0.020 C 
ATOM     26  C   UNL     1       8.875 -14.868 -35.015  1.00  0.00     0.017 C 
ATOM     27  O   UNL     1       9.776 -17.402 -37.764  1.00  0.00    -0.295 OA
ATOM     28  C   UNL     1      11.479 -15.003 -37.512  1.00  0.00     0.055 C 
ATOM     29  C   UNL     1      12.324 -13.279 -35.825  1.00  0.00     0.081 C 
ATOM     30  C   UNL     1      12.258 -13.792 -37.224  1.00  0.00     0.156 C 
ATOM     31  O   UNL     1      12.967 -13.271 -38.125  1.00  0.00    -0.295 OA
ENDBRANCH   9  11
ENDBRANCH   8   9
ENDBRANCH   1   8
TORSDOF 6
ENDMDL
MODEL 3
REMARK VINA RESULT:    -5.715      1.096      1.924
REMARK INTER + INTRA:          -8.599
REMARK INTER:                  -8.055
REMARK INTRA:                  -0.544
REMARK UNBOUND:                -0.880
REMARK SMILES CC[C@@H](CC[C@@H](C)[C@@H]1CC[C@H]2[C@@H]3CC(=O)C4=CC(=O)CC[C@]4(C)[C@H]3CC[C@]21C)C(C)C
REMARK SMILES IDX 4 1 3 2 2 3 1 4 29 5 30 6 31 7 5 8 6 9 7 10 8 11 9 12 27 13
REMARK SMILES IDX 10 14 11 15 26 16 28 17 12 18 25 19 24 20 13 21 22 22 14 23
REMARK SMILES IDX 16 24 21 25 23 26 15 27 17 28 20 29 18 30 19 31
REMARK H PARENT
REMARK Flexibility Score: inf
ROOT
ATOM      1  C   UNL     1       9.552 -14.895 -36.263  1.00  0.00     0.004 C 
ENDROOT
BRANCH   1   2
ATOM      2  C   UNL     1      10.133 -13.977 -35.139  1.00  0.00    -0.009 C 
BRANCH   2   3
ATOM      3  C   UNL     1       9.077 -13.723 -34.023  1.00  0.00     0.000 C 
ATOM      4  C   UNL     1       9.243 -14.589 -32.763  1.00  0.00     0.004 C 
ENDBRANCH   2   3
BRANCH   2   5
ATOM      5  C   UNL     1      10.788 -12.673 -35.728  1.00  0.00    -0.014 C 
ATOM      6  C   UNL     1      10.513 -12.487 -37.236  1.00  0.00     0.007 C 
ATOM      7  C   UNL     1      10.282 -11.409 -34.994  1.00  0.00     0.007 C 
ENDBRANCH   2   5
ENDBRANCH   1   2
BRANCH   1   8
ATOM      8  C   UNL     1       9.224 -16.333 -35.775  1.00  0.00     0.004 C 
BRANCH   8   9
ATOM      9  C   UNL     1      10.191 -17.430 -36.317  1.00  0.00    -0.011 C 
ATOM     10  C   UNL     1      11.443 -16.774 -36.937  1.00  0.00     0.008 C 
BRANCH   9  11
ATOM     11  C   UNL     1      10.508 -18.502 -35.205  1.00  0.00    -0.002 C 
ATOM     12  C   UNL     1       9.243 -19.193 -34.694  1.00  0.00     0.005 C 
ATOM     13  C   UNL     1      11.267 -18.031 -33.907  1.00  0.00    -0.026 C 
ATOM     14  C   UNL     1       8.875 -18.518 -33.379  1.00  0.00     0.005 C 
ATOM     15  C   UNL     1      10.150 -17.845 -32.828  1.00  0.00    -0.001 C 
ATOM     16  C   UNL     1      12.241 -19.163 -33.455  1.00  0.00     0.007 C 
ATOM     17  C   UNL     1      12.096 -16.735 -34.132  1.00  0.00     0.012 C 
ATOM     18  C   UNL     1      10.487 -18.388 -31.395  1.00  0.00     0.004 C 
ATOM     19  C   UNL     1      12.909 -18.914 -32.086  1.00  0.00     0.005 C 
ATOM     20  C   UNL     1      12.004 -18.189 -31.048  1.00  0.00     0.003 C 
ATOM     21  C   UNL     1       9.532 -17.723 -30.359  1.00  0.00     0.085 C 
ATOM     22  C   UNL     1      12.364 -18.560 -29.553  1.00  0.00    -0.000 C 
ATOM     23  C   UNL     1       9.976 -17.929 -28.942  1.00  0.00     0.159 C 
ATOM     24  C   UNL     1      11.404 -17.779 -28.653  1.00  0.00     0.005 C 
ATOM     25  C   UNL     1      13.857 -18.217 -29.206  1.00  0.00     0.020 C 
ATOM     26  C   UNL     1      12.162 -20.083 -29.262  1.00  0.00     0.017 C 
ATOM     27  O   UNL     1       9.135 -18.065 -28.014  1.00  0.00    -0.295 OA
ATOM     28  C   UNL     1      11.792 -16.789 -27.831  1.00  0.00     0.055 C 
ATOM     29  C   UNL     1      14.100 -16.735 -28.928  1.00  0.00     0.081 C 
ATOM     30  C   UNL     1      13.168 -16.275 -27.857  1.00  0.00     0.156 C 
ATOM     31  O   UNL     1      13.512 -15.358 -27.067  1.00  0.00    -0.295 OA
ENDBRANCH   9  11
ENDBRANCH   8   9
ENDBRANCH   1   8
TORSDOF 6
ENDMDL
MODEL 4
REMARK VINA RESULT:    -5.675      3.153      7.426
REMARK INTER + INTRA:          -8.545
REMARK INTER:                  -9.316
REMARK INTRA:                   0.772
REMARK UNBOUND:                -0.880
REMARK SMILES CC[C@@H](CC[C@@H](C)[C@@H]1CC[C@H]2[C@@H]3CC(=O)C4=CC(=O)CC[C@]4(C)[C@H]3CC[C@]21C)C(C)C
REMARK SMILES IDX 4 1 3 2 2 3 1 4 29 5 30 6 31 7 5 8 6 9 7 10 8 11 9 12 27 13
REMARK SMILES IDX 10 14 11 15 26 16 28 17 12 18 25 19 24 20 13 21 22 22 14 23
REMARK SMILES IDX 16 24 21 25 23 26 15 27 17 28 20 29 18 30 19 31
REMARK H PARENT
REMARK Flexibility Score: inf
ROOT
ATOM      1  C   UNL     1      13.687 -16.730 -28.922  1.00  0.00     0.004 C 
ENDROOT
BRANCH   1   2
ATOM      2  C   UNL     1      14.058 -15.342 -29.537  1.00  0.00    -0.009 C 
BRANCH   2   3
ATOM      3  C   UNL     1      15.215 -15.479 -30.570  1.00  0.00     0.000 C 
ATOM      4  C   UNL     1      14.786 -15.379 -32.044  1.00  0.00     0.004 C 
ENDBRANCH   2   3
BRANCH   2   5
ATOM      5  C   UNL     1      14.300 -14.254 -28.426  1.00  0.00    -0.014 C 
ATOM      6  C   UNL     1      14.533 -14.862 -27.026  1.00  0.00     0.007 C 
ATOM      7  C   UNL     1      15.519 -13.364 -28.765  1.00  0.00     0.007 C 
ENDBRANCH   2   5
ENDBRANCH   1   2
BRANCH   1   8
ATOM      8  C   UNL     1      12.342 -16.720 -28.146  1.00  0.00     0.004 C 
BRANCH   8   9
ATOM      9  C   UNL     1      11.618 -18.101 -28.100  1.00  0.00    -0.011 C 
ATOM     10  C   UNL     1      10.841 -18.247 -26.774  1.00  0.00     0.008 C 
BRANCH   9  11
ATOM     11  C   UNL     1      10.739 -18.320 -29.391  1.00  0.00    -0.002 C 
ATOM     12  C   UNL     1      11.235 -19.495 -30.233  1.00  0.00     0.005 C 
ATOM     13  C   UNL     1      10.592 -17.124 -30.407  1.00  0.00    -0.026 C 
ATOM     14  C   UNL     1      12.054 -18.903 -31.373  1.00  0.00     0.005 C 
ATOM     15  C   UNL     1      11.612 -17.435 -31.550  1.00  0.00    -0.001 C 
ATOM     16  C   UNL     1       9.144 -17.134 -30.988  1.00  0.00     0.007 C 
ATOM     17  C   UNL     1      10.844 -15.739 -29.747  1.00  0.00     0.012 C 
ATOM     18  C   UNL     1      11.099 -17.184 -33.011  1.00  0.00     0.004 C 
ATOM     19  C   UNL     1       8.919 -16.132 -32.141  1.00  0.00     0.005 C 
ATOM     20  C   UNL     1      10.145 -15.941 -33.080  1.00  0.00     0.003 C 
ATOM     21  C   UNL     1      12.322 -17.068 -33.970  1.00  0.00     0.085 C 
ATOM     22  C   UNL     1       9.736 -15.538 -34.554  1.00  0.00    -0.000 C 
ATOM     23  C   UNL     1      11.957 -16.518 -35.316  1.00  0.00     0.159 C 
ATOM     24  C   UNL     1      11.032 -15.384 -35.353  1.00  0.00     0.005 C 
ATOM     25  C   UNL     1       8.897 -14.211 -34.588  1.00  0.00     0.020 C 
ATOM     26  C   UNL     1       8.875 -16.645 -35.245  1.00  0.00     0.017 C 
ATOM     27  O   UNL     1      12.547 -16.910 -36.358  1.00  0.00    -0.295 OA
ATOM     28  C   UNL     1      11.474 -14.209 -35.835  1.00  0.00     0.055 C 
ATOM     29  C   UNL     1       9.740 -12.945 -34.446  1.00  0.00     0.081 C 
ATOM     30  C   UNL     1      10.810 -12.946 -35.486  1.00  0.00     0.156 C 
ATOM     31  O   UNL     1      11.233 -11.861 -35.962  1.00  0.00    -0.295 OA
ENDBRANCH   9  11
ENDBRANCH   8   9
ENDBRANCH   1   8
TORSDOF 6
ENDMDL
MODEL 5
REMARK VINA RESULT:    -5.640      3.117      7.792
REMARK INTER + INTRA:          -8.498
REMARK INTER:                  -9.182
REMARK INTRA:                   0.684
REMARK UNBOUND:                -0.880
REMARK SMILES CC[C@@H](CC[C@@H](C)[C@@H]1CC[C@H]2[C@@H]3CC(=O)C4=CC(=O)CC[C@]4(C)[C@H]3CC[C@]21C)C(C)C
REMARK SMILES IDX 4 1 3 2 2 3 1 4 29 5 30 6 31 7 5 8 6 9 7 10 8 11 9 12 27 13
REMARK SMILES IDX 10 14 11 15 26 16 28 17 12 18 25 19 24 20 13 21 22 22 14 23
REMARK SMILES IDX 16 24 21 25 23 26 15 27 17 28 20 29 18 30 19 31
REMARK H PARENT
REMARK Flexibility Score: inf
ROOT
ATOM      1  C   UNL     1      13.730 -16.744 -28.694  1.00  0.00     0.004 C 
ENDROOT
BRANCH   1   2
ATOM      2  C   UNL     1      14.711 -15.623 -28.222  1.00  0.00    -0.009 C 
BRANCH   2   3
ATOM      3  C   UNL     1      14.600 -15.395 -26.685  1.00  0.00     0.000 C 
ATOM      4  C   UNL     1      14.387 -16.670 -25.853  1.00  0.00     0.004 C 
ENDBRANCH   2   3
BRANCH   2   5
ATOM      5  C   UNL     1      14.569 -14.317 -29.088  1.00  0.00    -0.014 C 
ATOM      6  C   UNL     1      14.996 -13.040 -28.330  1.00  0.00     0.007 C 
ATOM      7  C   UNL     1      15.412 -14.405 -30.382  1.00  0.00     0.007 C 
ENDBRANCH   2   5
ENDBRANCH   1   2
BRANCH   1   8
ATOM      8  C   UNL     1      12.313 -16.625 -28.069  1.00  0.00     0.004 C 
BRANCH   8   9
ATOM      9  C   UNL     1      11.530 -17.973 -27.993  1.00  0.00    -0.011 C 
ATOM     10  C   UNL     1      10.739 -18.051 -26.670  1.00  0.00     0.008 C 
BRANCH   9  11
ATOM     11  C   UNL     1      10.652 -18.188 -29.285  1.00  0.00    -0.002 C 
ATOM     12  C   UNL     1      11.116 -19.395 -30.101  1.00  0.00     0.005 C 
ATOM     13  C   UNL     1      10.549 -17.009 -30.325  1.00  0.00    -0.026 C 
ATOM     14  C   UNL     1      11.960 -18.852 -31.247  1.00  0.00     0.005 C 
ATOM     15  C   UNL     1      11.566 -17.374 -31.455  1.00  0.00    -0.001 C 
ATOM     16  C   UNL     1       9.105 -16.984 -30.914  1.00  0.00     0.007 C 
ATOM     17  C   UNL     1      10.841 -15.620 -29.690  1.00  0.00     0.012 C 
ATOM     18  C   UNL     1      11.069 -17.135 -32.924  1.00  0.00     0.004 C 
ATOM     19  C   UNL     1       8.918 -15.998 -32.088  1.00  0.00     0.005 C 
ATOM     20  C   UNL     1      10.155 -15.864 -33.022  1.00  0.00     0.003 C 
ATOM     21  C   UNL     1      12.300 -17.077 -33.877  1.00  0.00     0.085 C 
ATOM     22  C   UNL     1       9.767 -15.477 -34.506  1.00  0.00    -0.000 C 
ATOM     23  C   UNL     1      11.960 -16.541 -35.236  1.00  0.00     0.159 C 
ATOM     24  C   UNL     1      11.072 -15.379 -35.300  1.00  0.00     0.005 C 
ATOM     25  C   UNL     1       8.971 -14.125 -34.571  1.00  0.00     0.020 C 
ATOM     26  C   UNL     1       8.876 -16.569 -35.182  1.00  0.00     0.017 C 
ATOM     27  O   UNL     1      12.543 -16.971 -36.266  1.00  0.00    -0.295 OA
ATOM     28  C   UNL     1      11.553 -14.228 -35.801  1.00  0.00     0.055 C 
ATOM     29  C   UNL     1       9.853 -12.884 -34.448  1.00  0.00     0.081 C 
ATOM     30  C   UNL     1      10.928 -12.939 -35.480  1.00  0.00     0.156 C 
ATOM     31  O   UNL     1      11.388 -11.876 -35.975  1.00  0.00    -0.295 OA
ENDBRANCH   9  11
ENDBRANCH   8   9
ENDBRANCH   1   8
TORSDOF 6
ENDMDL
MODEL 6
REMARK VINA RESULT:    -5.530      1.667      3.071
REMARK INTER + INTRA:          -8.350
REMARK INTER:                  -7.051
REMARK INTRA:                  -1.299
REMARK UNBOUND:                -0.880
REMARK SMILES CC[C@@H](CC[C@@H](C)[C@@H]1CC[C@H]2[C@@H]3CC(=O)C4=CC(=O)CC[C@]4(C)[C@H]3CC[C@]21C)C(C)C
REMARK SMILES IDX 4 1 3 2 2 3 1 4 29 5 30 6 31 7 5 8 6 9 7 10 8 11 9 12 27 13
REMARK SMILES IDX 10 14 11 15 26 16 28 17 12 18 25 19 24 20 13 21 22 22 14 23
REMARK SMILES IDX 16 24 21 25 23 26 15 27 17 28 20 29 18 30 19 31
REMARK H PARENT
REMARK Flexibility Score: inf
ROOT
ATOM      1  C   UNL     1       8.895 -13.908 -36.755  1.00  0.00     0.004 C 
ENDROOT
BRANCH   1   2
ATOM      2  C   UNL     1      10.066 -12.907 -37.017  1.00  0.00    -0.009 C 
BRANCH   2   3
ATOM      3  C   UNL     1      11.435 -13.647 -37.061  1.00  0.00     0.000 C 
ATOM      4  C   UNL     1      12.647 -12.754 -37.375  1.00  0.00     0.004 C 
ENDBRANCH   2   3
BRANCH   2   5
ATOM      5  C   UNL     1      10.018 -11.679 -36.034  1.00  0.00    -0.014 C 
ATOM      6  C   UNL     1       9.006 -10.597 -36.467  1.00  0.00     0.007 C 
ATOM      7  C   UNL     1       9.655 -12.121 -34.597  1.00  0.00     0.007 C 
ENDBRANCH   2   5
ENDBRANCH   1   2
BRANCH   1   8
ATOM      8  C   UNL     1       8.875 -15.105 -37.744  1.00  0.00     0.004 C 
BRANCH   8   9
ATOM      9  C   UNL     1       9.104 -16.495 -37.073  1.00  0.00    -0.011 C 
ATOM     10  C   UNL     1       8.877 -17.624 -38.102  1.00  0.00     0.008 C 
BRANCH   9  11
ATOM     11  C   UNL     1      10.505 -16.551 -36.353  1.00  0.00    -0.002 C 
ATOM     12  C   UNL     1      11.315 -17.781 -36.764  1.00  0.00     0.005 C 
ATOM     13  C   UNL     1      10.537 -16.551 -34.777  1.00  0.00    -0.026 C 
ATOM     14  C   UNL     1      11.147 -18.809 -35.653  1.00  0.00     0.005 C 
ATOM     15  C   UNL     1      10.732 -18.049 -34.375  1.00  0.00    -0.001 C 
ATOM     16  C   UNL     1      11.769 -15.721 -34.299  1.00  0.00     0.007 C 
ATOM     17  C   UNL     1       9.257 -15.929 -34.150  1.00  0.00     0.012 C 
ATOM     18  C   UNL     1      11.753 -18.318 -33.215  1.00  0.00     0.004 C 
ATOM     19  C   UNL     1      12.032 -15.798 -32.780  1.00  0.00     0.005 C 
ATOM     20  C   UNL     1      11.711 -17.178 -32.137  1.00  0.00     0.003 C 
ATOM     21  C   UNL     1      11.487 -19.733 -32.617  1.00  0.00     0.085 C 
ATOM     22  C   UNL     1      12.595 -17.483 -30.861  1.00  0.00    -0.000 C 
ATOM     23  C   UNL     1      12.190 -19.954 -31.311  1.00  0.00     0.159 C 
ATOM     24  C   UNL     1      12.171 -18.858 -30.340  1.00  0.00     0.005 C 
ATOM     25  C   UNL     1      12.418 -16.387 -29.750  1.00  0.00     0.020 C 
ATOM     26  C   UNL     1      14.118 -17.548 -31.205  1.00  0.00     0.017 C 
ATOM     27  O   UNL     1      12.635 -21.091 -31.001  1.00  0.00    -0.295 OA
ATOM     28  C   UNL     1      11.544 -19.050 -29.167  1.00  0.00     0.055 C 
ATOM     29  C   UNL     1      11.135 -16.538 -28.934  1.00  0.00     0.081 C 
ATOM     30  C   UNL     1      11.073 -17.915 -28.363  1.00  0.00     0.156 C 
ATOM     31  O   UNL     1      10.502 -18.119 -27.260  1.00  0.00    -0.295 OA
ENDBRANCH   9  11
ENDBRANCH   8   9
ENDBRANCH   1   8
TORSDOF 6
ENDMDL
MODEL 7
REMARK VINA RESULT:    -5.177      3.149      8.091
REMARK INTER + INTRA:          -7.872
REMARK INTER:                  -7.608
REMARK INTRA:                  -0.265
REMARK UNBOUND:                -0.880
REMARK SMILES CC[C@@H](CC[C@@H](C)[C@@H]1CC[C@H]2[C@@H]3CC(=O)C4=CC(=O)CC[C@]4(C)[C@H]3CC[C@]21C)C(C)C
REMARK SMILES IDX 4 1 3 2 2 3 1 4 29 5 30 6 31 7 5 8 6 9 7 10 8 11 9 12 27 13
REMARK SMILES IDX 10 14 11 15 26 16 28 17 12 18 25 19 24 20 13 21 22 22 14 23
REMARK SMILES IDX 16 24 21 25 23 26 15 27 17 28 20 29 18 30 19 31
REMARK H PARENT
REMARK Flexibility Score: inf
ROOT
ATOM      1  C   UNL     1      12.614 -18.156 -29.272  1.00  0.00     0.004 C 
ENDROOT
BRANCH   1   2
ATOM      2  C   UNL     1      13.263 -17.052 -28.376  1.00  0.00    -0.009 C 
BRANCH   2   3
ATOM      3  C   UNL     1      12.467 -16.868 -27.051  1.00  0.00     0.000 C 
ATOM      4  C   UNL     1      11.504 -18.016 -26.707  1.00  0.00     0.004 C 
ENDBRANCH   2   3
BRANCH   2   5
ATOM      5  C   UNL     1      13.515 -15.720 -29.177  1.00  0.00    -0.014 C 
ATOM      6  C   UNL     1      14.186 -14.621 -28.325  1.00  0.00     0.007 C 
ATOM      7  C   UNL     1      14.404 -15.968 -30.418  1.00  0.00     0.007 C 
ENDBRANCH   2   5
ENDBRANCH   1   2
BRANCH   1   8
ATOM      8  C   UNL     1      11.409 -17.641 -30.106  1.00  0.00     0.004 C 
BRANCH   8   9
ATOM      9  C   UNL     1      10.574 -18.768 -30.789  1.00  0.00    -0.011 C 
ATOM     10  C   UNL     1       9.217 -18.931 -30.069  1.00  0.00     0.008 C 
BRANCH   9  11
ATOM     11  C   UNL     1      10.455 -18.521 -32.341  1.00  0.00    -0.002 C 
ATOM     12  C   UNL     1      11.731 -18.914 -33.086  1.00  0.00     0.005 C 
ATOM     13  C   UNL     1      10.124 -17.063 -32.843  1.00  0.00    -0.026 C 
ATOM     14  C   UNL     1      12.505 -17.627 -33.340  1.00  0.00     0.005 C 
ATOM     15  C   UNL     1      11.501 -16.458 -33.268  1.00  0.00    -0.001 C 
ATOM     16  C   UNL     1       9.193 -17.162 -34.092  1.00  0.00     0.007 C 
ATOM     17  C   UNL     1       9.405 -16.205 -31.765  1.00  0.00     0.012 C 
ATOM     18  C   UNL     1      11.505 -15.641 -34.607  1.00  0.00     0.004 C 
ATOM     19  C   UNL     1       8.945 -15.814 -34.802  1.00  0.00     0.005 C 
ATOM     20  C   UNL     1      10.165 -14.848 -34.800  1.00  0.00     0.003 C 
ATOM     21  C   UNL     1      12.766 -14.727 -34.646  1.00  0.00     0.085 C 
ATOM     22  C   UNL     1      10.181 -13.874 -36.046  1.00  0.00    -0.000 C 
ATOM     23  C   UNL     1      12.698 -13.686 -35.723  1.00  0.00     0.159 C 
ATOM     24  C   UNL     1      11.423 -12.990 -35.909  1.00  0.00     0.005 C 
ATOM     25  C   UNL     1       8.880 -12.998 -36.124  1.00  0.00     0.020 C 
ATOM     26  C   UNL     1      10.294 -14.652 -37.397  1.00  0.00     0.017 C 
ATOM     27  O   UNL     1      13.737 -13.314 -36.330  1.00  0.00    -0.295 OA
ATOM     28  C   UNL     1      11.374 -11.666 -35.679  1.00  0.00     0.055 C 
ATOM     29  C   UNL     1       8.875 -11.813 -35.160  1.00  0.00     0.081 C 
ATOM     30  C   UNL     1      10.103 -10.994 -35.382  1.00  0.00     0.156 C 
ATOM     31  O   UNL     1      10.080  -9.751 -35.185  1.00  0.00    -0.295 OA
ENDBRANCH   9  11
ENDBRANCH   8   9
ENDBRANCH   1   8
TORSDOF 6
ENDMDL
MODEL 8
REMARK VINA RESULT:    -4.584      1.425      1.705
REMARK INTER + INTRA:          -7.072
REMARK INTER:                  -7.125
REMARK INTRA:                   0.053
REMARK UNBOUND:                -0.880
REMARK SMILES CC[C@@H](CC[C@@H](C)[C@@H]1CC[C@H]2[C@@H]3CC(=O)C4=CC(=O)CC[C@]4(C)[C@H]3CC[C@]21C)C(C)C
REMARK SMILES IDX 4 1 3 2 2 3 1 4 29 5 30 6 31 7 5 8 6 9 7 10 8 11 9 12 27 13
REMARK SMILES IDX 10 14 11 15 26 16 28 17 12 18 25 19 24 20 13 21 22 22 14 23
REMARK SMILES IDX 16 24 21 25 23 26 15 27 17 28 20 29 18 30 19 31
REMARK H PARENT
REMARK Flexibility Score: inf
ROOT
ATOM      1  C   UNL     1      10.511 -14.402 -36.127  1.00  0.00     0.004 C 
ENDROOT
BRANCH   1   2
ATOM      2  C   UNL     1      10.007 -13.073 -36.779  1.00  0.00    -0.009 C 
BRANCH   2   3
ATOM      3  C   UNL     1      11.085 -12.474 -37.730  1.00  0.00     0.000 C 
ATOM      4  C   UNL     1      12.388 -13.284 -37.827  1.00  0.00     0.004 C 
ENDBRANCH   2   3
BRANCH   2   5
ATOM      5  C   UNL     1       9.453 -12.066 -35.704  1.00  0.00    -0.014 C 
ATOM      6  C   UNL     1       9.818 -12.464 -34.257  1.00  0.00     0.007 C 
ATOM      7  C   UNL     1       9.980 -10.633 -35.950  1.00  0.00     0.007 C 
ENDBRANCH   2   5
ENDBRANCH   1   2
BRANCH   1   8
ATOM      8  C   UNL     1       9.724 -15.655 -36.599  1.00  0.00     0.004 C 
BRANCH   8   9
ATOM      9  C   UNL     1      10.600 -16.934 -36.773  1.00  0.00    -0.011 C 
ATOM     10  C   UNL     1      12.052 -16.538 -37.118  1.00  0.00     0.008 C 
BRANCH   9  11
ATOM     11  C   UNL     1      10.470 -17.881 -35.520  1.00  0.00    -0.002 C 
ATOM     12  C   UNL     1       9.024 -18.005 -35.039  1.00  0.00     0.005 C 
ATOM     13  C   UNL     1      11.300 -17.528 -34.227  1.00  0.00    -0.026 C 
ATOM     14  C   UNL     1       8.875 -17.066 -33.849  1.00  0.00     0.005 C 
ATOM     15  C   UNL     1      10.286 -16.813 -33.276  1.00  0.00    -0.001 C 
ATOM     16  C   UNL     1      11.785 -18.855 -33.564  1.00  0.00     0.007 C 
ATOM     17  C   UNL     1      12.547 -16.652 -34.532  1.00  0.00     0.012 C 
ATOM     18  C   UNL     1      10.353 -17.233 -31.766  1.00  0.00     0.004 C 
ATOM     19  C   UNL     1      12.448 -18.667 -32.182  1.00  0.00     0.005 C 
ATOM     20  C   UNL     1      11.826 -17.532 -31.317  1.00  0.00     0.003 C 
ATOM     21  C   UNL     1       9.662 -16.137 -30.899  1.00  0.00     0.085 C 
ATOM     22  C   UNL     1      11.974 -17.792 -29.764  1.00  0.00    -0.000 C 
ATOM     23  C   UNL     1       9.950 -16.284 -29.435  1.00  0.00     0.159 C 
ATOM     24  C   UNL     1      11.325 -16.605 -29.047  1.00  0.00     0.005 C 
ATOM     25  C   UNL     1      13.476 -17.950 -29.335  1.00  0.00     0.020 C 
ATOM     26  C   UNL     1      11.227 -19.090 -29.313  1.00  0.00     0.017 C 
ATOM     27  O   UNL     1       9.084 -15.984 -28.572  1.00  0.00    -0.295 OA
ATOM     28  C   UNL     1      12.013 -15.710 -28.318  1.00  0.00     0.055 C 
ATOM     29  C   UNL     1      14.225 -16.624 -29.214  1.00  0.00     0.081 C 
ATOM     30  C   UNL     1      13.481 -15.720 -28.289  1.00  0.00     0.156 C 
ATOM     31  O   UNL     1      14.103 -14.881 -27.586  1.00  0.00    -0.295 OA
ENDBRANCH   9  11
ENDBRANCH   8   9
ENDBRANCH   1   8
TORSDOF 6
ENDMDL
MODEL 9
REMARK VINA RESULT:    -4.321      1.771      3.020
REMARK INTER + INTRA:          -6.716
REMARK INTER:                  -7.851
REMARK INTRA:                   1.135
REMARK UNBOUND:                -0.880
REMARK SMILES CC[C@@H](CC[C@@H](C)[C@@H]1CC[C@H]2[C@@H]3CC(=O)C4=CC(=O)CC[C@]4(C)[C@H]3CC[C@]21C)C(C)C
REMARK SMILES IDX 4 1 3 2 2 3 1 4 29 5 30 6 31 7 5 8 6 9 7 10 8 11 9 12 27 13
REMARK SMILES IDX 10 14 11 15 26 16 28 17 12 18 25 19 24 20 13 21 22 22 14 23
REMARK SMILES IDX 16 24 21 25 23 26 15 27 17 28 20 29 18 30 19 31
REMARK H PARENT
REMARK Flexibility Score: inf
ROOT
ATOM      1  C   UNL     1       9.946 -14.286 -36.731  1.00  0.00     0.004 C 
ENDROOT
BRANCH   1   2
ATOM      2  C   UNL     1       9.847 -13.082 -37.723  1.00  0.00    -0.009 C 
BRANCH   2   3
ATOM      3  C   UNL     1      11.262 -12.571 -38.125  1.00  0.00     0.000 C 
ATOM      4  C   UNL     1      12.426 -13.195 -37.338  1.00  0.00     0.004 C 
ENDBRANCH   2   3
BRANCH   2   5
ATOM      5  C   UNL     1       8.875 -11.964 -37.193  1.00  0.00    -0.014 C 
ATOM      6  C   UNL     1       9.113 -11.610 -35.709  1.00  0.00     0.007 C 
ATOM      7  C   UNL     1       9.010 -10.663 -38.018  1.00  0.00     0.007 C 
ENDBRANCH   2   5
ENDBRANCH   1   2
BRANCH   1   8
ATOM      8  C   UNL     1       9.587 -15.650 -37.381  1.00  0.00     0.004 C 
BRANCH   8   9
ATOM      9  C   UNL     1       9.966 -16.892 -36.516  1.00  0.00    -0.011 C 
ATOM     10  C   UNL     1      11.453 -17.251 -36.729  1.00  0.00     0.008 C 
BRANCH   9  11
ATOM     11  C   UNL     1       9.566 -16.673 -35.007  1.00  0.00    -0.002 C 
ATOM     12  C   UNL     1       9.813 -15.235 -34.549  1.00  0.00     0.005 C 
ATOM     13  C   UNL     1      10.255 -17.573 -33.912  1.00  0.00    -0.026 C 
ATOM     14  C   UNL     1      11.132 -15.238 -33.786  1.00  0.00     0.005 C 
ATOM     15  C   UNL     1      11.392 -16.684 -33.312  1.00  0.00    -0.001 C 
ATOM     16  C   UNL     1       9.209 -17.900 -32.800  1.00  0.00     0.007 C 
ATOM     17  C   UNL     1      10.791 -18.914 -34.487  1.00  0.00     0.012 C 
ATOM     18  C   UNL     1      11.546 -16.735 -31.751  1.00  0.00     0.004 C 
ATOM     19  C   UNL     1       9.801 -18.616 -31.567  1.00  0.00     0.005 C 
ATOM     20  C   UNL     1      11.243 -18.168 -31.190  1.00  0.00     0.003 C 
ATOM     21  C   UNL     1      12.962 -16.213 -31.360  1.00  0.00     0.085 C 
ATOM     22  C   UNL     1      11.550 -18.320 -29.646  1.00  0.00    -0.000 C 
ATOM     23  C   UNL     1      13.322 -16.517 -29.937  1.00  0.00     0.159 C 
ATOM     24  C   UNL     1      12.990 -17.848 -29.426  1.00  0.00     0.005 C 
ATOM     25  C   UNL     1      11.367 -19.800 -29.154  1.00  0.00     0.020 C 
ATOM     26  C   UNL     1      10.614 -17.424 -28.771  1.00  0.00     0.017 C 
ATOM     27  O   UNL     1      14.025 -15.718 -29.263  1.00  0.00    -0.295 OA
ATOM     28  C   UNL     1      13.992 -18.664 -29.057  1.00  0.00     0.055 C 
ATOM     29  C   UNL     1      12.537 -20.716 -29.506  1.00  0.00     0.081 C 
ATOM     30  C   UNL     1      13.803 -20.119 -28.991  1.00  0.00     0.156 C 
ATOM     31  O   UNL     1      14.753 -20.861 -28.628  1.00  0.00    -0.295 OA
ENDBRANCH   9  11
ENDBRANCH   8   9
ENDBRANCH   1   8
TORSDOF 6
ENDMDL
