MODEL 1
REMARK VINA RESULT:    -5.397      0.000      0.000
REMARK INTER + INTRA:          -7.395
REMARK INTER:                  -7.291
REMARK INTRA:                  -0.104
REMARK UNBOUND:                -0.104
REMARK SMILES [NH3+]CCCC[C@@H]([NH3+])C(=O)[O-]
REMARK SMILES IDX 4 1 3 2 2 3 1 4 5 8 6 9 7 10 8 14 9 15 10 16
REMARK H PARENT 1 5 1 6 1 7 7 11 7 12 7 13
REMARK Flexibility Score: inf
ROOT
ATOM      1  C   UNL     1      20.733  24.330  29.371  1.00  0.00     0.012 C 
ENDROOT
BRANCH   1   2
ATOM      2  C   UNL     1      19.710  23.200  29.170  1.00  0.00     0.061 C 
BRANCH   2   3
ATOM      3  C   UNL     1      18.944  22.858  30.458  1.00  0.00     0.258 C 
BRANCH   3   4
ATOM      4  N   UNL     1      18.105  23.980  30.878  1.00  0.00    -0.358 N 
ATOM      5  H   UNL     1      17.749  23.799  31.844  1.00  0.00     0.344 HD
ATOM      6  H   UNL     1      18.664  24.864  30.885  1.00  0.00     0.344 HD
ATOM      7  H   UNL     1      17.289  24.082  30.231  1.00  0.00     0.344 HD
ENDBRANCH   3   4
ENDBRANCH   2   3
ENDBRANCH   1   2
BRANCH   1   8
ATOM      8  C   UNL     1      21.777  23.995  30.455  1.00  0.00     0.072 C 
BRANCH   8   9
ATOM      9  C   UNL     1      22.754  25.151  30.770  1.00  0.00     0.227 C 
BRANCH   9  10
ATOM     10  N   UNL     1      22.656  26.241  29.787  1.00  0.00    -0.350 N 
ATOM     11  H   UNL     1      22.454  25.841  28.842  1.00  0.00     0.345 HD
ATOM     12  H   UNL     1      21.870  26.881  30.044  1.00  0.00     0.345 HD
ATOM     13  H   UNL     1      23.543  26.790  29.736  1.00  0.00     0.345 HD
ENDBRANCH   9  10
BRANCH   9  14
ATOM     14  C   UNL     1      22.577  25.658  32.180  1.00  0.00     0.099 C 
ATOM     15  O   UNL     1      22.530  26.893  32.424  1.00  0.00    -0.544 OA
ATOM     16  O   UNL     1      22.418  24.751  33.220  1.00  0.00    -0.544 OA
ENDBRANCH   9  14
ENDBRANCH   8   9
ENDBRANCH   1   8
TORSDOF 7
ENDMDL
MODEL 2
REMARK VINA RESULT:    -5.369      0.317      1.069
REMARK INTER + INTRA:          -7.356
REMARK INTER:                  -7.229
REMARK INTRA:                  -0.127
REMARK UNBOUND:                -0.104
REMARK SMILES [NH3+]CCCC[C@@H]([NH3+])C(=O)[O-]
REMARK SMILES IDX 4 1 3 2 2 3 1 4 5 8 6 9 7 10 8 14 9 15 10 16
REMARK H PARENT 1 5 1 6 1 7 7 11 7 12 7 13
REMARK Flexibility Score: inf
ROOT
ATOM      1  C   UNL     1      21.211  24.305  29.144  1.00  0.00     0.012 C 
ENDROOT
BRANCH   1   2
ATOM      2  C   UNL     1      19.821  23.652  29.077  1.00  0.00     0.061 C 
BRANCH   2   3
ATOM      3  C   UNL     1      19.316  23.189  30.453  1.00  0.00     0.258 C 
BRANCH   3   4
ATOM      4  N   UNL     1      18.137  23.954  30.859  1.00  0.00    -0.358 N 
ATOM      5  H   UNL     1      17.723  24.416  30.017  1.00  0.00     0.344 HD
ATOM      6  H   UNL     1      17.423  23.316  31.279  1.00  0.00     0.344 HD
ATOM      7  H   UNL     1      18.406  24.691  31.551  1.00  0.00     0.344 HD
ENDBRANCH   3   4
ENDBRANCH   2   3
ENDBRANCH   1   2
BRANCH   1   8
ATOM      8  C   UNL     1      21.928  24.034  30.481  1.00  0.00     0.072 C 
BRANCH   8   9
ATOM      9  C   UNL     1      22.884  25.164  30.926  1.00  0.00     0.227 C 
BRANCH   9  10
ATOM     10  N   UNL     1      22.865  26.302  29.996  1.00  0.00    -0.350 N 
ATOM     11  H   UNL     1      23.842  26.632  29.828  1.00  0.00     0.345 HD
ATOM     12  H   UNL     1      22.459  26.004  29.079  1.00  0.00     0.345 HD
ATOM     13  H   UNL     1      22.303  27.097  30.377  1.00  0.00     0.345 HD
ENDBRANCH   9  10
BRANCH   9  14
ATOM     14  C   UNL     1      22.605  25.601  32.344  1.00  0.00     0.099 C 
ATOM     15  O   UNL     1      22.456  24.754  33.264  1.00  0.00    -0.544 OA
ATOM     16  O   UNL     1      22.558  26.954  32.649  1.00  0.00    -0.544 OA
ENDBRANCH   9  14
ENDBRANCH   8   9
ENDBRANCH   1   8
TORSDOF 7
ENDMDL
MODEL 3
REMARK VINA RESULT:    -4.986      2.777      3.241
REMARK INTER + INTRA:          -6.839
REMARK INTER:                  -6.741
REMARK INTRA:                  -0.098
REMARK UNBOUND:                -0.104
REMARK SMILES [NH3+]CCCC[C@@H]([NH3+])C(=O)[O-]
REMARK SMILES IDX 4 1 3 2 2 3 1 4 5 8 6 9 7 10 8 14 9 15 10 16
REMARK H PARENT 1 5 1 6 1 7 7 11 7 12 7 13
REMARK Flexibility Score: inf
ROOT
ATOM      1  C   UNL     1      20.917  23.201  27.608  1.00  0.00     0.012 C 
ENDROOT
BRANCH   1   2
ATOM      2  C   UNL     1      21.026  22.838  26.118  1.00  0.00     0.061 C 
BRANCH   2   3
ATOM      3  C   UNL     1      19.660  22.802  25.415  1.00  0.00     0.258 C 
BRANCH   3   4
ATOM      4  N   UNL     1      18.576  22.685  26.389  1.00  0.00    -0.358 N 
ATOM      5  H   UNL     1      18.855  22.004  27.132  1.00  0.00     0.344 HD
ATOM      6  H   UNL     1      18.391  23.614  26.834  1.00  0.00     0.344 HD
ATOM      7  H   UNL     1      17.707  22.338  25.922  1.00  0.00     0.344 HD
ENDBRANCH   3   4
ENDBRANCH   2   3
ENDBRANCH   1   2
BRANCH   1   8
ATOM      8  C   UNL     1      21.869  24.346  28.008  1.00  0.00     0.072 C 
BRANCH   8   9
ATOM      9  C   UNL     1      21.484  25.057  29.326  1.00  0.00     0.227 C 
BRANCH   9  10
ATOM     10  N   UNL     1      20.638  24.212  30.183  1.00  0.00    -0.350 N 
ATOM     11  H   UNL     1      20.237  23.431  29.615  1.00  0.00     0.345 HD
ATOM     12  H   UNL     1      21.215  23.795  30.949  1.00  0.00     0.345 HD
ATOM     13  H   UNL     1      19.854  24.759  30.603  1.00  0.00     0.345 HD
ENDBRANCH   9  10
BRANCH   9  14
ATOM     14  C   UNL     1      22.702  25.555  30.065  1.00  0.00     0.099 C 
ATOM     15  O   UNL     1      23.862  25.280  29.658  1.00  0.00    -0.544 OA
ATOM     16  O   UNL     1      22.544  26.365  31.181  1.00  0.00    -0.544 OA
ENDBRANCH   9  14
ENDBRANCH   8   9
ENDBRANCH   1   8
TORSDOF 7
ENDMDL
MODEL 4
REMARK VINA RESULT:    -4.844      3.269      3.856
REMARK INTER + INTRA:          -6.647
REMARK INTER:                  -6.264
REMARK INTRA:                  -0.383
REMARK UNBOUND:                -0.104
REMARK SMILES [NH3+]CCCC[C@@H]([NH3+])C(=O)[O-]
REMARK SMILES IDX 4 1 3 2 2 3 1 4 5 8 6 9 7 10 8 14 9 15 10 16
REMARK H PARENT 1 5 1 6 1 7 7 11 7 12 7 13
REMARK Flexibility Score: inf
ROOT
ATOM      1  C   UNL     1      21.273  23.739  27.324  1.00  0.00     0.012 C 
ENDROOT
BRANCH   1   2
ATOM      2  C   UNL     1      21.096  22.775  26.140  1.00  0.00     0.061 C 
BRANCH   2   3
ATOM      3  C   UNL     1      19.686  22.834  25.531  1.00  0.00     0.258 C 
BRANCH   3   4
ATOM      4  N   UNL     1      18.665  22.768  26.576  1.00  0.00    -0.358 N 
ATOM      5  H   UNL     1      19.114  22.935  27.506  1.00  0.00     0.344 HD
ATOM      6  H   UNL     1      17.938  23.503  26.416  1.00  0.00     0.344 HD
ATOM      7  H   UNL     1      18.217  21.822  26.583  1.00  0.00     0.344 HD
ENDBRANCH   3   4
ENDBRANCH   2   3
ENDBRANCH   1   2
BRANCH   1   8
ATOM      8  C   UNL     1      21.502  23.001  28.658  1.00  0.00     0.072 C 
BRANCH   8   9
ATOM      9  C   UNL     1      20.960  23.750  29.896  1.00  0.00     0.227 C 
BRANCH   9  10
ATOM     10  N   UNL     1      21.063  25.209  29.749  1.00  0.00    -0.350 N 
ATOM     11  H   UNL     1      20.297  25.670  30.291  1.00  0.00     0.345 HD
ATOM     12  H   UNL     1      21.978  25.541  30.131  1.00  0.00     0.345 HD
ATOM     13  H   UNL     1      20.985  25.498  28.747  1.00  0.00     0.345 HD
ENDBRANCH   9  10
BRANCH   9  14
ATOM     14  C   UNL     1      19.551  23.323  30.230  1.00  0.00     0.099 C 
ATOM     15  O   UNL     1      18.854  23.976  31.051  1.00  0.00    -0.544 OA
ATOM     16  O   UNL     1      18.998  22.222  29.590  1.00  0.00    -0.544 OA
ENDBRANCH   9  14
ENDBRANCH   8   9
ENDBRANCH   1   8
TORSDOF 7
ENDMDL
MODEL 5
REMARK VINA RESULT:    -4.767      1.877      2.548
REMARK INTER + INTRA:          -6.543
REMARK INTER:                  -6.381
REMARK INTRA:                  -0.162
REMARK UNBOUND:                -0.104
REMARK SMILES [NH3+]CCCC[C@@H]([NH3+])C(=O)[O-]
REMARK SMILES IDX 4 1 3 2 2 3 1 4 5 8 6 9 7 10 8 14 9 15 10 16
REMARK H PARENT 1 5 1 6 1 7 7 11 7 12 7 13
REMARK Flexibility Score: inf
ROOT
ATOM      1  C   UNL     1      20.615  24.142  29.177  1.00  0.00     0.012 C 
ENDROOT
BRANCH   1   2
ATOM      2  C   UNL     1      20.330  23.248  27.959  1.00  0.00     0.061 C 
BRANCH   2   3
ATOM      3  C   UNL     1      21.598  22.922  27.153  1.00  0.00     0.258 C 
BRANCH   3   4
ATOM      4  N   UNL     1      21.942  24.025  26.256  1.00  0.00    -0.358 N 
ATOM      5  H   UNL     1      22.316  23.635  25.361  1.00  0.00     0.344 HD
ATOM      6  H   UNL     1      21.092  24.597  26.047  1.00  0.00     0.344 HD
ATOM      7  H   UNL     1      22.676  24.629  26.693  1.00  0.00     0.344 HD
ENDBRANCH   3   4
ENDBRANCH   2   3
ENDBRANCH   1   2
BRANCH   1   8
ATOM      8  C   UNL     1      21.892  23.722  29.932  1.00  0.00     0.072 C 
BRANCH   8   9
ATOM      9  C   UNL     1      22.732  24.908  30.460  1.00  0.00     0.227 C 
BRANCH   9  10
ATOM     10  N   UNL     1      22.142  26.206  30.101  1.00  0.00    -0.350 N 
ATOM     11  H   UNL     1      22.722  26.976  30.505  1.00  0.00     0.345 HD
ATOM     12  H   UNL     1      22.132  26.316  29.061  1.00  0.00     0.345 HD
ATOM     13  H   UNL     1      21.166  26.295  30.464  1.00  0.00     0.345 HD
ENDBRANCH   9  10
BRANCH   9  14
ATOM     14  C   UNL     1      22.972  24.799  31.946  1.00  0.00     0.099 C 
ATOM     15  O   UNL     1      22.107  25.193  32.773  1.00  0.00    -0.544 OA
ATOM     16  O   UNL     1      24.142  24.213  32.411  1.00  0.00    -0.544 OA
ENDBRANCH   9  14
ENDBRANCH   8   9
ENDBRANCH   1   8
TORSDOF 7
ENDMDL
MODEL 6
REMARK VINA RESULT:    -4.731      2.141      2.883
REMARK INTER + INTRA:          -6.494
REMARK INTER:                  -6.399
REMARK INTRA:                  -0.095
REMARK UNBOUND:                -0.104
REMARK SMILES [NH3+]CCCC[C@@H]([NH3+])C(=O)[O-]
REMARK SMILES IDX 4 1 3 2 2 3 1 4 5 8 6 9 7 10 8 14 9 15 10 16
REMARK H PARENT 1 5 1 6 1 7 7 11 7 12 7 13
REMARK Flexibility Score: inf
ROOT
ATOM      1  C   UNL     1      21.812  24.158  28.412  1.00  0.00     0.012 C 
ENDROOT
BRANCH   1   2
ATOM      2  C   UNL     1      20.796  23.154  27.842  1.00  0.00     0.061 C 
BRANCH   2   3
ATOM      3  C   UNL     1      21.034  22.848  26.356  1.00  0.00     0.258 C 
BRANCH   3   4
ATOM      4  N   UNL     1      22.380  23.251  25.950  1.00  0.00    -0.358 N 
ATOM      5  H   UNL     1      22.415  23.327  24.907  1.00  0.00     0.344 HD
ATOM      6  H   UNL     1      22.616  24.182  26.364  1.00  0.00     0.344 HD
ATOM      7  H   UNL     1      23.079  22.537  26.260  1.00  0.00     0.344 HD
ENDBRANCH   3   4
ENDBRANCH   2   3
ENDBRANCH   1   2
BRANCH   1   8
ATOM      8  C   UNL     1      22.220  23.828  29.861  1.00  0.00     0.072 C 
BRANCH   8   9
ATOM      9  C   UNL     1      22.931  24.986  30.597  1.00  0.00     0.227 C 
BRANCH   9  10
ATOM     10  N   UNL     1      22.213  26.261  30.445  1.00  0.00    -0.350 N 
ATOM     11  H   UNL     1      21.853  26.344  29.467  1.00  0.00     0.345 HD
ATOM     12  H   UNL     1      21.397  26.288  31.097  1.00  0.00     0.345 HD
ATOM     13  H   UNL     1      22.837  27.076  30.643  1.00  0.00     0.345 HD
ENDBRANCH   9  10
BRANCH   9  14
ATOM     14  C   UNL     1      23.174  24.655  32.049  1.00  0.00     0.099 C 
ATOM     15  O   UNL     1      24.217  24.047  32.409  1.00  0.00    -0.544 OA
ATOM     16  O   UNL     1      22.259  25.066  33.009  1.00  0.00    -0.544 OA
ENDBRANCH   9  14
ENDBRANCH   8   9
ENDBRANCH   1   8
TORSDOF 7
ENDMDL
MODEL 7
REMARK VINA RESULT:    -4.628      1.532      1.550
REMARK INTER + INTRA:          -6.355
REMARK INTER:                  -6.197
REMARK INTRA:                  -0.159
REMARK UNBOUND:                -0.104
REMARK SMILES [NH3+]CCCC[C@@H]([NH3+])C(=O)[O-]
REMARK SMILES IDX 4 1 3 2 2 3 1 4 5 8 6 9 7 10 8 14 9 15 10 16
REMARK H PARENT 1 5 1 6 1 7 7 11 7 12 7 13
REMARK Flexibility Score: inf
ROOT
ATOM      1  C   UNL     1      21.753  23.182  28.760  1.00  0.00     0.012 C 
ENDROOT
BRANCH   1   2
ATOM      2  C   UNL     1      20.295  23.669  28.725  1.00  0.00     0.061 C 
BRANCH   2   3
ATOM      3  C   UNL     1      19.410  22.968  29.767  1.00  0.00     0.258 C 
BRANCH   3   4
ATOM      4  N   UNL     1      18.714  23.947  30.602  1.00  0.00    -0.358 N 
ATOM      5  H   UNL     1      19.415  24.596  31.027  1.00  0.00     0.344 HD
ATOM      6  H   UNL     1      18.047  24.505  30.020  1.00  0.00     0.344 HD
ATOM      7  H   UNL     1      18.194  23.462  31.369  1.00  0.00     0.344 HD
ENDBRANCH   3   4
ENDBRANCH   2   3
ENDBRANCH   1   2
BRANCH   1   8
ATOM      8  C   UNL     1      22.681  24.151  29.521  1.00  0.00     0.072 C 
BRANCH   8   9
ATOM      9  C   UNL     1      22.733  23.908  31.047  1.00  0.00     0.227 C 
BRANCH   9  10
ATOM     10  N   UNL     1      23.950  23.187  31.450  1.00  0.00    -0.350 N 
ATOM     11  H   UNL     1      24.729  23.870  31.593  1.00  0.00     0.345 HD
ATOM     12  H   UNL     1      23.783  22.688  32.354  1.00  0.00     0.345 HD
ATOM     13  H   UNL     1      24.240  22.493  30.724  1.00  0.00     0.345 HD
ENDBRANCH   9  10
BRANCH   9  14
ATOM     14  C   UNL     1      22.568  25.194  31.819  1.00  0.00     0.099 C 
ATOM     15  O   UNL     1      22.587  26.309  31.232  1.00  0.00    -0.544 OA
ATOM     16  O   UNL     1      22.344  25.148  33.189  1.00  0.00    -0.544 OA
ENDBRANCH   9  14
ENDBRANCH   8   9
ENDBRANCH   1   8
TORSDOF 7
ENDMDL
MODEL 8
REMARK VINA RESULT:    -4.518      3.888      5.213
REMARK INTER + INTRA:          -6.207
REMARK INTER:                  -6.090
REMARK INTRA:                  -0.117
REMARK UNBOUND:                -0.104
REMARK SMILES [NH3+]CCCC[C@@H]([NH3+])C(=O)[O-]
REMARK SMILES IDX 4 1 3 2 2 3 1 4 5 8 6 9 7 10 8 14 9 15 10 16
REMARK H PARENT 1 5 1 6 1 7 7 11 7 12 7 13
REMARK Flexibility Score: inf
ROOT
ATOM      1  C   UNL     1      20.683  23.654  30.006  1.00  0.00     0.012 C 
ENDROOT
BRANCH   1   2
ATOM      2  C   UNL     1      21.938  23.933  30.850  1.00  0.00     0.061 C 
BRANCH   2   3
ATOM      3  C   UNL     1      22.690  25.195  30.396  1.00  0.00     0.258 C 
BRANCH   3   4
ATOM      4  N   UNL     1      22.525  26.276  31.367  1.00  0.00    -0.358 N 
ATOM      5  H   UNL     1      23.453  26.498  31.794  1.00  0.00     0.344 HD
ATOM      6  H   UNL     1      22.158  27.133  30.892  1.00  0.00     0.344 HD
ATOM      7  H   UNL     1      21.866  25.982  32.125  1.00  0.00     0.344 HD
ENDBRANCH   3   4
ENDBRANCH   2   3
ENDBRANCH   1   2
BRANCH   1   8
ATOM      8  C   UNL     1      20.843  24.109  28.542  1.00  0.00     0.072 C 
BRANCH   8   9
ATOM      9  C   UNL     1      20.545  23.005  27.501  1.00  0.00     0.227 C 
BRANCH   9  10
ATOM     10  N   UNL     1      19.129  22.987  27.104  1.00  0.00    -0.350 N 
ATOM     11  H   UNL     1      19.037  22.543  26.163  1.00  0.00     0.345 HD
ATOM     12  H   UNL     1      18.577  22.422  27.788  1.00  0.00     0.345 HD
ATOM     13  H   UNL     1      18.734  23.954  27.060  1.00  0.00     0.345 HD
ENDBRANCH   9  10
BRANCH   9  14
ATOM     14  C   UNL     1      21.457  23.112  26.303  1.00  0.00     0.099 C 
ATOM     15  O   UNL     1      21.229  22.450  25.256  1.00  0.00    -0.544 OA
ATOM     16  O   UNL     1      22.536  23.985  26.337  1.00  0.00    -0.544 OA
ENDBRANCH   9  14
ENDBRANCH   8   9
ENDBRANCH   1   8
TORSDOF 7
ENDMDL
