MODEL 1
REMARK VINA RESULT:    -3.702      0.000      0.000
REMARK INTER + INTRA:          -4.525
REMARK INTER:                  -4.459
REMARK INTRA:                  -0.066
REMARK UNBOUND:                -0.066
REMARK SMILES CC[C@@H](C)[C@H]([NH3+])C(=O)[O-]
REMARK SMILES IDX 3 1 4 2 5 3 6 4 7 8 8 9 9 10 2 11 1 12
REMARK H PARENT 6 5 6 6 6 7
REMARK Flexibility Score: inf
ROOT
ATOM      1  C   UNL     1      18.172 -39.646  -7.754  1.00  0.00     0.050 C 
ATOM      2  C   UNL     1      18.083 -38.381  -8.624  1.00  0.00     0.014 C 
ENDROOT
BRANCH   1   3
ATOM      3  C   UNL     1      18.949 -40.806  -8.458  1.00  0.00     0.230 C 
BRANCH   3   4
ATOM      4  N   UNL     1      19.525 -40.375  -9.741  1.00  0.00    -0.350 N 
ATOM      5  H   UNL     1      19.188 -41.005 -10.506  1.00  0.00     0.345 HD
ATOM      6  H   UNL     1      19.250 -39.394  -9.971  1.00  0.00     0.345 HD
ATOM      7  H   UNL     1      20.569 -40.441  -9.704  1.00  0.00     0.345 HD
ENDBRANCH   3   4
BRANCH   3   8
ATOM      8  C   UNL     1      18.154 -42.085  -8.612  1.00  0.00     0.099 C 
ATOM      9  O   UNL     1      18.341 -43.064  -7.842  1.00  0.00    -0.544 OA
ATOM     10  O   UNL     1      17.173 -42.174  -9.592  1.00  0.00    -0.544 OA
ENDBRANCH   3   8
ENDBRANCH   1   3
BRANCH   1  11
ATOM     11  C   UNL     1      18.597 -39.318  -6.297  1.00  0.00     0.006 C 
ATOM     12  C   UNL     1      19.680 -38.249  -6.147  1.00  0.00     0.004 C 
ENDBRANCH   1  11
TORSDOF 4
ENDMDL
MODEL 2
REMARK VINA RESULT:    -3.551      1.988      2.860
REMARK INTER + INTRA:          -4.343
REMARK INTER:                  -4.234
REMARK INTRA:                  -0.109
REMARK UNBOUND:                -0.066
REMARK SMILES CC[C@@H](C)[C@H]([NH3+])C(=O)[O-]
REMARK SMILES IDX 3 1 4 2 5 3 6 4 7 8 8 9 9 10 2 11 1 12
REMARK H PARENT 6 5 6 6 6 7
REMARK Flexibility Score: inf
ROOT
ATOM      1  C   UNL     1      19.737 -38.354  -7.247  1.00  0.00     0.050 C 
ATOM      2  C   UNL     1      20.024 -37.898  -5.806  1.00  0.00     0.014 C 
ENDROOT
BRANCH   1   3
ATOM      3  C   UNL     1      18.608 -39.433  -7.321  1.00  0.00     0.230 C 
BRANCH   3   4
ATOM      4  N   UNL     1      18.137 -39.822  -5.983  1.00  0.00    -0.350 N 
ATOM      5  H   UNL     1      18.382 -39.073  -5.294  1.00  0.00     0.345 HD
ATOM      6  H   UNL     1      17.102 -39.963  -5.971  1.00  0.00     0.345 HD
ATOM      7  H   UNL     1      18.608 -40.706  -5.682  1.00  0.00     0.345 HD
ENDBRANCH   3   4
BRANCH   3   8
ATOM      8  C   UNL     1      18.959 -40.646  -8.156  1.00  0.00     0.099 C 
ATOM      9  O   UNL     1      19.942 -40.632  -8.943  1.00  0.00    -0.544 OA
ATOM     10  O   UNL     1      18.214 -41.812  -8.026  1.00  0.00    -0.544 OA
ENDBRANCH   3   8
ENDBRANCH   1   3
BRANCH   1  11
ATOM     11  C   UNL     1      19.604 -37.151  -8.220  1.00  0.00     0.006 C 
ATOM     12  C   UNL     1      18.434 -37.218  -9.201  1.00  0.00     0.004 C 
ENDBRANCH   1  11
TORSDOF 4
ENDMDL
MODEL 3
REMARK VINA RESULT:    -3.537      3.390      4.341
REMARK INTER + INTRA:          -4.326
REMARK INTER:                  -4.203
REMARK INTRA:                  -0.122
REMARK UNBOUND:                -0.066
REMARK SMILES CC[C@@H](C)[C@H]([NH3+])C(=O)[O-]
REMARK SMILES IDX 3 1 4 2 5 3 6 4 7 8 8 9 9 10 2 11 1 12
REMARK H PARENT 6 5 6 6 6 7
REMARK Flexibility Score: inf
ROOT
ATOM      1  C   UNL     1      18.462 -39.285  -7.340  1.00  0.00     0.050 C 
ATOM      2  C   UNL     1      18.126 -39.643  -5.883  1.00  0.00     0.014 C 
ENDROOT
BRANCH   1   3
ATOM      3  C   UNL     1      19.574 -38.192  -7.449  1.00  0.00     0.230 C 
BRANCH   3   4
ATOM      4  N   UNL     1      19.967 -37.681  -6.128  1.00  0.00    -0.350 N 
ATOM      5  H   UNL     1      19.778 -38.408  -5.400  1.00  0.00     0.345 HD
ATOM      6  H   UNL     1      20.983 -37.437  -6.101  1.00  0.00     0.345 HD
ATOM      7  H   UNL     1      19.404 -36.832  -5.891  1.00  0.00     0.345 HD
ENDBRANCH   3   4
BRANCH   3   8
ATOM      8  C   UNL     1      19.247 -37.061  -8.402  1.00  0.00     0.099 C 
ATOM      9  O   UNL     1      18.385 -37.204  -9.310  1.00  0.00    -0.544 OA
ATOM     10  O   UNL     1      19.875 -35.831  -8.254  1.00  0.00    -0.544 OA
ENDBRANCH   3   8
ENDBRANCH   1   3
BRANCH   1  11
ATOM     11  C   UNL     1      18.652 -40.550  -8.219  1.00  0.00     0.006 C 
ATOM     12  C   UNL     1      19.971 -40.632  -8.988  1.00  0.00     0.004 C 
ENDBRANCH   1  11
TORSDOF 4
ENDMDL
MODEL 4
REMARK VINA RESULT:    -3.472      3.837      4.628
REMARK INTER + INTRA:          -4.248
REMARK INTER:                  -4.174
REMARK INTRA:                  -0.073
REMARK UNBOUND:                -0.066
REMARK SMILES CC[C@@H](C)[C@H]([NH3+])C(=O)[O-]
REMARK SMILES IDX 3 1 4 2 5 3 6 4 7 8 8 9 9 10 2 11 1 12
REMARK H PARENT 6 5 6 6 6 7
REMARK Flexibility Score: inf
ROOT
ATOM      1  C   UNL     1      19.889 -38.268  -7.885  1.00  0.00     0.050 C 
ATOM      2  C   UNL     1      19.739 -39.616  -8.611  1.00  0.00     0.014 C 
ENDROOT
BRANCH   1   3
ATOM      3  C   UNL     1      19.214 -37.089  -8.659  1.00  0.00     0.230 C 
BRANCH   3   4
ATOM      4  N   UNL     1      18.067 -37.548  -9.458  1.00  0.00    -0.350 N 
ATOM      5  H   UNL     1      17.499 -38.225  -8.898  1.00  0.00     0.345 HD
ATOM      6  H   UNL     1      17.456 -36.749  -9.739  1.00  0.00     0.345 HD
ATOM      7  H   UNL     1      18.404 -38.042 -10.317  1.00  0.00     0.345 HD
ENDBRANCH   3   4
BRANCH   3   8
ATOM      8  C   UNL     1      20.169 -36.262  -9.492  1.00  0.00     0.099 C 
ATOM      9  O   UNL     1      19.976 -35.031  -9.675  1.00  0.00    -0.544 OA
ATOM     10  O   UNL     1      21.303 -36.855 -10.035  1.00  0.00    -0.544 OA
ENDBRANCH   3   8
ENDBRANCH   1   3
BRANCH   1  11
ATOM     11  C   UNL     1      19.550 -38.383  -6.374  1.00  0.00     0.006 C 
ATOM     12  C   UNL     1      18.438 -39.370  -6.018  1.00  0.00     0.004 C 
ENDBRANCH   1  11
TORSDOF 4
ENDMDL
MODEL 5
REMARK VINA RESULT:    -3.470      3.013      3.807
REMARK INTER + INTRA:          -4.245
REMARK INTER:                  -4.155
REMARK INTRA:                  -0.090
REMARK UNBOUND:                -0.066
REMARK SMILES CC[C@@H](C)[C@H]([NH3+])C(=O)[O-]
REMARK SMILES IDX 3 1 4 2 5 3 6 4 7 8 8 9 9 10 2 11 1 12
REMARK H PARENT 6 5 6 6 6 7
REMARK Flexibility Score: inf
ROOT
ATOM      1  C   UNL     1      18.825 -37.444  -8.599  1.00  0.00     0.050 C 
ATOM      2  C   UNL     1      17.872 -38.305  -9.445  1.00  0.00     0.014 C 
ENDROOT
BRANCH   1   3
ATOM      3  C   UNL     1      19.862 -38.301  -7.802  1.00  0.00     0.230 C 
BRANCH   3   4
ATOM      4  N   UNL     1      20.142 -39.579  -8.473  1.00  0.00    -0.350 N 
ATOM      5  H   UNL     1      20.823 -40.133  -7.903  1.00  0.00     0.345 HD
ATOM      6  H   UNL     1      19.271 -40.143  -8.595  1.00  0.00     0.345 HD
ATOM      7  H   UNL     1      20.572 -39.404  -9.411  1.00  0.00     0.345 HD
ENDBRANCH   3   4
BRANCH   3   8
ATOM      8  C   UNL     1      19.510 -38.509  -6.344  1.00  0.00     0.099 C 
ATOM      9  O   UNL     1      20.107 -37.877  -5.433  1.00  0.00    -0.544 OA
ATOM     10  O   UNL     1      18.484 -39.381  -6.000  1.00  0.00    -0.544 OA
ENDBRANCH   3   8
ENDBRANCH   1   3
BRANCH   1  11
ATOM     11  C   UNL     1      19.398 -36.248  -9.407  1.00  0.00     0.006 C 
ATOM     12  C   UNL     1      20.000 -35.115  -8.576  1.00  0.00     0.004 C 
ENDBRANCH   1  11
TORSDOF 4
ENDMDL
MODEL 6
REMARK VINA RESULT:    -3.452      2.727      3.755
REMARK INTER + INTRA:          -4.223
REMARK INTER:                  -4.104
REMARK INTRA:                  -0.120
REMARK UNBOUND:                -0.066
REMARK SMILES CC[C@@H](C)[C@H]([NH3+])C(=O)[O-]
REMARK SMILES IDX 3 1 4 2 5 3 6 4 7 8 8 9 9 10 2 11 1 12
REMARK H PARENT 6 5 6 6 6 7
REMARK Flexibility Score: inf
ROOT
ATOM      1  C   UNL     1      20.089 -39.881  -8.548  1.00  0.00     0.050 C 
ATOM      2  C   UNL     1      20.953 -38.946  -9.411  1.00  0.00     0.014 C 
ENDROOT
BRANCH   1   3
ATOM      3  C   UNL     1      18.845 -39.157  -7.937  1.00  0.00     0.230 C 
BRANCH   3   4
ATOM      4  N   UNL     1      18.594 -37.862  -8.588  1.00  0.00    -0.350 N 
ATOM      5  H   UNL     1      17.768 -37.944  -9.224  1.00  0.00     0.345 HD
ATOM      6  H   UNL     1      18.403 -37.114  -7.885  1.00  0.00     0.345 HD
ATOM      7  H   UNL     1      19.422 -37.587  -9.167  1.00  0.00     0.345 HD
ENDBRANCH   3   4
BRANCH   3   8
ATOM      8  C   UNL     1      18.883 -39.017  -6.429  1.00  0.00     0.099 C 
ATOM      9  O   UNL     1      19.680 -38.219  -5.870  1.00  0.00    -0.544 OA
ATOM     10  O   UNL     1      17.998 -39.748  -5.647  1.00  0.00    -0.544 OA
ENDBRANCH   3   8
ENDBRANCH   1   3
BRANCH   1  11
ATOM     11  C   UNL     1      19.817 -41.236  -9.255  1.00  0.00     0.006 C 
ATOM     12  C   UNL     1      18.696 -42.084  -8.654  1.00  0.00     0.004 C 
ENDBRANCH   1  11
TORSDOF 4
ENDMDL
MODEL 7
REMARK VINA RESULT:    -3.354      1.600      1.771
REMARK INTER + INTRA:          -4.106
REMARK INTER:                  -4.004
REMARK INTRA:                  -0.102
REMARK UNBOUND:                -0.066
REMARK SMILES CC[C@@H](C)[C@H]([NH3+])C(=O)[O-]
REMARK SMILES IDX 3 1 4 2 5 3 6 4 7 8 8 9 9 10 2 11 1 12
REMARK H PARENT 6 5 6 6 6 7
REMARK Flexibility Score: inf
ROOT
ATOM      1  C   UNL     1      18.378 -38.790  -8.242  1.00  0.00     0.050 C 
ATOM      2  C   UNL     1      19.154 -37.513  -8.606  1.00  0.00     0.014 C 
ENDROOT
BRANCH   1   3
ATOM      3  C   UNL     1      18.467 -39.885  -9.355  1.00  0.00     0.230 C 
BRANCH   3   4
ATOM      4  N   UNL     1      17.134 -40.326  -9.792  1.00  0.00    -0.350 N 
ATOM      5  H   UNL     1      16.401 -39.845  -9.222  1.00  0.00     0.345 HD
ATOM      6  H   UNL     1      16.973 -40.104 -10.800  1.00  0.00     0.345 HD
ATOM      7  H   UNL     1      17.033 -41.357  -9.647  1.00  0.00     0.345 HD
ENDBRANCH   3   4
BRANCH   3   8
ATOM      8  C   UNL     1      19.348 -41.064  -9.001  1.00  0.00     0.099 C 
ATOM      9  O   UNL     1      20.600 -41.003  -9.128  1.00  0.00    -0.544 OA
ATOM     10  O   UNL     1      18.778 -42.223  -8.488  1.00  0.00    -0.544 OA
ENDBRANCH   3   8
ENDBRANCH   1   3
BRANCH   1  11
ATOM     11  C   UNL     1      18.679 -39.257  -6.792  1.00  0.00     0.006 C 
ATOM     12  C   UNL     1      19.610 -38.352  -5.984  1.00  0.00     0.004 C 
ENDBRANCH   1  11
TORSDOF 4
ENDMDL
MODEL 8
REMARK VINA RESULT:    -3.221      2.858      3.782
REMARK INTER + INTRA:          -3.946
REMARK INTER:                  -3.914
REMARK INTRA:                  -0.032
REMARK UNBOUND:                -0.066
REMARK SMILES CC[C@@H](C)[C@H]([NH3+])C(=O)[O-]
REMARK SMILES IDX 3 1 4 2 5 3 6 4 7 8 8 9 9 10 2 11 1 12
REMARK H PARENT 6 5 6 6 6 7
REMARK Flexibility Score: inf
ROOT
ATOM      1  C   UNL     1      19.444 -39.839  -8.953  1.00  0.00     0.050 C 
ATOM      2  C   UNL     1      18.997 -41.289  -8.703  1.00  0.00     0.014 C 
ENDROOT
BRANCH   1   3
ATOM      3  C   UNL     1      18.639 -38.806  -8.098  1.00  0.00     0.230 C 
BRANCH   3   4
ATOM      4  N   UNL     1      18.797 -37.436  -8.607  1.00  0.00    -0.350 N 
ATOM      5  H   UNL     1      18.021 -37.218  -9.273  1.00  0.00     0.345 HD
ATOM      6  H   UNL     1      18.779 -36.738  -7.830  1.00  0.00     0.345 HD
ATOM      7  H   UNL     1      19.702 -37.350  -9.126  1.00  0.00     0.345 HD
ENDBRANCH   3   4
BRANCH   3   8
ATOM      8  C   UNL     1      18.916 -38.877  -6.611  1.00  0.00     0.099 C 
ATOM      9  O   UNL     1      18.229 -39.614  -5.855  1.00  0.00    -0.544 OA
ATOM     10  O   UNL     1      19.971 -38.152  -6.070  1.00  0.00    -0.544 OA
ENDBRANCH   3   8
ENDBRANCH   1   3
BRANCH   1  11
ATOM     11  C   UNL     1      20.990 -39.696  -8.929  1.00  0.00     0.006 C 
ATOM     12  C   UNL     1      21.777 -40.947  -9.319  1.00  0.00     0.004 C 
ENDBRANCH   1  11
TORSDOF 4
ENDMDL
MODEL 9
REMARK VINA RESULT:    -2.997      3.145      4.161
REMARK INTER + INTRA:          -3.676
REMARK INTER:                  -3.654
REMARK INTRA:                  -0.022
REMARK UNBOUND:                -0.066
REMARK SMILES CC[C@@H](C)[C@H]([NH3+])C(=O)[O-]
REMARK SMILES IDX 3 1 4 2 5 3 6 4 7 8 8 9 9 10 2 11 1 12
REMARK H PARENT 6 5 6 6 6 7
REMARK Flexibility Score: inf
ROOT
ATOM      1  C   UNL     1      18.357 -39.303  -7.796  1.00  0.00     0.050 C 
ATOM      2  C   UNL     1      18.830 -39.048  -6.354  1.00  0.00     0.014 C 
ENDROOT
BRANCH   1   3
ATOM      3  C   UNL     1      18.240 -37.986  -8.631  1.00  0.00     0.230 C 
BRANCH   3   4
ATOM      4  N   UNL     1      17.624 -38.228  -9.944  1.00  0.00    -0.350 N 
ATOM      5  H   UNL     1      16.655 -37.833  -9.955  1.00  0.00     0.345 HD
ATOM      6  H   UNL     1      18.176 -37.782 -10.711  1.00  0.00     0.345 HD
ATOM      7  H   UNL     1      17.556 -39.257 -10.123  1.00  0.00     0.345 HD
ENDBRANCH   3   4
BRANCH   3   8
ATOM      8  C   UNL     1      19.536 -37.214  -8.764  1.00  0.00     0.099 C 
ATOM      9  O   UNL     1      19.691 -36.101  -8.196  1.00  0.00    -0.544 OA
ATOM     10  O   UNL     1      20.590 -37.756  -9.489  1.00  0.00    -0.544 OA
ENDBRANCH   3   8
ENDBRANCH   1   3
BRANCH   1  11
ATOM     11  C   UNL     1      19.131 -40.473  -8.461  1.00  0.00     0.006 C 
ATOM     12  C   UNL     1      18.488 -41.854  -8.327  1.00  0.00     0.004 C 
ENDBRANCH   1  11
TORSDOF 4
ENDMDL
