MODEL 1
REMARK VINA RESULT:    -4.279      0.000      0.000
REMARK INTER + INTRA:          -7.699
REMARK INTER:                  -6.281
REMARK INTRA:                  -1.418
REMARK UNBOUND:                -1.418
REMARK SMILES CC(C)COC(=O)c1ccccc1C(=O)OCC(C)C
REMARK SMILES IDX 8 1 9 2 10 3 11 4 12 5 13 6 6 7 7 8 5 9 4 10 2 11 1 12 3 13
REMARK SMILES IDX 14 14 15 15 16 16 17 17 18 18 19 19 20 20
REMARK H PARENT
REMARK Flexibility Score: inf
ROOT
ATOM      1  C   UNL     1      86.964 116.080 118.961  1.00  0.00     0.074 A 
ATOM      2  C   UNL     1      88.200 115.859 119.594  1.00  0.00     0.016 A 
ATOM      3  C   UNL     1      89.398 115.997 118.892  1.00  0.00     0.001 A 
ATOM      4  C   UNL     1      89.381 116.358 117.546  1.00  0.00     0.001 A 
ATOM      5  C   UNL     1      88.165 116.560 116.892  1.00  0.00     0.016 A 
ATOM      6  C   UNL     1      86.945 116.404 117.575  1.00  0.00     0.074 A 
ENDROOT
BRANCH   1   7
ATOM      7  C   UNL     1      85.741 116.028 119.794  1.00  0.00     0.339 C 
ATOM      8  O   UNL     1      85.485 116.956 120.608  1.00  0.00    -0.246 OA
BRANCH   7   9
ATOM      9  O   UNL     1      84.903 114.907 119.715  1.00  0.00    -0.462 OA
BRANCH   9  10
ATOM     10  C   UNL     1      85.125 113.693 120.435  1.00  0.00     0.236 C 
BRANCH  10  11
ATOM     11  C   UNL     1      85.343 112.511 119.473  1.00  0.00     0.021 C 
ATOM     12  C   UNL     1      86.822 112.416 119.078  1.00  0.00     0.011 C 
ATOM     13  C   UNL     1      84.875 111.184 120.086  1.00  0.00     0.011 C 
ENDBRANCH  10  11
ENDBRANCH   9  10
ENDBRANCH   7   9
ENDBRANCH   1   7
BRANCH   6  14
ATOM     14  C   UNL     1      85.696 116.526 116.791  1.00  0.00     0.339 C 
ATOM     15  O   UNL     1      85.342 117.642 116.321  1.00  0.00    -0.246 OA
BRANCH  14  16
ATOM     16  O   UNL     1      84.875 115.404 116.629  1.00  0.00    -0.462 OA
BRANCH  16  17
ATOM     17  C   UNL     1      84.888 114.603 115.451  1.00  0.00     0.236 C 
BRANCH  17  18
ATOM     18  C   UNL     1      85.440 113.206 115.772  1.00  0.00     0.021 C 
ATOM     19  C   UNL     1      86.972 113.219 115.755  1.00  0.00     0.011 C 
ATOM     20  C   UNL     1      84.903 112.162 114.784  1.00  0.00     0.011 C 
ENDBRANCH  17  18
ENDBRANCH  16  17
ENDBRANCH  14  16
ENDBRANCH   6  14
TORSDOF 8
ENDMDL
MODEL 2
REMARK VINA RESULT:    -4.174      1.715      4.051
REMARK INTER + INTRA:          -7.544
REMARK INTER:                  -6.257
REMARK INTRA:                  -1.287
REMARK UNBOUND:                -1.418
REMARK SMILES CC(C)COC(=O)c1ccccc1C(=O)OCC(C)C
REMARK SMILES IDX 8 1 9 2 10 3 11 4 12 5 13 6 6 7 7 8 5 9 4 10 2 11 1 12 3 13
REMARK SMILES IDX 14 14 15 15 16 16 17 17 18 18 19 19 20 20
REMARK H PARENT
REMARK Flexibility Score: inf
ROOT
ATOM      1  C   UNL     1      87.221 116.024 115.589  1.00  0.00     0.074 A 
ATOM      2  C   UNL     1      88.387 115.293 115.299  1.00  0.00     0.016 A 
ATOM      3  C   UNL     1      89.424 115.203 116.227  1.00  0.00     0.001 A 
ATOM      4  C   UNL     1      89.315 115.841 117.460  1.00  0.00     0.001 A 
ATOM      5  C   UNL     1      88.178 116.591 117.761  1.00  0.00     0.016 A 
ATOM      6  C   UNL     1      87.130 116.715 116.831  1.00  0.00     0.074 A 
ENDROOT
BRANCH   1   7
ATOM      7  C   UNL     1      86.115 115.983 114.606  1.00  0.00     0.339 C 
ATOM      8  O   UNL     1      85.944 116.939 113.800  1.00  0.00    -0.246 OA
BRANCH   7   9
ATOM      9  O   UNL     1      85.222 114.903 114.620  1.00  0.00    -0.462 OA
BRANCH   9  10
ATOM     10  C   UNL     1      84.984 114.080 115.762  1.00  0.00     0.236 C 
BRANCH  10  11
ATOM     11  C   UNL     1      85.950 112.882 115.793  1.00  0.00     0.021 C 
ATOM     12  C   UNL     1      86.370 112.577 117.237  1.00  0.00     0.011 C 
ATOM     13  C   UNL     1      85.332 111.634 115.149  1.00  0.00     0.011 C 
ENDBRANCH  10  11
ENDBRANCH   9  10
ENDBRANCH   7   9
ENDBRANCH   1   7
BRANCH   6  14
ATOM     14  C   UNL     1      86.006 117.615 117.173  1.00  0.00     0.339 C 
ATOM     15  O   UNL     1      85.894 118.739 116.610  1.00  0.00    -0.246 OA
BRANCH  14  16
ATOM     16  O   UNL     1      85.104 117.238 118.174  1.00  0.00    -0.462 OA
BRANCH  16  17
ATOM     17  C   UNL     1      84.876 115.878 118.533  1.00  0.00     0.236 C 
BRANCH  17  18
ATOM     18  C   UNL     1      85.039 115.701 120.049  1.00  0.00     0.021 C 
ATOM     19  C   UNL     1      85.448 117.026 120.702  1.00  0.00     0.011 C 
ATOM     20  C   UNL     1      86.068 114.608 120.369  1.00  0.00     0.011 C 
ENDBRANCH  17  18
ENDBRANCH  16  17
ENDBRANCH  14  16
ENDBRANCH   6  14
TORSDOF 8
ENDMDL
MODEL 3
REMARK VINA RESULT:    -3.967      0.624      3.644
REMARK INTER + INTRA:          -7.241
REMARK INTER:                  -6.184
REMARK INTRA:                  -1.057
REMARK UNBOUND:                -1.418
REMARK SMILES CC(C)COC(=O)c1ccccc1C(=O)OCC(C)C
REMARK SMILES IDX 8 1 9 2 10 3 11 4 12 5 13 6 6 7 7 8 5 9 4 10 2 11 1 12 3 13
REMARK SMILES IDX 14 14 15 15 16 16 17 17 18 18 19 19 20 20
REMARK H PARENT
REMARK Flexibility Score: inf
ROOT
ATOM      1  C   UNL     1      86.948 116.743 117.471  1.00  0.00     0.074 A 
ATOM      2  C   UNL     1      88.220 116.990 116.922  1.00  0.00     0.016 A 
ATOM      3  C   UNL     1      89.372 116.508 117.543  1.00  0.00     0.001 A 
ATOM      4  C   UNL     1      89.275 115.772 118.722  1.00  0.00     0.001 A 
ATOM      5  C   UNL     1      88.026 115.535 119.297  1.00  0.00     0.016 A 
ATOM      6  C   UNL     1      86.853 116.031 118.700  1.00  0.00     0.074 A 
ENDROOT
BRANCH   1   7
ATOM      7  C   UNL     1      85.764 117.186 116.701  1.00  0.00     0.339 C 
ATOM      8  O   UNL     1      85.206 118.285 116.968  1.00  0.00    -0.246 OA
BRANCH   7   9
ATOM      9  O   UNL     1      85.231 116.345 115.715  1.00  0.00    -0.462 OA
BRANCH   9  10
ATOM     10  C   UNL     1      84.876 114.979 115.938  1.00  0.00     0.236 C 
BRANCH  10  11
ATOM     11  C   UNL     1      85.828 114.029 115.188  1.00  0.00     0.021 C 
ATOM     12  C   UNL     1      87.103 113.799 116.009  1.00  0.00     0.011 C 
ATOM     13  C   UNL     1      85.157 112.687 114.869  1.00  0.00     0.011 C 
ENDBRANCH  10  11
ENDBRANCH   9  10
ENDBRANCH   7   9
ENDBRANCH   1   7
BRANCH   6  14
ATOM     14  C   UNL     1      85.576 115.836 119.423  1.00  0.00     0.339 C 
ATOM     15  O   UNL     1      85.150 116.720 120.217  1.00  0.00    -0.246 OA
BRANCH  14  16
ATOM     16  O   UNL     1      84.875 114.635 119.268  1.00  0.00    -0.462 OA
BRANCH  16  17
ATOM     17  C   UNL     1      85.041 113.527 120.148  1.00  0.00     0.236 C 
BRANCH  17  18
ATOM     18  C   UNL     1      85.111 112.222 119.341  1.00  0.00     0.021 C 
ATOM     19  C   UNL     1      84.908 111.012 120.260  1.00  0.00     0.011 C 
ATOM     20  C   UNL     1      86.448 112.107 118.595  1.00  0.00     0.011 C 
ENDBRANCH  17  18
ENDBRANCH  16  17
ENDBRANCH  14  16
ENDBRANCH   6  14
TORSDOF 8
ENDMDL
MODEL 4
REMARK VINA RESULT:    -3.957      1.339      1.881
REMARK INTER + INTRA:          -7.226
REMARK INTER:                  -5.932
REMARK INTRA:                  -1.295
REMARK UNBOUND:                -1.418
REMARK SMILES CC(C)COC(=O)c1ccccc1C(=O)OCC(C)C
REMARK SMILES IDX 8 1 9 2 10 3 11 4 12 5 13 6 6 7 7 8 5 9 4 10 2 11 1 12 3 13
REMARK SMILES IDX 14 14 15 15 16 16 17 17 18 18 19 19 20 20
REMARK H PARENT
REMARK Flexibility Score: inf
ROOT
ATOM      1  C   UNL     1      86.944 116.192 118.920  1.00  0.00     0.074 A 
ATOM      2  C   UNL     1      88.186 115.834 119.475  1.00  0.00     0.016 A 
ATOM      3  C   UNL     1      89.366 115.991 118.747  1.00  0.00     0.001 A 
ATOM      4  C   UNL     1      89.326 116.508 117.454  1.00  0.00     0.001 A 
ATOM      5  C   UNL     1      88.102 116.849 116.876  1.00  0.00     0.016 A 
ATOM      6  C   UNL     1      86.899 116.677 117.582  1.00  0.00     0.074 A 
ENDROOT
BRANCH   1   7
ATOM      7  C   UNL     1      85.748 116.106 119.788  1.00  0.00     0.339 C 
ATOM      8  O   UNL     1      85.541 116.978 120.675  1.00  0.00    -0.246 OA
BRANCH   7   9
ATOM      9  O   UNL     1      84.881 115.013 119.657  1.00  0.00    -0.462 OA
BRANCH   9  10
ATOM     10  C   UNL     1      85.208 113.682 120.061  1.00  0.00     0.236 C 
BRANCH  10  11
ATOM     11  C   UNL     1      85.110 112.703 118.877  1.00  0.00     0.021 C 
ATOM     12  C   UNL     1      86.331 112.855 117.961  1.00  0.00     0.011 C 
ATOM     13  C   UNL     1      84.983 111.249 119.349  1.00  0.00     0.011 C 
ENDBRANCH  10  11
ENDBRANCH   9  10
ENDBRANCH   7   9
ENDBRANCH   1   7
BRANCH   6  14
ATOM     14  C   UNL     1      85.633 116.954 116.867  1.00  0.00     0.339 C 
ATOM     15  O   UNL     1      85.091 118.091 116.944  1.00  0.00    -0.246 OA
BRANCH  14  16
ATOM     16  O   UNL     1      85.008 115.925 116.154  1.00  0.00    -0.462 OA
BRANCH  16  17
ATOM     17  C   UNL     1      85.529 115.403 114.936  1.00  0.00     0.236 C 
BRANCH  17  18
ATOM     18  C   UNL     1      85.830 116.550 113.960  1.00  0.00     0.021 C 
ATOM     19  C   UNL     1      84.885 116.490 112.755  1.00  0.00     0.011 C 
ATOM     20  C   UNL     1      87.292 116.508 113.494  1.00  0.00     0.011 C 
ENDBRANCH  17  18
ENDBRANCH  16  17
ENDBRANCH  14  16
ENDBRANCH   6  14
TORSDOF 8
ENDMDL
MODEL 5
REMARK VINA RESULT:    -3.841      2.993      4.819
REMARK INTER + INTRA:          -7.055
REMARK INTER:                  -6.075
REMARK INTRA:                  -0.981
REMARK UNBOUND:                -1.418
REMARK SMILES CC(C)COC(=O)c1ccccc1C(=O)OCC(C)C
REMARK SMILES IDX 8 1 9 2 10 3 11 4 12 5 13 6 6 7 7 8 5 9 4 10 2 11 1 12 3 13
REMARK SMILES IDX 14 14 15 15 16 16 17 17 18 18 19 19 20 20
REMARK H PARENT
REMARK Flexibility Score: inf
ROOT
ATOM      1  C   UNL     1      86.901 114.597 115.779  1.00  0.00     0.074 A 
ATOM      2  C   UNL     1      86.877 113.315 116.359  1.00  0.00     0.016 A 
ATOM      3  C   UNL     1      85.876 112.400 116.029  1.00  0.00     0.001 A 
ATOM      4  C   UNL     1      84.884 112.749 115.115  1.00  0.00     0.001 A 
ATOM      5  C   UNL     1      84.876 114.023 114.545  1.00  0.00     0.016 A 
ATOM      6  C   UNL     1      85.861 114.969 114.881  1.00  0.00     0.074 A 
ENDROOT
BRANCH   1   7
ATOM      7  C   UNL     1      88.053 115.473 116.088  1.00  0.00     0.339 C 
ATOM      8  O   UNL     1      89.197 115.208 115.626  1.00  0.00    -0.246 OA
BRANCH   7   9
ATOM      9  O   UNL     1      87.876 116.565 116.949  1.00  0.00    -0.462 OA
BRANCH   9  10
ATOM     10  C   UNL     1      86.901 116.607 117.992  1.00  0.00     0.236 C 
BRANCH  10  11
ATOM     11  C   UNL     1      87.477 116.064 119.312  1.00  0.00     0.021 C 
ATOM     12  C   UNL     1      86.831 114.718 119.659  1.00  0.00     0.011 C 
ATOM     13  C   UNL     1      89.003 115.916 119.249  1.00  0.00     0.011 C 
ENDBRANCH  10  11
ENDBRANCH   9  10
ENDBRANCH   7   9
ENDBRANCH   1   7
BRANCH   6  14
ATOM     14  C   UNL     1      85.726 116.333 114.324  1.00  0.00     0.339 C 
ATOM     15  O   UNL     1      85.094 117.222 114.958  1.00  0.00    -0.246 OA
BRANCH  14  16
ATOM     16  O   UNL     1      86.250 116.613 113.058  1.00  0.00    -0.462 OA
BRANCH  16  17
ATOM     17  C   UNL     1      85.432 116.960 111.944  1.00  0.00     0.236 C 
BRANCH  17  18
ATOM     18  C   UNL     1      85.949 116.265 110.676  1.00  0.00     0.021 C 
ATOM     19  C   UNL     1      87.432 116.583 110.457  1.00  0.00     0.011 C 
ATOM     20  C   UNL     1      85.127 116.677 109.447  1.00  0.00     0.011 C 
ENDBRANCH  17  18
ENDBRANCH  16  17
ENDBRANCH  14  16
ENDBRANCH   6  14
TORSDOF 8
ENDMDL
MODEL 6
REMARK VINA RESULT:    -3.841      1.551      3.242
REMARK INTER + INTRA:          -7.055
REMARK INTER:                  -5.517
REMARK INTRA:                  -1.538
REMARK UNBOUND:                -1.418
REMARK SMILES CC(C)COC(=O)c1ccccc1C(=O)OCC(C)C
REMARK SMILES IDX 8 1 9 2 10 3 11 4 12 5 13 6 6 7 7 8 5 9 4 10 2 11 1 12 3 13
REMARK SMILES IDX 14 14 15 15 16 16 17 17 18 18 19 19 20 20
REMARK H PARENT
REMARK Flexibility Score: inf
ROOT
ATOM      1  C   UNL     1      86.920 116.450 116.565  1.00  0.00     0.074 A 
ATOM      2  C   UNL     1      88.186 116.891 116.992  1.00  0.00     0.016 A 
ATOM      3  C   UNL     1      89.327 116.120 116.762  1.00  0.00     0.001 A 
ATOM      4  C   UNL     1      89.222 114.898 116.103  1.00  0.00     0.001 A 
ATOM      5  C   UNL     1      87.974 114.430 115.691  1.00  0.00     0.016 A 
ATOM      6  C   UNL     1      86.808 115.179 115.933  1.00  0.00     0.074 A 
ENDROOT
BRANCH   1   7
ATOM      7  C   UNL     1      85.773 117.368 116.741  1.00  0.00     0.339 C 
ATOM      8  O   UNL     1      85.635 118.366 115.982  1.00  0.00    -0.246 OA
BRANCH   7   9
ATOM      9  O   UNL     1      84.876 117.154 117.796  1.00  0.00    -0.462 OA
BRANCH   9  10
ATOM     10  C   UNL     1      85.178 117.425 119.166  1.00  0.00     0.236 C 
BRANCH  10  11
ATOM     11  C   UNL     1      85.654 116.153 119.890  1.00  0.00     0.021 C 
ATOM     12  C   UNL     1      87.157 116.241 120.185  1.00  0.00     0.011 C 
ATOM     13  C   UNL     1      84.876 115.911 121.190  1.00  0.00     0.011 C 
ENDBRANCH  10  11
ENDBRANCH   9  10
ENDBRANCH   7   9
ENDBRANCH   1   7
BRANCH   6  14
ATOM     14  C   UNL     1      85.509 114.571 115.569  1.00  0.00     0.339 C 
ATOM     15  O   UNL     1      84.941 114.878 114.485  1.00  0.00    -0.246 OA
BRANCH  14  16
ATOM     16  O   UNL     1      84.884 113.699 116.467  1.00  0.00    -0.462 OA
BRANCH  16  17
ATOM     17  C   UNL     1      85.541 112.564 117.025  1.00  0.00     0.236 C 
BRANCH  17  18
ATOM     18  C   UNL     1      85.629 112.707 118.551  1.00  0.00     0.021 C 
ATOM     19  C   UNL     1      87.092 112.798 118.997  1.00  0.00     0.011 C 
ATOM     20  C   UNL     1      84.929 111.537 119.255  1.00  0.00     0.011 C 
ENDBRANCH  17  18
ENDBRANCH  16  17
ENDBRANCH  14  16
ENDBRANCH   6  14
TORSDOF 8
ENDMDL
MODEL 7
REMARK VINA RESULT:    -3.836      1.904      4.666
REMARK INTER + INTRA:          -7.049
REMARK INTER:                  -5.872
REMARK INTRA:                  -1.177
REMARK UNBOUND:                -1.418
REMARK SMILES CC(C)COC(=O)c1ccccc1C(=O)OCC(C)C
REMARK SMILES IDX 8 1 9 2 10 3 11 4 12 5 13 6 6 7 7 8 5 9 4 10 2 11 1 12 3 13
REMARK SMILES IDX 14 14 15 15 16 16 17 17 18 18 19 19 20 20
REMARK H PARENT
REMARK Flexibility Score: inf
ROOT
ATOM      1  C   UNL     1      87.284 114.664 119.136  1.00  0.00     0.074 A 
ATOM      2  C   UNL     1      87.484 113.274 119.041  1.00  0.00     0.016 A 
ATOM      3  C   UNL     1      86.404 112.392 119.087  1.00  0.00     0.001 A 
ATOM      4  C   UNL     1      85.108 112.882 119.228  1.00  0.00     0.001 A 
ATOM      5  C   UNL     1      84.888 114.255 119.346  1.00  0.00     0.016 A 
ATOM      6  C   UNL     1      85.964 115.161 119.326  1.00  0.00     0.074 A 
ENDROOT
BRANCH   1   7
ATOM      7  C   UNL     1      88.461 115.545 118.966  1.00  0.00     0.339 C 
ATOM      8  O   UNL     1      88.893 116.224 119.937  1.00  0.00    -0.246 OA
BRANCH   7   9
ATOM      9  O   UNL     1      89.053 115.666 117.701  1.00  0.00    -0.462 OA
BRANCH   9  10
ATOM     10  C   UNL     1      88.795 116.744 116.801  1.00  0.00     0.236 C 
BRANCH  10  11
ATOM     11  C   UNL     1      88.104 116.243 115.520  1.00  0.00     0.021 C 
ATOM     12  C   UNL     1      89.020 116.450 114.307  1.00  0.00     0.011 C 
ATOM     13  C   UNL     1      87.701 114.766 115.630  1.00  0.00     0.011 C 
ENDBRANCH  10  11
ENDBRANCH   9  10
ENDBRANCH   7   9
ENDBRANCH   1   7
BRANCH   6  14
ATOM     14  C   UNL     1      85.667 116.590 119.568  1.00  0.00     0.339 C 
ATOM     15  O   UNL     1      85.838 117.093 120.713  1.00  0.00    -0.246 OA
BRANCH  14  16
ATOM     16  O   UNL     1      85.133 117.365 118.533  1.00  0.00    -0.462 OA
BRANCH  16  17
ATOM     17  C   UNL     1      84.969 116.872 117.206  1.00  0.00     0.236 C 
BRANCH  17  18
ATOM     18  C   UNL     1      84.875 118.044 116.218  1.00  0.00     0.021 C 
ATOM     19  C   UNL     1      84.902 117.531 114.775  1.00  0.00     0.011 C 
ATOM     20  C   UNL     1      86.010 119.051 116.448  1.00  0.00     0.011 C 
ENDBRANCH  17  18
ENDBRANCH  16  17
ENDBRANCH  14  16
ENDBRANCH   6  14
TORSDOF 8
ENDMDL
MODEL 8
REMARK VINA RESULT:    -3.778      1.980      4.890
REMARK INTER + INTRA:          -6.963
REMARK INTER:                  -5.545
REMARK INTRA:                  -1.418
REMARK UNBOUND:                -1.418
REMARK SMILES CC(C)COC(=O)c1ccccc1C(=O)OCC(C)C
REMARK SMILES IDX 8 1 9 2 10 3 11 4 12 5 13 6 6 7 7 8 5 9 4 10 2 11 1 12 3 13
REMARK SMILES IDX 14 14 15 15 16 16 17 17 18 18 19 19 20 20
REMARK H PARENT
REMARK Flexibility Score: inf
ROOT
ATOM      1  C   UNL     1      86.899 115.253 116.491  1.00  0.00     0.074 A 
ATOM      2  C   UNL     1      88.142 115.170 115.838  1.00  0.00     0.016 A 
ATOM      3  C   UNL     1      89.323 115.505 116.501  1.00  0.00     0.001 A 
ATOM      4  C   UNL     1      89.282 115.928 117.828  1.00  0.00     0.001 A 
ATOM      5  C   UNL     1      88.058 116.040 118.489  1.00  0.00     0.016 A 
ATOM      6  C   UNL     1      86.854 115.729 117.832  1.00  0.00     0.074 A 
ENDROOT
BRANCH   1   7
ATOM      7  C   UNL     1      85.702 114.774 115.764  1.00  0.00     0.339 C 
ATOM      8  O   UNL     1      85.448 113.541 115.699  1.00  0.00    -0.246 OA
BRANCH   7   9
ATOM      9  O   UNL     1      84.888 115.699 115.096  1.00  0.00    -0.462 OA
BRANCH   9  10
ATOM     10  C   UNL     1      85.351 116.955 114.599  1.00  0.00     0.236 C 
BRANCH  10  11
ATOM     11  C   UNL     1      85.252 117.014 113.064  1.00  0.00     0.021 C 
ATOM     12  C   UNL     1      84.875 118.430 112.610  1.00  0.00     0.011 C 
ATOM     13  C   UNL     1      86.559 116.575 112.391  1.00  0.00     0.011 C 
ENDBRANCH  10  11
ENDBRANCH   9  10
ENDBRANCH   7   9
ENDBRANCH   1   7
BRANCH   6  14
ATOM     14  C   UNL     1      85.588 115.977 118.558  1.00  0.00     0.339 C 
ATOM     15  O   UNL     1      85.184 117.157 118.753  1.00  0.00    -0.246 OA
BRANCH  14  16
ATOM     16  O   UNL     1      84.875 114.895 119.084  1.00  0.00    -0.462 OA
BRANCH  16  17
ATOM     17  C   UNL     1      85.484 113.886 119.885  1.00  0.00     0.236 C 
BRANCH  17  18
ATOM     18  C   UNL     1      85.476 112.545 119.137  1.00  0.00     0.021 C 
ATOM     19  C   UNL     1      84.925 111.433 120.036  1.00  0.00     0.011 C 
ATOM     20  C   UNL     1      86.883 112.183 118.641  1.00  0.00     0.011 C 
ENDBRANCH  17  18
ENDBRANCH  16  17
ENDBRANCH  14  16
ENDBRANCH   6  14
TORSDOF 8
ENDMDL
MODEL 9
REMARK VINA RESULT:    -3.714      1.703      2.307
REMARK INTER + INTRA:          -6.869
REMARK INTER:                  -5.629
REMARK INTRA:                  -1.241
REMARK UNBOUND:                -1.418
REMARK SMILES CC(C)COC(=O)c1ccccc1C(=O)OCC(C)C
REMARK SMILES IDX 8 1 9 2 10 3 11 4 12 5 13 6 6 7 7 8 5 9 4 10 2 11 1 12 3 13
REMARK SMILES IDX 14 14 15 15 16 16 17 17 18 18 19 19 20 20
REMARK H PARENT
REMARK Flexibility Score: inf
ROOT
ATOM      1  C   UNL     1      86.977 116.498 116.899  1.00  0.00     0.074 A 
ATOM      2  C   UNL     1      88.185 116.583 117.615  1.00  0.00     0.016 A 
ATOM      3  C   UNL     1      89.388 116.168 117.041  1.00  0.00     0.001 A 
ATOM      4  C   UNL     1      89.404 115.662 115.743  1.00  0.00     0.001 A 
ATOM      5  C   UNL     1      88.214 115.548 115.023  1.00  0.00     0.016 A 
ATOM      6  C   UNL     1      86.988 115.938 115.590  1.00  0.00     0.074 A 
ENDROOT
BRANCH   1   7
ATOM      7  C   UNL     1      85.761 117.060 117.526  1.00  0.00     0.339 C 
ATOM      8  O   UNL     1      85.551 118.304 117.506  1.00  0.00    -0.246 OA
BRANCH   7   9
ATOM      9  O   UNL     1      84.875 116.206 118.198  1.00  0.00    -0.462 OA
BRANCH   9  10
ATOM     10  C   UNL     1      85.161 114.840 118.501  1.00  0.00     0.236 C 
BRANCH  10  11
ATOM     11  C   UNL     1      85.841 114.708 119.876  1.00  0.00     0.021 C 
ATOM     12  C   UNL     1      87.204 114.019 119.729  1.00  0.00     0.011 C 
ATOM     13  C   UNL     1      86.011 116.071 120.561  1.00  0.00     0.011 C 
ENDBRANCH  10  11
ENDBRANCH   9  10
ENDBRANCH   7   9
ENDBRANCH   1   7
BRANCH   6  14
ATOM     14  C   UNL     1      85.756 115.685 114.810  1.00  0.00     0.339 C 
ATOM     15  O   UNL     1      85.425 116.458 113.870  1.00  0.00    -0.246 OA
BRANCH  14  16
ATOM     16  O   UNL     1      84.926 114.617 115.166  1.00  0.00    -0.462 OA
BRANCH  16  17
ATOM     17  C   UNL     1      84.875 113.400 114.426  1.00  0.00     0.236 C 
BRANCH  17  18
ATOM     18  C   UNL     1      85.177 112.211 115.350  1.00  0.00     0.021 C 
ATOM     19  C   UNL     1      86.542 112.388 116.023  1.00  0.00     0.011 C 
ATOM     20  C   UNL     1      85.131 110.886 114.577  1.00  0.00     0.011 C 
ENDBRANCH  17  18
ENDBRANCH  16  17
ENDBRANCH  14  16
ENDBRANCH   6  14
TORSDOF 8
ENDMDL
