MODEL 1
REMARK VINA RESULT:    -3.739      0.000      0.000
REMARK INTER + INTRA:          -4.727
REMARK INTER:                  -4.503
REMARK INTRA:                  -0.224
REMARK UNBOUND:                -0.224
REMARK SMILES OCC(O)CO
REMARK SMILES IDX 3 1 5 2 6 3 2 5 1 6 4 8
REMARK H PARENT 6 4 1 7 4 9
REMARK Flexibility Score: inf
ROOT
ATOM      1  C   UNL     1     104.919 114.616 129.273  1.00  0.00     0.165 C 
ENDROOT
BRANCH   1   2
ATOM      2  C   UNL     1     106.233 114.171 128.606  1.00  0.00     0.190 C 
BRANCH   2   3
ATOM      3  O   UNL     1     107.328 114.419 129.446  1.00  0.00    -0.394 OA
ATOM      4  H   UNL     1     107.160 115.295 129.881  1.00  0.00     0.210 HD
ENDBRANCH   2   3
ENDBRANCH   1   2
BRANCH   1   5
ATOM      5  C   UNL     1     105.173 115.565 130.456  1.00  0.00     0.190 C 
BRANCH   5   6
ATOM      6  O   UNL     1     105.409 114.834 131.630  1.00  0.00    -0.394 OA
ATOM      7  H   UNL     1     104.792 114.057 131.608  1.00  0.00     0.210 HD
ENDBRANCH   5   6
ENDBRANCH   1   5
BRANCH   1   8
ATOM      8  O   UNL     1     104.180 113.494 129.689  1.00  0.00    -0.388 OA
ATOM      9  H   UNL     1     103.937 112.976 128.877  1.00  0.00     0.211 HD
ENDBRANCH   1   8
TORSDOF 5
ENDMDL
MODEL 2
REMARK VINA RESULT:    -3.565     19.432     20.712
REMARK INTER + INTRA:          -4.518
REMARK INTER:                  -4.296
REMARK INTRA:                  -0.222
REMARK UNBOUND:                -0.224
REMARK SMILES OCC(O)CO
REMARK SMILES IDX 3 1 5 2 6 3 2 5 1 6 4 8
REMARK H PARENT 6 4 1 7 4 9
REMARK Flexibility Score: inf
ROOT
ATOM      1  C   UNL     1     121.312 115.622 116.121  1.00  0.00     0.165 C 
ENDROOT
BRANCH   1   2
ATOM      2  C   UNL     1     121.057 116.950 115.386  1.00  0.00     0.190 C 
BRANCH   2   3
ATOM      3  O   UNL     1     119.751 116.996 114.875  1.00  0.00    -0.394 OA
ATOM      4  H   UNL     1     119.503 117.956 114.819  1.00  0.00     0.210 HD
ENDBRANCH   2   3
ENDBRANCH   1   2
BRANCH   1   5
ATOM      5  C   UNL     1     120.901 115.701 117.601  1.00  0.00     0.190 C 
BRANCH   5   6
ATOM      6  O   UNL     1     120.126 116.847 117.834  1.00  0.00    -0.394 OA
ATOM      7  H   UNL     1     119.266 116.534 118.220  1.00  0.00     0.210 HD
ENDBRANCH   5   6
ENDBRANCH   1   5
BRANCH   1   8
ATOM      8  O   UNL     1     122.663 115.252 116.002  1.00  0.00    -0.388 OA
ATOM      9  H   UNL     1     123.191 116.082 115.861  1.00  0.00     0.211 HD
ENDBRANCH   1   8
TORSDOF 5
ENDMDL
MODEL 3
REMARK VINA RESULT:    -3.517     19.060     20.383
REMARK INTER + INTRA:          -4.460
REMARK INTER:                  -4.319
REMARK INTRA:                  -0.141
REMARK UNBOUND:                -0.224
REMARK SMILES OCC(O)CO
REMARK SMILES IDX 3 1 5 2 6 3 2 5 1 6 4 8
REMARK H PARENT 6 4 1 7 4 9
REMARK Flexibility Score: inf
ROOT
ATOM      1  C   UNL     1     120.386 115.959 116.390  1.00  0.00     0.165 C 
ENDROOT
BRANCH   1   2
ATOM      2  C   UNL     1     120.724 116.063 117.888  1.00  0.00     0.190 C 
BRANCH   2   3
ATOM      3  O   UNL     1     120.357 114.891 118.566  1.00  0.00    -0.394 OA
ATOM      4  H   UNL     1     119.536 114.552 118.123  1.00  0.00     0.210 HD
ENDBRANCH   2   3
ENDBRANCH   1   2
BRANCH   1   5
ATOM      5  C   UNL     1     121.648 115.747 115.536  1.00  0.00     0.190 C 
BRANCH   5   6
ATOM      6  O   UNL     1     122.676 115.188 116.309  1.00  0.00    -0.394 OA
ATOM      7  H   UNL     1     123.446 115.049 115.698  1.00  0.00     0.210 HD
ENDBRANCH   5   6
ENDBRANCH   1   5
BRANCH   1   8
ATOM      8  O   UNL     1     119.690 117.106 115.968  1.00  0.00    -0.388 OA
ATOM      9  H   UNL     1     120.342 117.854 115.924  1.00  0.00     0.211 HD
ENDBRANCH   1   8
TORSDOF 5
ENDMDL
MODEL 4
REMARK VINA RESULT:    -3.446      1.685      3.530
REMARK INTER + INTRA:          -4.375
REMARK INTER:                  -4.373
REMARK INTRA:                  -0.002
REMARK UNBOUND:                -0.224
REMARK SMILES OCC(O)CO
REMARK SMILES IDX 3 1 5 2 6 3 2 5 1 6 4 8
REMARK H PARENT 6 4 1 7 4 9
REMARK Flexibility Score: inf
ROOT
ATOM      1  C   UNL     1     106.912 114.279 128.563  1.00  0.00     0.165 C 
ENDROOT
BRANCH   1   2
ATOM      2  C   UNL     1     105.383 114.237 128.733  1.00  0.00     0.190 C 
BRANCH   2   3
ATOM      3  O   UNL     1     105.013 114.629 130.027  1.00  0.00    -0.394 OA
ATOM      4  H   UNL     1     104.552 115.504 129.938  1.00  0.00     0.210 HD
ENDBRANCH   2   3
ENDBRANCH   1   2
BRANCH   1   5
ATOM      5  C   UNL     1     107.452 112.980 127.941  1.00  0.00     0.190 C 
BRANCH   5   6
ATOM      6  O   UNL     1     107.444 113.065 126.541  1.00  0.00    -0.394 OA
ATOM      7  H   UNL     1     106.913 112.293 126.214  1.00  0.00     0.210 HD
ENDBRANCH   5   6
ENDBRANCH   1   5
BRANCH   1   8
ATOM      8  O   UNL     1     107.532 114.531 129.800  1.00  0.00    -0.388 OA
ATOM      9  H   UNL     1     108.455 114.165 129.754  1.00  0.00     0.211 HD
ENDBRANCH   1   8
TORSDOF 5
ENDMDL
MODEL 5
REMARK VINA RESULT:    -3.436      1.735      2.784
REMARK INTER + INTRA:          -4.363
REMARK INTER:                  -4.358
REMARK INTRA:                  -0.005
REMARK UNBOUND:                -0.224
REMARK SMILES OCC(O)CO
REMARK SMILES IDX 3 1 5 2 6 3 2 5 1 6 4 8
REMARK H PARENT 6 4 1 7 4 9
REMARK Flexibility Score: inf
ROOT
ATOM      1  C   UNL     1     107.011 113.616 128.650  1.00  0.00     0.165 C 
ENDROOT
BRANCH   1   2
ATOM      2  C   UNL     1     107.755 113.918 127.337  1.00  0.00     0.190 C 
BRANCH   2   3
ATOM      3  O   UNL     1     107.524 112.910 126.389  1.00  0.00    -0.394 OA
ATOM      4  H   UNL     1     108.262 112.970 125.727  1.00  0.00     0.210 HD
ENDBRANCH   2   3
ENDBRANCH   1   2
BRANCH   1   5
ATOM      5  C   UNL     1     105.723 114.447 128.779  1.00  0.00     0.190 C 
BRANCH   5   6
ATOM      6  O   UNL     1     104.696 113.677 129.344  1.00  0.00    -0.394 OA
ATOM      7  H   UNL     1     103.867 113.901 128.846  1.00  0.00     0.210 HD
ENDBRANCH   5   6
ENDBRANCH   1   5
BRANCH   1   8
ATOM      8  O   UNL     1     107.857 113.842 129.751  1.00  0.00    -0.388 OA
ATOM      9  H   UNL     1     108.388 114.660 129.559  1.00  0.00     0.211 HD
ENDBRANCH   1   8
TORSDOF 5
ENDMDL
MODEL 6
REMARK VINA RESULT:    -3.383      1.613      2.589
REMARK INTER + INTRA:          -4.298
REMARK INTER:                  -4.083
REMARK INTRA:                  -0.216
REMARK UNBOUND:                -0.224
REMARK SMILES OCC(O)CO
REMARK SMILES IDX 3 1 5 2 6 3 2 5 1 6 4 8
REMARK H PARENT 6 4 1 7 4 9
REMARK Flexibility Score: inf
ROOT
ATOM      1  C   UNL     1     107.487 113.998 128.766  1.00  0.00     0.165 C 
ENDROOT
BRANCH   1   2
ATOM      2  C   UNL     1     108.223 114.466 130.035  1.00  0.00     0.190 C 
BRANCH   2   3
ATOM      3  O   UNL     1     107.314 114.927 130.998  1.00  0.00    -0.394 OA
ATOM      4  H   UNL     1     107.500 115.894 131.124  1.00  0.00     0.210 HD
ENDBRANCH   2   3
ENDBRANCH   1   2
BRANCH   1   5
ATOM      5  C   UNL     1     106.068 114.585 128.681  1.00  0.00     0.190 C 
BRANCH   5   6
ATOM      6  O   UNL     1     105.139 113.713 129.267  1.00  0.00    -0.394 OA
ATOM      7  H   UNL     1     105.664 113.040 129.774  1.00  0.00     0.210 HD
ENDBRANCH   5   6
ENDBRANCH   1   5
BRANCH   1   8
ATOM      8  O   UNL     1     107.444 112.593 128.720  1.00  0.00    -0.388 OA
ATOM      9  H   UNL     1     108.152 112.291 128.091  1.00  0.00     0.211 HD
ENDBRANCH   1   8
TORSDOF 5
ENDMDL
MODEL 7
REMARK VINA RESULT:    -3.323     19.630     20.587
REMARK INTER + INTRA:          -4.227
REMARK INTER:                  -4.043
REMARK INTRA:                  -0.183
REMARK UNBOUND:                -0.224
REMARK SMILES OCC(O)CO
REMARK SMILES IDX 3 1 5 2 6 3 2 5 1 6 4 8
REMARK H PARENT 6 4 1 7 4 9
REMARK Flexibility Score: inf
ROOT
ATOM      1  C   UNL     1     120.851 116.602 116.371  1.00  0.00     0.165 C 
ENDROOT
BRANCH   1   2
ATOM      2  C   UNL     1     121.597 115.682 115.388  1.00  0.00     0.190 C 
BRANCH   2   3
ATOM      3  O   UNL     1     122.754 115.152 115.978  1.00  0.00    -0.394 OA
ATOM      4  H   UNL     1     123.255 114.691 115.256  1.00  0.00     0.210 HD
ENDBRANCH   2   3
ENDBRANCH   1   2
BRANCH   1   5
ATOM      5  C   UNL     1     120.521 115.879 117.688  1.00  0.00     0.190 C 
BRANCH   5   6
ATOM      6  O   UNL     1     121.692 115.634 118.421  1.00  0.00    -0.394 OA
ATOM      7  H   UNL     1     121.950 116.496 118.840  1.00  0.00     0.210 HD
ENDBRANCH   5   6
ENDBRANCH   1   5
BRANCH   1   8
ATOM      8  O   UNL     1     119.680 117.103 115.776  1.00  0.00    -0.388 OA
ATOM      9  H   UNL     1     119.113 116.326 115.526  1.00  0.00     0.211 HD
ENDBRANCH   1   8
TORSDOF 5
ENDMDL
MODEL 8
REMARK VINA RESULT:    -3.197     15.497     16.648
REMARK INTER + INTRA:          -4.075
REMARK INTER:                  -3.871
REMARK INTRA:                  -0.204
REMARK UNBOUND:                -0.224
REMARK SMILES OCC(O)CO
REMARK SMILES IDX 3 1 5 2 6 3 2 5 1 6 4 8
REMARK H PARENT 6 4 1 7 4 9
REMARK Flexibility Score: inf
ROOT
ATOM      1  C   UNL     1     121.254 108.110 128.917  1.00  0.00     0.165 C 
ENDROOT
BRANCH   1   2
ATOM      2  C   UNL     1     120.527 109.276 129.609  1.00  0.00     0.190 C 
BRANCH   2   3
ATOM      3  O   UNL     1     119.378 108.825 130.275  1.00  0.00    -0.394 OA
ATOM      4  H   UNL     1     119.686 108.186 130.970  1.00  0.00     0.210 HD
ENDBRANCH   2   3
ENDBRANCH   1   2
BRANCH   1   5
ATOM      5  C   UNL     1     120.356 106.867 128.801  1.00  0.00     0.190 C 
BRANCH   5   6
ATOM      6  O   UNL     1     119.426 107.028 127.764  1.00  0.00    -0.394 OA
ATOM      7  H   UNL     1     118.596 106.564 128.052  1.00  0.00     0.210 HD
ENDBRANCH   5   6
ENDBRANCH   1   5
BRANCH   1   8
ATOM      8  O   UNL     1     122.441 107.800 129.605  1.00  0.00    -0.388 OA
ATOM      9  H   UNL     1     122.215 107.712 130.569  1.00  0.00     0.211 HD
ENDBRANCH   1   8
TORSDOF 5
ENDMDL
MODEL 9
REMARK VINA RESULT:    -3.162      1.070      2.414
REMARK INTER + INTRA:          -4.033
REMARK INTER:                  -3.811
REMARK INTRA:                  -0.222
REMARK UNBOUND:                -0.224
REMARK SMILES OCC(O)CO
REMARK SMILES IDX 3 1 5 2 6 3 2 5 1 6 4 8
REMARK H PARENT 6 4 1 7 4 9
REMARK Flexibility Score: inf
ROOT
ATOM      1  C   UNL     1     105.714 114.213 129.310  1.00  0.00     0.165 C 
ENDROOT
BRANCH   1   2
ATOM      2  C   UNL     1     105.544 115.352 130.330  1.00  0.00     0.190 C 
BRANCH   2   3
ATOM      3  O   UNL     1     106.530 115.284 131.325  1.00  0.00    -0.394 OA
ATOM      4  H   UNL     1     106.844 114.343 131.350  1.00  0.00     0.210 HD
ENDBRANCH   2   3
ENDBRANCH   1   2
BRANCH   1   5
ATOM      5  C   UNL     1     107.083 114.275 128.610  1.00  0.00     0.190 C 
BRANCH   5   6
ATOM      6  O   UNL     1     108.082 113.746 129.440  1.00  0.00    -0.394 OA
ATOM      7  H   UNL     1     108.638 114.513 129.738  1.00  0.00     0.210 HD
ENDBRANCH   5   6
ENDBRANCH   1   5
BRANCH   1   8
ATOM      8  O   UNL     1     104.674 114.247 128.364  1.00  0.00    -0.388 OA
ATOM      9  H   UNL     1     105.086 114.360 127.467  1.00  0.00     0.211 HD
ENDBRANCH   1   8
TORSDOF 5
ENDMDL
