MODEL 1
REMARK VINA RESULT:    -5.096      0.000      0.000
REMARK INTER + INTRA:          -8.582
REMARK INTER:                  -7.777
REMARK INTRA:                  -0.805
REMARK UNBOUND:                -0.805
REMARK SMILES CCCCCCCCCCC(=O)[O-]
REMARK SMILES IDX 7 1 8 2 9 3 10 4 11 5 12 6 13 7 6 8 5 9 4 10 3 11 2 12 1 13
REMARK H PARENT
REMARK Flexibility Score: inf
ROOT
ATOM      1  C   UNL     1      88.108 325.159 192.892  1.00  0.00     0.000 C 
ENDROOT
BRANCH   1   2
ATOM      2  C   UNL     1      86.761 324.544 192.492  1.00  0.00     0.000 C 
BRANCH   2   3
ATOM      3  C   UNL     1      86.928 323.570 191.317  1.00  0.00     0.006 C 
BRANCH   3   4
ATOM      4  C   UNL     1      88.383 323.481 190.838  1.00  0.00     0.053 C 
BRANCH   4   5
ATOM      5  C   UNL     1      88.469 323.205 189.367  1.00  0.00     0.041 C 
ATOM      6  O   UNL     1      87.528 322.609 188.779  1.00  0.00    -0.550 OA
ATOM      7  O   UNL     1      89.571 323.635 188.641  1.00  0.00    -0.550 OA
ENDBRANCH   4   5
ENDBRANCH   3   4
ENDBRANCH   2   3
ENDBRANCH   1   2
BRANCH   1   8
ATOM      8  C   UNL     1      87.906 326.480 193.650  1.00  0.00     0.000 C 
BRANCH   8   9
ATOM      9  C   UNL     1      86.592 326.513 194.447  1.00  0.00    -0.000 C 
BRANCH   9  10
ATOM     10  C   UNL     1      86.772 326.060 195.904  1.00  0.00    -0.000 C 
BRANCH  10  11
ATOM     11  C   UNL     1      88.239 326.194 196.343  1.00  0.00    -0.000 C 
BRANCH  11  12
ATOM     12  C   UNL     1      88.826 324.869 196.852  1.00  0.00    -0.003 C 
ATOM     13  C   UNL     1      88.060 323.648 196.344  1.00  0.00     0.004 C 
ENDBRANCH  11  12
ENDBRANCH  10  11
ENDBRANCH   9  10
ENDBRANCH   8   9
ENDBRANCH   1   8
TORSDOF 9
ENDMDL
MODEL 2
REMARK VINA RESULT:    -5.096     18.536     19.786
REMARK INTER + INTRA:          -8.582
REMARK INTER:                  -7.688
REMARK INTRA:                  -0.894
REMARK UNBOUND:                -0.805
REMARK SMILES CCCCCCCCCCC(=O)[O-]
REMARK SMILES IDX 7 1 8 2 9 3 10 4 11 5 12 6 13 7 6 8 5 9 4 10 3 11 2 12 1 13
REMARK H PARENT
REMARK Flexibility Score: inf
ROOT
ATOM      1  C   UNL     1     104.213 312.560 192.139  1.00  0.00     0.000 C 
ENDROOT
BRANCH   1   2
ATOM      2  C   UNL     1     105.433 313.322 191.607  1.00  0.00     0.000 C 
BRANCH   2   3
ATOM      3  C   UNL     1     105.023 314.333 190.527  1.00  0.00     0.006 C 
BRANCH   3   4
ATOM      4  C   UNL     1     103.517 314.294 190.235  1.00  0.00     0.053 C 
BRANCH   4   5
ATOM      5  C   UNL     1     103.210 314.719 188.831  1.00  0.00     0.041 C 
ATOM      6  O   UNL     1     102.112 314.404 188.301  1.00  0.00    -0.550 OA
ATOM      7  O   UNL     1     104.121 315.489 188.122  1.00  0.00    -0.550 OA
ENDBRANCH   4   5
ENDBRANCH   3   4
ENDBRANCH   2   3
ENDBRANCH   1   2
BRANCH   1   8
ATOM      8  C   UNL     1     104.640 311.430 193.087  1.00  0.00     0.000 C 
BRANCH   8   9
ATOM      9  C   UNL     1     105.053 311.944 194.476  1.00  0.00    -0.000 C 
BRANCH   9  10
ATOM     10  C   UNL     1     103.892 311.927 195.483  1.00  0.00    -0.000 C 
BRANCH  10  11
ATOM     11  C   UNL     1     103.592 313.343 195.997  1.00  0.00    -0.000 C 
BRANCH  11  12
ATOM     12  C   UNL     1     104.401 314.422 195.261  1.00  0.00    -0.003 C 
ATOM     13  C   UNL     1     103.524 315.352 194.425  1.00  0.00     0.004 C 
ENDBRANCH  11  12
ENDBRANCH  10  11
ENDBRANCH   9  10
ENDBRANCH   8   9
ENDBRANCH   1   8
TORSDOF 9
ENDMDL
MODEL 3
REMARK VINA RESULT:    -5.054     19.166     20.400
REMARK INTER + INTRA:          -8.517
REMARK INTER:                  -7.497
REMARK INTRA:                  -1.020
REMARK UNBOUND:                -0.805
REMARK SMILES CCCCCCCCCCC(=O)[O-]
REMARK SMILES IDX 7 1 8 2 9 3 10 4 11 5 12 6 13 7 6 8 5 9 4 10 3 11 2 12 1 13
REMARK H PARENT
REMARK Flexibility Score: inf
ROOT
ATOM      1  C   UNL     1     105.500 312.591 192.279  1.00  0.00     0.000 C 
ENDROOT
BRANCH   1   2
ATOM      2  C   UNL     1     104.139 312.937 191.662  1.00  0.00     0.000 C 
BRANCH   2   3
ATOM      3  C   UNL     1     104.255 314.134 190.708  1.00  0.00     0.006 C 
BRANCH   3   4
ATOM      4  C   UNL     1     105.715 314.501 190.411  1.00  0.00     0.053 C 
BRANCH   4   5
ATOM      5  C   UNL     1     105.972 315.965 190.601  1.00  0.00     0.041 C 
ATOM      6  O   UNL     1     106.080 316.442 191.762  1.00  0.00    -0.550 OA
ATOM      7  O   UNL     1     106.124 316.795 189.499  1.00  0.00    -0.550 OA
ENDBRANCH   4   5
ENDBRANCH   3   4
ENDBRANCH   2   3
ENDBRANCH   1   2
BRANCH   1   8
ATOM      8  C   UNL     1     105.373 311.432 193.279  1.00  0.00     0.000 C 
BRANCH   8   9
ATOM      9  C   UNL     1     105.361 311.908 194.741  1.00  0.00    -0.000 C 
BRANCH   9  10
ATOM     10  C   UNL     1     103.961 311.850 195.372  1.00  0.00    -0.000 C 
BRANCH  10  11
ATOM     11  C   UNL     1     103.568 313.215 195.958  1.00  0.00    -0.000 C 
BRANCH  11  12
ATOM     12  C   UNL     1     104.385 314.371 195.361  1.00  0.00    -0.003 C 
ATOM     13  C   UNL     1     103.570 315.237 194.401  1.00  0.00     0.004 C 
ENDBRANCH  11  12
ENDBRANCH  10  11
ENDBRANCH   9  10
ENDBRANCH   8   9
ENDBRANCH   1   8
TORSDOF 9
ENDMDL
MODEL 4
REMARK VINA RESULT:    -5.013     18.893     20.187
REMARK INTER + INTRA:          -8.455
REMARK INTER:                  -7.613
REMARK INTRA:                  -0.842
REMARK UNBOUND:                -0.805
REMARK SMILES CCCCCCCCCCC(=O)[O-]
REMARK SMILES IDX 7 1 8 2 9 3 10 4 11 5 12 6 13 7 6 8 5 9 4 10 3 11 2 12 1 13
REMARK H PARENT
REMARK Flexibility Score: inf
ROOT
ATOM      1  C   UNL     1     104.228 313.126 191.700  1.00  0.00     0.000 C 
ENDROOT
BRANCH   1   2
ATOM      2  C   UNL     1     105.660 313.608 191.440  1.00  0.00     0.000 C 
BRANCH   2   3
ATOM      3  C   UNL     1     105.696 314.639 190.303  1.00  0.00     0.006 C 
BRANCH   3   4
ATOM      4  C   UNL     1     104.330 315.297 190.072  1.00  0.00     0.053 C 
BRANCH   4   5
ATOM      5  C   UNL     1     103.908 315.215 188.636  1.00  0.00     0.041 C 
ATOM      6  O   UNL     1     102.839 314.628 188.323  1.00  0.00    -0.550 OA
ATOM      7  O   UNL     1     104.678 315.815 187.648  1.00  0.00    -0.550 OA
ENDBRANCH   4   5
ENDBRANCH   3   4
ENDBRANCH   2   3
ENDBRANCH   1   2
BRANCH   1   8
ATOM      8  C   UNL     1     104.222 311.852 192.560  1.00  0.00     0.000 C 
BRANCH   8   9
ATOM      9  C   UNL     1     105.571 311.599 193.254  1.00  0.00    -0.000 C 
BRANCH   9  10
ATOM     10  C   UNL     1     105.524 311.888 194.762  1.00  0.00    -0.000 C 
BRANCH  10  11
ATOM     11  C   UNL     1     104.073 311.935 195.266  1.00  0.00    -0.000 C 
BRANCH  11  12
ATOM     12  C   UNL     1     103.764 313.217 196.054  1.00  0.00    -0.003 C 
ATOM     13  C   UNL     1     103.801 314.472 195.183  1.00  0.00     0.004 C 
ENDBRANCH  11  12
ENDBRANCH  10  11
ENDBRANCH   9  10
ENDBRANCH   8   9
ENDBRANCH   1   8
TORSDOF 9
ENDMDL
MODEL 5
REMARK VINA RESULT:    -5.001     19.839     21.546
REMARK INTER + INTRA:          -8.437
REMARK INTER:                  -8.117
REMARK INTRA:                  -0.320
REMARK UNBOUND:                -0.805
REMARK SMILES CCCCCCCCCCC(=O)[O-]
REMARK SMILES IDX 7 1 8 2 9 3 10 4 11 5 12 6 13 7 6 8 5 9 4 10 3 11 2 12 1 13
REMARK H PARENT
REMARK Flexibility Score: inf
ROOT
ATOM      1  C   UNL     1     103.864 312.129 195.758  1.00  0.00     0.000 C 
ENDROOT
BRANCH   1   2
ATOM      2  C   UNL     1     103.852 311.378 197.095  1.00  0.00     0.000 C 
BRANCH   2   3
ATOM      3  C   UNL     1     103.438 312.307 198.245  1.00  0.00     0.006 C 
BRANCH   3   4
ATOM      4  C   UNL     1     103.528 311.616 199.612  1.00  0.00     0.053 C 
BRANCH   4   5
ATOM      5  C   UNL     1     102.311 311.875 200.448  1.00  0.00     0.041 C 
ATOM      6  O   UNL     1     101.752 310.928 201.062  1.00  0.00    -0.550 OA
ATOM      7  O   UNL     1     101.815 313.165 200.576  1.00  0.00    -0.550 OA
ENDBRANCH   4   5
ENDBRANCH   3   4
ENDBRANCH   2   3
ENDBRANCH   1   2
BRANCH   1   8
ATOM      8  C   UNL     1     105.165 311.859 194.987  1.00  0.00     0.000 C 
BRANCH   8   9
ATOM      9  C   UNL     1     104.928 311.631 193.485  1.00  0.00    -0.000 C 
BRANCH   9  10
ATOM     10  C   UNL     1     106.052 312.211 192.613  1.00  0.00    -0.000 C 
BRANCH  10  11
ATOM     11  C   UNL     1     105.529 313.360 191.738  1.00  0.00    -0.000 C 
BRANCH  11  12
ATOM     12  C   UNL     1     104.008 313.296 191.527  1.00  0.00    -0.003 C 
ATOM     13  C   UNL     1     103.552 314.047 190.278  1.00  0.00     0.004 C 
ENDBRANCH  11  12
ENDBRANCH  10  11
ENDBRANCH   9  10
ENDBRANCH   8   9
ENDBRANCH   1   8
TORSDOF 9
ENDMDL
MODEL 6
REMARK VINA RESULT:    -4.986     18.543     20.257
REMARK INTER + INTRA:          -8.415
REMARK INTER:                  -7.537
REMARK INTRA:                  -0.878
REMARK UNBOUND:                -0.805
REMARK SMILES CCCCCCCCCCC(=O)[O-]
REMARK SMILES IDX 7 1 8 2 9 3 10 4 11 5 12 6 13 7 6 8 5 9 4 10 3 11 2 12 1 13
REMARK H PARENT
REMARK Flexibility Score: inf
ROOT
ATOM      1  C   UNL     1     104.256 311.540 192.990  1.00  0.00     0.000 C 
ENDROOT
BRANCH   1   2
ATOM      2  C   UNL     1     103.977 311.646 194.495  1.00  0.00     0.000 C 
BRANCH   2   3
ATOM      3  C   UNL     1     104.681 312.869 195.100  1.00  0.00     0.006 C 
BRANCH   3   4
ATOM      4  C   UNL     1     103.713 314.034 195.345  1.00  0.00     0.053 C 
BRANCH   4   5
ATOM      5  C   UNL     1     104.020 315.208 194.464  1.00  0.00     0.041 C 
ATOM      6  O   UNL     1     103.083 315.871 193.945  1.00  0.00    -0.550 OA
ATOM      7  O   UNL     1     105.336 315.588 194.244  1.00  0.00    -0.550 OA
ENDBRANCH   4   5
ENDBRANCH   3   4
ENDBRANCH   2   3
ENDBRANCH   1   2
BRANCH   1   8
ATOM      8  C   UNL     1     105.551 312.277 192.617  1.00  0.00     0.000 C 
BRANCH   8   9
ATOM      9  C   UNL     1     105.332 313.356 191.544  1.00  0.00    -0.000 C 
BRANCH   9  10
ATOM     10  C   UNL     1     103.892 313.374 191.008  1.00  0.00    -0.000 C 
BRANCH  10  11
ATOM     11  C   UNL     1     103.509 314.777 190.512  1.00  0.00    -0.000 C 
BRANCH  11  12
ATOM     12  C   UNL     1     103.443 314.864 188.980  1.00  0.00    -0.003 C 
ATOM     13  C   UNL     1     102.084 314.445 188.421  1.00  0.00     0.004 C 
ENDBRANCH  11  12
ENDBRANCH  10  11
ENDBRANCH   9  10
ENDBRANCH   8   9
ENDBRANCH   1   8
TORSDOF 9
ENDMDL
MODEL 7
REMARK VINA RESULT:    -4.953     19.510     21.206
REMARK INTER + INTRA:          -8.364
REMARK INTER:                  -7.886
REMARK INTRA:                  -0.478
REMARK UNBOUND:                -0.805
REMARK SMILES CCCCCCCCCCC(=O)[O-]
REMARK SMILES IDX 7 1 8 2 9 3 10 4 11 5 12 6 13 7 6 8 5 9 4 10 3 11 2 12 1 13
REMARK H PARENT
REMARK Flexibility Score: inf
ROOT
ATOM      1  C   UNL     1     105.513 312.188 194.313  1.00  0.00     0.000 C 
ENDROOT
BRANCH   1   2
ATOM      2  C   UNL     1     104.604 312.939 195.293  1.00  0.00     0.000 C 
BRANCH   2   3
ATOM      3  C   UNL     1     103.513 312.014 195.852  1.00  0.00     0.006 C 
BRANCH   3   4
ATOM      4  C   UNL     1     103.960 311.294 197.131  1.00  0.00     0.053 C 
BRANCH   4   5
ATOM      5  C   UNL     1     103.489 312.004 198.364  1.00  0.00     0.041 C 
ATOM      6  O   UNL     1     103.488 313.263 198.408  1.00  0.00    -0.550 OA
ATOM      7  O   UNL     1     103.018 311.278 199.449  1.00  0.00    -0.550 OA
ENDBRANCH   4   5
ENDBRANCH   3   4
ENDBRANCH   2   3
ENDBRANCH   1   2
BRANCH   1   8
ATOM      8  C   UNL     1     104.688 311.490 193.221  1.00  0.00     0.000 C 
BRANCH   8   9
ATOM      9  C   UNL     1     104.273 312.444 192.089  1.00  0.00    -0.000 C 
BRANCH   9  10
ATOM     10  C   UNL     1     105.408 313.389 191.666  1.00  0.00    -0.000 C 
BRANCH  10  11
ATOM     11  C   UNL     1     104.910 314.416 190.638  1.00  0.00    -0.000 C 
BRANCH  11  12
ATOM     12  C   UNL     1     103.481 314.123 190.155  1.00  0.00    -0.003 C 
ATOM     13  C   UNL     1     103.148 314.814 188.833  1.00  0.00     0.004 C 
ENDBRANCH  11  12
ENDBRANCH  10  11
ENDBRANCH   9  10
ENDBRANCH   8   9
ENDBRANCH   1   8
TORSDOF 9
ENDMDL
MODEL 8
REMARK VINA RESULT:    -4.906      1.295      2.457
REMARK INTER + INTRA:          -8.292
REMARK INTER:                  -7.904
REMARK INTRA:                  -0.388
REMARK UNBOUND:                -0.805
REMARK SMILES CCCCCCCCCCC(=O)[O-]
REMARK SMILES IDX 7 1 8 2 9 3 10 4 11 5 12 6 13 7 6 8 5 9 4 10 3 11 2 12 1 13
REMARK H PARENT
REMARK Flexibility Score: inf
ROOT
ATOM      1  C   UNL     1      86.884 323.568 191.634  1.00  0.00     0.000 C 
ENDROOT
BRANCH   1   2
ATOM      2  C   UNL     1      88.272 323.875 191.058  1.00  0.00     0.000 C 
BRANCH   2   3
ATOM      3  C   UNL     1      88.461 323.204 189.690  1.00  0.00     0.006 C 
BRANCH   3   4
ATOM      4  C   UNL     1      89.633 323.807 188.904  1.00  0.00     0.053 C 
BRANCH   4   5
ATOM      5  C   UNL     1      90.552 322.749 188.375  1.00  0.00     0.041 C 
ATOM      6  O   UNL     1      91.799 322.883 188.483  1.00  0.00    -0.550 OA
ATOM      7  O   UNL     1      90.031 321.601 187.793  1.00  0.00    -0.550 OA
ENDBRANCH   4   5
ENDBRANCH   3   4
ENDBRANCH   2   3
ENDBRANCH   1   2
BRANCH   1   8
ATOM      8  C   UNL     1      86.497 324.592 192.713  1.00  0.00     0.000 C 
BRANCH   8   9
ATOM      9  C   UNL     1      87.705 325.381 193.243  1.00  0.00    -0.000 C 
BRANCH   9  10
ATOM     10  C   UNL     1      87.295 326.653 194.000  1.00  0.00    -0.000 C 
BRANCH  10  11
ATOM     11  C   UNL     1      86.825 326.317 195.424  1.00  0.00    -0.000 C 
BRANCH  11  12
ATOM     12  C   UNL     1      87.910 325.607 196.250  1.00  0.00    -0.003 C 
ATOM     13  C   UNL     1      88.500 326.498 197.341  1.00  0.00     0.004 C 
ENDBRANCH  11  12
ENDBRANCH  10  11
ENDBRANCH   9  10
ENDBRANCH   8   9
ENDBRANCH   1   8
TORSDOF 9
ENDMDL
