MODEL 1
REMARK VINA RESULT:    -3.957      0.000      0.000
REMARK INTER + INTRA:          -4.963
REMARK INTER:                  -4.767
REMARK INTRA:                  -0.196
REMARK UNBOUND:                -0.196
REMARK SMILES OCC(O)CO
REMARK SMILES IDX 3 1 5 2 6 3 2 5 1 6 4 8
REMARK H PARENT 6 4 1 7 4 9
REMARK Flexibility Score: inf
ROOT
ATOM      1  C   UNL     1     169.508 170.885 170.693  1.00  0.00     0.165 C 
ENDROOT
BRANCH   1   2
ATOM      2  C   UNL     1     169.948 169.448 171.006  1.00  0.00     0.190 C 
BRANCH   2   3
ATOM      3  O   UNL     1     169.202 168.537 170.247  1.00  0.00    -0.394 OA
ATOM      4  H   UNL     1     169.800 167.763 170.078  1.00  0.00     0.210 HD
ENDBRANCH   2   3
ENDBRANCH   1   2
BRANCH   1   5
ATOM      5  C   UNL     1     168.056 171.148 171.122  1.00  0.00     0.190 C 
BRANCH   5   6
ATOM      6  O   UNL     1     167.157 170.370 170.376  1.00  0.00    -0.394 OA
ATOM      7  H   UNL     1     166.270 170.811 170.449  1.00  0.00     0.210 HD
ENDBRANCH   5   6
ENDBRANCH   1   5
BRANCH   1   8
ATOM      8  O   UNL     1     170.355 171.796 171.345  1.00  0.00    -0.388 OA
ATOM      9  H   UNL     1     170.445 172.584 170.748  1.00  0.00     0.211 HD
ENDBRANCH   1   8
TORSDOF 5
ENDMDL
MODEL 2
REMARK VINA RESULT:    -3.876      0.943      2.329
REMARK INTER + INTRA:          -4.866
REMARK INTER:                  -4.649
REMARK INTRA:                  -0.217
REMARK UNBOUND:                -0.196
REMARK SMILES OCC(O)CO
REMARK SMILES IDX 3 1 5 2 6 3 2 5 1 6 4 8
REMARK H PARENT 6 4 1 7 4 9
REMARK Flexibility Score: inf
ROOT
ATOM      1  C   UNL     1     168.368 170.060 171.077  1.00  0.00     0.165 C 
ENDROOT
BRANCH   1   2
ATOM      2  C   UNL     1     169.222 169.088 170.251  1.00  0.00     0.190 C 
BRANCH   2   3
ATOM      3  O   UNL     1     170.250 168.556 171.039  1.00  0.00    -0.394 OA
ATOM      4  H   UNL     1     170.521 169.279 171.663  1.00  0.00     0.210 HD
ENDBRANCH   2   3
ENDBRANCH   1   2
BRANCH   1   5
ATOM      5  C   UNL     1     168.899 171.500 171.000  1.00  0.00     0.190 C 
BRANCH   5   6
ATOM      6  O   UNL     1     170.250 171.565 171.375  1.00  0.00    -0.394 OA
ATOM      7  H   UNL     1     170.425 172.504 171.647  1.00  0.00     0.210 HD
ENDBRANCH   5   6
ENDBRANCH   1   5
BRANCH   1   8
ATOM      8  O   UNL     1     167.039 170.032 170.625  1.00  0.00    -0.388 OA
ATOM      9  H   UNL     1     166.966 169.272 169.991  1.00  0.00     0.211 HD
ENDBRANCH   1   8
TORSDOF 5
ENDMDL
MODEL 3
REMARK VINA RESULT:    -3.875      0.996      2.911
REMARK INTER + INTRA:          -4.864
REMARK INTER:                  -4.677
REMARK INTRA:                  -0.187
REMARK UNBOUND:                -0.196
REMARK SMILES OCC(O)CO
REMARK SMILES IDX 3 1 5 2 6 3 2 5 1 6 4 8
REMARK H PARENT 6 4 1 7 4 9
REMARK Flexibility Score: inf
ROOT
ATOM      1  C   UNL     1     168.728 170.348 170.320  1.00  0.00     0.165 C 
ENDROOT
BRANCH   1   2
ATOM      2  C   UNL     1     169.244 171.115 171.546  1.00  0.00     0.190 C 
BRANCH   2   3
ATOM      3  O   UNL     1     170.375 171.868 171.205  1.00  0.00    -0.394 OA
ATOM      4  H   UNL     1     170.153 172.812 171.420  1.00  0.00     0.210 HD
ENDBRANCH   2   3
ENDBRANCH   1   2
BRANCH   1   5
ATOM      5  C   UNL     1     169.212 168.889 170.310  1.00  0.00     0.190 C 
BRANCH   5   6
ATOM      6  O   UNL     1     170.348 168.724 171.116  1.00  0.00    -0.394 OA
ATOM      7  H   UNL     1     170.251 169.353 171.878  1.00  0.00     0.210 HD
ENDBRANCH   5   6
ENDBRANCH   1   5
BRANCH   1   8
ATOM      8  O   UNL     1     167.324 170.370 170.299  1.00  0.00    -0.388 OA
ATOM      9  H   UNL     1     167.025 169.450 170.074  1.00  0.00     0.211 HD
ENDBRANCH   1   8
TORSDOF 5
ENDMDL
MODEL 4
REMARK VINA RESULT:    -3.788      0.891      2.298
REMARK INTER + INTRA:          -4.760
REMARK INTER:                  -4.738
REMARK INTRA:                  -0.022
REMARK UNBOUND:                -0.196
REMARK SMILES OCC(O)CO
REMARK SMILES IDX 3 1 5 2 6 3 2 5 1 6 4 8
REMARK H PARENT 6 4 1 7 4 9
REMARK Flexibility Score: inf
ROOT
ATOM      1  C   UNL     1     169.405 169.915 171.405  1.00  0.00     0.165 C 
ENDROOT
BRANCH   1   2
ATOM      2  C   UNL     1     169.821 171.156 170.602  1.00  0.00     0.190 C 
BRANCH   2   3
ATOM      3  O   UNL     1     170.476 172.073 171.433  1.00  0.00    -0.394 OA
ATOM      4  H   UNL     1     171.422 172.090 171.134  1.00  0.00     0.210 HD
ENDBRANCH   2   3
ENDBRANCH   1   2
BRANCH   1   5
ATOM      5  C   UNL     1     167.899 169.632 171.287  1.00  0.00     0.190 C 
BRANCH   5   6
ATOM      6  O   UNL     1     167.314 170.403 170.271  1.00  0.00    -0.394 OA
ATOM      7  H   UNL     1     167.000 169.767 169.576  1.00  0.00     0.210 HD
ENDBRANCH   5   6
ENDBRANCH   1   5
BRANCH   1   8
ATOM      8  O   UNL     1     170.122 168.794 170.959  1.00  0.00    -0.388 OA
ATOM      9  H   UNL     1     169.734 168.533 170.084  1.00  0.00     0.211 HD
ENDBRANCH   1   8
TORSDOF 5
ENDMDL
MODEL 5
REMARK VINA RESULT:    -3.777      0.826      2.496
REMARK INTER + INTRA:          -4.747
REMARK INTER:                  -4.736
REMARK INTRA:                  -0.011
REMARK UNBOUND:                -0.196
REMARK SMILES OCC(O)CO
REMARK SMILES IDX 3 1 5 2 6 3 2 5 1 6 4 8
REMARK H PARENT 6 4 1 7 4 9
REMARK Flexibility Score: inf
ROOT
ATOM      1  C   UNL     1     169.415 170.492 171.384  1.00  0.00     0.165 C 
ENDROOT
BRANCH   1   2
ATOM      2  C   UNL     1     168.090 171.216 171.107  1.00  0.00     0.190 C 
BRANCH   2   3
ATOM      3  O   UNL     1     167.234 170.391 170.365  1.00  0.00    -0.394 OA
ATOM      4  H   UNL     1     166.329 170.511 170.755  1.00  0.00     0.210 HD
ENDBRANCH   2   3
ENDBRANCH   1   2
BRANCH   1   5
ATOM      5  C   UNL     1     169.504 169.150 170.639  1.00  0.00     0.190 C 
BRANCH   5   6
ATOM      6  O   UNL     1     170.544 168.355 171.145  1.00  0.00    -0.394 OA
ATOM      7  H   UNL     1     170.383 167.432 170.815  1.00  0.00     0.210 HD
ENDBRANCH   5   6
ENDBRANCH   1   5
BRANCH   1   8
ATOM      8  O   UNL     1     170.494 171.305 171.001  1.00  0.00    -0.388 OA
ATOM      9  H   UNL     1     171.126 170.728 170.498  1.00  0.00     0.211 HD
ENDBRANCH   1   8
TORSDOF 5
ENDMDL
MODEL 6
REMARK VINA RESULT:    -3.710      1.167      2.312
REMARK INTER + INTRA:          -4.665
REMARK INTER:                  -4.457
REMARK INTRA:                  -0.208
REMARK UNBOUND:                -0.196
REMARK SMILES OCC(O)CO
REMARK SMILES IDX 3 1 5 2 6 3 2 5 1 6 4 8
REMARK H PARENT 6 4 1 7 4 9
REMARK Flexibility Score: inf
ROOT
ATOM      1  C   UNL     1     169.327 169.671 170.607  1.00  0.00     0.165 C 
ENDROOT
BRANCH   1   2
ATOM      2  C   UNL     1     167.958 169.432 171.259  1.00  0.00     0.190 C 
BRANCH   2   3
ATOM      3  O   UNL     1     166.950 170.053 170.510  1.00  0.00    -0.394 OA
ATOM      4  H   UNL     1     166.259 169.359 170.348  1.00  0.00     0.210 HD
ENDBRANCH   2   3
ENDBRANCH   1   2
BRANCH   1   5
ATOM      5  C   UNL     1     169.882 171.066 170.932  1.00  0.00     0.190 C 
BRANCH   5   6
ATOM      6  O   UNL     1     168.874 172.041 170.877  1.00  0.00    -0.394 OA
ATOM      7  H   UNL     1     168.789 172.415 171.793  1.00  0.00     0.210 HD
ENDBRANCH   5   6
ENDBRANCH   1   5
BRANCH   1   8
ATOM      8  O   UNL     1     170.240 168.697 171.042  1.00  0.00    -0.388 OA
ATOM      9  H   UNL     1     170.881 169.153 171.648  1.00  0.00     0.211 HD
ENDBRANCH   1   8
TORSDOF 5
ENDMDL
MODEL 7
REMARK VINA RESULT:    -3.527      1.461      2.647
REMARK INTER + INTRA:          -4.445
REMARK INTER:                  -4.442
REMARK INTRA:                  -0.002
REMARK UNBOUND:                -0.196
REMARK SMILES OCC(O)CO
REMARK SMILES IDX 3 1 5 2 6 3 2 5 1 6 4 8
REMARK H PARENT 6 4 1 7 4 9
REMARK Flexibility Score: inf
ROOT
ATOM      1  C   UNL     1     168.602 171.123 171.557  1.00  0.00     0.165 C 
ENDROOT
BRANCH   1   2
ATOM      2  C   UNL     1     167.900 169.831 171.115  1.00  0.00     0.190 C 
BRANCH   2   3
ATOM      3  O   UNL     1     166.865 170.125 170.219  1.00  0.00    -0.394 OA
ATOM      4  H   UNL     1     166.186 170.630 170.737  1.00  0.00     0.210 HD
ENDBRANCH   2   3
ENDBRANCH   1   2
BRANCH   1   5
ATOM      5  C   UNL     1     170.000 171.259 170.934  1.00  0.00     0.190 C 
BRANCH   5   6
ATOM      6  O   UNL     1     170.694 172.353 171.474  1.00  0.00    -0.394 OA
ATOM      7  H   UNL     1     170.079 172.790 172.120  1.00  0.00     0.210 HD
ENDBRANCH   5   6
ENDBRANCH   1   5
BRANCH   1   8
ATOM      8  O   UNL     1     167.825 172.236 171.198  1.00  0.00    -0.388 OA
ATOM      9  H   UNL     1     167.365 172.004 170.349  1.00  0.00     0.211 HD
ENDBRANCH   1   8
TORSDOF 5
ENDMDL
MODEL 8
REMARK VINA RESULT:    -3.066      6.303      6.927
REMARK INTER + INTRA:          -3.890
REMARK INTER:                  -3.668
REMARK INTRA:                  -0.222
REMARK UNBOUND:                -0.196
REMARK SMILES OCC(O)CO
REMARK SMILES IDX 3 1 5 2 6 3 2 5 1 6 4 8
REMARK H PARENT 6 4 1 7 4 9
REMARK Flexibility Score: inf
ROOT
ATOM      1  C   UNL     1     170.768 170.417 164.019  1.00  0.00     0.165 C 
ENDROOT
BRANCH   1   2
ATOM      2  C   UNL     1     169.510 170.924 164.740  1.00  0.00     0.190 C 
BRANCH   2   3
ATOM      3  O   UNL     1     169.725 170.954 166.124  1.00  0.00    -0.394 OA
ATOM      4  H   UNL     1     168.916 170.554 166.537  1.00  0.00     0.210 HD
ENDBRANCH   2   3
ENDBRANCH   1   2
BRANCH   1   5
ATOM      5  C   UNL     1     171.992 171.300 164.310  1.00  0.00     0.190 C 
BRANCH   5   6
ATOM      6  O   UNL     1     171.616 172.632 164.541  1.00  0.00    -0.394 OA
ATOM      7  H   UNL     1     170.635 172.681 164.393  1.00  0.00     0.210 HD
ENDBRANCH   5   6
ENDBRANCH   1   5
BRANCH   1   8
ATOM      8  O   UNL     1     171.045 169.098 164.412  1.00  0.00    -0.388 OA
ATOM      9  H   UNL     1     171.148 168.566 163.580  1.00  0.00     0.211 HD
ENDBRANCH   1   8
TORSDOF 5
ENDMDL
MODEL 9
REMARK VINA RESULT:    -2.955      6.609      6.759
REMARK INTER + INTRA:          -3.756
REMARK INTER:                  -3.545
REMARK INTRA:                  -0.211
REMARK UNBOUND:                -0.196
REMARK SMILES OCC(O)CO
REMARK SMILES IDX 3 1 5 2 6 3 2 5 1 6 4 8
REMARK H PARENT 6 4 1 7 4 9
REMARK Flexibility Score: inf
ROOT
ATOM      1  C   UNL     1     170.877 172.135 163.858  1.00  0.00     0.165 C 
ENDROOT
BRANCH   1   2
ATOM      2  C   UNL     1     170.987 170.816 164.637  1.00  0.00     0.190 C 
BRANCH   2   3
ATOM      3  O   UNL     1     170.022 170.773 165.652  1.00  0.00    -0.394 OA
ATOM      4  H   UNL     1     169.700 171.705 165.767  1.00  0.00     0.210 HD
ENDBRANCH   2   3
ENDBRANCH   1   2
BRANCH   1   5
ATOM      5  C   UNL     1     169.476 172.755 163.971  1.00  0.00     0.190 C 
BRANCH   5   6
ATOM      6  O   UNL     1     169.419 173.700 165.007  1.00  0.00    -0.394 OA
ATOM      7  H   UNL     1     168.869 173.298 165.730  1.00  0.00     0.210 HD
ENDBRANCH   5   6
ENDBRANCH   1   5
BRANCH   1   8
ATOM      8  O   UNL     1     171.828 173.052 164.335  1.00  0.00    -0.388 OA
ATOM      9  H   UNL     1     172.699 172.800 163.929  1.00  0.00     0.211 HD
ENDBRANCH   1   8
TORSDOF 5
ENDMDL
