MODEL 1
REMARK VINA RESULT:    -8.188      0.000      0.000
REMARK INTER + INTRA:          -8.857
REMARK INTER:                  -8.906
REMARK INTRA:                   0.049
REMARK UNBOUND:                 0.049
REMARK SMILES CC(=O)[C@@H]1CC[C@H]2[C@@H]3CC=C4C[C@H](O)CC[C@@]4(C)[C@@H]3CC[C@@]12C
REMARK SMILES IDX 4 1 5 2 6 3 7 4 22 5 21 6 20 7 19 8 8 9 9 10 10 11 11 12
REMARK SMILES IDX 17 13 16 14 15 15 13 16 12 17 18 18 23 19 2 20 1 21 3 22
REMARK SMILES IDX 14 23
REMARK H PARENT 14 24
REMARK Flexibility Score: inf
ROOT
ATOM      1  C   UNL     1     123.044 178.131 124.879  1.00  0.00     0.062 C 
ATOM      2  C   UNL     1     121.770 178.073 124.041  1.00  0.00     0.012 C 
ATOM      3  C   UNL     1     122.236 177.688 122.643  1.00  0.00     0.005 C 
ATOM      4  C   UNL     1     123.618 177.003 122.784  1.00  0.00    -0.001 C 
ATOM      5  C   UNL     1     123.936 176.997 124.315  1.00  0.00    -0.020 C 
ATOM      6  C   UNL     1     125.437 177.266 124.616  1.00  0.00     0.008 C 
ATOM      7  C   UNL     1     126.335 176.563 123.601  1.00  0.00     0.005 C 
ATOM      8  C   UNL     1     126.164 177.175 122.186  1.00  0.00     0.003 C 
ATOM      9  C   UNL     1     124.710 177.710 121.916  1.00  0.00     0.000 C 
ATOM     10  C   UNL     1     124.320 177.706 120.413  1.00  0.00     0.031 C 
ATOM     11  C   UNL     1     125.491 177.740 119.473  1.00  0.00    -0.027 C 
ATOM     12  C   UNL     1     126.619 177.046 119.714  1.00  0.00    -0.065 C 
ATOM     13  C   UNL     1     126.781 176.288 121.037  1.00  0.00    -0.008 C 
ATOM     14  C   UNL     1     128.295 176.057 121.345  1.00  0.00     0.014 C 
ATOM     15  C   UNL     1     129.112 175.608 120.133  1.00  0.00     0.033 C 
ATOM     16  C   UNL     1     129.033 176.662 119.030  1.00  0.00     0.118 C 
ATOM     17  C   UNL     1     127.584 176.833 118.563  1.00  0.00     0.063 C 
ATOM     18  C   UNL     1     126.074 174.914 120.906  1.00  0.00     0.016 C 
ATOM     19  C   UNL     1     123.529 175.619 124.915  1.00  0.00     0.012 C 
ENDROOT
BRANCH   1  20
ATOM     20  C   UNL     1     122.835 178.091 126.385  1.00  0.00     0.133 C 
ATOM     21  C   UNL     1     123.663 178.903 127.343  1.00  0.00     0.088 C 
ATOM     22  O   UNL     1     121.964 177.363 126.838  1.00  0.00    -0.300 OA
ENDBRANCH   1  20
BRANCH  16  23
ATOM     23  O   UNL     1     129.837 176.261 117.954  1.00  0.00    -0.393 OA
ATOM     24  H   UNL     1     130.704 175.965 118.337  1.00  0.00     0.210 HD
ENDBRANCH  16  23
TORSDOF 2
ENDMDL
MODEL 2
REMARK VINA RESULT:    -8.105      4.321      9.377
REMARK INTER + INTRA:          -8.766
REMARK INTER:                  -8.694
REMARK INTRA:                  -0.072
REMARK UNBOUND:                 0.049
REMARK SMILES CC(=O)[C@@H]1CC[C@H]2[C@@H]3CC=C4C[C@H](O)CC[C@@]4(C)[C@@H]3CC[C@@]12C
REMARK SMILES IDX 4 1 5 2 6 3 7 4 22 5 21 6 20 7 19 8 8 9 9 10 10 11 11 12
REMARK SMILES IDX 17 13 16 14 15 15 13 16 12 17 18 18 23 19 2 20 1 21 3 22
REMARK SMILES IDX 14 23
REMARK H PARENT 14 24
REMARK Flexibility Score: inf
ROOT
ATOM      1  C   UNL     1     122.842 176.943 125.412  1.00  0.00     0.062 C 
ATOM      2  C   UNL     1     122.536 175.476 125.130  1.00  0.00     0.012 C 
ATOM      3  C   UNL     1     121.017 175.393 125.083  1.00  0.00     0.005 C 
ATOM      4  C   UNL     1     120.480 176.814 124.784  1.00  0.00    -0.001 C 
ATOM      5  C   UNL     1     121.743 177.727 124.651  1.00  0.00    -0.020 C 
ATOM      6  C   UNL     1     121.533 179.136 125.271  1.00  0.00     0.008 C 
ATOM      7  C   UNL     1     120.126 179.656 124.985  1.00  0.00     0.005 C 
ATOM      8  C   UNL     1     119.056 178.806 125.718  1.00  0.00     0.003 C 
ATOM      9  C   UNL     1     119.466 177.296 125.874  1.00  0.00     0.000 C 
ATOM     10  C   UNL     1     118.252 176.334 125.974  1.00  0.00     0.031 C 
ATOM     11  C   UNL     1     116.988 176.986 126.452  1.00  0.00    -0.027 C 
ATOM     12  C   UNL     1     116.632 178.224 126.063  1.00  0.00    -0.065 C 
ATOM     13  C   UNL     1     117.588 179.056 125.200  1.00  0.00    -0.008 C 
ATOM     14  C   UNL     1     117.261 180.577 125.345  1.00  0.00     0.014 C 
ATOM     15  C   UNL     1     115.765 180.895 125.306  1.00  0.00     0.033 C 
ATOM     16  C   UNL     1     115.048 180.170 126.443  1.00  0.00     0.118 C 
ATOM     17  C   UNL     1     115.193 178.654 126.280  1.00  0.00     0.063 C 
ATOM     18  C   UNL     1     117.404 178.638 123.718  1.00  0.00     0.016 C 
ATOM     19  C   UNL     1     122.109 177.875 123.145  1.00  0.00     0.012 C 
ENDROOT
BRANCH   1  20
ATOM     20  C   UNL     1     124.267 177.382 125.108  1.00  0.00     0.133 C 
ATOM     21  C   UNL     1     125.150 176.658 124.130  1.00  0.00     0.088 C 
ATOM     22  O   UNL     1     124.717 178.358 125.691  1.00  0.00    -0.300 OA
ENDBRANCH   1  20
BRANCH  16  23
ATOM     23  O   UNL     1     113.690 180.524 126.428  1.00  0.00    -0.393 OA
ATOM     24  H   UNL     1     113.193 179.775 126.851  1.00  0.00     0.210 HD
ENDBRANCH  16  23
TORSDOF 2
ENDMDL
MODEL 3
REMARK VINA RESULT:    -8.035      3.458      5.937
REMARK INTER + INTRA:          -8.691
REMARK INTER:                  -8.599
REMARK INTRA:                  -0.092
REMARK UNBOUND:                 0.049
REMARK SMILES CC(=O)[C@@H]1CC[C@H]2[C@@H]3CC=C4C[C@H](O)CC[C@@]4(C)[C@@H]3CC[C@@]12C
REMARK SMILES IDX 4 1 5 2 6 3 7 4 22 5 21 6 20 7 19 8 8 9 9 10 10 11 11 12
REMARK SMILES IDX 17 13 16 14 15 15 13 16 12 17 18 18 23 19 2 20 1 21 3 22
REMARK SMILES IDX 14 23
REMARK H PARENT 14 24
REMARK Flexibility Score: inf
ROOT
ATOM      1  C   UNL     1     117.541 177.793 125.182  1.00  0.00     0.062 C 
ATOM      2  C   UNL     1     117.434 177.208 126.587  1.00  0.00     0.012 C 
ATOM      3  C   UNL     1     118.823 176.664 126.893  1.00  0.00     0.005 C 
ATOM      4  C   UNL     1     119.825 177.393 125.965  1.00  0.00    -0.001 C 
ATOM      5  C   UNL     1     118.970 178.387 125.112  1.00  0.00    -0.020 C 
ATOM      6  C   UNL     1     119.460 178.489 123.641  1.00  0.00     0.008 C 
ATOM      7  C   UNL     1     120.985 178.466 123.568  1.00  0.00     0.005 C 
ATOM      8  C   UNL     1     121.544 177.089 124.010  1.00  0.00     0.003 C 
ATOM      9  C   UNL     1     120.664 176.388 125.108  1.00  0.00     0.000 C 
ATOM     10  C   UNL     1     121.466 175.414 126.013  1.00  0.00     0.031 C 
ATOM     11  C   UNL     1     122.727 174.891 125.390  1.00  0.00    -0.027 C 
ATOM     12  C   UNL     1     123.526 175.670 124.637  1.00  0.00    -0.065 C 
ATOM     13  C   UNL     1     123.096 177.101 124.296  1.00  0.00    -0.008 C 
ATOM     14  C   UNL     1     123.834 177.596 123.011  1.00  0.00     0.014 C 
ATOM     15  C   UNL     1     125.323 177.246 122.980  1.00  0.00     0.033 C 
ATOM     16  C   UNL     1     125.505 175.731 123.048  1.00  0.00     0.118 C 
ATOM     17  C   UNL     1     124.939 175.188 124.364  1.00  0.00     0.063 C 
ATOM     18  C   UNL     1     123.471 178.025 125.484  1.00  0.00     0.016 C 
ATOM     19  C   UNL     1     119.019 179.797 125.771  1.00  0.00     0.012 C 
ENDROOT
BRANCH   1  20
ATOM     20  C   UNL     1     116.429 178.755 124.791  1.00  0.00     0.133 C 
ATOM     21  C   UNL     1     115.509 179.387 125.798  1.00  0.00     0.088 C 
ATOM     22  O   UNL     1     116.270 179.017 123.608  1.00  0.00    -0.300 OA
ENDBRANCH   1  20
BRANCH  16  23
ATOM     23  O   UNL     1     126.871 175.429 122.955  1.00  0.00    -0.393 OA
ATOM     24  H   UNL     1     127.177 175.197 123.871  1.00  0.00     0.210 HD
ENDBRANCH  16  23
TORSDOF 2
ENDMDL
MODEL 4
REMARK VINA RESULT:    -7.889      1.802      7.364
REMARK INTER + INTRA:          -8.532
REMARK INTER:                  -8.437
REMARK INTRA:                  -0.095
REMARK UNBOUND:                 0.049
REMARK SMILES CC(=O)[C@@H]1CC[C@H]2[C@@H]3CC=C4C[C@H](O)CC[C@@]4(C)[C@@H]3CC[C@@]12C
REMARK SMILES IDX 4 1 5 2 6 3 7 4 22 5 21 6 20 7 19 8 8 9 9 10 10 11 11 12
REMARK SMILES IDX 17 13 16 14 15 15 13 16 12 17 18 18 23 19 2 20 1 21 3 22
REMARK SMILES IDX 14 23
REMARK H PARENT 14 24
REMARK Flexibility Score: inf
ROOT
ATOM      1  C   UNL     1     126.872 177.944 121.871  1.00  0.00     0.062 C 
ATOM      2  C   UNL     1     127.908 177.769 122.977  1.00  0.00     0.012 C 
ATOM      3  C   UNL     1     127.096 177.583 124.251  1.00  0.00     0.005 C 
ATOM      4  C   UNL     1     125.682 177.103 123.838  1.00  0.00    -0.001 C 
ATOM      5  C   UNL     1     125.704 177.011 122.277  1.00  0.00    -0.020 C 
ATOM      6  C   UNL     1     124.369 177.475 121.631  1.00  0.00     0.008 C 
ATOM      7  C   UNL     1     123.170 177.007 122.452  1.00  0.00     0.005 C 
ATOM      8  C   UNL     1     123.132 177.708 123.834  1.00  0.00     0.003 C 
ATOM      9  C   UNL     1     124.562 178.040 124.398  1.00  0.00     0.000 C 
ATOM     10  C   UNL     1     124.614 178.110 125.949  1.00  0.00     0.031 C 
ATOM     11  C   UNL     1     123.291 178.401 126.596  1.00  0.00    -0.027 C 
ATOM     12  C   UNL     1     122.142 177.866 126.143  1.00  0.00    -0.065 C 
ATOM     13  C   UNL     1     122.144 177.028 124.859  1.00  0.00    -0.008 C 
ATOM     14  C   UNL     1     120.715 177.000 124.229  1.00  0.00     0.014 C 
ATOM     15  C   UNL     1     119.594 176.787 125.247  1.00  0.00     0.033 C 
ATOM     16  C   UNL     1     119.608 177.910 126.282  1.00  0.00     0.118 C 
ATOM     17  C   UNL     1     120.930 177.903 127.056  1.00  0.00     0.063 C 
ATOM     18  C   UNL     1     122.568 175.580 125.218  1.00  0.00     0.016 C 
ATOM     19  C   UNL     1     125.996 175.540 121.857  1.00  0.00     0.012 C 
ENDROOT
BRANCH   1  20
ATOM     20  C   UNL     1     127.390 177.742 120.455  1.00  0.00     0.133 C 
ATOM     21  C   UNL     1     128.708 177.083 120.158  1.00  0.00     0.088 C 
ATOM     22  O   UNL     1     126.711 178.139 119.520  1.00  0.00    -0.300 OA
ENDBRANCH   1  20
BRANCH  16  23
ATOM     23  O   UNL     1     118.536 177.730 127.169  1.00  0.00    -0.393 OA
ATOM     24  H   UNL     1     118.616 176.810 127.534  1.00  0.00     0.210 HD
ENDBRANCH  16  23
TORSDOF 2
ENDMDL
MODEL 5
REMARK VINA RESULT:    -7.825      6.726      8.504
REMARK INTER + INTRA:          -8.462
REMARK INTER:                  -8.371
REMARK INTRA:                  -0.091
REMARK UNBOUND:                 0.049
REMARK SMILES CC(=O)[C@@H]1CC[C@H]2[C@@H]3CC=C4C[C@H](O)CC[C@@]4(C)[C@@H]3CC[C@@]12C
REMARK SMILES IDX 4 1 5 2 6 3 7 4 22 5 21 6 20 7 19 8 8 9 9 10 10 11 11 12
REMARK SMILES IDX 17 13 16 14 15 15 13 16 12 17 18 18 23 19 2 20 1 21 3 22
REMARK SMILES IDX 14 23
REMARK H PARENT 14 24
REMARK Flexibility Score: inf
ROOT
ATOM      1  C   UNL     1     117.261 177.619 125.745  1.00  0.00     0.062 C 
ATOM      2  C   UNL     1     116.591 177.748 127.109  1.00  0.00     0.012 C 
ATOM      3  C   UNL     1     117.309 176.741 127.997  1.00  0.00     0.005 C 
ATOM      4  C   UNL     1     118.688 176.452 127.355  1.00  0.00    -0.001 C 
ATOM      5  C   UNL     1     118.750 177.333 126.065  1.00  0.00    -0.020 C 
ATOM      6  C   UNL     1     119.446 176.610 124.878  1.00  0.00     0.008 C 
ATOM      7  C   UNL     1     120.645 175.795 125.359  1.00  0.00     0.005 C 
ATOM      8  C   UNL     1     120.193 174.611 126.252  1.00  0.00     0.003 C 
ATOM      9  C   UNL     1     118.897 174.925 127.086  1.00  0.00     0.000 C 
ATOM     10  C   UNL     1     118.796 174.106 128.401  1.00  0.00     0.031 C 
ATOM     11  C   UNL     1     119.584 172.828 128.393  1.00  0.00    -0.027 C 
ATOM     12  C   UNL     1     120.803 172.746 127.828  1.00  0.00    -0.065 C 
ATOM     13  C   UNL     1     121.371 173.946 127.062  1.00  0.00    -0.008 C 
ATOM     14  C   UNL     1     122.465 173.473 126.051  1.00  0.00     0.014 C 
ATOM     15  C   UNL     1     123.434 172.439 126.626  1.00  0.00     0.033 C 
ATOM     16  C   UNL     1     122.666 171.196 127.073  1.00  0.00     0.118 C 
ATOM     17  C   UNL     1     121.675 171.556 128.184  1.00  0.00     0.063 C 
ATOM     18  C   UNL     1     122.013 174.922 128.082  1.00  0.00     0.016 C 
ATOM     19  C   UNL     1     119.513 178.652 126.383  1.00  0.00     0.012 C 
ENDROOT
BRANCH   1  20
ATOM     20  C   UNL     1     117.023 178.779 124.789  1.00  0.00     0.133 C 
ATOM     21  C   UNL     1     116.535 180.124 125.249  1.00  0.00     0.088 C 
ATOM     22  O   UNL     1     117.229 178.607 123.597  1.00  0.00    -0.300 OA
ENDBRANCH   1  20
BRANCH  16  23
ATOM     23  O   UNL     1     123.578 170.237 127.539  1.00  0.00    -0.393 OA
ATOM     24  H   UNL     1     123.711 170.414 128.507  1.00  0.00     0.210 HD
ENDBRANCH  16  23
TORSDOF 2
ENDMDL
MODEL 6
REMARK VINA RESULT:    -7.797      6.346      9.003
REMARK INTER + INTRA:          -8.432
REMARK INTER:                  -8.506
REMARK INTRA:                   0.074
REMARK UNBOUND:                 0.049
REMARK SMILES CC(=O)[C@@H]1CC[C@H]2[C@@H]3CC=C4C[C@H](O)CC[C@@]4(C)[C@@H]3CC[C@@]12C
REMARK SMILES IDX 4 1 5 2 6 3 7 4 22 5 21 6 20 7 19 8 8 9 9 10 10 11 11 12
REMARK SMILES IDX 17 13 16 14 15 15 13 16 12 17 18 18 23 19 2 20 1 21 3 22
REMARK SMILES IDX 14 23
REMARK H PARENT 14 24
REMARK Flexibility Score: inf
ROOT
ATOM      1  C   UNL     1     120.318 177.885 127.199  1.00  0.00     0.062 C 
ATOM      2  C   UNL     1     120.491 177.861 128.715  1.00  0.00     0.012 C 
ATOM      3  C   UNL     1     120.300 176.403 129.110  1.00  0.00     0.005 C 
ATOM      4  C   UNL     1     120.569 175.539 127.853  1.00  0.00    -0.001 C 
ATOM      5  C   UNL     1     120.931 176.547 126.714  1.00  0.00    -0.020 C 
ATOM      6  C   UNL     1     120.342 176.132 125.337  1.00  0.00     0.008 C 
ATOM      7  C   UNL     1     120.428 174.620 125.137  1.00  0.00     0.005 C 
ATOM      8  C   UNL     1     119.506 173.872 126.133  1.00  0.00     0.003 C 
ATOM      9  C   UNL     1     119.355 174.612 127.513  1.00  0.00     0.000 C 
ATOM     10  C   UNL     1     119.031 173.658 128.694  1.00  0.00     0.031 C 
ATOM     11  C   UNL     1     118.390 172.365 128.282  1.00  0.00    -0.027 C 
ATOM     12  C   UNL     1     118.769 171.702 127.174  1.00  0.00    -0.065 C 
ATOM     13  C   UNL     1     119.801 172.325 126.227  1.00  0.00    -0.008 C 
ATOM     14  C   UNL     1     119.667 171.706 124.798  1.00  0.00     0.014 C 
ATOM     15  C   UNL     1     119.487 170.187 124.797  1.00  0.00     0.033 C 
ATOM     16  C   UNL     1     118.226 169.810 125.571  1.00  0.00     0.118 C 
ATOM     17  C   UNL     1     118.349 170.250 127.033  1.00  0.00     0.063 C 
ATOM     18  C   UNL     1     121.219 172.026 126.778  1.00  0.00     0.016 C 
ATOM     19  C   UNL     1     122.480 176.654 126.600  1.00  0.00     0.012 C 
ENDROOT
BRANCH   1  20
ATOM     20  C   UNL     1     120.855 179.125 126.501  1.00  0.00     0.133 C 
ATOM     21  C   UNL     1     120.131 179.798 125.367  1.00  0.00     0.088 C 
ATOM     22  O   UNL     1     121.923 179.590 126.870  1.00  0.00    -0.300 OA
ENDBRANCH   1  20
BRANCH  16  23
ATOM     23  O   UNL     1     118.046 168.420 125.505  1.00  0.00    -0.393 OA
ATOM     24  H   UNL     1     117.150 168.265 125.105  1.00  0.00     0.210 HD
ENDBRANCH  16  23
TORSDOF 2
ENDMDL
MODEL 7
REMARK VINA RESULT:    -7.757      6.371      9.071
REMARK INTER + INTRA:          -8.388
REMARK INTER:                  -8.389
REMARK INTRA:                   0.001
REMARK UNBOUND:                 0.049
REMARK SMILES CC(=O)[C@@H]1CC[C@H]2[C@@H]3CC=C4C[C@H](O)CC[C@@]4(C)[C@@H]3CC[C@@]12C
REMARK SMILES IDX 4 1 5 2 6 3 7 4 22 5 21 6 20 7 19 8 8 9 9 10 10 11 11 12
REMARK SMILES IDX 17 13 16 14 15 15 13 16 12 17 18 18 23 19 2 20 1 21 3 22
REMARK SMILES IDX 14 23
REMARK H PARENT 14 24
REMARK Flexibility Score: inf
ROOT
ATOM      1  C   UNL     1     120.236 178.657 126.489  1.00  0.00     0.062 C 
ATOM      2  C   UNL     1     121.729 178.779 126.778  1.00  0.00     0.012 C 
ATOM      3  C   UNL     1     122.185 177.363 127.101  1.00  0.00     0.005 C 
ATOM      4  C   UNL     1     121.153 176.388 126.481  1.00  0.00    -0.001 C 
ATOM      5  C   UNL     1     120.085 177.288 125.779  1.00  0.00    -0.020 C 
ATOM      6  C   UNL     1     118.640 176.736 125.934  1.00  0.00     0.008 C 
ATOM      7  C   UNL     1     118.619 175.214 125.815  1.00  0.00     0.005 C 
ATOM      8  C   UNL     1     119.359 174.551 127.005  1.00  0.00     0.003 C 
ATOM      9  C   UNL     1     120.554 175.416 127.550  1.00  0.00     0.000 C 
ATOM     10  C   UNL     1     121.668 174.573 128.228  1.00  0.00     0.031 C 
ATOM     11  C   UNL     1     121.207 173.238 128.736  1.00  0.00    -0.027 C 
ATOM     12  C   UNL     1     120.331 172.478 128.052  1.00  0.00    -0.065 C 
ATOM     13  C   UNL     1     119.682 173.024 126.775  1.00  0.00    -0.008 C 
ATOM     14  C   UNL     1     118.345 172.271 126.484  1.00  0.00     0.014 C 
ATOM     15  C   UNL     1     118.433 170.756 126.678  1.00  0.00     0.033 C 
ATOM     16  C   UNL     1     118.825 170.436 128.118  1.00  0.00     0.118 C 
ATOM     17  C   UNL     1     120.208 171.014 128.433  1.00  0.00     0.063 C 
ATOM     18  C   UNL     1     120.659 172.798 125.591  1.00  0.00     0.016 C 
ATOM     19  C   UNL     1     120.431 177.406 124.266  1.00  0.00     0.012 C 
ENDROOT
BRANCH   1  20
ATOM     20  C   UNL     1     119.616 179.833 125.749  1.00  0.00     0.133 C 
ATOM     21  C   UNL     1     118.143 179.934 125.470  1.00  0.00     0.088 C 
ATOM     22  O   UNL     1     120.349 180.730 125.356  1.00  0.00    -0.300 OA
ENDBRANCH   1  20
BRANCH  16  23
ATOM     23  O   UNL     1     118.840 169.044 128.291  1.00  0.00    -0.393 OA
ATOM     24  H   UNL     1     118.160 168.833 128.984  1.00  0.00     0.210 HD
ENDBRANCH  16  23
TORSDOF 2
ENDMDL
MODEL 8
REMARK VINA RESULT:    -7.690      1.987      2.931
REMARK INTER + INTRA:          -8.315
REMARK INTER:                  -8.231
REMARK INTRA:                  -0.084
REMARK UNBOUND:                 0.049
REMARK SMILES CC(=O)[C@@H]1CC[C@H]2[C@@H]3CC=C4C[C@H](O)CC[C@@]4(C)[C@@H]3CC[C@@]12C
REMARK SMILES IDX 4 1 5 2 6 3 7 4 22 5 21 6 20 7 19 8 8 9 9 10 10 11 11 12
REMARK SMILES IDX 17 13 16 14 15 15 13 16 12 17 18 18 23 19 2 20 1 21 3 22
REMARK SMILES IDX 14 23
REMARK H PARENT 14 24
REMARK Flexibility Score: inf
ROOT
ATOM      1  C   UNL     1     120.741 177.747 126.266  1.00  0.00     0.062 C 
ATOM      2  C   UNL     1     119.843 176.886 125.383  1.00  0.00     0.012 C 
ATOM      3  C   UNL     1     120.718 176.489 124.202  1.00  0.00     0.005 C 
ATOM      4  C   UNL     1     122.195 176.627 124.647  1.00  0.00    -0.001 C 
ATOM      5  C   UNL     1     122.148 177.112 126.133  1.00  0.00    -0.020 C 
ATOM      6  C   UNL     1     123.260 178.146 126.462  1.00  0.00     0.008 C 
ATOM      7  C   UNL     1     124.572 177.779 125.773  1.00  0.00     0.005 C 
ATOM      8  C   UNL     1     124.447 177.901 124.232  1.00  0.00     0.003 C 
ATOM      9  C   UNL     1     123.004 177.574 123.700  1.00  0.00     0.000 C 
ATOM     10  C   UNL     1     122.988 177.051 122.239  1.00  0.00     0.031 C 
ATOM     11  C   UNL     1     124.185 177.453 121.428  1.00  0.00    -0.027 C 
ATOM     12  C   UNL     1     125.424 177.481 121.951  1.00  0.00    -0.065 C 
ATOM     13  C   UNL     1     125.627 177.211 123.446  1.00  0.00    -0.008 C 
ATOM     14  C   UNL     1     126.977 177.832 123.930  1.00  0.00     0.014 C 
ATOM     15  C   UNL     1     128.146 177.595 122.972  1.00  0.00     0.033 C 
ATOM     16  C   UNL     1     127.833 178.203 121.606  1.00  0.00     0.118 C 
ATOM     17  C   UNL     1     126.602 177.529 120.994  1.00  0.00     0.063 C 
ATOM     18  C   UNL     1     125.668 175.676 123.669  1.00  0.00     0.016 C 
ATOM     19  C   UNL     1     122.293 175.882 127.077  1.00  0.00     0.012 C 
ENDROOT
BRANCH   1  20
ATOM     20  C   UNL     1     120.258 177.938 127.696  1.00  0.00     0.133 C 
ATOM     21  C   UNL     1     119.269 177.014 128.351  1.00  0.00     0.088 C 
ATOM     22  O   UNL     1     120.684 178.888 128.337  1.00  0.00    -0.300 OA
ENDBRANCH   1  20
BRANCH  16  23
ATOM     23  O   UNL     1     128.941 178.029 120.762  1.00  0.00    -0.393 OA
ATOM     24  H   UNL     1     129.572 177.428 121.237  1.00  0.00     0.210 HD
ENDBRANCH  16  23
TORSDOF 2
ENDMDL
MODEL 9
REMARK VINA RESULT:    -7.632      5.872      8.703
REMARK INTER + INTRA:          -8.252
REMARK INTER:                  -8.163
REMARK INTRA:                  -0.089
REMARK UNBOUND:                 0.049
REMARK SMILES CC(=O)[C@@H]1CC[C@H]2[C@@H]3CC=C4C[C@H](O)CC[C@@]4(C)[C@@H]3CC[C@@]12C
REMARK SMILES IDX 4 1 5 2 6 3 7 4 22 5 21 6 20 7 19 8 8 9 9 10 10 11 11 12
REMARK SMILES IDX 17 13 16 14 15 15 13 16 12 17 18 18 23 19 2 20 1 21 3 22
REMARK SMILES IDX 14 23
REMARK H PARENT 14 24
REMARK Flexibility Score: inf
ROOT
ATOM      1  C   UNL     1     119.725 171.001 126.521  1.00  0.00     0.062 C 
ATOM      2  C   UNL     1     118.994 170.905 127.857  1.00  0.00     0.012 C 
ATOM      3  C   UNL     1     119.230 172.249 128.532  1.00  0.00     0.005 C 
ATOM      4  C   UNL     1     119.587 173.272 127.424  1.00  0.00    -0.001 C 
ATOM      5  C   UNL     1     119.544 172.475 126.080  1.00  0.00    -0.020 C 
ATOM      6  C   UNL     1     120.665 172.903 125.092  1.00  0.00     0.008 C 
ATOM      7  C   UNL     1     120.881 174.414 125.130  1.00  0.00     0.005 C 
ATOM      8  C   UNL     1     121.454 174.862 126.500  1.00  0.00     0.003 C 
ATOM      9  C   UNL     1     120.960 173.972 127.698  1.00  0.00     0.000 C 
ATOM     10  C   UNL     1     120.945 174.719 129.058  1.00  0.00     0.031 C 
ATOM     11  C   UNL     1     121.875 175.896 129.124  1.00  0.00    -0.027 C 
ATOM     12  C   UNL     1     122.047 176.728 128.081  1.00  0.00    -0.065 C 
ATOM     13  C   UNL     1     121.373 176.419 126.739  1.00  0.00    -0.008 C 
ATOM     14  C   UNL     1     122.128 177.140 125.576  1.00  0.00     0.014 C 
ATOM     15  C   UNL     1     122.513 178.586 125.892  1.00  0.00     0.033 C 
ATOM     16  C   UNL     1     123.426 178.628 127.116  1.00  0.00     0.118 C 
ATOM     17  C   UNL     1     122.695 178.076 128.343  1.00  0.00     0.063 C 
ATOM     18  C   UNL     1     119.911 176.935 126.790  1.00  0.00     0.016 C 
ATOM     19  C   UNL     1     118.156 172.686 125.406  1.00  0.00     0.012 C 
ENDROOT
BRANCH   1  20
ATOM     20  C   UNL     1     119.320 169.967 125.481  1.00  0.00     0.133 C 
ATOM     21  C   UNL     1     118.100 169.101 125.627  1.00  0.00     0.088 C 
ATOM     22  O   UNL     1     120.020 169.828 124.489  1.00  0.00    -0.300 OA
ENDBRANCH   1  20
BRANCH  16  23
ATOM     23  O   UNL     1     123.818 179.955 127.351  1.00  0.00    -0.393 OA
ATOM     24  H   UNL     1     122.986 180.496 127.394  1.00  0.00     0.210 HD
ENDBRANCH  16  23
TORSDOF 2
ENDMDL
