MODEL 1
REMARK VINA RESULT:    -5.088      0.000      0.000
REMARK INTER + INTRA:         -10.170
REMARK INTER:                  -7.765
REMARK INTRA:                  -2.405
REMARK UNBOUND:                -2.405
REMARK SMILES CC(=O)CCC=C(C)CCC=C(C)CCC=C(C)C
REMARK SMILES IDX 10 1 11 2 12 3 13 4 14 5 15 6 16 7 18 8 17 9 19 10 9 11 7 12
REMARK SMILES IDX 6 13 8 14 5 15 4 16 2 17 3 18 1 19
REMARK H PARENT
REMARK Flexibility Score: inf
ROOT
ATOM      1  C   UNL     1      13.712 -20.860 -20.340  1.00  0.00     0.032 C 
ENDROOT
BRANCH   1   2
ATOM      2  C   UNL     1      14.617 -20.200 -19.330  1.00  0.00    -0.028 C 
ATOM      3  C   UNL     1      14.429 -18.956 -18.833  1.00  0.00    -0.077 C 
ATOM      4  C   UNL     1      13.226 -18.120 -19.201  1.00  0.00     0.039 C 
BRANCH   3   5
ATOM      5  C   UNL     1      15.425 -18.403 -17.838  1.00  0.00     0.034 C 
BRANCH   5   6
ATOM      6  C   UNL     1      16.330 -17.361 -18.502  1.00  0.00     0.032 C 
BRANCH   6   7
ATOM      7  C   UNL     1      17.220 -18.008 -19.536  1.00  0.00    -0.028 C 
ATOM      8  C   UNL     1      16.016 -16.950 -21.463  1.00  0.00     0.039 C 
ATOM      9  C   UNL     1      17.071 -17.857 -20.872  1.00  0.00    -0.080 C 
ATOM     10  C   UNL     1      18.004 -18.604 -21.788  1.00  0.00     0.039 C 
ENDBRANCH   6   7
ENDBRANCH   5   6
ENDBRANCH   3   5
ENDBRANCH   1   2
BRANCH   1  11
ATOM     11  C   UNL     1      14.474 -21.181 -21.631  1.00  0.00     0.034 C 
BRANCH  11  12
ATOM     12  C   UNL     1      14.221 -20.113 -22.672  1.00  0.00    -0.077 C 
ATOM     13  C   UNL     1      13.163 -19.284 -22.523  1.00  0.00    -0.028 C 
ATOM     14  C   UNL     1      15.179 -19.986 -23.833  1.00  0.00     0.039 C 
BRANCH  13  15
ATOM     15  C   UNL     1      12.849 -18.134 -23.449  1.00  0.00     0.035 C 
BRANCH  15  16
ATOM     16  C   UNL     1      11.982 -17.092 -22.734  1.00  0.00     0.079 C 
BRANCH  16  17
ATOM     17  C   UNL     1      10.590 -17.620 -22.511  1.00  0.00     0.130 C 
ATOM     18  O   UNL     1      10.197 -17.808 -21.369  1.00  0.00    -0.300 OA
ATOM     19  C   UNL     1       9.676 -17.932 -23.660  1.00  0.00     0.087 C 
ENDBRANCH  16  17
ENDBRANCH  15  16
ENDBRANCH  13  15
ENDBRANCH  11  12
ENDBRANCH   1  11
TORSDOF 9
ENDMDL
MODEL 2
REMARK VINA RESULT:    -5.055      2.576      6.159
REMARK INTER + INTRA:         -10.120
REMARK INTER:                  -8.907
REMARK INTRA:                  -1.213
REMARK UNBOUND:                -2.405
REMARK SMILES CC(=O)CCC=C(C)CCC=C(C)CCC=C(C)C
REMARK SMILES IDX 10 1 11 2 12 3 13 4 14 5 15 6 16 7 18 8 17 9 19 10 9 11 7 12
REMARK SMILES IDX 6 13 8 14 5 15 4 16 2 17 3 18 1 19
REMARK H PARENT
REMARK Flexibility Score: inf
ROOT
ATOM      1  C   UNL     1      14.567 -17.482 -18.755  1.00  0.00     0.032 C 
ENDROOT
BRANCH   1   2
ATOM      2  C   UNL     1      13.299 -18.250 -19.039  1.00  0.00    -0.028 C 
ATOM      3  C   UNL     1      12.620 -18.197 -20.208  1.00  0.00    -0.077 C 
ATOM      4  C   UNL     1      13.119 -17.398 -21.390  1.00  0.00     0.039 C 
BRANCH   3   5
ATOM      5  C   UNL     1      11.349 -19.002 -20.357  1.00  0.00     0.034 C 
BRANCH   5   6
ATOM      6  C   UNL     1      10.121 -18.088 -20.299  1.00  0.00     0.032 C 
BRANCH   6   7
ATOM      7  C   UNL     1       8.973 -18.685 -21.076  1.00  0.00    -0.028 C 
ATOM      8  C   UNL     1       9.564 -17.469 -23.186  1.00  0.00     0.039 C 
ATOM      9  C   UNL     1       8.692 -18.392 -22.366  1.00  0.00    -0.080 C 
ATOM     10  C   UNL     1       7.483 -19.028 -23.002  1.00  0.00     0.039 C 
ENDBRANCH   6   7
ENDBRANCH   5   6
ENDBRANCH   3   5
ENDBRANCH   1   2
BRANCH   1  11
ATOM     11  C   UNL     1      15.760 -18.432 -18.604  1.00  0.00     0.034 C 
BRANCH  11  12
ATOM     12  C   UNL     1      16.177 -18.974 -19.953  1.00  0.00    -0.077 C 
ATOM     13  C   UNL     1      15.645 -20.138 -20.389  1.00  0.00    -0.028 C 
ATOM     14  C   UNL     1      17.153 -18.179 -20.789  1.00  0.00     0.039 C 
BRANCH  13  15
ATOM     15  C   UNL     1      15.921 -20.743 -21.744  1.00  0.00     0.035 C 
BRANCH  15  16
ATOM     16  C   UNL     1      15.171 -22.071 -21.902  1.00  0.00     0.079 C 
BRANCH  16  17
ATOM     17  C   UNL     1      15.882 -22.970 -22.877  1.00  0.00     0.130 C 
ATOM     18  O   UNL     1      15.738 -22.785 -24.077  1.00  0.00    -0.300 OA
ATOM     19  C   UNL     1      16.758 -24.096 -22.411  1.00  0.00     0.087 C 
ENDBRANCH  16  17
ENDBRANCH  15  16
ENDBRANCH  13  15
ENDBRANCH  11  12
ENDBRANCH   1  11
TORSDOF 9
ENDMDL
MODEL 3
REMARK VINA RESULT:    -5.030      3.479      5.317
REMARK INTER + INTRA:         -10.082
REMARK INTER:                  -8.410
REMARK INTRA:                  -1.672
REMARK UNBOUND:                -2.405
REMARK SMILES CC(=O)CCC=C(C)CCC=C(C)CCC=C(C)C
REMARK SMILES IDX 10 1 11 2 12 3 13 4 14 5 15 6 16 7 18 8 17 9 19 10 9 11 7 12
REMARK SMILES IDX 6 13 8 14 5 15 4 16 2 17 3 18 1 19
REMARK H PARENT
REMARK Flexibility Score: inf
ROOT
ATOM      1  C   UNL     1      14.055 -20.878 -20.105  1.00  0.00     0.032 C 
ENDROOT
BRANCH   1   2
ATOM      2  C   UNL     1      14.908 -19.932 -19.295  1.00  0.00    -0.028 C 
ATOM      3  C   UNL     1      14.528 -18.688 -18.925  1.00  0.00    -0.077 C 
ATOM      4  C   UNL     1      13.154 -18.143 -19.236  1.00  0.00     0.039 C 
BRANCH   3   5
ATOM      5  C   UNL     1      15.489 -17.832 -18.130  1.00  0.00     0.034 C 
BRANCH   5   6
ATOM      6  C   UNL     1      16.763 -17.561 -18.935  1.00  0.00     0.032 C 
BRANCH   6   7
ATOM      7  C   UNL     1      16.426 -17.166 -20.352  1.00  0.00    -0.028 C 
ATOM      8  C   UNL     1      17.886 -18.937 -21.360  1.00  0.00     0.039 C 
ATOM      9  C   UNL     1      16.947 -17.755 -21.453  1.00  0.00    -0.080 C 
ATOM     10  C   UNL     1      16.556 -17.224 -22.807  1.00  0.00     0.039 C 
ENDBRANCH   6   7
ENDBRANCH   5   6
ENDBRANCH   3   5
ENDBRANCH   1   2
BRANCH   1  11
ATOM     11  C   UNL     1      13.978 -20.430 -21.569  1.00  0.00     0.034 C 
BRANCH  11  12
ATOM     12  C   UNL     1      15.012 -21.159 -22.398  1.00  0.00    -0.077 C 
ATOM     13  C   UNL     1      15.487 -22.348 -21.964  1.00  0.00    -0.028 C 
ATOM     14  C   UNL     1      15.458 -20.549 -23.706  1.00  0.00     0.039 C 
BRANCH  13  15
ATOM     15  C   UNL     1      16.460 -23.206 -22.735  1.00  0.00     0.035 C 
BRANCH  15  16
ATOM     16  C   UNL     1      16.528 -24.614 -22.133  1.00  0.00     0.079 C 
BRANCH  16  17
ATOM     17  C   UNL     1      17.901 -25.205 -22.316  1.00  0.00     0.130 C 
ATOM     18  O   UNL     1      18.253 -25.568 -23.429  1.00  0.00    -0.300 OA
ATOM     19  C   UNL     1      18.844 -25.368 -21.160  1.00  0.00     0.087 C 
ENDBRANCH  16  17
ENDBRANCH  15  16
ENDBRANCH  13  15
ENDBRANCH  11  12
ENDBRANCH   1  11
TORSDOF 9
ENDMDL
MODEL 4
REMARK VINA RESULT:    -4.948      2.368      4.436
REMARK INTER + INTRA:          -9.957
REMARK INTER:                  -8.532
REMARK INTRA:                  -1.424
REMARK UNBOUND:                -2.405
REMARK SMILES CC(=O)CCC=C(C)CCC=C(C)CCC=C(C)C
REMARK SMILES IDX 10 1 11 2 12 3 13 4 14 5 15 6 16 7 18 8 17 9 19 10 9 11 7 12
REMARK SMILES IDX 6 13 8 14 5 15 4 16 2 17 3 18 1 19
REMARK H PARENT
REMARK Flexibility Score: inf
ROOT
ATOM      1  C   UNL     1      14.479 -19.105 -18.594  1.00  0.00     0.032 C 
ENDROOT
BRANCH   1   2
ATOM      2  C   UNL     1      15.356 -19.691 -19.673  1.00  0.00    -0.028 C 
ATOM      3  C   UNL     1      14.927 -20.555 -20.622  1.00  0.00    -0.077 C 
ATOM      4  C   UNL     1      13.478 -20.968 -20.733  1.00  0.00     0.039 C 
BRANCH   3   5
ATOM      5  C   UNL     1      15.916 -21.086 -21.635  1.00  0.00     0.034 C 
BRANCH   5   6
ATOM      6  C   UNL     1      15.295 -22.222 -22.453  1.00  0.00     0.032 C 
BRANCH   6   7
ATOM      7  C   UNL     1      16.038 -23.515 -22.221  1.00  0.00    -0.028 C 
ATOM      8  C   UNL     1      17.398 -23.292 -24.314  1.00  0.00     0.039 C 
ATOM      9  C   UNL     1      16.964 -24.025 -23.065  1.00  0.00    -0.080 C 
ATOM     10  C   UNL     1      17.592 -25.352 -22.728  1.00  0.00     0.039 C 
ENDBRANCH   6   7
ENDBRANCH   5   6
ENDBRANCH   3   5
ENDBRANCH   1   2
BRANCH   1  11
ATOM     11  C   UNL     1      14.165 -17.633 -18.882  1.00  0.00     0.034 C 
BRANCH  11  12
ATOM     12  C   UNL     1      12.962 -17.518 -19.791  1.00  0.00    -0.077 C 
ATOM     13  C   UNL     1      13.149 -17.270 -21.107  1.00  0.00    -0.028 C 
ATOM     14  C   UNL     1      11.584 -17.715 -19.203  1.00  0.00     0.039 C 
BRANCH  13  15
ATOM     15  C   UNL     1      12.038 -17.209 -22.126  1.00  0.00     0.035 C 
BRANCH  15  16
ATOM     16  C   UNL     1      12.280 -18.226 -23.246  1.00  0.00     0.079 C 
BRANCH  16  17
ATOM     17  C   UNL     1      11.132 -18.228 -24.220  1.00  0.00     0.130 C 
ATOM     18  O   UNL     1      11.354 -18.416 -25.407  1.00  0.00    -0.300 OA
ATOM     19  C   UNL     1       9.721 -17.993 -23.768  1.00  0.00     0.087 C 
ENDBRANCH  16  17
ENDBRANCH  15  16
ENDBRANCH  13  15
ENDBRANCH  11  12
ENDBRANCH   1  11
TORSDOF 9
ENDMDL
MODEL 5
REMARK VINA RESULT:    -4.937      1.143      3.766
REMARK INTER + INTRA:          -9.940
REMARK INTER:                  -7.689
REMARK INTRA:                  -2.251
REMARK UNBOUND:                -2.405
REMARK SMILES CC(=O)CCC=C(C)CCC=C(C)CCC=C(C)C
REMARK SMILES IDX 10 1 11 2 12 3 13 4 14 5 15 6 16 7 18 8 17 9 19 10 9 11 7 12
REMARK SMILES IDX 6 13 8 14 5 15 4 16 2 17 3 18 1 19
REMARK H PARENT
REMARK Flexibility Score: inf
ROOT
ATOM      1  C   UNL     1      16.127 -17.411 -18.906  1.00  0.00     0.032 C 
ENDROOT
BRANCH   1   2
ATOM      2  C   UNL     1      17.037 -17.991 -19.961  1.00  0.00    -0.028 C 
ATOM      3  C   UNL     1      16.879 -17.807 -21.292  1.00  0.00    -0.077 C 
ATOM      4  C   UNL     1      15.790 -16.923 -21.854  1.00  0.00     0.039 C 
BRANCH   3   5
ATOM      5  C   UNL     1      17.852 -18.463 -22.246  1.00  0.00     0.034 C 
BRANCH   5   6
ATOM      6  C   UNL     1      17.104 -19.294 -23.293  1.00  0.00     0.032 C 
BRANCH   6   7
ATOM      7  C   UNL     1      16.897 -20.707 -22.805  1.00  0.00    -0.028 C 
ATOM      8  C   UNL     1      14.404 -20.589 -23.037  1.00  0.00     0.039 C 
ATOM      9  C   UNL     1      15.687 -21.292 -22.655  1.00  0.00    -0.080 C 
ATOM     10  C   UNL     1      15.629 -22.696 -22.110  1.00  0.00     0.039 C 
ENDBRANCH   6   7
ENDBRANCH   5   6
ENDBRANCH   3   5
ENDBRANCH   1   2
BRANCH   1  11
ATOM     11  C   UNL     1      15.420 -18.521 -18.121  1.00  0.00     0.034 C 
BRANCH  11  12
ATOM     12  C   UNL     1      14.370 -19.189 -18.981  1.00  0.00    -0.077 C 
ATOM     13  C   UNL     1      13.366 -18.443 -19.494  1.00  0.00    -0.028 C 
ATOM     14  C   UNL     1      14.494 -20.667 -19.267  1.00  0.00     0.039 C 
BRANCH  13  15
ATOM     15  C   UNL     1      12.304 -18.974 -20.425  1.00  0.00     0.035 C 
BRANCH  15  16
ATOM     16  C   UNL     1      11.818 -17.870 -21.371  1.00  0.00     0.079 C 
BRANCH  16  17
ATOM     17  C   UNL     1      10.332 -17.971 -21.587  1.00  0.00     0.130 C 
ATOM     18  O   UNL     1       9.607 -18.248 -20.643  1.00  0.00    -0.300 OA
ATOM     19  C   UNL     1       9.719 -17.748 -22.939  1.00  0.00     0.087 C 
ENDBRANCH  16  17
ENDBRANCH  15  16
ENDBRANCH  13  15
ENDBRANCH  11  12
ENDBRANCH   1  11
TORSDOF 9
ENDMDL
MODEL 6
REMARK VINA RESULT:    -4.920      1.227      3.360
REMARK INTER + INTRA:          -9.914
REMARK INTER:                  -7.810
REMARK INTRA:                  -2.104
REMARK UNBOUND:                -2.405
REMARK SMILES CC(=O)CCC=C(C)CCC=C(C)CCC=C(C)C
REMARK SMILES IDX 10 1 11 2 12 3 13 4 14 5 15 6 16 7 18 8 17 9 19 10 9 11 7 12
REMARK SMILES IDX 6 13 8 14 5 15 4 16 2 17 3 18 1 19
REMARK H PARENT
REMARK Flexibility Score: inf
ROOT
ATOM      1  C   UNL     1      16.126 -17.187 -22.855  1.00  0.00     0.032 C 
ENDROOT
BRANCH   1   2
ATOM      2  C   UNL     1      16.367 -16.900 -21.393  1.00  0.00    -0.028 C 
ATOM      3  C   UNL     1      16.882 -17.792 -20.515  1.00  0.00    -0.077 C 
ATOM      4  C   UNL     1      17.337 -19.167 -20.943  1.00  0.00     0.039 C 
BRANCH   3   5
ATOM      5  C   UNL     1      17.054 -17.383 -19.069  1.00  0.00     0.034 C 
BRANCH   5   6
ATOM      6  C   UNL     1      16.001 -18.062 -18.187  1.00  0.00     0.032 C 
BRANCH   6   7
ATOM      7  C   UNL     1      14.621 -17.543 -18.508  1.00  0.00    -0.028 C 
ATOM      8  C   UNL     1      13.892 -19.690 -19.577  1.00  0.00     0.039 C 
ATOM      9  C   UNL     1      13.672 -18.253 -19.161  1.00  0.00    -0.080 C 
ATOM     10  C   UNL     1      12.353 -17.589 -19.457  1.00  0.00     0.039 C 
ENDBRANCH   6   7
ENDBRANCH   5   6
ENDBRANCH   3   5
ENDBRANCH   1   2
BRANCH   1  11
ATOM     11  C   UNL     1      14.804 -16.568 -23.324  1.00  0.00     0.034 C 
BRANCH  11  12
ATOM     12  C   UNL     1      13.681 -17.574 -23.209  1.00  0.00    -0.077 C 
ATOM     13  C   UNL     1      12.404 -17.133 -23.146  1.00  0.00    -0.028 C 
ATOM     14  C   UNL     1      14.019 -19.047 -23.200  1.00  0.00     0.039 C 
BRANCH  13  15
ATOM     15  C   UNL     1      11.195 -18.036 -23.106  1.00  0.00     0.035 C 
BRANCH  15  16
ATOM     16  C   UNL     1      10.001 -17.306 -22.481  1.00  0.00     0.079 C 
BRANCH  16  17
ATOM     17  C   UNL     1       9.038 -18.289 -21.870  1.00  0.00     0.130 C 
ATOM     18  O   UNL     1       9.238 -18.698 -20.736  1.00  0.00    -0.300 OA
ATOM     19  C   UNL     1       7.841 -18.786 -22.626  1.00  0.00     0.087 C 
ENDBRANCH  16  17
ENDBRANCH  15  16
ENDBRANCH  13  15
ENDBRANCH  11  12
ENDBRANCH   1  11
TORSDOF 9
ENDMDL
MODEL 7
REMARK VINA RESULT:    -4.915      2.683      5.037
REMARK INTER + INTRA:          -9.907
REMARK INTER:                  -7.648
REMARK INTRA:                  -2.259
REMARK UNBOUND:                -2.405
REMARK SMILES CC(=O)CCC=C(C)CCC=C(C)CCC=C(C)C
REMARK SMILES IDX 10 1 11 2 12 3 13 4 14 5 15 6 16 7 18 8 17 9 19 10 9 11 7 12
REMARK SMILES IDX 6 13 8 14 5 15 4 16 2 17 3 18 1 19
REMARK H PARENT
REMARK Flexibility Score: inf
ROOT
ATOM      1  C   UNL     1      16.486 -17.571 -22.865  1.00  0.00     0.032 C 
ENDROOT
BRANCH   1   2
ATOM      2  C   UNL     1      16.522 -17.123 -21.425  1.00  0.00    -0.028 C 
ATOM      3  C   UNL     1      17.153 -17.790 -20.432  1.00  0.00    -0.077 C 
ATOM      4  C   UNL     1      17.959 -19.041 -20.694  1.00  0.00     0.039 C 
BRANCH   3   5
ATOM      5  C   UNL     1      17.094 -17.242 -19.024  1.00  0.00     0.034 C 
BRANCH   5   6
ATOM      6  C   UNL     1      16.055 -17.999 -18.192  1.00  0.00     0.032 C 
BRANCH   6   7
ATOM      7  C   UNL     1      14.656 -17.574 -18.570  1.00  0.00    -0.028 C 
ATOM      8  C   UNL     1      14.080 -19.801 -19.567  1.00  0.00     0.039 C 
ATOM      9  C   UNL     1      13.768 -18.363 -19.217  1.00  0.00    -0.080 C 
ATOM     10  C   UNL     1      12.422 -17.789 -19.574  1.00  0.00     0.039 C 
ENDBRANCH   6   7
ENDBRANCH   5   6
ENDBRANCH   3   5
ENDBRANCH   1   2
BRANCH   1  11
ATOM     11  C   UNL     1      15.049 -17.598 -23.396  1.00  0.00     0.034 C 
BRANCH  11  12
ATOM     12  C   UNL     1      14.439 -18.967 -23.199  1.00  0.00    -0.077 C 
ATOM     13  C   UNL     1      15.249 -20.049 -23.140  1.00  0.00    -0.028 C 
ATOM     14  C   UNL     1      12.940 -19.082 -23.041  1.00  0.00     0.039 C 
BRANCH  13  15
ATOM     15  C   UNL     1      14.771 -21.454 -22.872  1.00  0.00     0.035 C 
BRANCH  15  16
ATOM     16  C   UNL     1      15.104 -22.369 -24.055  1.00  0.00     0.079 C 
BRANCH  16  17
ATOM     17  C   UNL     1      16.406 -23.088 -23.822  1.00  0.00     0.130 C 
ATOM     18  O   UNL     1      17.312 -22.966 -24.633  1.00  0.00    -0.300 OA
ATOM     19  C   UNL     1      16.615 -23.960 -22.618  1.00  0.00     0.087 C 
ENDBRANCH  16  17
ENDBRANCH  15  16
ENDBRANCH  13  15
ENDBRANCH  11  12
ENDBRANCH   1  11
TORSDOF 9
ENDMDL
MODEL 8
REMARK VINA RESULT:    -4.910      4.311      6.548
REMARK INTER + INTRA:          -9.899
REMARK INTER:                  -8.693
REMARK INTRA:                  -1.205
REMARK UNBOUND:                -2.405
REMARK SMILES CC(=O)CCC=C(C)CCC=C(C)CCC=C(C)C
REMARK SMILES IDX 10 1 11 2 12 3 13 4 14 5 15 6 16 7 18 8 17 9 19 10 9 11 7 12
REMARK SMILES IDX 6 13 8 14 5 15 4 16 2 17 3 18 1 19
REMARK H PARENT
REMARK Flexibility Score: inf
ROOT
ATOM      1  C   UNL     1      16.482 -24.557 -22.436  1.00  0.00     0.032 C 
ENDROOT
BRANCH   1   2
ATOM      2  C   UNL     1      16.155 -23.180 -21.912  1.00  0.00    -0.028 C 
ATOM      3  C   UNL     1      15.531 -22.218 -22.630  1.00  0.00    -0.077 C 
ATOM      4  C   UNL     1      15.030 -22.463 -24.034  1.00  0.00     0.039 C 
BRANCH   3   5
ATOM      5  C   UNL     1      15.282 -20.869 -21.992  1.00  0.00     0.034 C 
BRANCH   5   6
ATOM      6  C   UNL     1      14.278 -20.994 -20.841  1.00  0.00     0.032 C 
BRANCH   6   7
ATOM      7  C   UNL     1      14.857 -20.431 -19.565  1.00  0.00    -0.028 C 
ATOM      8  C   UNL     1      13.321 -18.450 -19.557  1.00  0.00     0.039 C 
ATOM      9  C   UNL     1      14.458 -19.273 -18.993  1.00  0.00    -0.080 C 
ATOM     10  C   UNL     1      15.160 -18.808 -17.744  1.00  0.00     0.039 C 
ENDBRANCH   6   7
ENDBRANCH   5   6
ENDBRANCH   3   5
ENDBRANCH   1   2
BRANCH   1  11
ATOM     11  C   UNL     1      17.981 -24.848 -22.315  1.00  0.00     0.034 C 
BRANCH  11  12
ATOM     12  C   UNL     1      18.626 -24.870 -23.683  1.00  0.00    -0.077 C 
ATOM     13  C   UNL     1      18.437 -23.823 -24.519  1.00  0.00    -0.028 C 
ATOM     14  C   UNL     1      19.491 -26.049 -24.063  1.00  0.00     0.039 C 
BRANCH  13  15
ATOM     15  C   UNL     1      19.086 -23.692 -25.874  1.00  0.00     0.035 C 
BRANCH  15  16
ATOM     16  C   UNL     1      19.403 -22.223 -26.177  1.00  0.00     0.079 C 
BRANCH  16  17
ATOM     17  C   UNL     1      18.169 -21.372 -26.036  1.00  0.00     0.130 C 
ATOM     18  O   UNL     1      18.065 -20.621 -25.077  1.00  0.00    -0.300 OA
ATOM     19  C   UNL     1      17.056 -21.432 -27.041  1.00  0.00     0.087 C 
ENDBRANCH  16  17
ENDBRANCH  15  16
ENDBRANCH  13  15
ENDBRANCH  11  12
ENDBRANCH   1  11
TORSDOF 9
ENDMDL
MODEL 9
REMARK VINA RESULT:    -4.778      1.775      3.842
REMARK INTER + INTRA:          -9.697
REMARK INTER:                  -8.012
REMARK INTRA:                  -1.685
REMARK UNBOUND:                -2.405
REMARK SMILES CC(=O)CCC=C(C)CCC=C(C)CCC=C(C)C
REMARK SMILES IDX 10 1 11 2 12 3 13 4 14 5 15 6 16 7 18 8 17 9 19 10 9 11 7 12
REMARK SMILES IDX 6 13 8 14 5 15 4 16 2 17 3 18 1 19
REMARK H PARENT
REMARK Flexibility Score: inf
ROOT
ATOM      1  C   UNL     1      14.301 -17.658 -24.212  1.00  0.00     0.032 C 
ENDROOT
BRANCH   1   2
ATOM      2  C   UNL     1      14.186 -18.835 -23.275  1.00  0.00    -0.028 C 
ATOM      3  C   UNL     1      13.741 -18.755 -22.000  1.00  0.00    -0.077 C 
ATOM      4  C   UNL     1      13.240 -17.459 -21.405  1.00  0.00     0.039 C 
BRANCH   3   5
ATOM      5  C   UNL     1      13.694 -20.010 -21.158  1.00  0.00     0.034 C 
BRANCH   5   6
ATOM      6  C   UNL     1      14.968 -20.146 -20.319  1.00  0.00     0.032 C 
BRANCH   6   7
ATOM      7  C   UNL     1      14.653 -20.026 -18.847  1.00  0.00    -0.028 C 
ATOM      8  C   UNL     1      15.676 -17.747 -18.652  1.00  0.00     0.039 C 
ATOM      9  C   UNL     1      14.994 -18.967 -18.078  1.00  0.00    -0.080 C 
ATOM     10  C   UNL     1      14.657 -19.006 -16.610  1.00  0.00     0.039 C 
ENDBRANCH   6   7
ENDBRANCH   5   6
ENDBRANCH   3   5
ENDBRANCH   1   2
BRANCH   1  11
ATOM     11  C   UNL     1      13.303 -17.778 -25.369  1.00  0.00     0.034 C 
BRANCH  11  12
ATOM     12  C   UNL     1      11.940 -17.281 -24.943  1.00  0.00    -0.077 C 
ATOM     13  C   UNL     1      11.036 -18.163 -24.458  1.00  0.00    -0.028 C 
ATOM     14  C   UNL     1      11.639 -15.803 -25.042  1.00  0.00     0.039 C 
BRANCH  13  15
ATOM     15  C   UNL     1       9.675 -17.781 -23.931  1.00  0.00     0.035 C 
BRANCH  15  16
ATOM     16  C   UNL     1       9.665 -17.813 -22.399  1.00  0.00     0.079 C 
BRANCH  16  17
ATOM     17  C   UNL     1       8.516 -18.644 -21.892  1.00  0.00     0.130 C 
ATOM     18  O   UNL     1       8.546 -19.072 -20.747  1.00  0.00    -0.300 OA
ATOM     19  C   UNL     1       7.338 -18.967 -22.763  1.00  0.00     0.087 C 
ENDBRANCH  16  17
ENDBRANCH  15  16
ENDBRANCH  13  15
ENDBRANCH  11  12
ENDBRANCH   1  11
TORSDOF 9
ENDMDL
