MODEL 1
REMARK VINA RESULT:    17.974      0.000      0.000
REMARK INTER + INTRA:          26.034
REMARK INTER:                  25.329
REMARK INTRA:                   0.706
REMARK UNBOUND:                 0.706
REMARK SMILES CC1=CCC(=C(C)C)C(=O)CC(C)=CCC1
REMARK SMILES IDX 12 1 14 2 13 3 15 4 16 5 2 6 1 7 3 8 11 10 9 11 10 12 5 13
REMARK SMILES IDX 6 14 7 15 8 16 4 17
REMARK H PARENT
REMARK Flexibility Score: 60.00
ROOT
ATOM      1  C   UNL     1      20.484  16.605 -11.632  1.00  0.00    -0.070 C 
ATOM      2  C   UNL     1      20.512  15.549 -12.474  1.00  0.00    -0.027 C 
ATOM      3  C   UNL     1      21.582  17.632 -11.752  1.00  0.00     0.039 C 
ENDROOT
BRANCH   2   4
ATOM      4  C   UNL     1      19.561  14.372 -12.446  1.00  0.00     0.032 C 
BRANCH   4   5
ATOM      5  C   UNL     1      18.542  14.334 -13.604  1.00  0.00     0.034 C 
BRANCH   5   6
ATOM      6  C   UNL     1      17.214  14.981 -13.251  1.00  0.00    -0.077 C 
ATOM      7  C   UNL     1      16.048  14.073 -12.953  1.00  0.00     0.039 C 
ATOM      8  C   UNL     1      16.992  16.319 -13.254  1.00  0.00    -0.023 CG0
ATOM      9  G   UNL     1      18.009  17.415 -13.504  1.00  0.00     0.000 G0
ENDBRANCH   5   6
ENDBRANCH   4   5
ENDBRANCH   2   4
BRANCH   1  10
ATOM     10  C   UNL     1      19.464  16.759 -10.523  1.00  0.00     0.111 C 
BRANCH  10  11
ATOM     11  C   UNL     1      18.288  17.594 -10.958  1.00  0.00     0.163 C 
ATOM     12  O   UNL     1      17.292  17.665 -10.188  1.00  0.00    -0.294 OA
BRANCH  11  13
ATOM     13  C   UNL     1      18.241  18.281 -12.284  1.00  0.00    -0.002 C 
ATOM     14  C   UNL     1      18.325  19.643 -12.368  1.00  0.00    -0.069 C 
ATOM     15  C   UNL     1      18.122  20.377 -13.675  1.00  0.00     0.039 C 
ATOM     16  C   UNL     1      18.625  20.488 -11.149  1.00  0.00     0.039 C 
BRANCH  13  17
ATOM     17  C   UNL     1      18.001  17.413 -13.509  1.00  0.00     0.066 CG0
ATOM     18  G   UNL     1      16.983  16.320 -13.250  1.00  0.00     0.000 G0
ENDBRANCH  13  17
ENDBRANCH  11  13
ENDBRANCH  10  11
ENDBRANCH   1  10
TORSDOF 0
ENDMDL
MODEL 2
REMARK VINA RESULT:    19.407      1.474      4.565
REMARK INTER + INTRA:          28.054
REMARK INTER:                  26.203
REMARK INTRA:                   1.851
REMARK UNBOUND:                 0.706
REMARK SMILES CC1=CCC(=C(C)C)C(=O)CC(C)=CCC1
REMARK SMILES IDX 12 1 14 2 13 3 15 4 16 5 2 6 1 7 3 8 11 10 9 11 10 12 5 13
REMARK SMILES IDX 6 14 7 15 8 16 4 17
REMARK H PARENT
REMARK Flexibility Score: 60.00
ROOT
ATOM      1  C   UNL     1      17.842  20.151 -12.227  1.00  0.00    -0.070 C 
ATOM      2  C   UNL     1      18.912  20.806 -12.728  1.00  0.00    -0.027 C 
ATOM      3  C   UNL     1      16.517  20.327 -12.925  1.00  0.00     0.039 C 
ENDROOT
BRANCH   2   4
ATOM      4  C   UNL     1      20.296  20.834 -12.116  1.00  0.00     0.032 C 
BRANCH   4   5
ATOM      5  C   UNL     1      21.319  19.890 -12.782  1.00  0.00     0.034 C 
BRANCH   5   6
ATOM      6  C   UNL     1      21.358  18.510 -12.148  1.00  0.00    -0.077 C 
ATOM      7  C   UNL     1      22.551  18.165 -11.293  1.00  0.00     0.039 C 
ATOM      8  C   UNL     1      20.427  17.548 -12.357  1.00  0.00    -0.023 CG0
ATOM      9  G   UNL     1      19.145  17.672 -13.157  1.00  0.00     0.000 G0
ENDBRANCH   5   6
ENDBRANCH   4   5
ENDBRANCH   2   4
BRANCH   1  10
ATOM     10  C   UNL     1      17.889  19.330 -10.954  1.00  0.00     0.111 C 
BRANCH  10  11
ATOM     11  C   UNL     1      17.514  17.893 -11.205  1.00  0.00     0.163 C 
ATOM     12  O   UNL     1      16.881  17.279 -10.304  1.00  0.00    -0.294 OA
BRANCH  11  13
ATOM     13  C   UNL     1      17.917  17.164 -12.444  1.00  0.00    -0.002 C 
ATOM     14  C   UNL     1      17.256  16.034 -12.837  1.00  0.00    -0.069 C 
ATOM     15  C   UNL     1      17.735  15.187 -13.994  1.00  0.00     0.039 C 
ATOM     16  C   UNL     1      16.002  15.572 -12.126  1.00  0.00     0.039 C 
BRANCH  13  17
ATOM     17  C   UNL     1      19.142  17.677 -13.185  1.00  0.00     0.066 CG0
ATOM     18  G   UNL     1      20.411  17.530 -12.370  1.00  0.00     0.000 G0
ENDBRANCH  13  17
ENDBRANCH  11  13
ENDBRANCH  10  11
ENDBRANCH   1  10
TORSDOF 0
ENDMDL
MODEL 3
REMARK VINA RESULT:    20.261      1.596      4.198
REMARK INTER + INTRA:          29.258
REMARK INTER:                  24.783
REMARK INTRA:                   4.475
REMARK UNBOUND:                 0.706
REMARK SMILES CC1=CCC(=C(C)C)C(=O)CC(C)=CCC1
REMARK SMILES IDX 12 1 14 2 13 3 15 4 16 5 2 6 1 7 3 8 11 10 9 11 10 12 5 13
REMARK SMILES IDX 6 14 7 15 8 16 4 17
REMARK H PARENT
REMARK Flexibility Score: 60.00
ROOT
ATOM      1  C   UNL     1      21.154  18.486 -12.001  1.00  0.00    -0.070 C 
ATOM      2  C   UNL     1      21.113  19.773 -12.412  1.00  0.00    -0.027 C 
ATOM      3  C   UNL     1      22.445  17.729 -12.181  1.00  0.00     0.039 C 
ENDROOT
BRANCH   2   4
ATOM      4  C   UNL     1      19.889  20.663 -12.406  1.00  0.00     0.032 C 
BRANCH   4   5
ATOM      5  C   UNL     1      18.608  20.007 -12.961  1.00  0.00     0.034 C 
BRANCH   5   6
ATOM      6  C   UNL     1      17.768  19.335 -11.888  1.00  0.00    -0.077 C 
ATOM      7  C   UNL     1      17.453  20.128 -10.646  1.00  0.00     0.039 C 
ATOM      8  C   UNL     1      17.343  18.049 -11.945  1.00  0.00    -0.023 CG0
ATOM      9  G   UNL     1      17.524  17.076 -13.093  1.00  0.00     0.000 G0
ENDBRANCH   5   6
ENDBRANCH   4   5
ENDBRANCH   2   4
BRANCH   1  10
ATOM     10  C   UNL     1      19.948  17.747 -11.458  1.00  0.00     0.111 C 
BRANCH  10  11
ATOM     11  C   UNL     1      19.783  16.398 -12.106  1.00  0.00     0.163 C 
ATOM     12  O   UNL     1      20.761  15.601 -12.078  1.00  0.00    -0.294 OA
BRANCH  11  13
ATOM     13  C   UNL     1      18.536  16.001 -12.825  1.00  0.00    -0.002 C 
ATOM     14  C   UNL     1      18.366  14.722 -13.276  1.00  0.00    -0.069 C 
ATOM     15  C   UNL     1      17.191  14.328 -14.142  1.00  0.00     0.039 C 
ATOM     16  C   UNL     1      19.355  13.630 -12.929  1.00  0.00     0.039 C 
BRANCH  13  17
ATOM     17  C   UNL     1      17.521  17.096 -13.113  1.00  0.00     0.066 CG0
ATOM     18  G   UNL     1      17.342  18.038 -11.939  1.00  0.00     0.000 G0
ENDBRANCH  13  17
ENDBRANCH  11  13
ENDBRANCH  10  11
ENDBRANCH   1  10
TORSDOF 0
ENDMDL
