MODEL 1
REMARK VINA RESULT:    -3.182      0.000      0.000
REMARK INTER + INTRA:          -3.745
REMARK INTER:                  -3.740
REMARK INTRA:                  -0.005
REMARK UNBOUND:                -0.005
REMARK SMILES [NH3+][C@@H](CO)C(=O)[O-]
REMARK SMILES IDX 3 1 2 2 1 3 5 7 6 8 7 9 4 10
REMARK H PARENT 1 4 1 5 1 6 4 11
REMARK Flexibility Score: inf
ROOT
ATOM      1  C   UNL     1      73.978  -8.843 -23.433  1.00  0.00     0.227 C 
ENDROOT
BRANCH   1   2
ATOM      2  C   UNL     1      73.861  -8.109 -24.779  1.00  0.00     0.253 C 
BRANCH   2   3
ATOM      3  N   UNL     1      72.484  -8.144 -25.286  1.00  0.00    -0.348 N 
ATOM      4  H   UNL     1      72.433  -8.646 -26.203  1.00  0.00     0.345 HD
ATOM      5  H   UNL     1      71.865  -8.629 -24.597  1.00  0.00     0.345 HD
ATOM      6  H   UNL     1      72.129  -7.168 -25.412  1.00  0.00     0.345 HD
ENDBRANCH   2   3
BRANCH   2   7
ATOM      7  C   UNL     1      74.818  -8.691 -25.787  1.00  0.00     0.102 C 
ATOM      8  O   UNL     1      74.378  -9.348 -26.767  1.00  0.00    -0.544 OA
ATOM      9  O   UNL     1      76.185  -8.471 -25.668  1.00  0.00    -0.544 OA
ENDBRANCH   2   7
ENDBRANCH   1   2
BRANCH   1  10
ATOM     10  O   UNL     1      72.846  -8.606 -22.638  1.00  0.00    -0.390 OA
ATOM     11  H   UNL     1      72.063  -8.838 -23.202  1.00  0.00     0.210 HD
ENDBRANCH   1  10
TORSDOF 4
ENDMDL
MODEL 2
REMARK VINA RESULT:    -3.008      2.102      2.518
REMARK INTER + INTRA:          -3.540
REMARK INTER:                  -3.534
REMARK INTRA:                  -0.006
REMARK UNBOUND:                -0.005
REMARK SMILES [NH3+][C@@H](CO)C(=O)[O-]
REMARK SMILES IDX 3 1 2 2 1 3 5 7 6 8 7 9 4 10
REMARK H PARENT 1 4 1 5 1 6 4 11
REMARK Flexibility Score: inf
ROOT
ATOM      1  C   UNL     1      74.057  -8.548 -25.397  1.00  0.00     0.227 C 
ENDROOT
BRANCH   1   2
ATOM      2  C   UNL     1      74.697  -8.592 -26.795  1.00  0.00     0.253 C 
BRANCH   2   3
ATOM      3  N   UNL     1      74.472  -9.889 -27.443  1.00  0.00    -0.348 N 
ATOM      4  H   UNL     1      73.645 -10.379 -27.028  1.00  0.00     0.345 HD
ATOM      5  H   UNL     1      74.309  -9.750 -28.466  1.00  0.00     0.345 HD
ATOM      6  H   UNL     1      75.318 -10.494 -27.327  1.00  0.00     0.345 HD
ENDBRANCH   2   3
BRANCH   2   7
ATOM      7  C   UNL     1      76.169  -8.280 -26.716  1.00  0.00     0.102 C 
ATOM      8  O   UNL     1      76.880  -8.813 -25.823  1.00  0.00    -0.544 OA
ATOM      9  O   UNL     1      76.761  -7.439 -27.650  1.00  0.00    -0.544 OA
ENDBRANCH   2   7
ENDBRANCH   1   2
BRANCH   1  10
ATOM     10  O   UNL     1      72.659  -8.591 -25.490  1.00  0.00    -0.390 OA
ATOM     11  H   UNL     1      72.315  -8.175 -24.657  1.00  0.00     0.210 HD
ENDBRANCH   1  10
TORSDOF 4
ENDMDL
MODEL 3
REMARK VINA RESULT:    -2.977      1.009      3.253
REMARK INTER + INTRA:          -3.504
REMARK INTER:                  -3.496
REMARK INTRA:                  -0.008
REMARK UNBOUND:                -0.005
REMARK SMILES [NH3+][C@@H](CO)C(=O)[O-]
REMARK SMILES IDX 3 1 2 2 1 3 5 7 6 8 7 9 4 10
REMARK H PARENT 1 4 1 5 1 6 4 11
REMARK Flexibility Score: inf
ROOT
ATOM      1  C   UNL     1      74.992  -8.477 -25.493  1.00  0.00     0.227 C 
ENDROOT
BRANCH   1   2
ATOM      2  C   UNL     1      73.517  -8.563 -25.065  1.00  0.00     0.253 C 
BRANCH   2   3
ATOM      3  N   UNL     1      72.750  -7.417 -25.567  1.00  0.00    -0.348 N 
ATOM      4  H   UNL     1      72.934  -7.258 -26.585  1.00  0.00     0.345 HD
ATOM      5  H   UNL     1      71.727  -7.588 -25.429  1.00  0.00     0.345 HD
ATOM      6  H   UNL     1      73.011  -6.556 -25.034  1.00  0.00     0.345 HD
ENDBRANCH   2   3
BRANCH   2   7
ATOM      7  C   UNL     1      73.404  -8.669 -23.566  1.00  0.00     0.102 C 
ATOM      8  O   UNL     1      74.325  -9.212 -22.901  1.00  0.00    -0.544 OA
ATOM      9  O   UNL     1      72.308  -8.131 -22.903  1.00  0.00    -0.544 OA
ENDBRANCH   2   7
ENDBRANCH   1   2
BRANCH   1  10
ATOM     10  O   UNL     1      75.098  -8.046 -26.823  1.00  0.00    -0.390 OA
ATOM     11  H   UNL     1      74.192  -7.735 -27.084  1.00  0.00     0.210 HD
ENDBRANCH   1  10
TORSDOF 4
ENDMDL
MODEL 4
REMARK VINA RESULT:    -2.892     12.722     12.980
REMARK INTER + INTRA:          -3.404
REMARK INTER:                  -3.169
REMARK INTRA:                  -0.235
REMARK UNBOUND:                -0.005
REMARK SMILES [NH3+][C@@H](CO)C(=O)[O-]
REMARK SMILES IDX 3 1 2 2 1 3 5 7 6 8 7 9 4 10
REMARK H PARENT 1 4 1 5 1 6 4 11
REMARK Flexibility Score: inf
ROOT
ATOM      1  C   UNL     1      77.441 -21.808 -20.191  1.00  0.00     0.227 C 
ENDROOT
BRANCH   1   2
ATOM      2  C   UNL     1      77.847 -20.343 -20.425  1.00  0.00     0.253 C 
BRANCH   2   3
ATOM      3  N   UNL     1      77.360 -19.477 -19.345  1.00  0.00    -0.348 N 
ATOM      4  H   UNL     1      77.317 -19.996 -18.437  1.00  0.00     0.345 HD
ATOM      5  H   UNL     1      77.996 -18.654 -19.238  1.00  0.00     0.345 HD
ATOM      6  H   UNL     1      76.404 -19.123 -19.580  1.00  0.00     0.345 HD
ENDBRANCH   2   3
BRANCH   2   7
ATOM      7  C   UNL     1      77.352 -19.861 -21.764  1.00  0.00     0.102 C 
ATOM      8  O   UNL     1      78.125 -19.860 -22.759  1.00  0.00    -0.544 OA
ATOM      9  O   UNL     1      76.032 -19.456 -21.923  1.00  0.00    -0.544 OA
ENDBRANCH   2   7
ENDBRANCH   1   2
BRANCH   1  10
ATOM     10  O   UNL     1      76.046 -21.951 -20.243  1.00  0.00    -0.390 OA
ATOM     11  H   UNL     1      75.751 -22.100 -19.307  1.00  0.00     0.210 HD
ENDBRANCH   1  10
TORSDOF 4
ENDMDL
MODEL 5
REMARK VINA RESULT:    -2.880     10.267     10.724
REMARK INTER + INTRA:          -3.390
REMARK INTER:                  -3.170
REMARK INTRA:                  -0.220
REMARK UNBOUND:                -0.005
REMARK SMILES [NH3+][C@@H](CO)C(=O)[O-]
REMARK SMILES IDX 3 1 2 2 1 3 5 7 6 8 7 9 4 10
REMARK H PARENT 1 4 1 5 1 6 4 11
REMARK Flexibility Score: inf
ROOT
ATOM      1  C   UNL     1      77.865 -20.028 -25.071  1.00  0.00     0.227 C 
ENDROOT
BRANCH   1   2
ATOM      2  C   UNL     1      77.338 -18.792 -24.323  1.00  0.00     0.253 C 
BRANCH   2   3
ATOM      3  N   UNL     1      76.079 -19.087 -23.629  1.00  0.00    -0.348 N 
ATOM      4  H   UNL     1      75.797 -20.085 -23.769  1.00  0.00     0.345 HD
ATOM      5  H   UNL     1      76.188 -18.904 -22.605  1.00  0.00     0.345 HD
ATOM      6  H   UNL     1      75.321 -18.465 -23.993  1.00  0.00     0.345 HD
ENDBRANCH   2   3
BRANCH   2   7
ATOM      7  C   UNL     1      77.170 -17.630 -25.267  1.00  0.00     0.102 C 
ATOM      8  O   UNL     1      76.416 -16.670 -24.958  1.00  0.00    -0.544 OA
ATOM      9  O   UNL     1      77.878 -17.586 -26.462  1.00  0.00    -0.544 OA
ENDBRANCH   2   7
ENDBRANCH   1   2
BRANCH   1  10
ATOM     10  O   UNL     1      77.130 -20.249 -26.245  1.00  0.00    -0.390 OA
ATOM     11  H   UNL     1      76.500 -20.987 -26.039  1.00  0.00     0.210 HD
ENDBRANCH   1  10
TORSDOF 4
ENDMDL
MODEL 6
REMARK VINA RESULT:    -2.837      1.833      3.131
REMARK INTER + INTRA:          -3.340
REMARK INTER:                  -3.196
REMARK INTRA:                  -0.144
REMARK UNBOUND:                -0.005
REMARK SMILES [NH3+][C@@H](CO)C(=O)[O-]
REMARK SMILES IDX 3 1 2 2 1 3 5 7 6 8 7 9 4 10
REMARK H PARENT 1 4 1 5 1 6 4 11
REMARK Flexibility Score: inf
ROOT
ATOM      1  C   UNL     1      76.138  -8.271 -26.587  1.00  0.00     0.227 C 
ENDROOT
BRANCH   1   2
ATOM      2  C   UNL     1      74.943  -9.164 -26.212  1.00  0.00     0.253 C 
BRANCH   2   3
ATOM      3  N   UNL     1      74.173  -9.549 -27.401  1.00  0.00    -0.348 N 
ATOM      4  H   UNL     1      74.227  -8.809 -28.140  1.00  0.00     0.345 HD
ATOM      5  H   UNL     1      74.545 -10.446 -27.788  1.00  0.00     0.345 HD
ATOM      6  H   UNL     1      73.171  -9.697 -27.140  1.00  0.00     0.345 HD
ENDBRANCH   2   3
BRANCH   2   7
ATOM      7  C   UNL     1      74.062  -8.476 -25.202  1.00  0.00     0.102 C 
ATOM      8  O   UNL     1      72.998  -7.913 -25.573  1.00  0.00    -0.544 OA
ATOM      9  O   UNL     1      74.391  -8.496 -23.852  1.00  0.00    -0.544 OA
ENDBRANCH   2   7
ENDBRANCH   1   2
BRANCH   1  10
ATOM     10  O   UNL     1      77.130  -8.329 -25.596  1.00  0.00    -0.390 OA
ATOM     11  H   UNL     1      77.455  -7.398 -25.480  1.00  0.00     0.210 HD
ENDBRANCH   1  10
TORSDOF 4
ENDMDL
MODEL 7
REMARK VINA RESULT:    -2.821      2.173      3.374
REMARK INTER + INTRA:          -3.321
REMARK INTER:                  -3.097
REMARK INTRA:                  -0.224
REMARK UNBOUND:                -0.005
REMARK SMILES [NH3+][C@@H](CO)C(=O)[O-]
REMARK SMILES IDX 3 1 2 2 1 3 5 7 6 8 7 9 4 10
REMARK H PARENT 1 4 1 5 1 6 4 11
REMARK Flexibility Score: inf
ROOT
ATOM      1  C   UNL     1      75.122  -9.871 -27.083  1.00  0.00     0.227 C 
ENDROOT
BRANCH   1   2
ATOM      2  C   UNL     1      75.201  -8.549 -26.302  1.00  0.00     0.253 C 
BRANCH   2   3
ATOM      3  N   UNL     1      76.517  -8.378 -25.676  1.00  0.00    -0.348 N 
ATOM      4  H   UNL     1      76.878  -7.406 -25.818  1.00  0.00     0.345 HD
ATOM      5  H   UNL     1      76.449  -8.570 -24.650  1.00  0.00     0.345 HD
ATOM      6  H   UNL     1      77.196  -9.058 -26.090  1.00  0.00     0.345 HD
ENDBRANCH   2   3
BRANCH   2   7
ATOM      7  C   UNL     1      74.103  -8.473 -25.272  1.00  0.00     0.102 C 
ATOM      8  O   UNL     1      72.898  -8.435 -25.637  1.00  0.00    -0.544 OA
ATOM      9  O   UNL     1      74.407  -8.489 -23.916  1.00  0.00    -0.544 OA
ENDBRANCH   2   7
ENDBRANCH   1   2
BRANCH   1  10
ATOM     10  O   UNL     1      74.068  -9.838 -28.008  1.00  0.00    -0.390 OA
ATOM     11  H   UNL     1      73.709  -8.913 -27.982  1.00  0.00     0.210 HD
ENDBRANCH   1  10
TORSDOF 4
ENDMDL
MODEL 8
REMARK VINA RESULT:    -2.718     12.352     12.742
REMARK INTER + INTRA:          -3.200
REMARK INTER:                  -2.837
REMARK INTRA:                  -0.363
REMARK UNBOUND:                -0.005
REMARK SMILES [NH3+][C@@H](CO)C(=O)[O-]
REMARK SMILES IDX 3 1 2 2 1 3 5 7 6 8 7 9 4 10
REMARK H PARENT 1 4 1 5 1 6 4 11
REMARK Flexibility Score: inf
ROOT
ATOM      1  C   UNL     1      76.649 -19.368 -22.611  1.00  0.00     0.227 C 
ENDROOT
BRANCH   1   2
ATOM      2  C   UNL     1      77.666 -20.056 -21.686  1.00  0.00     0.253 C 
BRANCH   2   3
ATOM      3  N   UNL     1      78.125 -21.329 -22.253  1.00  0.00    -0.348 N 
ATOM      4  H   UNL     1      77.528 -21.618 -23.063  1.00  0.00     0.345 HD
ATOM      5  H   UNL     1      79.115 -21.237 -22.576  1.00  0.00     0.345 HD
ATOM      6  H   UNL     1      78.089 -22.076 -21.521  1.00  0.00     0.345 HD
ENDBRANCH   2   3
BRANCH   2   7
ATOM      7  C   UNL     1      77.083 -20.260 -20.312  1.00  0.00     0.102 C 
ATOM      8  O   UNL     1      76.359 -21.264 -20.077  1.00  0.00    -0.544 OA
ATOM      9  O   UNL     1      77.373 -19.371 -19.284  1.00  0.00    -0.544 OA
ENDBRANCH   2   7
ENDBRANCH   1   2
BRANCH   1  10
ATOM     10  O   UNL     1      75.499 -18.999 -21.897  1.00  0.00    -0.390 OA
ATOM     11  H   UNL     1      75.723 -19.118 -20.937  1.00  0.00     0.210 HD
ENDBRANCH   1  10
TORSDOF 4
ENDMDL
MODEL 9
REMARK VINA RESULT:    -2.643     10.164     10.531
REMARK INTER + INTRA:          -3.111
REMARK INTER:                  -2.894
REMARK INTRA:                  -0.217
REMARK UNBOUND:                -0.005
REMARK SMILES [NH3+][C@@H](CO)C(=O)[O-]
REMARK SMILES IDX 3 1 2 2 1 3 5 7 6 8 7 9 4 10
REMARK H PARENT 1 4 1 5 1 6 4 11
REMARK Flexibility Score: inf
ROOT
ATOM      1  C   UNL     1      77.381 -16.704 -25.511  1.00  0.00     0.227 C 
ENDROOT
BRANCH   1   2
ATOM      2  C   UNL     1      78.055 -17.868 -26.256  1.00  0.00     0.253 C 
BRANCH   2   3
ATOM      3  N   UNL     1      77.735 -17.839 -27.688  1.00  0.00    -0.348 N 
ATOM      4  H   UNL     1      76.725 -17.611 -27.843  1.00  0.00     0.345 HD
ATOM      5  H   UNL     1      78.324 -17.122 -28.168  1.00  0.00     0.345 HD
ATOM      6  H   UNL     1      77.943 -18.772 -28.115  1.00  0.00     0.345 HD
ENDBRANCH   2   3
BRANCH   2   7
ATOM      7  C   UNL     1      77.664 -19.189 -25.645  1.00  0.00     0.102 C 
ATOM      8  O   UNL     1      77.313 -20.146 -26.385  1.00  0.00    -0.544 OA
ATOM      9  O   UNL     1      77.729 -19.375 -24.270  1.00  0.00    -0.544 OA
ENDBRANCH   2   7
ENDBRANCH   1   2
BRANCH   1  10
ATOM     10  O   UNL     1      76.264 -17.156 -24.791  1.00  0.00    -0.390 OA
ATOM     11  H   UNL     1      75.792 -16.341 -24.479  1.00  0.00     0.210 HD
ENDBRANCH   1  10
TORSDOF 4
ENDMDL
