MODEL 1
REMARK VINA RESULT:    -1.965      0.000      0.000
REMARK INTER + INTRA:          -4.585
REMARK INTER:                  -3.803
REMARK INTRA:                  -0.782
REMARK UNBOUND:                -0.782
REMARK SMILES CCCCCCCCCCCCCCCCCC(=O)[O-]
REMARK SMILES IDX 10 1 11 2 12 3 13 4 14 5 15 6 16 7 17 8 18 9 19 10 20 11
REMARK SMILES IDX 9 12 8 13 7 14 6 15 5 16 4 17 3 18 2 19 1 20
REMARK H PARENT
REMARK Flexibility Score: inf
ROOT
ATOM      1  C   UNL     1      34.288  19.602  13.187  1.00  0.00     0.000 C 
ENDROOT
BRANCH   1   2
ATOM      2  C   UNL     1      34.065  19.914  11.700  1.00  0.00     0.000 C 
BRANCH   2   3
ATOM      3  C   UNL     1      32.944  20.943  11.466  1.00  0.00     0.000 C 
BRANCH   3   4
ATOM      4  C   UNL     1      32.875  22.083  12.505  1.00  0.00     0.000 C 
BRANCH   4   5
ATOM      5  C   UNL     1      34.106  23.006  12.544  1.00  0.00     0.000 C 
BRANCH   5   6
ATOM      6  C   UNL     1      34.953  22.927  11.266  1.00  0.00     0.000 C 
BRANCH   6   7
ATOM      7  C   UNL     1      36.449  22.855  11.602  1.00  0.00     0.006 C 
BRANCH   7   8
ATOM      8  C   UNL     1      37.326  22.821  10.343  1.00  0.00     0.053 C 
BRANCH   8   9
ATOM      9  C   UNL     1      36.619  22.173   9.192  1.00  0.00     0.041 C 
ATOM     10  O   UNL     1      36.023  22.878   8.335  1.00  0.00    -0.550 OA
ATOM     11  O   UNL     1      36.645  20.792   9.049  1.00  0.00    -0.550 OA
ENDBRANCH   8   9
ENDBRANCH   7   8
ENDBRANCH   6   7
ENDBRANCH   5   6
ENDBRANCH   4   5
ENDBRANCH   3   4
ENDBRANCH   2   3
ENDBRANCH   1   2
BRANCH   1  12
ATOM     12  C   UNL     1      33.073  18.884  13.786  1.00  0.00     0.000 C 
BRANCH  12  13
ATOM     13  C   UNL     1      32.875  19.270  15.257  1.00  0.00    -0.000 C 
BRANCH  13  14
ATOM     14  C   UNL     1      33.669  18.341  16.183  1.00  0.00    -0.000 C 
BRANCH  14  15
ATOM     15  C   UNL     1      34.118  19.081  17.451  1.00  0.00    -0.000 C 
BRANCH  15  16
ATOM     16  C   UNL     1      34.866  20.387  17.141  1.00  0.00    -0.000 C 
BRANCH  16  17
ATOM     17  C   UNL     1      36.002  20.192  16.125  1.00  0.00    -0.000 C 
BRANCH  17  18
ATOM     18  C   UNL     1      35.888  21.199  14.975  1.00  0.00    -0.000 C 
BRANCH  18  19
ATOM     19  C   UNL     1      36.675  22.479  15.282  1.00  0.00    -0.003 C 
ATOM     20  C   UNL     1      38.145  22.327  14.900  1.00  0.00     0.004 C 
ENDBRANCH  18  19
ENDBRANCH  17  18
ENDBRANCH  16  17
ENDBRANCH  15  16
ENDBRANCH  14  15
ENDBRANCH  13  14
ENDBRANCH  12  13
ENDBRANCH   1  12
TORSDOF 16
ENDMDL
MODEL 2
REMARK VINA RESULT:    -1.649      2.366      5.269
REMARK INTER + INTRA:          -3.973
REMARK INTER:                  -3.030
REMARK INTRA:                  -0.943
REMARK UNBOUND:                -0.782
REMARK SMILES CCCCCCCCCCCCCCCCCC(=O)[O-]
REMARK SMILES IDX 10 1 11 2 12 3 13 4 14 5 15 6 16 7 17 8 18 9 19 10 20 11
REMARK SMILES IDX 9 12 8 13 7 14 6 15 5 16 4 17 3 18 2 19 1 20
REMARK H PARENT
REMARK Flexibility Score: inf
ROOT
ATOM      1  C   UNL     1      33.269  18.550  13.717  1.00  0.00     0.000 C 
ENDROOT
BRANCH   1   2
ATOM      2  C   UNL     1      33.087  18.008  15.142  1.00  0.00     0.000 C 
BRANCH   2   3
ATOM      3  C   UNL     1      33.996  18.708  16.168  1.00  0.00     0.000 C 
BRANCH   3   4
ATOM      4  C   UNL     1      35.118  19.577  15.563  1.00  0.00     0.000 C 
BRANCH   4   5
ATOM      5  C   UNL     1      35.198  21.014  16.108  1.00  0.00     0.000 C 
BRANCH   5   6
ATOM      6  C   UNL     1      35.513  22.049  15.018  1.00  0.00     0.000 C 
BRANCH   6   7
ATOM      7  C   UNL     1      36.681  22.952  15.440  1.00  0.00     0.006 C 
BRANCH   7   8
ATOM      8  C   UNL     1      37.715  23.125  14.321  1.00  0.00     0.053 C 
BRANCH   8   9
ATOM      9  C   UNL     1      39.035  22.515  14.686  1.00  0.00     0.041 C 
ATOM     10  O   UNL     1      39.103  21.652  15.600  1.00  0.00    -0.550 OA
ATOM     11  O   UNL     1      40.183  22.878  13.994  1.00  0.00    -0.550 OA
ENDBRANCH   8   9
ENDBRANCH   7   8
ENDBRANCH   6   7
ENDBRANCH   5   6
ENDBRANCH   4   5
ENDBRANCH   3   4
ENDBRANCH   2   3
ENDBRANCH   1   2
BRANCH   1  12
ATOM     12  C   UNL     1      32.917  20.040  13.647  1.00  0.00     0.000 C 
BRANCH  12  13
ATOM     13  C   UNL     1      33.283  20.628  12.279  1.00  0.00    -0.000 C 
BRANCH  13  14
ATOM     14  C   UNL     1      32.875  22.104  12.186  1.00  0.00    -0.000 C 
BRANCH  14  15
ATOM     15  C   UNL     1      34.091  23.023  12.379  1.00  0.00    -0.000 C 
BRANCH  15  16
ATOM     16  C   UNL     1      35.215  22.738  11.370  1.00  0.00    -0.000 C 
BRANCH  16  17
ATOM     17  C   UNL     1      34.734  22.803   9.913  1.00  0.00    -0.000 C 
BRANCH  17  18
ATOM     18  C   UNL     1      35.681  22.030   8.987  1.00  0.00    -0.000 C 
BRANCH  18  19
ATOM     19  C   UNL     1      36.345  20.864   9.728  1.00  0.00    -0.003 C 
ATOM     20  C   UNL     1      37.362  20.154   8.839  1.00  0.00     0.004 C 
ENDBRANCH  18  19
ENDBRANCH  17  18
ENDBRANCH  16  17
ENDBRANCH  15  16
ENDBRANCH  14  15
ENDBRANCH  13  14
ENDBRANCH  12  13
ENDBRANCH   1  12
TORSDOF 16
ENDMDL
MODEL 3
REMARK VINA RESULT:    -1.412      2.531      6.352
REMARK INTER + INTRA:          -3.514
REMARK INTER:                  -3.495
REMARK INTRA:                  -0.020
REMARK UNBOUND:                -0.782
REMARK SMILES CCCCCCCCCCCCCCCCCC(=O)[O-]
REMARK SMILES IDX 10 1 11 2 12 3 13 4 14 5 15 6 16 7 17 8 18 9 19 10 20 11
REMARK SMILES IDX 9 12 8 13 7 14 6 15 5 16 4 17 3 18 2 19 1 20
REMARK H PARENT
REMARK Flexibility Score: inf
ROOT
ATOM      1  C   UNL     1      36.863  21.819  13.064  1.00  0.00     0.000 C 
ENDROOT
BRANCH   1   2
ATOM      2  C   UNL     1      37.749  22.092  14.288  1.00  0.00     0.000 C 
BRANCH   2   3
ATOM      3  C   UNL     1      36.975  22.014  15.616  1.00  0.00     0.000 C 
BRANCH   3   4
ATOM      4  C   UNL     1      36.362  20.634  15.936  1.00  0.00     0.000 C 
BRANCH   4   5
ATOM      5  C   UNL     1      34.836  20.628  16.139  1.00  0.00     0.000 C 
BRANCH   5   6
ATOM      6  C   UNL     1      34.383  19.647  17.230  1.00  0.00     0.000 C 
BRANCH   6   7
ATOM      7  C   UNL     1      32.942  19.179  16.983  1.00  0.00     0.006 C 
BRANCH   7   8
ATOM      8  C   UNL     1      32.876  17.979  16.030  1.00  0.00     0.053 C 
BRANCH   8   9
ATOM      9  C   UNL     1      32.919  18.407  14.594  1.00  0.00     0.041 C 
ATOM     10  O   UNL     1      33.019  19.628  14.299  1.00  0.00    -0.550 OA
ATOM     11  O   UNL     1      32.879  17.456  13.584  1.00  0.00    -0.550 OA
ENDBRANCH   8   9
ENDBRANCH   7   8
ENDBRANCH   6   7
ENDBRANCH   5   6
ENDBRANCH   4   5
ENDBRANCH   3   4
ENDBRANCH   2   3
ENDBRANCH   1   2
BRANCH   1  12
ATOM     12  C   UNL     1      36.001  23.041  12.727  1.00  0.00     0.000 C 
BRANCH  12  13
ATOM     13  C   UNL     1      34.779  23.124  13.650  1.00  0.00    -0.000 C 
BRANCH  13  14
ATOM     14  C   UNL     1      33.509  22.658  12.928  1.00  0.00    -0.000 C 
BRANCH  14  15
ATOM     15  C   UNL     1      33.507  23.121  11.464  1.00  0.00    -0.000 C 
BRANCH  15  16
ATOM     16  C   UNL     1      32.988  22.040  10.502  1.00  0.00    -0.000 C 
BRANCH  16  17
ATOM     17  C   UNL     1      33.244  22.387   9.028  1.00  0.00    -0.000 C 
BRANCH  17  18
ATOM     18  C   UNL     1      34.538  21.732   8.527  1.00  0.00    -0.000 C 
BRANCH  18  19
ATOM     19  C   UNL     1      35.531  21.523   9.676  1.00  0.00    -0.003 C 
ATOM     20  C   UNL     1      36.960  21.409   9.156  1.00  0.00     0.004 C 
ENDBRANCH  18  19
ENDBRANCH  17  18
ENDBRANCH  16  17
ENDBRANCH  15  16
ENDBRANCH  14  15
ENDBRANCH  13  14
ENDBRANCH  12  13
ENDBRANCH   1  12
TORSDOF 16
ENDMDL
MODEL 4
REMARK VINA RESULT:    -1.245     13.552     16.660
REMARK INTER + INTRA:          -3.192
REMARK INTER:                  -1.974
REMARK INTRA:                  -1.218
REMARK UNBOUND:                -0.782
REMARK SMILES CCCCCCCCCCCCCCCCCC(=O)[O-]
REMARK SMILES IDX 10 1 11 2 12 3 13 4 14 5 15 6 16 7 17 8 18 9 19 10 20 11
REMARK SMILES IDX 9 12 8 13 7 14 6 15 5 16 4 17 3 18 2 19 1 20
REMARK H PARENT
REMARK Flexibility Score: inf
ROOT
ATOM      1  C   UNL     1      49.601  20.098  14.809  1.00  0.00     0.000 C 
ENDROOT
BRANCH   1   2
ATOM      2  C   UNL     1      50.407  20.721  13.660  1.00  0.00     0.000 C 
BRANCH   2   3
ATOM      3  C   UNL     1      51.874  20.994  14.038  1.00  0.00     0.000 C 
BRANCH   3   4
ATOM      4  C   UNL     1      52.112  21.351  15.521  1.00  0.00     0.000 C 
BRANCH   4   5
ATOM      5  C   UNL     1      53.108  22.499  15.765  1.00  0.00     0.000 C 
BRANCH   5   6
ATOM      6  C   UNL     1      52.970  23.121  17.162  1.00  0.00     0.000 C 
BRANCH   6   7
ATOM      7  C   UNL     1      52.038  22.282  18.048  1.00  0.00     0.006 C 
BRANCH   7   8
ATOM      8  C   UNL     1      52.427  22.352  19.530  1.00  0.00     0.053 C 
BRANCH   8   9
ATOM      9  C   UNL     1      52.887  21.023  20.047  1.00  0.00     0.041 C 
ATOM     10  O   UNL     1      53.125  20.079  19.247  1.00  0.00    -0.550 OA
ATOM     11  O   UNL     1      53.084  20.837  21.409  1.00  0.00    -0.550 OA
ENDBRANCH   8   9
ENDBRANCH   7   8
ENDBRANCH   6   7
ENDBRANCH   5   6
ENDBRANCH   4   5
ENDBRANCH   3   4
ENDBRANCH   2   3
ENDBRANCH   1   2
BRANCH   1  12
ATOM     12  C   UNL     1      48.869  21.178  15.614  1.00  0.00     0.000 C 
BRANCH  12  13
ATOM     13  C   UNL     1      47.429  20.752  15.925  1.00  0.00    -0.000 C 
BRANCH  13  14
ATOM     14  C   UNL     1      46.496  21.967  15.994  1.00  0.00    -0.000 C 
BRANCH  14  15
ATOM     15  C   UNL     1      47.146  23.116  16.779  1.00  0.00    -0.000 C 
BRANCH  15  16
ATOM     16  C   UNL     1      47.060  22.916  18.300  1.00  0.00    -0.000 C 
BRANCH  16  17
ATOM     17  C   UNL     1      48.412  23.118  19.001  1.00  0.00    -0.000 C 
BRANCH  17  18
ATOM     18  C   UNL     1      48.296  22.846  20.506  1.00  0.00    -0.000 C 
BRANCH  18  19
ATOM     19  C   UNL     1      49.681  22.696  21.147  1.00  0.00    -0.003 C 
ATOM     20  C   UNL     1      49.633  21.759  22.351  1.00  0.00     0.004 C 
ENDBRANCH  18  19
ENDBRANCH  17  18
ENDBRANCH  16  17
ENDBRANCH  15  16
ENDBRANCH  14  15
ENDBRANCH  13  14
ENDBRANCH  12  13
ENDBRANCH   1  12
TORSDOF 16
ENDMDL
MODEL 5
REMARK VINA RESULT:    -0.929     12.595     15.538
REMARK INTER + INTRA:          -2.580
REMARK INTER:                  -2.021
REMARK INTRA:                  -0.559
REMARK UNBOUND:                -0.782
REMARK SMILES CCCCCCCCCCCCCCCCCC(=O)[O-]
REMARK SMILES IDX 10 1 11 2 12 3 13 4 14 5 15 6 16 7 17 8 18 9 19 10 20 11
REMARK SMILES IDX 9 12 8 13 7 14 6 15 5 16 4 17 3 18 2 19 1 20
REMARK H PARENT
REMARK Flexibility Score: inf
ROOT
ATOM      1  C   UNL     1      47.232  20.153  15.713  1.00  0.00     0.000 C 
ENDROOT
BRANCH   1   2
ATOM      2  C   UNL     1      48.362  20.817  14.913  1.00  0.00     0.000 C 
BRANCH   2   3
ATOM      3  C   UNL     1      49.059  21.949  15.689  1.00  0.00     0.000 C 
BRANCH   3   4
ATOM      4  C   UNL     1      50.579  22.065  15.452  1.00  0.00     0.000 C 
BRANCH   4   5
ATOM      5  C   UNL     1      51.230  20.845  14.775  1.00  0.00     0.000 C 
BRANCH   5   6
ATOM      6  C   UNL     1      52.665  20.590  15.257  1.00  0.00     0.000 C 
BRANCH   6   7
ATOM      7  C   UNL     1      53.085  21.630  16.306  1.00  0.00     0.006 C 
BRANCH   7   8
ATOM      8  C   UNL     1      53.099  21.049  17.726  1.00  0.00     0.053 C 
BRANCH   8   9
ATOM      9  C   UNL     1      52.675  22.063  18.745  1.00  0.00     0.041 C 
ATOM     10  O   UNL     1      52.041  23.093  18.390  1.00  0.00    -0.550 OA
ATOM     11  O   UNL     1      52.954  21.856  20.089  1.00  0.00    -0.550 OA
ENDBRANCH   8   9
ENDBRANCH   7   8
ENDBRANCH   6   7
ENDBRANCH   5   6
ENDBRANCH   4   5
ENDBRANCH   3   4
ENDBRANCH   2   3
ENDBRANCH   1   2
BRANCH   1  12
ATOM     12  C   UNL     1      45.860  20.525  15.139  1.00  0.00     0.000 C 
BRANCH  12  13
ATOM     13  C   UNL     1      44.927  21.048  16.239  1.00  0.00    -0.000 C 
BRANCH  13  14
ATOM     14  C   UNL     1      45.092  22.560  16.431  1.00  0.00    -0.000 C 
BRANCH  14  15
ATOM     15  C   UNL     1      46.496  22.897  16.954  1.00  0.00    -0.000 C 
BRANCH  15  16
ATOM     16  C   UNL     1      46.523  23.124  18.474  1.00  0.00    -0.000 C 
BRANCH  16  17
ATOM     17  C   UNL     1      47.947  23.119  19.048  1.00  0.00    -0.000 C 
BRANCH  17  18
ATOM     18  C   UNL     1      47.922  23.016  20.578  1.00  0.00    -0.000 C 
BRANCH  18  19
ATOM     19  C   UNL     1      49.337  23.106  21.161  1.00  0.00    -0.003 C 
ATOM     20  C   UNL     1      49.590  21.991  22.171  1.00  0.00     0.004 C 
ENDBRANCH  18  19
ENDBRANCH  17  18
ENDBRANCH  16  17
ENDBRANCH  15  16
ENDBRANCH  14  15
ENDBRANCH  13  14
ENDBRANCH  12  13
ENDBRANCH   1  12
TORSDOF 16
ENDMDL
MODEL 6
REMARK VINA RESULT:    -0.643     14.140     17.386
REMARK INTER + INTRA:          -2.026
REMARK INTER:                  -0.408
REMARK INTRA:                  -1.617
REMARK UNBOUND:                -0.782
REMARK SMILES CCCCCCCCCCCCCCCCCC(=O)[O-]
REMARK SMILES IDX 10 1 11 2 12 3 13 4 14 5 15 6 16 7 17 8 18 9 19 10 20 11
REMARK SMILES IDX 9 12 8 13 7 14 6 15 5 16 4 17 3 18 2 19 1 20
REMARK H PARENT
REMARK Flexibility Score: inf
ROOT
ATOM      1  C   UNL     1      51.268  20.675  14.581  1.00  0.00     0.000 C 
ENDROOT
BRANCH   1   2
ATOM      2  C   UNL     1      51.397  22.186  14.338  1.00  0.00     0.000 C 
BRANCH   2   3
ATOM      3  C   UNL     1      51.788  22.964  15.607  1.00  0.00     0.000 C 
BRANCH   3   4
ATOM      4  C   UNL     1      52.822  22.263  16.513  1.00  0.00     0.000 C 
BRANCH   4   5
ATOM      5  C   UNL     1      52.983  22.875  17.916  1.00  0.00     0.000 C 
BRANCH   5   6
ATOM      6  C   UNL     1      52.386  21.995  19.023  1.00  0.00     0.000 C 
BRANCH   6   7
ATOM      7  C   UNL     1      53.125  22.208  20.352  1.00  0.00     0.006 C 
BRANCH   7   8
ATOM      8  C   UNL     1      52.233  22.863  21.414  1.00  0.00     0.053 C 
BRANCH   8   9
ATOM      9  C   UNL     1      52.352  22.176  22.741  1.00  0.00     0.041 C 
ATOM     10  O   UNL     1      52.927  22.750  23.704  1.00  0.00    -0.550 OA
ATOM     11  O   UNL     1      51.802  20.914  22.920  1.00  0.00    -0.550 OA
ENDBRANCH   8   9
ENDBRANCH   7   8
ENDBRANCH   6   7
ENDBRANCH   5   6
ENDBRANCH   4   5
ENDBRANCH   3   4
ENDBRANCH   2   3
ENDBRANCH   1   2
BRANCH   1  12
ATOM     12  C   UNL     1      50.119  20.371  15.550  1.00  0.00     0.000 C 
BRANCH  12  13
ATOM     13  C   UNL     1      48.892  21.237  15.238  1.00  0.00    -0.000 C 
BRANCH  13  14
ATOM     14  C   UNL     1      47.876  21.189  16.386  1.00  0.00    -0.000 C 
BRANCH  14  15
ATOM     15  C   UNL     1      47.228  22.564  16.603  1.00  0.00    -0.000 C 
BRANCH  15  16
ATOM     16  C   UNL     1      47.378  23.067  18.048  1.00  0.00    -0.000 C 
BRANCH  16  17
ATOM     17  C   UNL     1      48.843  23.125  18.506  1.00  0.00    -0.000 C 
BRANCH  17  18
ATOM     18  C   UNL     1      49.032  22.383  19.835  1.00  0.00    -0.000 C 
BRANCH  18  19
ATOM     19  C   UNL     1      48.255  23.069  20.964  1.00  0.00    -0.003 C 
ATOM     20  C   UNL     1      48.705  22.561  22.331  1.00  0.00     0.004 C 
ENDBRANCH  18  19
ENDBRANCH  17  18
ENDBRANCH  16  17
ENDBRANCH  15  16
ENDBRANCH  14  15
ENDBRANCH  13  14
ENDBRANCH  12  13
ENDBRANCH   1  12
TORSDOF 16
ENDMDL
MODEL 7
REMARK VINA RESULT:    -0.192     13.255     16.665
REMARK INTER + INTRA:          -1.154
REMARK INTER:                  -0.112
REMARK INTRA:                  -1.042
REMARK UNBOUND:                -0.782
REMARK SMILES CCCCCCCCCCCCCCCCCC(=O)[O-]
REMARK SMILES IDX 10 1 11 2 12 3 13 4 14 5 15 6 16 7 17 8 18 9 19 10 20 11
REMARK SMILES IDX 9 12 8 13 7 14 6 15 5 16 4 17 3 18 2 19 1 20
REMARK H PARENT
REMARK Flexibility Score: inf
ROOT
ATOM      1  C   UNL     1      51.279  21.837  14.842  1.00  0.00     0.000 C 
ENDROOT
BRANCH   1   2
ATOM      2  C   UNL     1      51.017  23.033  15.770  1.00  0.00     0.000 C 
BRANCH   2   3
ATOM      3  C   UNL     1      51.075  22.658  17.261  1.00  0.00     0.000 C 
BRANCH   3   4
ATOM      4  C   UNL     1      52.369  23.075  17.990  1.00  0.00     0.000 C 
BRANCH   4   5
ATOM      5  C   UNL     1      53.113  21.933  18.706  1.00  0.00     0.000 C 
BRANCH   5   6
ATOM      6  C   UNL     1      53.072  22.061  20.236  1.00  0.00     0.000 C 
BRANCH   6   7
ATOM      7  C   UNL     1      52.358  20.859  20.869  1.00  0.00     0.006 C 
BRANCH   7   8
ATOM      8  C   UNL     1      50.867  21.129  21.108  1.00  0.00     0.053 C 
BRANCH   8   9
ATOM      9  C   UNL     1      50.630  21.808  22.424  1.00  0.00     0.041 C 
ATOM     10  O   UNL     1      49.473  21.840  22.922  1.00  0.00    -0.550 OA
ATOM     11  O   UNL     1      51.692  22.377  23.112  1.00  0.00    -0.550 OA
ENDBRANCH   8   9
ENDBRANCH   7   8
ENDBRANCH   6   7
ENDBRANCH   5   6
ENDBRANCH   4   5
ENDBRANCH   3   4
ENDBRANCH   2   3
ENDBRANCH   1   2
BRANCH   1  12
ATOM     12  C   UNL     1      50.174  20.783  14.981  1.00  0.00     0.000 C 
BRANCH  12  13
ATOM     13  C   UNL     1      48.828  21.437  15.317  1.00  0.00    -0.000 C 
BRANCH  13  14
ATOM     14  C   UNL     1      47.679  20.430  15.193  1.00  0.00    -0.000 C 
BRANCH  14  15
ATOM     15  C   UNL     1      46.596  20.700  16.248  1.00  0.00    -0.000 C 
BRANCH  15  16
ATOM     16  C   UNL     1      45.660  21.853  15.854  1.00  0.00    -0.000 C 
BRANCH  16  17
ATOM     17  C   UNL     1      45.755  23.048  16.815  1.00  0.00    -0.000 C 
BRANCH  17  18
ATOM     18  C   UNL     1      46.269  22.606  18.191  1.00  0.00    -0.000 C 
BRANCH  18  19
ATOM     19  C   UNL     1      47.690  23.124  18.440  1.00  0.00    -0.003 C 
ATOM     20  C   UNL     1      48.260  22.567  19.742  1.00  0.00     0.004 C 
ENDBRANCH  18  19
ENDBRANCH  17  18
ENDBRANCH  16  17
ENDBRANCH  15  16
ENDBRANCH  14  15
ENDBRANCH  13  14
ENDBRANCH  12  13
ENDBRANCH   1  12
TORSDOF 16
ENDMDL
MODEL 8
REMARK VINA RESULT:     0.121     12.992     16.346
REMARK INTER + INTRA:          -0.549
REMARK INTER:                  -0.594
REMARK INTRA:                   0.045
REMARK UNBOUND:                -0.782
REMARK SMILES CCCCCCCCCCCCCCCCCC(=O)[O-]
REMARK SMILES IDX 10 1 11 2 12 3 13 4 14 5 15 6 16 7 17 8 18 9 19 10 20 11
REMARK SMILES IDX 9 12 8 13 7 14 6 15 5 16 4 17 3 18 2 19 1 20
REMARK H PARENT
REMARK Flexibility Score: inf
ROOT
ATOM      1  C   UNL     1      49.424  21.005  14.834  1.00  0.00     0.000 C 
ENDROOT
BRANCH   1   2
ATOM      2  C   UNL     1      50.670  20.131  15.039  1.00  0.00     0.000 C 
BRANCH   2   3
ATOM      3  C   UNL     1      51.984  20.918  14.895  1.00  0.00     0.000 C 
BRANCH   3   4
ATOM      4  C   UNL     1      52.853  20.981  16.169  1.00  0.00     0.000 C 
BRANCH   4   5
ATOM      5  C   UNL     1      53.125  22.397  16.706  1.00  0.00     0.000 C 
BRANCH   5   6
ATOM      6  C   UNL     1      52.269  22.746  17.932  1.00  0.00     0.000 C 
BRANCH   6   7
ATOM      7  C   UNL     1      52.564  21.791  19.098  1.00  0.00     0.006 C 
BRANCH   7   8
ATOM      8  C   UNL     1      52.392  22.471  20.463  1.00  0.00     0.053 C 
BRANCH   8   9
ATOM      9  C   UNL     1      51.551  21.648  21.390  1.00  0.00     0.041 C 
ATOM     10  O   UNL     1      50.299  21.620  21.255  1.00  0.00    -0.550 OA
ATOM     11  O   UNL     1      52.154  20.888  22.384  1.00  0.00    -0.550 OA
ENDBRANCH   8   9
ENDBRANCH   7   8
ENDBRANCH   6   7
ENDBRANCH   5   6
ENDBRANCH   4   5
ENDBRANCH   3   4
ENDBRANCH   2   3
ENDBRANCH   1   2
BRANCH   1  12
ATOM     12  C   UNL     1      49.678  22.441  15.308  1.00  0.00     0.000 C 
BRANCH  12  13
ATOM     13  C   UNL     1      48.649  22.862  16.364  1.00  0.00    -0.000 C 
BRANCH  13  14
ATOM     14  C   UNL     1      49.275  22.893  17.763  1.00  0.00    -0.000 C 
BRANCH  14  15
ATOM     15  C   UNL     1      48.204  23.125  18.840  1.00  0.00    -0.000 C 
BRANCH  15  16
ATOM     16  C   UNL     1      46.837  22.541  18.449  1.00  0.00    -0.000 C 
BRANCH  16  17
ATOM     17  C   UNL     1      46.337  23.060  17.093  1.00  0.00    -0.000 C 
BRANCH  17  18
ATOM     18  C   UNL     1      44.805  23.124  17.060  1.00  0.00    -0.000 C 
BRANCH  18  19
ATOM     19  C   UNL     1      44.211  21.827  16.499  1.00  0.00    -0.003 C 
ATOM     20  C   UNL     1      45.260  21.024  15.736  1.00  0.00     0.004 C 
ENDBRANCH  18  19
ENDBRANCH  17  18
ENDBRANCH  16  17
ENDBRANCH  15  16
ENDBRANCH  14  15
ENDBRANCH  13  14
ENDBRANCH  12  13
ENDBRANCH   1  12
TORSDOF 16
ENDMDL
MODEL 9
REMARK VINA RESULT:     0.491      6.842      9.480
REMARK INTER + INTRA:           0.168
REMARK INTER:                   1.019
REMARK INTRA:                  -0.851
REMARK UNBOUND:                -0.782
REMARK SMILES CCCCCCCCCCCCCCCCCC(=O)[O-]
REMARK SMILES IDX 10 1 11 2 12 3 13 4 14 5 15 6 16 7 17 8 18 9 19 10 20 11
REMARK SMILES IDX 9 12 8 13 7 14 6 15 5 16 4 17 3 18 2 19 1 20
REMARK H PARENT
REMARK Flexibility Score: inf
ROOT
ATOM      1  C   UNL     1      39.793  22.981  15.193  1.00  0.00     0.000 C 
ENDROOT
BRANCH   1   2
ATOM      2  C   UNL     1      41.276  23.119  14.818  1.00  0.00     0.000 C 
BRANCH   2   3
ATOM      3  C   UNL     1      42.206  23.125  16.045  1.00  0.00     0.000 C 
BRANCH   3   4
ATOM      4  C   UNL     1      43.715  23.102  15.722  1.00  0.00     0.000 C 
BRANCH   4   5
ATOM      5  C   UNL     1      44.627  22.696  16.893  1.00  0.00     0.000 C 
BRANCH   5   6
ATOM      6  C   UNL     1      45.563  21.530  16.545  1.00  0.00     0.000 C 
BRANCH   6   7
ATOM      7  C   UNL     1      46.968  21.762  17.119  1.00  0.00     0.006 C 
BRANCH   7   8
ATOM      8  C   UNL     1      47.870  22.540  16.152  1.00  0.00     0.053 C 
BRANCH   8   9
ATOM      9  C   UNL     1      49.244  21.947  16.076  1.00  0.00     0.041 C 
ATOM     10  O   UNL     1      50.153  22.350  16.849  1.00  0.00    -0.550 OA
ATOM     11  O   UNL     1      49.511  20.927  15.172  1.00  0.00    -0.550 OA
ENDBRANCH   8   9
ENDBRANCH   7   8
ENDBRANCH   6   7
ENDBRANCH   5   6
ENDBRANCH   4   5
ENDBRANCH   3   4
ENDBRANCH   2   3
ENDBRANCH   1   2
BRANCH   1  12
ATOM     12  C   UNL     1      39.005  22.294  14.072  1.00  0.00     0.000 C 
BRANCH  12  13
ATOM     13  C   UNL     1      37.758  23.105  13.699  1.00  0.00    -0.000 C 
BRANCH  13  14
ATOM     14  C   UNL     1      36.524  22.201  13.592  1.00  0.00    -0.000 C 
BRANCH  14  15
ATOM     15  C   UNL     1      36.621  21.019  14.567  1.00  0.00    -0.000 C 
BRANCH  15  16
ATOM     16  C   UNL     1      35.634  21.135  15.739  1.00  0.00    -0.000 C 
BRANCH  16  17
ATOM     17  C   UNL     1      34.787  19.868  15.928  1.00  0.00    -0.000 C 
BRANCH  17  18
ATOM     18  C   UNL     1      34.332  19.305  14.576  1.00  0.00    -0.000 C 
BRANCH  18  19
ATOM     19  C   UNL     1      33.225  20.171  13.963  1.00  0.00    -0.003 C 
ATOM     20  C   UNL     1      33.444  20.366  12.465  1.00  0.00     0.004 C 
ENDBRANCH  18  19
ENDBRANCH  17  18
ENDBRANCH  16  17
ENDBRANCH  15  16
ENDBRANCH  14  15
ENDBRANCH  13  14
ENDBRANCH  12  13
ENDBRANCH   1  12
TORSDOF 16
ENDMDL
