MODEL 1
REMARK VINA RESULT:    -6.684      0.000      0.000
REMARK INTER + INTRA:          -8.424
REMARK INTER:                  -8.051
REMARK INTRA:                  -0.373
REMARK UNBOUND:                -0.373
REMARK SMILES Oc1cc(O)c2c(c1)O[C@H](c1ccc(O)c(O)c1)[C@@H](O)C2
REMARK SMILES IDX 21 1 19 2 10 3 9 4 7 5 8 6 2 7 3 8 4 9 6 10 20 11 11 13
REMARK SMILES IDX 18 14 12 15 16 16 13 17 14 18 17 19 15 21 5 23 1 25
REMARK H PARENT 20 12 17 20 15 22 5 24 1 26
REMARK Flexibility Score: inf
ROOT
ATOM      1  C   UNL     1       4.082 -28.332  25.217  1.00  0.00     0.079 C 
ATOM      2  C   UNL     1       3.817 -26.917  24.668  1.00  0.00     0.164 C 
ATOM      3  C   UNL     1       4.190 -25.856  25.723  1.00  0.00     0.232 C 
ATOM      4  O   UNL     1       3.467 -26.103  26.929  1.00  0.00    -0.482 OA
ATOM      5  C   UNL     1       3.227 -27.396  27.406  1.00  0.00     0.131 A 
ATOM      6  C   UNL     1       2.682 -27.556  28.682  1.00  0.00     0.093 A 
ATOM      7  C   UNL     1       2.444 -28.836  29.194  1.00  0.00     0.122 A 
ATOM      8  C   UNL     1       2.763 -29.959  28.428  1.00  0.00     0.092 A 
ATOM      9  C   UNL     1       3.311 -29.819  27.147  1.00  0.00     0.126 A 
ATOM     10  C   UNL     1       3.513 -28.527  26.607  1.00  0.00     0.039 A 
ENDROOT
BRANCH   2  11
ATOM     11  O   UNL     1       4.518 -26.714  23.465  1.00  0.00    -0.389 OA
ATOM     12  H   UNL     1       5.402 -27.157  23.552  1.00  0.00     0.211 HD
ENDBRANCH   2  11
BRANCH   3  13
ATOM     13  C   UNL     1       3.890 -24.462  25.226  1.00  0.00    -0.001 A 
ATOM     14  C   UNL     1       2.569 -24.077  24.932  1.00  0.00     0.057 A 
ATOM     15  C   UNL     1       4.934 -23.551  25.002  1.00  0.00     0.012 A 
ATOM     16  C   UNL     1       2.293 -22.794  24.444  1.00  0.00     0.157 A 
ATOM     17  C   UNL     1       4.662 -22.270  24.515  1.00  0.00     0.050 A 
ATOM     18  C   UNL     1       3.344 -21.885  24.236  1.00  0.00     0.157 A 
BRANCH  16  19
ATOM     19  O   UNL     1       0.972 -22.444  24.171  1.00  0.00    -0.504 OA
ATOM     20  H   UNL     1       0.717 -21.895  23.359  1.00  0.00     0.293 HD
ENDBRANCH  16  19
BRANCH  18  21
ATOM     21  O   UNL     1       3.075 -20.605  23.752  1.00  0.00    -0.504 OA
ATOM     22  H   UNL     1       3.634 -19.806  24.026  1.00  0.00     0.293 HD
ENDBRANCH  18  21
ENDBRANCH   3  13
BRANCH   9  23
ATOM     23  O   UNL     1       3.652 -30.979  26.449  1.00  0.00    -0.507 OA
ATOM     24  H   UNL     1       4.358 -31.631  26.764  1.00  0.00     0.293 HD
ENDBRANCH   9  23
BRANCH   7  25
ATOM     25  O   UNL     1       1.898 -29.002  30.464  1.00  0.00    -0.508 OA
ATOM     26  H   UNL     1       1.492 -29.884  30.756  1.00  0.00     0.293 HD
ENDBRANCH   7  25
TORSDOF 6
ENDMDL
MODEL 2
REMARK VINA RESULT:    -6.659      6.197      8.058
REMARK INTER + INTRA:          -8.394
REMARK INTER:                  -8.033
REMARK INTRA:                  -0.361
REMARK UNBOUND:                -0.373
REMARK SMILES Oc1cc(O)c2c(c1)O[C@H](c1ccc(O)c(O)c1)[C@@H](O)C2
REMARK SMILES IDX 21 1 19 2 10 3 9 4 7 5 8 6 2 7 3 8 4 9 6 10 20 11 11 13
REMARK SMILES IDX 18 14 12 15 16 16 13 17 14 18 17 19 15 21 5 23 1 25
REMARK H PARENT 20 12 17 20 15 22 5 24 1 26
REMARK Flexibility Score: inf
ROOT
ATOM      1  C   UNL     1      -0.848 -21.138  30.261  1.00  0.00     0.079 C 
ATOM      2  C   UNL     1      -0.080 -21.963  29.210  1.00  0.00     0.164 C 
ATOM      3  C   UNL     1      -0.797 -21.891  27.847  1.00  0.00     0.232 C 
ATOM      4  O   UNL     1      -2.146 -22.336  27.991  1.00  0.00    -0.482 OA
ATOM      5  C   UNL     1      -2.919 -22.031  29.116  1.00  0.00     0.131 A 
ATOM      6  C   UNL     1      -4.282 -22.336  29.104  1.00  0.00     0.093 A 
ATOM      7  C   UNL     1      -5.085 -22.030  30.207  1.00  0.00     0.122 A 
ATOM      8  C   UNL     1      -4.521 -21.407  31.323  1.00  0.00     0.092 A 
ATOM      9  C   UNL     1      -3.157 -21.093  31.354  1.00  0.00     0.126 A 
ATOM     10  C   UNL     1      -2.332 -21.439  30.258  1.00  0.00     0.039 A 
ENDROOT
BRANCH   2  11
ATOM     11  O   UNL     1       1.253 -21.522  29.113  1.00  0.00    -0.389 OA
ATOM     12  H   UNL     1       1.836 -22.325  29.092  1.00  0.00     0.211 HD
ENDBRANCH   2  11
BRANCH   3  13
ATOM     13  C   UNL     1      -0.090 -22.735  26.813  1.00  0.00    -0.001 A 
ATOM     14  C   UNL     1       0.595 -22.129  25.744  1.00  0.00     0.057 A 
ATOM     15  C   UNL     1      -0.153 -24.136  26.880  1.00  0.00     0.012 A 
ATOM     16  C   UNL     1       1.226 -22.910  24.769  1.00  0.00     0.157 A 
ATOM     17  C   UNL     1       0.476 -24.918  25.908  1.00  0.00     0.050 A 
ATOM     18  C   UNL     1       1.169 -24.312  24.852  1.00  0.00     0.157 A 
BRANCH  16  19
ATOM     19  O   UNL     1       1.903 -22.277  23.728  1.00  0.00    -0.504 OA
ATOM     20  H   UNL     1       2.785 -22.623  23.369  1.00  0.00     0.293 HD
ENDBRANCH  16  19
BRANCH  18  21
ATOM     21  O   UNL     1       1.798 -25.095  23.885  1.00  0.00    -0.504 OA
ATOM     22  H   UNL     1       1.332 -25.346  23.020  1.00  0.00     0.293 HD
ENDBRANCH  18  21
ENDBRANCH   3  13
BRANCH   9  23
ATOM     23  O   UNL     1      -2.662 -20.429  32.478  1.00  0.00    -0.507 OA
ATOM     24  H   UNL     1      -2.677 -20.825  33.409  1.00  0.00     0.293 HD
ENDBRANCH   9  23
BRANCH   7  25
ATOM     25  O   UNL     1      -6.444 -22.333  30.203  1.00  0.00    -0.508 OA
ATOM     26  H   UNL     1      -6.780 -23.265  30.416  1.00  0.00     0.293 HD
ENDBRANCH   7  25
TORSDOF 6
ENDMDL
MODEL 3
REMARK VINA RESULT:    -6.639      5.534      6.540
REMARK INTER + INTRA:          -8.370
REMARK INTER:                  -7.999
REMARK INTRA:                  -0.371
REMARK UNBOUND:                -0.373
REMARK SMILES Oc1cc(O)c2c(c1)O[C@H](c1ccc(O)c(O)c1)[C@@H](O)C2
REMARK SMILES IDX 21 1 19 2 10 3 9 4 7 5 8 6 2 7 3 8 4 9 6 10 20 11 11 13
REMARK SMILES IDX 18 14 12 15 16 16 13 17 14 18 17 19 15 21 5 23 1 25
REMARK H PARENT 20 12 17 20 15 22 5 24 1 26
REMARK Flexibility Score: inf
ROOT
ATOM      1  C   UNL     1       7.222 -27.430  30.711  1.00  0.00     0.079 C 
ATOM      2  C   UNL     1       6.483 -26.728  29.555  1.00  0.00     0.164 C 
ATOM      3  C   UNL     1       7.285 -26.868  28.246  1.00  0.00     0.232 C 
ATOM      4  O   UNL     1       8.601 -26.347  28.430  1.00  0.00    -0.482 OA
ATOM      5  C   UNL     1       9.317 -26.526  29.618  1.00  0.00     0.131 A 
ATOM      6  C   UNL     1      10.664 -26.155  29.659  1.00  0.00     0.093 A 
ATOM      7  C   UNL     1      11.411 -26.335  30.828  1.00  0.00     0.122 A 
ATOM      8  C   UNL     1      10.809 -26.897  31.955  1.00  0.00     0.092 A 
ATOM      9  C   UNL     1       9.461 -27.276  31.934  1.00  0.00     0.126 A 
ATOM     10  C   UNL     1       8.689 -27.056  30.768  1.00  0.00     0.039 A 
ENDROOT
BRANCH   2  11
ATOM     11  O   UNL     1       5.181 -27.241  29.418  1.00  0.00    -0.389 OA
ATOM     12  H   UNL     1       4.774 -26.820  28.615  1.00  0.00     0.211 HD
ENDBRANCH   2  11
BRANCH   3  13
ATOM     13  C   UNL     1       6.605 -26.143  27.108  1.00  0.00    -0.001 A 
ATOM     14  C   UNL     1       6.099 -26.856  26.007  1.00  0.00     0.057 A 
ATOM     15  C   UNL     1       6.517 -24.742  27.116  1.00  0.00     0.012 A 
ATOM     16  C   UNL     1       5.494 -26.183  24.939  1.00  0.00     0.157 A 
ATOM     17  C   UNL     1       5.913 -24.067  26.052  1.00  0.00     0.050 A 
ATOM     18  C   UNL     1       5.398 -24.782  24.962  1.00  0.00     0.157 A 
BRANCH  16  19
ATOM     19  O   UNL     1       4.997 -26.923  23.868  1.00  0.00    -0.504 OA
ATOM     20  H   UNL     1       4.093 -26.728  23.452  1.00  0.00     0.293 HD
ENDBRANCH  16  19
BRANCH  18  21
ATOM     21  O   UNL     1       4.795 -24.105  23.902  1.00  0.00    -0.504 OA
ATOM     22  H   UNL     1       5.045 -24.298  22.939  1.00  0.00     0.293 HD
ENDBRANCH  18  21
ENDBRANCH   3  13
BRANCH   9  23
ATOM     23  O   UNL     1       8.929 -27.875  33.077  1.00  0.00    -0.507 OA
ATOM     24  H   UNL     1       8.720 -27.366  33.925  1.00  0.00     0.293 HD
ENDBRANCH   9  23
BRANCH   7  25
ATOM     25  O   UNL     1      12.753 -25.966  30.877  1.00  0.00    -0.508 OA
ATOM     26  H   UNL     1      13.341 -25.996  30.052  1.00  0.00     0.293 HD
ENDBRANCH   7  25
TORSDOF 6
ENDMDL
MODEL 4
REMARK VINA RESULT:    -6.624      3.072      7.054
REMARK INTER + INTRA:          -8.353
REMARK INTER:                  -7.980
REMARK INTRA:                  -0.373
REMARK UNBOUND:                -0.373
REMARK SMILES Oc1cc(O)c2c(c1)O[C@H](c1ccc(O)c(O)c1)[C@@H](O)C2
REMARK SMILES IDX 21 1 19 2 10 3 9 4 7 5 8 6 2 7 3 8 4 9 6 10 20 11 11 13
REMARK SMILES IDX 18 14 12 15 16 16 13 17 14 18 17 19 15 21 5 23 1 25
REMARK H PARENT 20 12 17 20 15 22 5 24 1 26
REMARK Flexibility Score: inf
ROOT
ATOM      1  C   UNL     1       2.584 -20.589  24.977  1.00  0.00     0.079 C 
ATOM      2  C   UNL     1       2.863 -22.028  24.501  1.00  0.00     0.164 C 
ATOM      3  C   UNL     1       2.356 -23.042  25.546  1.00  0.00     0.232 C 
ATOM      4  O   UNL     1       2.961 -22.774  26.810  1.00  0.00    -0.482 OA
ATOM      5  C   UNL     1       3.189 -21.471  27.269  1.00  0.00     0.131 A 
ATOM      6  C   UNL     1       3.609 -21.282  28.588  1.00  0.00     0.093 A 
ATOM      7  C   UNL     1       3.830 -19.992  29.081  1.00  0.00     0.122 A 
ATOM      8  C   UNL     1       3.621 -18.888  28.252  1.00  0.00     0.092 A 
ATOM      9  C   UNL     1       3.200 -19.057  26.928  1.00  0.00     0.126 A 
ATOM     10  C   UNL     1       3.016 -20.362  26.411  1.00  0.00     0.039 A 
ENDROOT
BRANCH   2  11
ATOM     11  O   UNL     1       2.280 -22.254  23.241  1.00  0.00    -0.389 OA
ATOM     12  H   UNL     1       2.389 -21.424  22.705  1.00  0.00     0.211 HD
ENDBRANCH   2  11
BRANCH   3  13
ATOM     13  C   UNL     1       2.665 -24.460  25.125  1.00  0.00    -0.001 A 
ATOM     14  C   UNL     1       3.995 -24.874  24.931  1.00  0.00     0.057 A 
ATOM     15  C   UNL     1       1.622 -25.366  24.873  1.00  0.00     0.012 A 
ATOM     16  C   UNL     1       4.280 -26.179  24.513  1.00  0.00     0.157 A 
ATOM     17  C   UNL     1       1.904 -26.669  24.456  1.00  0.00     0.050 A 
ATOM     18  C   UNL     1       3.231 -27.082  24.276  1.00  0.00     0.157 A 
BRANCH  16  19
ATOM     19  O   UNL     1       5.610 -26.557  24.338  1.00  0.00    -0.504 OA
ATOM     20  H   UNL     1       5.891 -27.233  23.636  1.00  0.00     0.293 HD
ENDBRANCH  16  19
BRANCH  18  21
ATOM     21  O   UNL     1       3.509 -28.384  23.861  1.00  0.00    -0.504 OA
ATOM     22  H   UNL     1       3.101 -29.188  24.325  1.00  0.00     0.293 HD
ENDBRANCH  18  21
ENDBRANCH   3  13
BRANCH   9  23
ATOM     23  O   UNL     1       2.964 -17.913  26.163  1.00  0.00    -0.507 OA
ATOM     24  H   UNL     1       3.204 -17.840  25.183  1.00  0.00     0.293 HD
ENDBRANCH   9  23
BRANCH   7  25
ATOM     25  O   UNL     1       4.250 -19.797  30.394  1.00  0.00    -0.508 OA
ATOM     26  H   UNL     1       4.583 -20.566  30.965  1.00  0.00     0.293 HD
ENDBRANCH   7  25
TORSDOF 6
ENDMDL
MODEL 5
REMARK VINA RESULT:    -6.482      3.251      5.131
REMARK INTER + INTRA:          -8.182
REMARK INTER:                  -8.025
REMARK INTRA:                  -0.156
REMARK UNBOUND:                -0.373
REMARK SMILES Oc1cc(O)c2c(c1)O[C@H](c1ccc(O)c(O)c1)[C@@H](O)C2
REMARK SMILES IDX 21 1 19 2 10 3 9 4 7 5 8 6 2 7 3 8 4 9 6 10 20 11 11 13
REMARK SMILES IDX 18 14 12 15 16 16 13 17 14 18 17 19 15 21 5 23 1 25
REMARK H PARENT 20 12 17 20 15 22 5 24 1 26
REMARK Flexibility Score: inf
ROOT
ATOM      1  C   UNL     1       0.161 -24.526  25.954  1.00  0.00     0.079 C 
ATOM      2  C   UNL     1       0.610 -23.316  26.796  1.00  0.00     0.164 C 
ATOM      3  C   UNL     1       1.631 -22.468  26.011  1.00  0.00     0.232 C 
ATOM      4  O   UNL     1       2.735 -23.284  25.622  1.00  0.00    -0.482 OA
ATOM      5  C   UNL     1       2.575 -24.609  25.202  1.00  0.00     0.131 A 
ATOM      6  C   UNL     1       3.671 -25.285  24.658  1.00  0.00     0.093 A 
ATOM      7  C   UNL     1       3.540 -26.605  24.216  1.00  0.00     0.122 A 
ATOM      8  C   UNL     1       2.303 -27.247  24.309  1.00  0.00     0.092 A 
ATOM      9  C   UNL     1       1.193 -26.587  24.850  1.00  0.00     0.126 A 
ATOM     10  C   UNL     1       1.331 -25.267  25.340  1.00  0.00     0.039 A 
ENDROOT
BRANCH   2  11
ATOM     11  O   UNL     1      -0.501 -22.548  27.190  1.00  0.00    -0.389 OA
ATOM     12  H   UNL     1      -0.228 -21.593  27.176  1.00  0.00     0.211 HD
ENDBRANCH   2  11
BRANCH   3  13
ATOM     13  C   UNL     1       2.125 -21.304  26.837  1.00  0.00    -0.001 A 
ATOM     14  C   UNL     1       2.526 -20.107  26.217  1.00  0.00     0.057 A 
ATOM     15  C   UNL     1       2.237 -21.424  28.232  1.00  0.00     0.012 A 
ATOM     16  C   UNL     1       3.011 -19.038  26.980  1.00  0.00     0.157 A 
ATOM     17  C   UNL     1       2.721 -20.359  28.995  1.00  0.00     0.050 A 
ATOM     18  C   UNL     1       3.107 -19.163  28.376  1.00  0.00     0.157 A 
BRANCH  16  19
ATOM     19  O   UNL     1       3.392 -17.864  26.333  1.00  0.00    -0.504 OA
ATOM     20  H   UNL     1       2.715 -17.220  25.942  1.00  0.00     0.293 HD
ENDBRANCH  16  19
BRANCH  18  21
ATOM     21  O   UNL     1       3.587 -18.101  29.141  1.00  0.00    -0.504 OA
ATOM     22  H   UNL     1       2.960 -17.479  29.639  1.00  0.00     0.293 HD
ENDBRANCH  18  21
ENDBRANCH   3  13
BRANCH   9  23
ATOM     23  O   UNL     1      -0.027 -27.266  24.875  1.00  0.00    -0.507 OA
ATOM     24  H   UNL     1      -0.565 -27.412  25.718  1.00  0.00     0.293 HD
ENDBRANCH   9  23
BRANCH   7  25
ATOM     25  O   UNL     1       4.628 -27.284  23.675  1.00  0.00    -0.508 OA
ATOM     26  H   UNL     1       5.446 -27.503  24.231  1.00  0.00     0.293 HD
ENDBRANCH   7  25
TORSDOF 6
ENDMDL
MODEL 6
REMARK VINA RESULT:    -6.443      1.602      7.018
REMARK INTER + INTRA:          -8.135
REMARK INTER:                  -7.942
REMARK INTRA:                  -0.193
REMARK UNBOUND:                -0.373
REMARK SMILES Oc1cc(O)c2c(c1)O[C@H](c1ccc(O)c(O)c1)[C@@H](O)C2
REMARK SMILES IDX 21 1 19 2 10 3 9 4 7 5 8 6 2 7 3 8 4 9 6 10 20 11 11 13
REMARK SMILES IDX 18 14 12 15 16 16 13 17 14 18 17 19 15 21 5 23 1 25
REMARK H PARENT 20 12 17 20 15 22 5 24 1 26
REMARK Flexibility Score: inf
ROOT
ATOM      1  C   UNL     1       6.372 -24.423  26.122  1.00  0.00     0.079 C 
ATOM      2  C   UNL     1       5.865 -25.595  26.985  1.00  0.00     0.164 C 
ATOM      3  C   UNL     1       4.877 -26.463  26.180  1.00  0.00     0.232 C 
ATOM      4  O   UNL     1       3.804 -25.651  25.703  1.00  0.00    -0.482 OA
ATOM      5  C   UNL     1       4.001 -24.345  25.242  1.00  0.00     0.131 A 
ATOM      6  C   UNL     1       2.943 -23.681  24.617  1.00  0.00     0.093 A 
ATOM      7  C   UNL     1       3.113 -22.380  24.132  1.00  0.00     0.122 A 
ATOM      8  C   UNL     1       4.350 -21.746  24.267  1.00  0.00     0.092 A 
ATOM      9  C   UNL     1       5.423 -22.396  24.890  1.00  0.00     0.126 A 
ATOM     10  C   UNL     1       5.244 -23.695  25.420  1.00  0.00     0.039 A 
ENDROOT
BRANCH   2  11
ATOM     11  O   UNL     1       6.945 -26.358  27.465  1.00  0.00    -0.389 OA
ATOM     12  H   UNL     1       7.066 -27.131  26.852  1.00  0.00     0.211 HD
ENDBRANCH   2  11
BRANCH   3  13
ATOM     13  C   UNL     1       4.327 -27.590  27.022  1.00  0.00    -0.001 A 
ATOM     14  C   UNL     1       4.004 -28.827  26.438  1.00  0.00     0.057 A 
ATOM     15  C   UNL     1       4.086 -27.395  28.392  1.00  0.00     0.012 A 
ATOM     16  C   UNL     1       3.467 -29.862  27.212  1.00  0.00     0.157 A 
ATOM     17  C   UNL     1       3.551 -28.427  29.168  1.00  0.00     0.050 A 
ATOM     18  C   UNL     1       3.242 -29.663  28.584  1.00  0.00     0.157 A 
BRANCH  16  19
ATOM     19  O   UNL     1       3.165 -31.077  26.601  1.00  0.00    -0.504 OA
ATOM     20  H   UNL     1       3.283 -31.964  27.077  1.00  0.00     0.293 HD
ENDBRANCH  16  19
BRANCH  18  21
ATOM     21  O   UNL     1       2.710 -30.691  29.362  1.00  0.00    -0.504 OA
ATOM     22  H   UNL     1       2.865 -30.735  30.363  1.00  0.00     0.293 HD
ENDBRANCH  18  21
ENDBRANCH   3  13
BRANCH   9  23
ATOM     23  O   UNL     1       6.647 -21.728  24.952  1.00  0.00    -0.507 OA
ATOM     24  H   UNL     1       6.947 -21.190  25.754  1.00  0.00     0.293 HD
ENDBRANCH   9  23
BRANCH   7  25
ATOM     25  O   UNL     1       2.062 -21.711  23.510  1.00  0.00    -0.508 OA
ATOM     26  H   UNL     1       2.225 -20.920  22.898  1.00  0.00     0.293 HD
ENDBRANCH   7  25
TORSDOF 6
ENDMDL
MODEL 7
REMARK VINA RESULT:    -6.231      5.777      7.600
REMARK INTER + INTRA:          -7.879
REMARK INTER:                  -7.555
REMARK INTRA:                  -0.323
REMARK UNBOUND:                -0.373
REMARK SMILES Oc1cc(O)c2c(c1)O[C@H](c1ccc(O)c(O)c1)[C@@H](O)C2
REMARK SMILES IDX 21 1 19 2 10 3 9 4 7 5 8 6 2 7 3 8 4 9 6 10 20 11 11 13
REMARK SMILES IDX 18 14 12 15 16 16 13 17 14 18 17 19 15 21 5 23 1 25
REMARK H PARENT 20 12 17 20 15 22 5 24 1 26
REMARK Flexibility Score: inf
ROOT
ATOM      1  C   UNL     1       0.947 -21.866  26.703  1.00  0.00     0.079 C 
ATOM      2  C   UNL     1      -0.225 -21.373  27.574  1.00  0.00     0.164 C 
ATOM      3  C   UNL     1      -0.567 -22.422  28.652  1.00  0.00     0.232 C 
ATOM      4  O   UNL     1      -0.856 -23.673  28.030  1.00  0.00    -0.482 OA
ATOM      5  C   UNL     1      -0.149 -24.136  26.915  1.00  0.00     0.131 A 
ATOM      6  C   UNL     1      -0.358 -25.446  26.477  1.00  0.00     0.093 A 
ATOM      7  C   UNL     1       0.345 -25.944  25.375  1.00  0.00     0.122 A 
ATOM      8  C   UNL     1       1.267 -25.129  24.716  1.00  0.00     0.092 A 
ATOM      9  C   UNL     1       1.491 -23.814  25.140  1.00  0.00     0.126 A 
ATOM     10  C   UNL     1       0.751 -23.291  26.227  1.00  0.00     0.039 A 
ENDROOT
BRANCH   2  11
ATOM     11  O   UNL     1       0.077 -20.125  28.149  1.00  0.00    -0.389 OA
ATOM     12  H   UNL     1      -0.305 -20.114  29.065  1.00  0.00     0.211 HD
ENDBRANCH   2  11
BRANCH   3  13
ATOM     13  C   UNL     1      -1.747 -21.982  29.486  1.00  0.00    -0.001 A 
ATOM     14  C   UNL     1      -3.053 -22.049  28.968  1.00  0.00     0.057 A 
ATOM     15  C   UNL     1      -1.546 -21.454  30.772  1.00  0.00     0.012 A 
ATOM     16  C   UNL     1      -4.144 -21.616  29.730  1.00  0.00     0.157 A 
ATOM     17  C   UNL     1      -2.633 -21.020  31.534  1.00  0.00     0.050 A 
ATOM     18  C   UNL     1      -3.935 -21.101  31.020  1.00  0.00     0.157 A 
BRANCH  16  19
ATOM     19  O   UNL     1      -5.425 -21.704  29.187  1.00  0.00    -0.504 OA
ATOM     20  H   UNL     1      -5.733 -22.514  28.663  1.00  0.00     0.293 HD
ENDBRANCH  16  19
BRANCH  18  21
ATOM     21  O   UNL     1      -5.018 -20.669  31.784  1.00  0.00    -0.504 OA
ATOM     22  H   UNL     1      -4.901 -20.012  32.548  1.00  0.00     0.293 HD
ENDBRANCH  18  21
ENDBRANCH   3  13
BRANCH   9  23
ATOM     23  O   UNL     1       2.459 -23.064  24.470  1.00  0.00    -0.507 OA
ATOM     24  H   UNL     1       2.536 -22.058  24.547  1.00  0.00     0.293 HD
ENDBRANCH   9  23
BRANCH   7  25
ATOM     25  O   UNL     1       0.140 -27.248  24.932  1.00  0.00    -0.508 OA
ATOM     26  H   UNL     1      -0.564 -27.846  25.351  1.00  0.00     0.293 HD
ENDBRANCH   7  25
TORSDOF 6
ENDMDL
MODEL 8
REMARK VINA RESULT:    -6.181      5.169      7.926
REMARK INTER + INTRA:          -7.818
REMARK INTER:                  -7.524
REMARK INTRA:                  -0.295
REMARK UNBOUND:                -0.373
REMARK SMILES Oc1cc(O)c2c(c1)O[C@H](c1ccc(O)c(O)c1)[C@@H](O)C2
REMARK SMILES IDX 21 1 19 2 10 3 9 4 7 5 8 6 2 7 3 8 4 9 6 10 20 11 11 13
REMARK SMILES IDX 18 14 12 15 16 16 13 17 14 18 17 19 15 21 5 23 1 25
REMARK H PARENT 20 12 17 20 15 22 5 24 1 26
REMARK Flexibility Score: inf
ROOT
ATOM      1  C   UNL     1       5.940 -23.810  27.771  1.00  0.00     0.079 C 
ATOM      2  C   UNL     1       6.679 -24.520  28.923  1.00  0.00     0.164 C 
ATOM      3  C   UNL     1       7.844 -25.364  28.369  1.00  0.00     0.232 C 
ATOM      4  O   UNL     1       7.350 -26.291  27.404  1.00  0.00    -0.482 OA
ATOM      5  C   UNL     1       6.339 -25.958  26.496  1.00  0.00     0.131 A 
ATOM      6  C   UNL     1       6.039 -26.848  25.461  1.00  0.00     0.093 A 
ATOM      7  C   UNL     1       5.043 -26.538  24.528  1.00  0.00     0.122 A 
ATOM      8  C   UNL     1       4.354 -25.327  24.628  1.00  0.00     0.092 A 
ATOM      9  C   UNL     1       4.641 -24.422  25.657  1.00  0.00     0.126 A 
ATOM     10  C   UNL     1       5.616 -24.751  26.629  1.00  0.00     0.039 A 
ENDROOT
BRANCH   2  11
ATOM     11  O   UNL     1       7.127 -23.584  29.873  1.00  0.00    -0.389 OA
ATOM     12  H   UNL     1       8.110 -23.692  29.962  1.00  0.00     0.211 HD
ENDBRANCH   2  11
BRANCH   3  13
ATOM     13  C   UNL     1       8.552 -26.110  29.476  1.00  0.00    -0.001 A 
ATOM     14  C   UNL     1       9.956 -26.166  29.515  1.00  0.00     0.057 A 
ATOM     15  C   UNL     1       7.811 -26.798  30.450  1.00  0.00     0.012 A 
ATOM     16  C   UNL     1      10.612 -26.881  30.524  1.00  0.00     0.157 A 
ATOM     17  C   UNL     1       8.463 -27.513  31.458  1.00  0.00     0.050 A 
ATOM     18  C   UNL     1       9.863 -27.556  31.502  1.00  0.00     0.157 A 
BRANCH  16  19
ATOM     19  O   UNL     1      12.006 -26.910  30.536  1.00  0.00    -0.504 OA
ATOM     20  H   UNL     1      12.526 -27.771  30.661  1.00  0.00     0.293 HD
ENDBRANCH  16  19
BRANCH  18  21
ATOM     21  O   UNL     1      10.511 -28.269  32.511  1.00  0.00    -0.504 OA
ATOM     22  H   UNL     1      10.014 -28.599  33.330  1.00  0.00     0.293 HD
ENDBRANCH  18  21
ENDBRANCH   3  13
BRANCH   9  23
ATOM     23  O   UNL     1       3.950 -23.209  25.676  1.00  0.00    -0.507 OA
ATOM     24  H   UNL     1       3.868 -22.603  24.871  1.00  0.00     0.293 HD
ENDBRANCH   9  23
BRANCH   7  25
ATOM     25  O   UNL     1       4.738 -27.420  23.496  1.00  0.00    -0.508 OA
ATOM     26  H   UNL     1       3.886 -27.969  23.502  1.00  0.00     0.293 HD
ENDBRANCH   7  25
TORSDOF 6
ENDMDL
MODEL 9
REMARK VINA RESULT:    -6.070      6.132      8.213
REMARK INTER + INTRA:          -7.684
REMARK INTER:                  -7.312
REMARK INTRA:                  -0.373
REMARK UNBOUND:                -0.373
REMARK SMILES Oc1cc(O)c2c(c1)O[C@H](c1ccc(O)c(O)c1)[C@@H](O)C2
REMARK SMILES IDX 21 1 19 2 10 3 9 4 7 5 8 6 2 7 3 8 4 9 6 10 20 11 11 13
REMARK SMILES IDX 18 14 12 15 16 16 13 17 14 18 17 19 15 21 5 23 1 25
REMARK H PARENT 20 12 17 20 15 22 5 24 1 26
REMARK Flexibility Score: inf
ROOT
ATOM      1  C   UNL     1       0.184 -24.860  28.742  1.00  0.00     0.079 C 
ATOM      2  C   UNL     1      -0.871 -24.104  29.573  1.00  0.00     0.164 C 
ATOM      3  C   UNL     1      -2.040 -23.657  28.673  1.00  0.00     0.232 C 
ATOM      4  O   UNL     1      -1.541 -22.861  27.598  1.00  0.00    -0.482 OA
ATOM      5  C   UNL     1      -0.334 -23.150  26.951  1.00  0.00     0.131 A 
ATOM      6  C   UNL     1      -0.003 -22.446  25.791  1.00  0.00     0.093 A 
ATOM      7  C   UNL     1       1.189 -22.721  25.113  1.00  0.00     0.122 A 
ATOM      8  C   UNL     1       2.047 -23.712  25.594  1.00  0.00     0.092 A 
ATOM      9  C   UNL     1       1.733 -24.429  26.755  1.00  0.00     0.126 A 
ATOM     10  C   UNL     1       0.549 -24.124  27.469  1.00  0.00     0.039 A 
ENDROOT
BRANCH   2  11
ATOM     11  O   UNL     1      -1.322 -24.901  30.642  1.00  0.00    -0.389 OA
ATOM     12  H   UNL     1      -1.328 -24.335  31.458  1.00  0.00     0.211 HD
ENDBRANCH   2  11
BRANCH   3  13
ATOM     13  C   UNL     1      -3.063 -22.868  29.457  1.00  0.00    -0.001 A 
ATOM     14  C   UNL     1      -2.718 -21.640  30.048  1.00  0.00     0.057 A 
ATOM     15  C   UNL     1      -4.356 -23.381  29.646  1.00  0.00     0.012 A 
ATOM     16  C   UNL     1      -3.656 -20.923  30.799  1.00  0.00     0.157 A 
ATOM     17  C   UNL     1      -5.295 -22.667  30.395  1.00  0.00     0.050 A 
ATOM     18  C   UNL     1      -4.952 -21.437  30.972  1.00  0.00     0.157 A 
BRANCH  16  19
ATOM     19  O   UNL     1      -3.282 -19.705  31.365  1.00  0.00    -0.504 OA
ATOM     20  H   UNL     1      -3.566 -18.817  30.968  1.00  0.00     0.293 HD
ENDBRANCH  16  19
BRANCH  18  21
ATOM     21  O   UNL     1      -5.892 -20.726  31.718  1.00  0.00    -0.504 OA
ATOM     22  H   UNL     1      -5.681 -19.814  32.107  1.00  0.00     0.293 HD
ENDBRANCH  18  21
ENDBRANCH   3  13
BRANCH   9  23
ATOM     23  O   UNL     1       2.608 -25.438  27.161  1.00  0.00    -0.507 OA
ATOM     24  H   UNL     1       2.358 -26.418  27.176  1.00  0.00     0.293 HD
ENDBRANCH   9  23
BRANCH   7  25
ATOM     25  O   UNL     1       1.526 -22.022  23.956  1.00  0.00    -0.508 OA
ATOM     26  H   UNL     1       2.157 -21.230  23.981  1.00  0.00     0.293 HD
ENDBRANCH   7  25
TORSDOF 6
ENDMDL
