MODEL 1
REMARK VINA RESULT:    -3.306      0.000      0.000
REMARK INTER + INTRA:          -4.633
REMARK INTER:                  -4.272
REMARK INTRA:                  -0.361
REMARK UNBOUND:                -0.361
REMARK SMILES CCCCCCC(=O)[O-]
REMARK SMILES IDX 5 1 6 2 7 3 8 4 9 5 4 6 3 7 2 8 1 9
REMARK H PARENT
REMARK Flexibility Score: inf
ROOT
ATOM      1  C   UNL     1       2.854   5.911  17.189  1.00  0.00     0.006 C 
ENDROOT
BRANCH   1   2
ATOM      2  C   UNL     1       3.193   6.788  15.977  1.00  0.00     0.053 C 
BRANCH   2   3
ATOM      3  C   UNL     1       4.557   7.382  16.128  1.00  0.00     0.041 C 
ATOM      4  O   UNL     1       4.939   8.300  15.355  1.00  0.00    -0.550 OA
ATOM      5  O   UNL     1       5.391   6.957  17.155  1.00  0.00    -0.550 OA
ENDBRANCH   2   3
ENDBRANCH   1   2
BRANCH   1   6
ATOM      6  C   UNL     1       1.875   6.592  18.158  1.00  0.00     0.000 C 
BRANCH   6   7
ATOM      7  C   UNL     1       2.589   7.454  19.211  1.00  0.00    -0.000 C 
BRANCH   7   8
ATOM      8  C   UNL     1       1.988   8.863  19.264  1.00  0.00    -0.003 C 
ATOM      9  C   UNL     1       2.516   9.731  18.124  1.00  0.00     0.004 C 
ENDBRANCH   7   8
ENDBRANCH   6   7
ENDBRANCH   1   6
TORSDOF 5
ENDMDL
MODEL 2
REMARK VINA RESULT:    -3.289      2.304      3.570
REMARK INTER + INTRA:          -4.612
REMARK INTER:                  -4.311
REMARK INTRA:                  -0.302
REMARK UNBOUND:                -0.361
REMARK SMILES CCCCCCC(=O)[O-]
REMARK SMILES IDX 5 1 6 2 7 3 8 4 9 5 4 6 3 7 2 8 1 9
REMARK H PARENT
REMARK Flexibility Score: inf
ROOT
ATOM      1  C   UNL     1       3.039   6.319  17.868  1.00  0.00     0.006 C 
ENDROOT
BRANCH   1   2
ATOM      2  C   UNL     1       1.875   6.742  18.773  1.00  0.00     0.053 C 
BRANCH   2   3
ATOM      3  C   UNL     1       2.238   7.968  19.550  1.00  0.00     0.041 C 
ATOM      4  O   UNL     1       2.239   9.096  18.991  1.00  0.00    -0.550 OA
ATOM      5  O   UNL     1       2.528   7.872  20.906  1.00  0.00    -0.550 OA
ENDBRANCH   2   3
ENDBRANCH   1   2
BRANCH   1   6
ATOM      6  C   UNL     1       2.670   6.344  16.377  1.00  0.00     0.000 C 
BRANCH   6   7
ATOM      7  C   UNL     1       3.733   7.044  15.516  1.00  0.00    -0.000 C 
BRANCH   7   8
ATOM      8  C   UNL     1       4.735   7.802  16.393  1.00  0.00    -0.003 C 
ATOM      9  C   UNL     1       4.448   9.301  16.390  1.00  0.00     0.004 C 
ENDBRANCH   7   8
ENDBRANCH   6   7
ENDBRANCH   1   6
TORSDOF 5
ENDMDL
MODEL 3
REMARK VINA RESULT:    -2.974     17.819     19.180
REMARK INTER + INTRA:          -4.205
REMARK INTER:                  -3.852
REMARK INTRA:                  -0.353
REMARK UNBOUND:                -0.361
REMARK SMILES CCCCCCC(=O)[O-]
REMARK SMILES IDX 5 1 6 2 7 3 8 4 9 5 4 6 3 7 2 8 1 9
REMARK H PARENT
REMARK Flexibility Score: inf
ROOT
ATOM      1  C   UNL     1       6.403  -7.273   5.654  1.00  0.00     0.006 C 
ENDROOT
BRANCH   1   2
ATOM      2  C   UNL     1       5.494  -6.168   6.208  1.00  0.00     0.053 C 
BRANCH   2   3
ATOM      3  C   UNL     1       4.667  -5.574   5.113  1.00  0.00     0.041 C 
ATOM      4  O   UNL     1       4.076  -4.476   5.288  1.00  0.00    -0.550 OA
ATOM      5  O   UNL     1       4.587  -6.209   3.879  1.00  0.00    -0.550 OA
ENDBRANCH   2   3
ENDBRANCH   1   2
BRANCH   1   6
ATOM      6  C   UNL     1       5.959  -8.678   6.088  1.00  0.00     0.000 C 
BRANCH   6   7
ATOM      7  C   UNL     1       4.965  -8.649   7.260  1.00  0.00    -0.000 C 
BRANCH   7   8
ATOM      8  C   UNL     1       3.648  -9.333   6.877  1.00  0.00    -0.003 C 
ATOM      9  C   UNL     1       3.446  -9.335   5.364  1.00  0.00     0.004 C 
ENDBRANCH   7   8
ENDBRANCH   6   7
ENDBRANCH   1   6
TORSDOF 5
ENDMDL
MODEL 4
REMARK VINA RESULT:    -2.920     17.805     18.751
REMARK INTER + INTRA:          -4.134
REMARK INTER:                  -4.023
REMARK INTRA:                  -0.111
REMARK UNBOUND:                -0.361
REMARK SMILES CCCCCCC(=O)[O-]
REMARK SMILES IDX 5 1 6 2 7 3 8 4 9 5 4 6 3 7 2 8 1 9
REMARK H PARENT
REMARK Flexibility Score: inf
ROOT
ATOM      1  C   UNL     1       5.606  -6.417   6.276  1.00  0.00     0.006 C 
ENDROOT
BRANCH   1   2
ATOM      2  C   UNL     1       5.916  -7.918   6.207  1.00  0.00     0.053 C 
BRANCH   2   3
ATOM      3  C   UNL     1       4.717  -8.717   6.605  1.00  0.00     0.041 C 
ATOM      4  O   UNL     1       4.541  -9.041   7.810  1.00  0.00    -0.550 OA
ATOM      5  O   UNL     1       3.765  -9.064   5.654  1.00  0.00    -0.550 OA
ENDBRANCH   2   3
ENDBRANCH   1   2
BRANCH   1   6
ATOM      6  C   UNL     1       5.055  -5.865   4.951  1.00  0.00     0.000 C 
BRANCH   6   7
ATOM      7  C   UNL     1       4.114  -4.667   5.155  1.00  0.00    -0.000 C 
BRANCH   7   8
ATOM      8  C   UNL     1       3.109  -4.558   4.003  1.00  0.00    -0.003 C 
ATOM      9  C   UNL     1       2.419  -3.197   3.999  1.00  0.00     0.004 C 
ENDBRANCH   7   8
ENDBRANCH   6   7
ENDBRANCH   1   6
TORSDOF 5
ENDMDL
MODEL 5
REMARK VINA RESULT:    -2.895     17.265     18.525
REMARK INTER + INTRA:          -4.103
REMARK INTER:                  -3.868
REMARK INTRA:                  -0.236
REMARK UNBOUND:                -0.361
REMARK SMILES CCCCCCC(=O)[O-]
REMARK SMILES IDX 5 1 6 2 7 3 8 4 9 5 4 6 3 7 2 8 1 9
REMARK H PARENT
REMARK Flexibility Score: inf
ROOT
ATOM      1  C   UNL     1       5.726  -5.662   4.132  1.00  0.00     0.006 C 
ENDROOT
BRANCH   1   2
ATOM      2  C   UNL     1       4.212  -5.702   4.379  1.00  0.00     0.053 C 
BRANCH   2   3
ATOM      3  C   UNL     1       3.700  -4.334   4.698  1.00  0.00     0.041 C 
ATOM      4  O   UNL     1       2.973  -3.719   3.873  1.00  0.00    -0.550 OA
ATOM      5  O   UNL     1       3.983  -3.754   5.929  1.00  0.00    -0.550 OA
ENDBRANCH   2   3
ENDBRANCH   1   2
BRANCH   1   6
ATOM      6  C   UNL     1       6.506  -6.583   5.082  1.00  0.00     0.000 C 
BRANCH   6   7
ATOM      7  C   UNL     1       5.692  -6.979   6.323  1.00  0.00    -0.000 C 
BRANCH   7   8
ATOM      8  C   UNL     1       5.598  -8.503   6.454  1.00  0.00    -0.003 C 
ATOM      9  C   UNL     1       4.576  -8.905   7.514  1.00  0.00     0.004 C 
ENDBRANCH   7   8
ENDBRANCH   6   7
ENDBRANCH   1   6
TORSDOF 5
ENDMDL
MODEL 6
REMARK VINA RESULT:    -2.893      2.373      3.248
REMARK INTER + INTRA:          -4.100
REMARK INTER:                  -3.833
REMARK INTRA:                  -0.267
REMARK UNBOUND:                -0.361
REMARK SMILES CCCCCCC(=O)[O-]
REMARK SMILES IDX 5 1 6 2 7 3 8 4 9 5 4 6 3 7 2 8 1 9
REMARK H PARENT
REMARK Flexibility Score: inf
ROOT
ATOM      1  C   UNL     1       4.111   6.447  16.087  1.00  0.00     0.006 C 
ENDROOT
BRANCH   1   2
ATOM      2  C   UNL     1       2.585   6.537  16.207  1.00  0.00     0.053 C 
BRANCH   2   3
ATOM      3  C   UNL     1       2.110   5.767  17.399  1.00  0.00     0.041 C 
ATOM      4  O   UNL     1       1.876   6.360  18.485  1.00  0.00    -0.550 OA
ATOM      5  O   UNL     1       1.878   4.401  17.298  1.00  0.00    -0.550 OA
ENDBRANCH   2   3
ENDBRANCH   1   2
BRANCH   1   6
ATOM      6  C   UNL     1       4.826   7.665  16.694  1.00  0.00     0.000 C 
BRANCH   6   7
ATOM      7  C   UNL     1       4.460   8.979  15.986  1.00  0.00    -0.000 C 
BRANCH   7   8
ATOM      8  C   UNL     1       4.059  10.055  17.001  1.00  0.00    -0.003 C 
ATOM      9  C   UNL     1       2.738   9.705  17.682  1.00  0.00     0.004 C 
ENDBRANCH   7   8
ENDBRANCH   6   7
ENDBRANCH   1   6
TORSDOF 5
ENDMDL
MODEL 7
REMARK VINA RESULT:    -2.852     17.929     19.031
REMARK INTER + INTRA:          -4.047
REMARK INTER:                  -3.774
REMARK INTRA:                  -0.273
REMARK UNBOUND:                -0.361
REMARK SMILES CCCCCCC(=O)[O-]
REMARK SMILES IDX 5 1 6 2 7 3 8 4 9 5 4 6 3 7 2 8 1 9
REMARK H PARENT
REMARK Flexibility Score: inf
ROOT
ATOM      1  C   UNL     1       5.654  -6.401   6.223  1.00  0.00     0.006 C 
ENDROOT
BRANCH   1   2
ATOM      2  C   UNL     1       5.917  -7.901   6.033  1.00  0.00     0.053 C 
BRANCH   2   3
ATOM      3  C   UNL     1       4.724  -8.697   6.458  1.00  0.00     0.041 C 
ATOM      4  O   UNL     1       3.891  -9.098   5.602  1.00  0.00    -0.550 OA
ATOM      5  O   UNL     1       4.556  -9.039   7.794  1.00  0.00    -0.550 OA
ENDBRANCH   2   3
ENDBRANCH   1   2
BRANCH   1   6
ATOM      6  C   UNL     1       5.219  -5.707   4.924  1.00  0.00     0.000 C 
BRANCH   6   7
ATOM      7  C   UNL     1       4.088  -4.691   5.146  1.00  0.00    -0.000 C 
BRANCH   7   8
ATOM      8  C   UNL     1       3.029  -4.801   4.043  1.00  0.00    -0.003 C 
ATOM      9  C   UNL     1       2.554  -6.242   3.876  1.00  0.00     0.004 C 
ENDBRANCH   7   8
ENDBRANCH   6   7
ENDBRANCH   1   6
TORSDOF 5
ENDMDL
MODEL 8
REMARK VINA RESULT:    -2.725     18.691     19.699
REMARK INTER + INTRA:          -3.883
REMARK INTER:                  -3.624
REMARK INTRA:                  -0.259
REMARK UNBOUND:                -0.361
REMARK SMILES CCCCCCC(=O)[O-]
REMARK SMILES IDX 5 1 6 2 7 3 8 4 9 5 4 6 3 7 2 8 1 9
REMARK H PARENT
REMARK Flexibility Score: inf
ROOT
ATOM      1  C   UNL     1       5.837  -6.645   6.135  1.00  0.00     0.006 C 
ENDROOT
BRANCH   1   2
ATOM      2  C   UNL     1       5.939  -8.173   6.231  1.00  0.00     0.053 C 
BRANCH   2   3
ATOM      3  C   UNL     1       4.601  -8.766   6.540  1.00  0.00     0.041 C 
ATOM      4  O   UNL     1       4.294  -9.056   7.726  1.00  0.00    -0.550 OA
ATOM      5  O   UNL     1       3.673  -8.955   5.523  1.00  0.00    -0.550 OA
ENDBRANCH   2   3
ENDBRANCH   1   2
BRANCH   1   6
ATOM      6  C   UNL     1       5.792  -6.145   4.682  1.00  0.00     0.000 C 
BRANCH   6   7
ATOM      7  C   UNL     1       6.948  -6.693   3.832  1.00  0.00    -0.000 C 
BRANCH   7   8
ATOM      8  C   UNL     1       7.962  -5.590   3.511  1.00  0.00    -0.003 C 
ATOM      9  C   UNL     1       9.141  -5.624   4.481  1.00  0.00     0.004 C 
ENDBRANCH   7   8
ENDBRANCH   6   7
ENDBRANCH   1   6
TORSDOF 5
ENDMDL
MODEL 9
REMARK VINA RESULT:    -2.661     18.567     19.414
REMARK INTER + INTRA:          -3.800
REMARK INTER:                  -3.549
REMARK INTRA:                  -0.251
REMARK UNBOUND:                -0.361
REMARK SMILES CCCCCCC(=O)[O-]
REMARK SMILES IDX 5 1 6 2 7 3 8 4 9 5 4 6 3 7 2 8 1 9
REMARK H PARENT
REMARK Flexibility Score: inf
ROOT
ATOM      1  C   UNL     1       6.006  -6.174   4.452  1.00  0.00     0.006 C 
ENDROOT
BRANCH   1   2
ATOM      2  C   UNL     1       7.330  -6.666   3.853  1.00  0.00     0.053 C 
BRANCH   2   3
ATOM      3  C   UNL     1       8.382  -5.610   3.976  1.00  0.00     0.041 C 
ATOM      4  O   UNL     1       9.360  -5.777   4.752  1.00  0.00    -0.550 OA
ATOM      5  O   UNL     1       8.310  -4.461   3.198  1.00  0.00    -0.550 OA
ENDBRANCH   2   3
ENDBRANCH   1   2
BRANCH   1   6
ATOM      6  C   UNL     1       5.859  -6.533   5.939  1.00  0.00     0.000 C 
BRANCH   6   7
ATOM      7  C   UNL     1       6.115  -8.023   6.215  1.00  0.00    -0.000 C 
BRANCH   7   8
ATOM      8  C   UNL     1       4.897  -8.674   6.880  1.00  0.00    -0.003 C 
ATOM      9  C   UNL     1       3.848  -9.068   5.844  1.00  0.00     0.004 C 
ENDBRANCH   7   8
ENDBRANCH   6   7
ENDBRANCH   1   6
TORSDOF 5
ENDMDL
