MODEL 1
REMARK VINA RESULT:     0.768      0.000      0.000
REMARK INTER + INTRA:           4.602
REMARK INTER:                   1.756
REMARK INTRA:                   2.846
REMARK UNBOUND:                 2.846
REMARK SMILES CCCCCCCCCCCCCCCCCCCCCCCC(=O)[O-]
REMARK SMILES IDX 13 1 14 2 15 3 16 4 17 5 18 6 19 7 20 8 21 9 22 10 23 11
REMARK SMILES IDX 24 12 25 13 26 14 12 15 11 16 10 17 9 18 8 19 7 20 6 21 5 22
REMARK SMILES IDX 4 23 3 24 2 25 1 26
REMARK H PARENT
REMARK Flexibility Score: inf
ROOT
ATOM      1  C   UNL     1     -12.620  -4.092  -4.641  1.00  0.00     0.000 C 
ENDROOT
BRANCH   1   2
ATOM      2  C   UNL     1     -12.195  -4.968  -5.829  1.00  0.00     0.000 C 
BRANCH   2   3
ATOM      3  C   UNL     1     -13.337  -5.112  -6.846  1.00  0.00     0.000 C 
BRANCH   3   4
ATOM      4  C   UNL     1     -13.189  -4.157  -8.042  1.00  0.00     0.000 C 
BRANCH   4   5
ATOM      5  C   UNL     1     -12.996  -4.900  -9.374  1.00  0.00     0.000 C 
BRANCH   5   6
ATOM      6  C   UNL     1     -14.325  -5.121 -10.125  1.00  0.00     0.000 C 
BRANCH   6   7
ATOM      7  C   UNL     1     -15.565  -5.121  -9.212  1.00  0.00     0.000 C 
BRANCH   7   8
ATOM      8  C   UNL     1     -15.707  -3.828  -8.395  1.00  0.00     0.000 C 
BRANCH   8   9
ATOM      9  C   UNL     1     -17.082  -3.706  -7.719  1.00  0.00     0.000 C 
BRANCH   9  10
ATOM     10  C   UNL     1     -17.122  -4.384  -6.341  1.00  0.00     0.006 C 
BRANCH  10  11
ATOM     11  C   UNL     1     -15.874  -4.038  -5.524  1.00  0.00     0.053 C 
BRANCH  11  12
ATOM     12  C   UNL     1     -15.956  -2.642  -4.988  1.00  0.00     0.041 C 
ATOM     13  O   UNL     1     -16.915  -2.304  -4.244  1.00  0.00    -0.550 OA
ATOM     14  O   UNL     1     -14.979  -1.709  -5.320  1.00  0.00    -0.550 OA
ENDBRANCH  11  12
ENDBRANCH  10  11
ENDBRANCH   9  10
ENDBRANCH   8   9
ENDBRANCH   7   8
ENDBRANCH   6   7
ENDBRANCH   5   6
ENDBRANCH   4   5
ENDBRANCH   3   4
ENDBRANCH   2   3
ENDBRANCH   1   2
BRANCH   1  15
ATOM     15  C   UNL     1     -12.835  -4.901  -3.349  1.00  0.00     0.000 C 
BRANCH  15  16
ATOM     16  C   UNL     1     -14.299  -4.991  -2.869  1.00  0.00     0.000 C 
BRANCH  16  17
ATOM     17  C   UNL     1     -14.491  -5.000  -1.342  1.00  0.00     0.000 C 
BRANCH  17  18
ATOM     18  C   UNL     1     -13.953  -3.726  -0.666  1.00  0.00    -0.000 C 
BRANCH  18  19
ATOM     19  C   UNL     1     -15.063  -2.717  -0.318  1.00  0.00    -0.000 C 
BRANCH  19  20
ATOM     20  C   UNL     1     -16.129  -2.510  -1.412  1.00  0.00    -0.000 C 
BRANCH  20  21
ATOM     21  C   UNL     1     -15.884  -1.312  -2.349  1.00  0.00    -0.000 C 
BRANCH  21  22
ATOM     22  C   UNL     1     -16.764  -0.081  -2.033  1.00  0.00    -0.000 C 
BRANCH  22  23
ATOM     23  C   UNL     1     -16.095   0.885  -1.041  1.00  0.00    -0.000 C 
BRANCH  23  24
ATOM     24  C   UNL     1     -16.822   0.952   0.313  1.00  0.00    -0.000 C 
BRANCH  24  25
ATOM     25  C   UNL     1     -16.532  -0.224   1.264  1.00  0.00    -0.003 C 
ATOM     26  C   UNL     1     -16.149   0.228   2.675  1.00  0.00     0.004 C 
ENDBRANCH  24  25
ENDBRANCH  23  24
ENDBRANCH  22  23
ENDBRANCH  21  22
ENDBRANCH  20  21
ENDBRANCH  19  20
ENDBRANCH  18  19
ENDBRANCH  17  18
ENDBRANCH  16  17
ENDBRANCH  15  16
ENDBRANCH   1  15
TORSDOF 22
ENDMDL
MODEL 2
REMARK VINA RESULT:     1.810      7.159      9.434
REMARK INTER + INTRA:           6.983
REMARK INTER:                   7.832
REMARK INTRA:                  -0.849
REMARK UNBOUND:                 2.846
REMARK SMILES CCCCCCCCCCCCCCCCCCCCCCCC(=O)[O-]
REMARK SMILES IDX 13 1 14 2 15 3 16 4 17 5 18 6 19 7 20 8 21 9 22 10 23 11
REMARK SMILES IDX 24 12 25 13 26 14 12 15 11 16 10 17 9 18 8 19 7 20 6 21 5 22
REMARK SMILES IDX 4 23 3 24 2 25 1 26
REMARK H PARENT
REMARK Flexibility Score: inf
ROOT
ATOM      1  C   UNL     1     -13.465   3.048  -0.152  1.00  0.00     0.000 C 
ENDROOT
BRANCH   1   2
ATOM      2  C   UNL     1     -14.346   1.909   0.381  1.00  0.00     0.000 C 
BRANCH   2   3
ATOM      3  C   UNL     1     -15.662   1.812  -0.408  1.00  0.00     0.000 C 
BRANCH   3   4
ATOM      4  C   UNL     1     -16.419   0.502  -0.138  1.00  0.00     0.000 C 
BRANCH   4   5
ATOM      5  C   UNL     1     -16.776  -0.253  -1.428  1.00  0.00     0.000 C 
BRANCH   5   6
ATOM      6  C   UNL     1     -16.959  -1.767  -1.195  1.00  0.00     0.000 C 
BRANCH   6   7
ATOM      7  C   UNL     1     -16.791  -2.620  -2.467  1.00  0.00     0.000 C 
BRANCH   7   8
ATOM      8  C   UNL     1     -16.412  -1.785  -3.700  1.00  0.00     0.000 C 
BRANCH   8   9
ATOM      9  C   UNL     1     -15.245  -2.398  -4.490  1.00  0.00     0.000 C 
BRANCH   9  10
ATOM     10  C   UNL     1     -15.602  -3.760  -5.105  1.00  0.00     0.006 C 
BRANCH  10  11
ATOM     11  C   UNL     1     -15.058  -4.907  -4.246  1.00  0.00     0.053 C 
BRANCH  11  12
ATOM     12  C   UNL     1     -13.573  -4.802  -4.092  1.00  0.00     0.041 C 
ATOM     13  O   UNL     1     -13.049  -4.846  -2.947  1.00  0.00    -0.550 OA
ATOM     14  O   UNL     1     -12.765  -4.642  -5.214  1.00  0.00    -0.550 OA
ENDBRANCH  11  12
ENDBRANCH  10  11
ENDBRANCH   9  10
ENDBRANCH   8   9
ENDBRANCH   7   8
ENDBRANCH   6   7
ENDBRANCH   5   6
ENDBRANCH   4   5
ENDBRANCH   3   4
ENDBRANCH   2   3
ENDBRANCH   1   2
BRANCH   1  15
ATOM     15  C   UNL     1     -12.473   3.578   0.900  1.00  0.00     0.000 C 
BRANCH  15  16
ATOM     16  C   UNL     1     -11.019   3.093   0.732  1.00  0.00     0.000 C 
BRANCH  16  17
ATOM     17  C   UNL     1      -9.997   4.188   0.377  1.00  0.00     0.000 C 
BRANCH  17  18
ATOM     18  C   UNL     1      -8.561   3.820   0.792  1.00  0.00    -0.000 C 
BRANCH  18  19
ATOM     19  C   UNL     1      -8.039   2.555   0.085  1.00  0.00    -0.000 C 
BRANCH  19  20
ATOM     20  C   UNL     1      -6.549   2.239   0.321  1.00  0.00    -0.000 C 
BRANCH  20  21
ATOM     21  C   UNL     1      -5.776   3.295   1.135  1.00  0.00    -0.000 C 
BRANCH  21  22
ATOM     22  C   UNL     1      -4.357   3.585   0.595  1.00  0.00    -0.000 C 
BRANCH  22  23
ATOM     23  C   UNL     1      -3.253   3.186   1.589  1.00  0.00    -0.000 C 
BRANCH  23  24
ATOM     24  C   UNL     1      -3.765   2.274   2.718  1.00  0.00    -0.000 C 
BRANCH  24  25
ATOM     25  C   UNL     1      -2.809   2.122   3.914  1.00  0.00    -0.003 C 
ATOM     26  C   UNL     1      -2.887   0.744   4.573  1.00  0.00     0.004 C 
ENDBRANCH  24  25
ENDBRANCH  23  24
ENDBRANCH  22  23
ENDBRANCH  21  22
ENDBRANCH  20  21
ENDBRANCH  19  20
ENDBRANCH  18  19
ENDBRANCH  17  18
ENDBRANCH  16  17
ENDBRANCH  15  16
ENDBRANCH   1  15
TORSDOF 22
ENDMDL
MODEL 3
REMARK VINA RESULT:     2.003      4.219      6.007
REMARK INTER + INTRA:           7.424
REMARK INTER:                   8.604
REMARK INTRA:                  -1.180
REMARK UNBOUND:                 2.846
REMARK SMILES CCCCCCCCCCCCCCCCCCCCCCCC(=O)[O-]
REMARK SMILES IDX 13 1 14 2 15 3 16 4 17 5 18 6 19 7 20 8 21 9 22 10 23 11
REMARK SMILES IDX 24 12 25 13 26 14 12 15 11 16 10 17 9 18 8 19 7 20 6 21 5 22
REMARK SMILES IDX 4 23 3 24 2 25 1 26
REMARK H PARENT
REMARK Flexibility Score: inf
ROOT
ATOM      1  C   UNL     1     -12.093  -4.006  -4.721  1.00  0.00     0.000 C 
ENDROOT
BRANCH   1   2
ATOM      2  C   UNL     1     -12.240  -4.768  -6.046  1.00  0.00     0.000 C 
BRANCH   2   3
ATOM      3  C   UNL     1     -13.711  -5.119  -6.320  1.00  0.00     0.000 C 
BRANCH   3   4
ATOM      4  C   UNL     1     -14.386  -4.131  -7.285  1.00  0.00     0.000 C 
BRANCH   4   5
ATOM      5  C   UNL     1     -15.757  -4.624  -7.776  1.00  0.00     0.000 C 
BRANCH   5   6
ATOM      6  C   UNL     1     -16.924  -4.039  -6.954  1.00  0.00     0.000 C 
BRANCH   6   7
ATOM      7  C   UNL     1     -16.646  -3.964  -5.441  1.00  0.00     0.000 C 
BRANCH   7   8
ATOM      8  C   UNL     1     -16.487  -2.523  -4.933  1.00  0.00     0.000 C 
BRANCH   8   9
ATOM      9  C   UNL     1     -17.125  -2.312  -3.550  1.00  0.00     0.000 C 
BRANCH   9  10
ATOM     10  C   UNL     1     -16.564  -1.078  -2.827  1.00  0.00     0.006 C 
BRANCH  10  11
ATOM     11  C   UNL     1     -16.737  -1.207  -1.310  1.00  0.00     0.053 C 
BRANCH  11  12
ATOM     12  C   UNL     1     -16.131  -0.035  -0.602  1.00  0.00     0.041 C 
ATOM     13  O   UNL     1     -15.265  -0.215   0.296  1.00  0.00    -0.550 OA
ATOM     14  O   UNL     1     -16.531   1.258  -0.924  1.00  0.00    -0.550 OA
ENDBRANCH  11  12
ENDBRANCH  10  11
ENDBRANCH   9  10
ENDBRANCH   8   9
ENDBRANCH   7   8
ENDBRANCH   6   7
ENDBRANCH   5   6
ENDBRANCH   4   5
ENDBRANCH   3   4
ENDBRANCH   2   3
ENDBRANCH   1   2
BRANCH   1  15
ATOM     15  C   UNL     1     -12.328  -4.898  -3.488  1.00  0.00     0.000 C 
BRANCH  15  16
ATOM     16  C   UNL     1     -13.381  -4.373  -2.491  1.00  0.00     0.000 C 
BRANCH  16  17
ATOM     17  C   UNL     1     -13.407  -5.085  -1.126  1.00  0.00     0.000 C 
BRANCH  17  18
ATOM     18  C   UNL     1     -12.071  -4.975  -0.372  1.00  0.00    -0.000 C 
BRANCH  18  19
ATOM     19  C   UNL     1     -11.517  -3.538  -0.339  1.00  0.00    -0.000 C 
BRANCH  19  20
ATOM     20  C   UNL     1     -10.339  -3.311   0.628  1.00  0.00    -0.000 C 
BRANCH  20  21
ATOM     21  C   UNL     1      -8.977  -3.841   0.140  1.00  0.00    -0.000 C 
BRANCH  21  22
ATOM     22  C   UNL     1      -8.136  -4.517   1.248  1.00  0.00    -0.000 C 
BRANCH  22  23
ATOM     23  C   UNL     1      -7.735  -3.538   2.365  1.00  0.00    -0.000 C 
BRANCH  23  24
ATOM     24  C   UNL     1      -7.289  -4.252   3.654  1.00  0.00    -0.000 C 
BRANCH  24  25
ATOM     25  C   UNL     1      -6.118  -3.581   4.395  1.00  0.00    -0.003 C 
ATOM     26  C   UNL     1      -5.747  -4.293   5.696  1.00  0.00     0.004 C 
ENDBRANCH  24  25
ENDBRANCH  23  24
ENDBRANCH  22  23
ENDBRANCH  21  22
ENDBRANCH  20  21
ENDBRANCH  19  20
ENDBRANCH  18  19
ENDBRANCH  17  18
ENDBRANCH  16  17
ENDBRANCH  15  16
ENDBRANCH   1  15
TORSDOF 22
ENDMDL
MODEL 4
REMARK VINA RESULT:     2.049      5.828      8.017
REMARK INTER + INTRA:           7.531
REMARK INTER:                   8.527
REMARK INTRA:                  -0.996
REMARK UNBOUND:                 2.846
REMARK SMILES CCCCCCCCCCCCCCCCCCCCCCCC(=O)[O-]
REMARK SMILES IDX 13 1 14 2 15 3 16 4 17 5 18 6 19 7 20 8 21 9 22 10 23 11
REMARK SMILES IDX 24 12 25 13 26 14 12 15 11 16 10 17 9 18 8 19 7 20 6 21 5 22
REMARK SMILES IDX 4 23 3 24 2 25 1 26
REMARK H PARENT
REMARK Flexibility Score: inf
ROOT
ATOM      1  C   UNL     1     -16.760   1.085  -0.735  1.00  0.00     0.000 C 
ENDROOT
BRANCH   1   2
ATOM      2  C   UNL     1     -16.311  -0.195  -1.457  1.00  0.00     0.000 C 
BRANCH   2   3
ATOM      3  C   UNL     1     -17.096  -0.397  -2.762  1.00  0.00     0.000 C 
BRANCH   3   4
ATOM      4  C   UNL     1     -16.884  -1.794  -3.370  1.00  0.00     0.000 C 
BRANCH   4   5
ATOM      5  C   UNL     1     -16.931  -2.912  -2.316  1.00  0.00     0.000 C 
BRANCH   5   6
ATOM      6  C   UNL     1     -16.101  -4.146  -2.727  1.00  0.00     0.000 C 
BRANCH   6   7
ATOM      7  C   UNL     1     -14.612  -4.051  -2.347  1.00  0.00     0.000 C 
BRANCH   7   8
ATOM      8  C   UNL     1     -13.728  -5.021  -3.147  1.00  0.00     0.000 C 
BRANCH   8   9
ATOM      9  C   UNL     1     -12.960  -4.322  -4.279  1.00  0.00     0.000 C 
BRANCH   9  10
ATOM     10  C   UNL     1     -13.426  -4.774  -5.672  1.00  0.00     0.006 C 
BRANCH  10  11
ATOM     11  C   UNL     1     -14.950  -4.679  -5.797  1.00  0.00     0.053 C 
BRANCH  11  12
ATOM     12  C   UNL     1     -15.344  -3.509  -6.645  1.00  0.00     0.041 C 
ATOM     13  O   UNL     1     -15.065  -2.337  -6.278  1.00  0.00    -0.550 OA
ATOM     14  O   UNL     1     -16.032  -3.713  -7.838  1.00  0.00    -0.550 OA
ENDBRANCH  11  12
ENDBRANCH  10  11
ENDBRANCH   9  10
ENDBRANCH   8   9
ENDBRANCH   7   8
ENDBRANCH   6   7
ENDBRANCH   5   6
ENDBRANCH   4   5
ENDBRANCH   3   4
ENDBRANCH   2   3
ENDBRANCH   1   2
BRANCH   1  15
ATOM     15  C   UNL     1     -15.736   1.575   0.305  1.00  0.00     0.000 C 
BRANCH  15  16
ATOM     16  C   UNL     1     -14.576   2.416  -0.265  1.00  0.00     0.000 C 
BRANCH  16  17
ATOM     17  C   UNL     1     -13.224   2.241   0.450  1.00  0.00     0.000 C 
BRANCH  17  18
ATOM     18  C   UNL     1     -12.317   3.477   0.318  1.00  0.00    -0.000 C 
BRANCH  18  19
ATOM     19  C   UNL     1     -11.137   3.464   1.309  1.00  0.00    -0.000 C 
BRANCH  19  20
ATOM     20  C   UNL     1      -9.779   3.053   0.707  1.00  0.00    -0.000 C 
BRANCH  20  21
ATOM     21  C   UNL     1      -8.543   3.640   1.415  1.00  0.00    -0.000 C 
BRANCH  21  22
ATOM     22  C   UNL     1      -7.229   3.476   0.617  1.00  0.00    -0.000 C 
BRANCH  22  23
ATOM     23  C   UNL     1      -5.992   3.916   1.419  1.00  0.00    -0.000 C 
BRANCH  23  24
ATOM     24  C   UNL     1      -4.684   3.793   0.618  1.00  0.00    -0.000 C 
BRANCH  24  25
ATOM     25  C   UNL     1      -3.626   2.864   1.242  1.00  0.00    -0.003 C 
ATOM     26  C   UNL     1      -3.785   2.706   2.755  1.00  0.00     0.004 C 
ENDBRANCH  24  25
ENDBRANCH  23  24
ENDBRANCH  22  23
ENDBRANCH  21  22
ENDBRANCH  20  21
ENDBRANCH  19  20
ENDBRANCH  18  19
ENDBRANCH  17  18
ENDBRANCH  16  17
ENDBRANCH  15  16
ENDBRANCH   1  15
TORSDOF 22
ENDMDL
MODEL 5
REMARK VINA RESULT:     2.626      6.110     10.525
REMARK INTER + INTRA:           8.850
REMARK INTER:                   9.904
REMARK INTRA:                  -1.055
REMARK UNBOUND:                 2.846
REMARK SMILES CCCCCCCCCCCCCCCCCCCCCCCC(=O)[O-]
REMARK SMILES IDX 13 1 14 2 15 3 16 4 17 5 18 6 19 7 20 8 21 9 22 10 23 11
REMARK SMILES IDX 24 12 25 13 26 14 12 15 11 16 10 17 9 18 8 19 7 20 6 21 5 22
REMARK SMILES IDX 4 23 3 24 2 25 1 26
REMARK H PARENT
REMARK Flexibility Score: inf
ROOT
ATOM      1  C   UNL     1     -16.006   0.095  -0.073  1.00  0.00     0.000 C 
ENDROOT
BRANCH   1   2
ATOM      2  C   UNL     1     -16.037   1.575  -0.480  1.00  0.00     0.000 C 
BRANCH   2   3
ATOM      3  C   UNL     1     -15.168   2.425   0.460  1.00  0.00     0.000 C 
BRANCH   3   4
ATOM      4  C   UNL     1     -13.742   2.629  -0.075  1.00  0.00     0.000 C 
BRANCH   4   5
ATOM      5  C   UNL     1     -12.967   3.709   0.699  1.00  0.00     0.000 C 
BRANCH   5   6
ATOM      6  C   UNL     1     -11.446   3.450   0.710  1.00  0.00     0.000 C 
BRANCH   6   7
ATOM      7  C   UNL     1     -10.657   4.322  -0.283  1.00  0.00     0.000 C 
BRANCH   7   8
ATOM      8  C   UNL     1      -9.233   4.639   0.200  1.00  0.00     0.000 C 
BRANCH   8   9
ATOM      9  C   UNL     1      -8.478   3.385   0.669  1.00  0.00     0.000 C 
BRANCH   9  10
ATOM     10  C   UNL     1      -7.103   3.718   1.270  1.00  0.00     0.006 C 
BRANCH  10  11
ATOM     11  C   UNL     1      -6.031   2.753   0.751  1.00  0.00     0.053 C 
BRANCH  11  12
ATOM     12  C   UNL     1      -4.672   3.376   0.825  1.00  0.00     0.041 C 
ATOM     13  O   UNL     1      -4.242   4.076  -0.131  1.00  0.00    -0.550 OA
ATOM     14  O   UNL     1      -3.872   3.175   1.945  1.00  0.00    -0.550 OA
ENDBRANCH  11  12
ENDBRANCH  10  11
ENDBRANCH   9  10
ENDBRANCH   8   9
ENDBRANCH   7   8
ENDBRANCH   6   7
ENDBRANCH   5   6
ENDBRANCH   4   5
ENDBRANCH   3   4
ENDBRANCH   2   3
ENDBRANCH   1   2
BRANCH   1  15
ATOM     15  C   UNL     1     -16.676  -0.824  -1.112  1.00  0.00     0.000 C 
BRANCH  15  16
ATOM     16  C   UNL     1     -16.246  -2.304  -1.051  1.00  0.00     0.000 C 
BRANCH  16  17
ATOM     17  C   UNL     1     -16.957  -3.238  -2.047  1.00  0.00     0.000 C 
BRANCH  17  18
ATOM     18  C   UNL     1     -16.037  -3.701  -3.190  1.00  0.00    -0.000 C 
BRANCH  18  19
ATOM     19  C   UNL     1     -15.304  -5.018  -2.874  1.00  0.00    -0.000 C 
BRANCH  19  20
ATOM     20  C   UNL     1     -13.789  -5.010  -3.156  1.00  0.00    -0.000 C 
BRANCH  20  21
ATOM     21  C   UNL     1     -13.336  -4.064  -4.284  1.00  0.00    -0.000 C 
BRANCH  21  22
ATOM     22  C   UNL     1     -13.088  -4.775  -5.635  1.00  0.00    -0.000 C 
BRANCH  22  23
ATOM     23  C   UNL     1     -14.395  -5.125  -6.367  1.00  0.00    -0.000 C 
BRANCH  23  24
ATOM     24  C   UNL     1     -15.322  -3.911  -6.551  1.00  0.00    -0.000 C 
BRANCH  24  25
ATOM     25  C   UNL     1     -16.581  -4.178  -7.396  1.00  0.00    -0.003 C 
ATOM     26  C   UNL     1     -16.294  -4.232  -8.898  1.00  0.00     0.004 C 
ENDBRANCH  24  25
ENDBRANCH  23  24
ENDBRANCH  22  23
ENDBRANCH  21  22
ENDBRANCH  20  21
ENDBRANCH  19  20
ENDBRANCH  18  19
ENDBRANCH  17  18
ENDBRANCH  16  17
ENDBRANCH  15  16
ENDBRANCH   1  15
TORSDOF 22
ENDMDL
MODEL 6
REMARK VINA RESULT:     2.753      8.125     10.497
REMARK INTER + INTRA:           9.140
REMARK INTER:                  10.050
REMARK INTRA:                  -0.910
REMARK UNBOUND:                 2.846
REMARK SMILES CCCCCCCCCCCCCCCCCCCCCCCC(=O)[O-]
REMARK SMILES IDX 13 1 14 2 15 3 16 4 17 5 18 6 19 7 20 8 21 9 22 10 23 11
REMARK SMILES IDX 24 12 25 13 26 14 12 15 11 16 10 17 9 18 8 19 7 20 6 21 5 22
REMARK SMILES IDX 4 23 3 24 2 25 1 26
REMARK H PARENT
REMARK Flexibility Score: inf
ROOT
ATOM      1  C   UNL     1     -11.233   3.133   0.970  1.00  0.00     0.000 C 
ENDROOT
BRANCH   1   2
ATOM      2  C   UNL     1     -12.592   3.489   0.351  1.00  0.00     0.000 C 
BRANCH   2   3
ATOM      3  C   UNL     1     -13.659   2.447   0.721  1.00  0.00     0.000 C 
BRANCH   3   4
ATOM      4  C   UNL     1     -14.782   2.351  -0.325  1.00  0.00     0.000 C 
BRANCH   4   5
ATOM      5  C   UNL     1     -15.897   1.379   0.091  1.00  0.00     0.000 C 
BRANCH   5   6
ATOM      6  C   UNL     1     -16.420   0.539  -1.094  1.00  0.00     0.000 C 
BRANCH   6   7
ATOM      7  C   UNL     1     -16.936  -0.855  -0.691  1.00  0.00     0.000 C 
BRANCH   7   8
ATOM      8  C   UNL     1     -16.488  -1.961  -1.659  1.00  0.00     0.000 C 
BRANCH   8   9
ATOM      9  C   UNL     1     -16.534  -1.512  -3.128  1.00  0.00     0.000 C 
BRANCH   9  10
ATOM     10  C   UNL     1     -16.515  -2.698  -4.105  1.00  0.00     0.006 C 
BRANCH  10  11
ATOM     11  C   UNL     1     -15.208  -2.729  -4.904  1.00  0.00     0.053 C 
BRANCH  11  12
ATOM     12  C   UNL     1     -14.540  -4.064  -4.784  1.00  0.00     0.041 C 
ATOM     13  O   UNL     1     -14.547  -4.680  -3.686  1.00  0.00    -0.550 OA
ATOM     14  O   UNL     1     -13.900  -4.624  -5.885  1.00  0.00    -0.550 OA
ENDBRANCH  11  12
ENDBRANCH  10  11
ENDBRANCH   9  10
ENDBRANCH   8   9
ENDBRANCH   7   8
ENDBRANCH   6   7
ENDBRANCH   5   6
ENDBRANCH   4   5
ENDBRANCH   3   4
ENDBRANCH   2   3
ENDBRANCH   1   2
BRANCH   1  15
ATOM     15  C   UNL     1     -10.071   3.943   0.367  1.00  0.00     0.000 C 
BRANCH  15  16
ATOM     16  C   UNL     1      -8.662   3.497   0.811  1.00  0.00     0.000 C 
BRANCH  16  17
ATOM     17  C   UNL     1      -8.178   2.161   0.219  1.00  0.00     0.000 C 
BRANCH  17  18
ATOM     18  C   UNL     1      -6.645   2.072   0.125  1.00  0.00    -0.000 C 
BRANCH  18  19
ATOM     19  C   UNL     1      -5.936   3.319   0.687  1.00  0.00    -0.000 C 
BRANCH  19  20
ATOM     20  C   UNL     1      -4.398   3.292   0.606  1.00  0.00    -0.000 C 
BRANCH  20  21
ATOM     21  C   UNL     1      -3.668   3.398   1.958  1.00  0.00    -0.000 C 
BRANCH  21  22
ATOM     22  C   UNL     1      -3.349   2.031   2.606  1.00  0.00    -0.000 C 
BRANCH  22  23
ATOM     23  C   UNL     1      -2.997   2.152   4.099  1.00  0.00    -0.000 C 
BRANCH  23  24
ATOM     24  C   UNL     1      -2.888   0.788   4.802  1.00  0.00    -0.000 C 
BRANCH  24  25
ATOM     25  C   UNL     1      -1.623  -0.019   4.459  1.00  0.00    -0.003 C 
ATOM     26  C   UNL     1      -0.339   0.807   4.563  1.00  0.00     0.004 C 
ENDBRANCH  24  25
ENDBRANCH  23  24
ENDBRANCH  22  23
ENDBRANCH  21  22
ENDBRANCH  20  21
ENDBRANCH  19  20
ENDBRANCH  18  19
ENDBRANCH  17  18
ENDBRANCH  16  17
ENDBRANCH  15  16
ENDBRANCH   1  15
TORSDOF 22
ENDMDL
MODEL 7
REMARK VINA RESULT:     3.003      7.041     10.957
REMARK INTER + INTRA:           9.712
REMARK INTER:                  10.856
REMARK INTRA:                  -1.144
REMARK UNBOUND:                 2.846
REMARK SMILES CCCCCCCCCCCCCCCCCCCCCCCC(=O)[O-]
REMARK SMILES IDX 13 1 14 2 15 3 16 4 17 5 18 6 19 7 20 8 21 9 22 10 23 11
REMARK SMILES IDX 24 12 25 13 26 14 12 15 11 16 10 17 9 18 8 19 7 20 6 21 5 22
REMARK SMILES IDX 4 23 3 24 2 25 1 26
REMARK H PARENT
REMARK Flexibility Score: inf
ROOT
ATOM      1  C   UNL     1     -14.593   1.937   0.512  1.00  0.00     0.000 C 
ENDROOT
BRANCH   1   2
ATOM      2  C   UNL     1     -13.637   3.031   0.012  1.00  0.00     0.000 C 
BRANCH   2   3
ATOM      3  C   UNL     1     -12.646   3.444   1.111  1.00  0.00     0.000 C 
BRANCH   3   4
ATOM      4  C   UNL     1     -11.184   3.164   0.726  1.00  0.00     0.000 C 
BRANCH   4   5
ATOM      5  C   UNL     1     -10.539   4.330  -0.039  1.00  0.00     0.000 C 
BRANCH   5   6
ATOM      6  C   UNL     1      -9.127   4.669   0.483  1.00  0.00     0.000 C 
BRANCH   6   7
ATOM      7  C   UNL     1      -8.412   3.487   1.163  1.00  0.00     0.000 C 
BRANCH   7   8
ATOM      8  C   UNL     1      -7.838   2.478   0.157  1.00  0.00     0.000 C 
BRANCH   8   9
ATOM      9  C   UNL     1      -6.412   2.031   0.519  1.00  0.00     0.000 C 
BRANCH   9  10
ATOM     10  C   UNL     1      -5.337   2.938  -0.101  1.00  0.00     0.006 C 
BRANCH  10  11
ATOM     11  C   UNL     1      -4.729   3.867   0.954  1.00  0.00     0.053 C 
BRANCH  11  12
ATOM     12  C   UNL     1      -3.585   3.202   1.655  1.00  0.00     0.041 C 
ATOM     13  O   UNL     1      -3.708   2.820   2.849  1.00  0.00    -0.550 OA
ATOM     14  O   UNL     1      -2.376   3.014   0.992  1.00  0.00    -0.550 OA
ENDBRANCH  11  12
ENDBRANCH  10  11
ENDBRANCH   9  10
ENDBRANCH   8   9
ENDBRANCH   7   8
ENDBRANCH   6   7
ENDBRANCH   5   6
ENDBRANCH   4   5
ENDBRANCH   3   4
ENDBRANCH   2   3
ENDBRANCH   1   2
BRANCH   1  15
ATOM     15  C   UNL     1     -15.847   1.791  -0.369  1.00  0.00     0.000 C 
BRANCH  15  16
ATOM     16  C   UNL     1     -15.913   0.494  -1.203  1.00  0.00     0.000 C 
BRANCH  16  17
ATOM     17  C   UNL     1     -16.082  -0.802  -0.391  1.00  0.00     0.000 C 
BRANCH  17  18
ATOM     18  C   UNL     1     -17.125  -1.755  -1.001  1.00  0.00    -0.000 C 
BRANCH  18  19
ATOM     19  C   UNL     1     -16.535  -2.674  -2.087  1.00  0.00    -0.000 C 
BRANCH  19  20
ATOM     20  C   UNL     1     -15.162  -3.290  -1.752  1.00  0.00    -0.000 C 
BRANCH  20  21
ATOM     21  C   UNL     1     -14.852  -4.625  -2.456  1.00  0.00    -0.000 C 
BRANCH  21  22
ATOM     22  C   UNL     1     -13.372  -4.784  -2.871  1.00  0.00    -0.000 C 
BRANCH  22  23
ATOM     23  C   UNL     1     -13.184  -4.795  -4.398  1.00  0.00    -0.000 C 
BRANCH  23  24
ATOM     24  C   UNL     1     -14.289  -4.025  -5.142  1.00  0.00    -0.000 C 
BRANCH  24  25
ATOM     25  C   UNL     1     -15.006  -4.825  -6.245  1.00  0.00    -0.003 C 
ATOM     26  C   UNL     1     -16.502  -4.515  -6.333  1.00  0.00     0.004 C 
ENDBRANCH  24  25
ENDBRANCH  23  24
ENDBRANCH  22  23
ENDBRANCH  21  22
ENDBRANCH  20  21
ENDBRANCH  19  20
ENDBRANCH  18  19
ENDBRANCH  17  18
ENDBRANCH  16  17
ENDBRANCH  15  16
ENDBRANCH   1  15
TORSDOF 22
ENDMDL
