MODEL 1
REMARK VINA RESULT:    -4.711      0.000      0.000
REMARK INTER + INTRA:          -6.155
REMARK INTER:                  -5.813
REMARK INTRA:                  -0.342
REMARK UNBOUND:                -0.342
REMARK SMILES O=c1c(O)c(-c2cc(O)c(O)c(O)c2)oc2cc(O)cc(O)c12
REMARK SMILES IDX 5 1 3 2 2 3 1 4 23 5 21 6 20 7 18 8 17 9 16 10 15 11 6 12
REMARK SMILES IDX 7 13 8 14 14 15 10 16 12 17 9 18 11 20 13 22 4 24 22 26
REMARK SMILES IDX 19 28
REMARK H PARENT 9 19 11 21 13 23 4 25 22 27 19 29
REMARK Flexibility Score: inf
ROOT
ATOM      1  C   UNL     1     -99.946  42.572   9.083  1.00  0.00     0.180 A 
ATOM      2  C   UNL     1    -101.343  42.718   9.030  1.00  0.00     0.208 A 
ATOM      3  C   UNL     1    -101.951  43.010   7.798  1.00  0.00     0.238 A 
ATOM      4  O   UNL     1    -103.196  43.195   7.767  1.00  0.00    -0.285 OA
ATOM      5  C   UNL     1    -101.158  43.136   6.633  1.00  0.00     0.111 A 
ATOM      6  C   UNL     1    -101.671  43.389   5.325  1.00  0.00     0.134 A 
ATOM      7  C   UNL     1    -100.784  43.624   4.268  1.00  0.00     0.093 A 
ATOM      8  C   UNL     1     -99.402  43.548   4.458  1.00  0.00     0.123 A 
ATOM      9  C   UNL     1     -98.892  43.242   5.717  1.00  0.00     0.094 A 
ATOM     10  C   UNL     1     -99.751  43.039   6.799  1.00  0.00     0.146 A 
ATOM     11  O   UNL     1     -99.223  42.760   7.985  1.00  0.00    -0.452 OA
ENDROOT
BRANCH   1  12
ATOM     12  C   UNL     1     -99.236  42.240  10.339  1.00  0.00     0.029 A 
ATOM     13  C   UNL     1     -98.943  40.901  10.634  1.00  0.00     0.062 A 
ATOM     14  C   UNL     1     -98.292  40.556  11.823  1.00  0.00     0.162 A 
ATOM     15  C   UNL     1     -98.899  43.236  11.273  1.00  0.00     0.062 A 
ATOM     16  C   UNL     1     -97.938  41.557  12.744  1.00  0.00     0.200 A 
ATOM     17  C   UNL     1     -98.248  42.900  12.468  1.00  0.00     0.162 A 
BRANCH  14  18
ATOM     18  O   UNL     1     -98.006  39.214  12.073  1.00  0.00    -0.504 OA
ATOM     19  H   UNL     1     -97.381  38.925  12.815  1.00  0.00     0.293 HD
ENDBRANCH  14  18
BRANCH  16  20
ATOM     20  O   UNL     1     -97.286  41.206  13.927  1.00  0.00    -0.502 OA
ATOM     21  H   UNL     1     -96.358  41.543  14.153  1.00  0.00     0.293 HD
ENDBRANCH  16  20
BRANCH  17  22
ATOM     22  O   UNL     1     -97.913  43.895  13.383  1.00  0.00    -0.504 OA
ATOM     23  H   UNL     1     -98.023  44.879  13.163  1.00  0.00     0.293 HD
ENDBRANCH  17  22
ENDBRANCH   1  12
BRANCH   2  24
ATOM     24  O   UNL     1    -102.105  42.613  10.196  1.00  0.00    -0.502 OA
ATOM     25  H   UNL     1    -101.941  41.894  10.891  1.00  0.00     0.293 HD
ENDBRANCH   2  24
BRANCH   6  26
ATOM     26  O   UNL     1    -103.033  43.396   5.010  1.00  0.00    -0.507 OA
ATOM     27  H   UNL     1    -103.769  43.673   5.643  1.00  0.00     0.293 HD
ENDBRANCH   6  26
BRANCH   8  28
ATOM     28  O   UNL     1     -98.525  43.767   3.397  1.00  0.00    -0.508 OA
ATOM     29  H   UNL     1     -98.331  44.700   3.054  1.00  0.00     0.293 HD
ENDBRANCH   8  28
TORSDOF 7
ENDMDL
MODEL 2
REMARK VINA RESULT:    -4.688      0.110      1.757
REMARK INTER + INTRA:          -6.127
REMARK INTER:                  -5.770
REMARK INTRA:                  -0.357
REMARK UNBOUND:                -0.342
REMARK SMILES O=c1c(O)c(-c2cc(O)c(O)c(O)c2)oc2cc(O)cc(O)c12
REMARK SMILES IDX 5 1 3 2 2 3 1 4 23 5 21 6 20 7 18 8 17 9 16 10 15 11 6 12
REMARK SMILES IDX 7 13 8 14 14 15 10 16 12 17 9 18 11 20 13 22 4 24 22 26
REMARK SMILES IDX 19 28
REMARK H PARENT 9 19 11 21 13 23 4 25 22 27 19 29
REMARK Flexibility Score: inf
ROOT
ATOM      1  C   UNL     1    -100.014  42.501   9.157  1.00  0.00     0.180 A 
ATOM      2  C   UNL     1    -101.411  42.645   9.102  1.00  0.00     0.208 A 
ATOM      3  C   UNL     1    -102.016  42.951   7.871  1.00  0.00     0.238 A 
ATOM      4  O   UNL     1    -103.261  43.133   7.838  1.00  0.00    -0.285 OA
ATOM      5  C   UNL     1    -101.218  43.092   6.711  1.00  0.00     0.111 A 
ATOM      6  C   UNL     1    -101.728  43.360   5.404  1.00  0.00     0.134 A 
ATOM      7  C   UNL     1    -100.838  43.609   4.353  1.00  0.00     0.093 A 
ATOM      8  C   UNL     1     -99.456  43.534   4.547  1.00  0.00     0.123 A 
ATOM      9  C   UNL     1     -98.950  43.214   5.803  1.00  0.00     0.094 A 
ATOM     10  C   UNL     1     -99.812  42.996   6.880  1.00  0.00     0.146 A 
ATOM     11  O   UNL     1     -99.288  42.704   8.064  1.00  0.00    -0.452 OA
ENDROOT
BRANCH   1  12
ATOM     12  C   UNL     1     -99.307  42.155  10.412  1.00  0.00     0.029 A 
ATOM     13  C   UNL     1     -98.891  43.180  11.274  1.00  0.00     0.062 A 
ATOM     14  C   UNL     1     -98.203  42.884  12.456  1.00  0.00     0.162 A 
ATOM     15  C   UNL     1     -98.992  40.823  10.730  1.00  0.00     0.062 A 
ATOM     16  C   UNL     1     -97.909  41.549  12.781  1.00  0.00     0.200 A 
ATOM     17  C   UNL     1     -98.301  40.517  11.910  1.00  0.00     0.162 A 
BRANCH  14  18
ATOM     18  O   UNL     1     -97.819  43.930  13.294  1.00  0.00    -0.504 OA
ATOM     19  H   UNL     1     -98.142  44.880  13.153  1.00  0.00     0.293 HD
ENDBRANCH  14  18
BRANCH  16  20
ATOM     20  O   UNL     1     -97.224  41.261  13.962  1.00  0.00    -0.502 OA
ATOM     21  H   UNL     1     -96.534  40.522  14.021  1.00  0.00     0.293 HD
ENDBRANCH  16  20
BRANCH  17  22
ATOM     22  O   UNL     1     -97.999  39.192  12.219  1.00  0.00    -0.504 OA
ATOM     23  H   UNL     1     -98.650  38.440  12.023  1.00  0.00     0.293 HD
ENDBRANCH  17  22
ENDBRANCH   1  12
BRANCH   2  24
ATOM     24  O   UNL     1    -102.177  42.524  10.264  1.00  0.00    -0.502 OA
ATOM     25  H   UNL     1    -103.166  42.305  10.243  1.00  0.00     0.293 HD
ENDBRANCH   2  24
BRANCH   6  26
ATOM     26  O   UNL     1    -103.089  43.368   5.084  1.00  0.00    -0.507 OA
ATOM     27  H   UNL     1    -103.719  42.592   5.230  1.00  0.00     0.293 HD
ENDBRANCH   6  26
BRANCH   8  28
ATOM     28  O   UNL     1     -98.577  43.767   3.491  1.00  0.00    -0.508 OA
ATOM     29  H   UNL     1     -98.513  44.675   3.045  1.00  0.00     0.293 HD
ENDBRANCH   8  28
TORSDOF 7
ENDMDL
MODEL 3
REMARK VINA RESULT:    -4.601      3.351      6.192
REMARK INTER + INTRA:          -6.019
REMARK INTER:                  -5.656
REMARK INTRA:                  -0.363
REMARK UNBOUND:                -0.342
REMARK SMILES O=c1c(O)c(-c2cc(O)c(O)c(O)c2)oc2cc(O)cc(O)c12
REMARK SMILES IDX 5 1 3 2 2 3 1 4 23 5 21 6 20 7 18 8 17 9 16 10 15 11 6 12
REMARK SMILES IDX 7 13 8 14 14 15 10 16 12 17 9 18 11 20 13 22 4 24 22 26
REMARK SMILES IDX 19 28
REMARK H PARENT 9 19 11 21 13 23 4 25 22 27 19 29
REMARK Flexibility Score: inf
ROOT
ATOM      1  C   UNL     1     -99.959  44.073   3.544  1.00  0.00     0.180 A 
ATOM      2  C   UNL     1    -101.083  44.722   3.006  1.00  0.00     0.208 A 
ATOM      3  C   UNL     1    -100.994  45.289   1.723  1.00  0.00     0.238 A 
ATOM      4  O   UNL     1    -101.985  45.917   1.269  1.00  0.00    -0.285 OA
ATOM      5  C   UNL     1     -99.788  45.184   0.990  1.00  0.00     0.111 A 
ATOM      6  C   UNL     1     -99.597  45.684  -0.334  1.00  0.00     0.134 A 
ATOM      7  C   UNL     1     -98.323  45.641  -0.912  1.00  0.00     0.093 A 
ATOM      8  C   UNL     1     -97.248  45.053  -0.240  1.00  0.00     0.123 A 
ATOM      9  C   UNL     1     -97.437  44.509   1.027  1.00  0.00     0.094 A 
ATOM     10  C   UNL     1     -98.688  44.570   1.645  1.00  0.00     0.146 A 
ATOM     11  O   UNL     1     -98.823  44.048   2.859  1.00  0.00    -0.452 OA
ENDROOT
BRANCH   1  12
ATOM     12  C   UNL     1     -99.984  43.431   4.878  1.00  0.00     0.029 A 
ATOM     13  C   UNL     1     -99.614  44.173   6.009  1.00  0.00     0.062 A 
ATOM     14  C   UNL     1     -99.608  43.587   7.279  1.00  0.00     0.162 A 
ATOM     15  C   UNL     1    -100.317  42.073   5.030  1.00  0.00     0.062 A 
ATOM     16  C   UNL     1     -99.962  42.236   7.429  1.00  0.00     0.200 A 
ATOM     17  C   UNL     1    -100.312  41.477   6.299  1.00  0.00     0.162 A 
BRANCH  14  18
ATOM     18  O   UNL     1     -99.247  44.363   8.380  1.00  0.00    -0.504 OA
ATOM     19  H   UNL     1     -99.840  45.103   8.735  1.00  0.00     0.293 HD
ENDBRANCH  14  18
BRANCH  16  20
ATOM     20  O   UNL     1     -99.956  41.658   8.699  1.00  0.00    -0.502 OA
ATOM     21  H   UNL     1     -99.809  40.666   8.842  1.00  0.00     0.293 HD
ENDBRANCH  16  20
BRANCH  17  22
ATOM     22  O   UNL     1    -100.650  40.132   6.439  1.00  0.00    -0.504 OA
ATOM     23  H   UNL     1    -100.542  39.646   7.322  1.00  0.00     0.293 HD
ENDBRANCH  17  22
ENDBRANCH   1  12
BRANCH   2  24
ATOM     24  O   UNL     1    -102.257  44.834   3.756  1.00  0.00    -0.502 OA
ATOM     25  H   UNL     1    -102.283  44.661   4.754  1.00  0.00     0.293 HD
ENDBRANCH   2  24
BRANCH   6  26
ATOM     26  O   UNL     1    -100.625  46.206  -1.125  1.00  0.00    -0.507 OA
ATOM     27  H   UNL     1    -101.381  46.779  -0.781  1.00  0.00     0.293 HD
ENDBRANCH   6  26
BRANCH   8  28
ATOM     28  O   UNL     1     -95.986  44.999  -0.830  1.00  0.00    -0.508 OA
ATOM     29  H   UNL     1     -95.227  44.475  -0.410  1.00  0.00     0.293 HD
ENDBRANCH   8  28
TORSDOF 7
ENDMDL
MODEL 4
REMARK VINA RESULT:    -4.598      1.560      7.102
REMARK INTER + INTRA:          -6.015
REMARK INTER:                  -5.676
REMARK INTRA:                  -0.339
REMARK UNBOUND:                -0.342
REMARK SMILES O=c1c(O)c(-c2cc(O)c(O)c(O)c2)oc2cc(O)cc(O)c12
REMARK SMILES IDX 5 1 3 2 2 3 1 4 23 5 21 6 20 7 18 8 17 9 16 10 15 11 6 12
REMARK SMILES IDX 7 13 8 14 14 15 10 16 12 17 9 18 11 20 13 22 4 24 22 26
REMARK SMILES IDX 19 28
REMARK H PARENT 9 19 11 21 13 23 4 25 22 27 19 29
REMARK Flexibility Score: inf
ROOT
ATOM      1  C   UNL     1     -99.855  42.326   9.100  1.00  0.00     0.180 A 
ATOM      2  C   UNL     1    -100.260  41.015   9.405  1.00  0.00     0.208 A 
ATOM      3  C   UNL     1    -100.059  40.525  10.706  1.00  0.00     0.238 A 
ATOM      4  O   UNL     1    -100.373  39.332  10.958  1.00  0.00    -0.285 OA
ATOM      5  C   UNL     1     -99.470  41.356  11.688  1.00  0.00     0.111 A 
ATOM      6  C   UNL     1     -99.256  40.978  13.049  1.00  0.00     0.134 A 
ATOM      7  C   UNL     1     -98.546  41.833  13.900  1.00  0.00     0.093 A 
ATOM      8  C   UNL     1     -98.102  43.082  13.458  1.00  0.00     0.123 A 
ATOM      9  C   UNL     1     -98.359  43.485  12.151  1.00  0.00     0.094 A 
ATOM     10  C   UNL     1     -99.032  42.639  11.267  1.00  0.00     0.146 A 
ATOM     11  O   UNL     1     -99.246  43.058  10.025  1.00  0.00    -0.452 OA
ENDROOT
BRANCH   1  12
ATOM     12  C   UNL     1    -100.056  42.920   7.759  1.00  0.00     0.029 A 
ATOM     13  C   UNL     1    -101.194  43.703   7.514  1.00  0.00     0.062 A 
ATOM     14  C   UNL     1    -101.420  44.259   6.251  1.00  0.00     0.162 A 
ATOM     15  C   UNL     1     -99.158  42.669   6.706  1.00  0.00     0.062 A 
ATOM     16  C   UNL     1    -100.509  44.024   5.207  1.00  0.00     0.200 A 
ATOM     17  C   UNL     1     -99.378  43.221   5.437  1.00  0.00     0.162 A 
BRANCH  14  18
ATOM     18  O   UNL     1    -102.556  45.044   6.052  1.00  0.00    -0.504 OA
ATOM     19  H   UNL     1    -103.225  44.847   5.318  1.00  0.00     0.293 HD
ENDBRANCH  14  18
BRANCH  16  20
ATOM     20  O   UNL     1    -100.740  44.585   3.951  1.00  0.00    -0.502 OA
ATOM     21  H   UNL     1     -99.996  44.732   3.279  1.00  0.00     0.293 HD
ENDBRANCH  16  20
BRANCH  17  22
ATOM     22  O   UNL     1     -98.478  42.972   4.402  1.00  0.00    -0.504 OA
ATOM     23  H   UNL     1     -97.479  43.078   4.531  1.00  0.00     0.293 HD
ENDBRANCH  17  22
ENDBRANCH   1  12
BRANCH   2  24
ATOM     24  O   UNL     1    -100.819  40.203   8.414  1.00  0.00    -0.502 OA
ATOM     25  H   UNL     1    -100.717  39.195   8.415  1.00  0.00     0.293 HD
ENDBRANCH   2  24
BRANCH   6  26
ATOM     26  O   UNL     1     -99.738  39.793  13.614  1.00  0.00    -0.507 OA
ATOM     27  H   UNL     1    -100.407  39.747  14.368  1.00  0.00     0.293 HD
ENDBRANCH   6  26
BRANCH   8  28
ATOM     28  O   UNL     1     -97.411  43.935  14.317  1.00  0.00    -0.508 OA
ATOM     29  H   UNL     1     -97.848  44.762  14.707  1.00  0.00     0.293 HD
ENDBRANCH   8  28
TORSDOF 7
ENDMDL
MODEL 5
REMARK VINA RESULT:    -4.581      2.136      7.006
REMARK INTER + INTRA:          -5.994
REMARK INTER:                  -5.625
REMARK INTRA:                  -0.369
REMARK UNBOUND:                -0.342
REMARK SMILES O=c1c(O)c(-c2cc(O)c(O)c(O)c2)oc2cc(O)cc(O)c12
REMARK SMILES IDX 5 1 3 2 2 3 1 4 23 5 21 6 20 7 18 8 17 9 16 10 15 11 6 12
REMARK SMILES IDX 7 13 8 14 14 15 10 16 12 17 9 18 11 20 13 22 4 24 22 26
REMARK SMILES IDX 19 28
REMARK H PARENT 9 19 11 21 13 23 4 25 22 27 19 29
REMARK Flexibility Score: inf
ROOT
ATOM      1  C   UNL     1     -99.930  42.682  10.708  1.00  0.00     0.180 A 
ATOM      2  C   UNL     1    -100.938  42.989  11.638  1.00  0.00     0.208 A 
ATOM      3  C   UNL     1    -100.599  43.107  12.996  1.00  0.00     0.238 A 
ATOM      4  O   UNL     1    -101.516  43.328  13.830  1.00  0.00    -0.285 OA
ATOM      5  C   UNL     1     -99.256  42.933  13.404  1.00  0.00     0.111 A 
ATOM      6  C   UNL     1     -98.792  43.071  14.748  1.00  0.00     0.134 A 
ATOM      7  C   UNL     1     -97.465  42.747  15.057  1.00  0.00     0.093 A 
ATOM      8  C   UNL     1     -96.569  42.356  14.059  1.00  0.00     0.123 A 
ATOM      9  C   UNL     1     -96.996  42.277  12.737  1.00  0.00     0.094 A 
ATOM     10  C   UNL     1     -98.323  42.558  12.403  1.00  0.00     0.146 A 
ATOM     11  O   UNL     1     -98.691  42.460  11.131  1.00  0.00    -0.452 OA
ENDROOT
BRANCH   1  12
ATOM     12  C   UNL     1    -100.205  42.565   9.258  1.00  0.00     0.029 A 
ATOM     13  C   UNL     1    -100.468  41.303   8.704  1.00  0.00     0.062 A 
ATOM     14  C   UNL     1    -100.710  41.160   7.334  1.00  0.00     0.162 A 
ATOM     15  C   UNL     1    -100.150  43.686   8.411  1.00  0.00     0.062 A 
ATOM     16  C   UNL     1    -100.677  42.286   6.495  1.00  0.00     0.200 A 
ATOM     17  C   UNL     1    -100.390  43.551   7.036  1.00  0.00     0.162 A 
BRANCH  14  18
ATOM     18  O   UNL     1    -100.983  39.891   6.825  1.00  0.00    -0.504 OA
ATOM     19  H   UNL     1    -100.626  39.048   7.259  1.00  0.00     0.293 HD
ENDBRANCH  14  18
BRANCH  16  20
ATOM     20  O   UNL     1    -100.922  42.136   5.129  1.00  0.00    -0.502 OA
ATOM     21  H   UNL     1    -101.733  42.543   4.678  1.00  0.00     0.293 HD
ENDBRANCH  16  20
BRANCH  17  22
ATOM     22  O   UNL     1    -100.341  44.670   6.207  1.00  0.00    -0.504 OA
ATOM     23  H   UNL     1    -100.475  45.607   6.570  1.00  0.00     0.293 HD
ENDBRANCH  17  22
ENDBRANCH   1  12
BRANCH   2  24
ATOM     24  O   UNL     1    -102.262  43.134  11.216  1.00  0.00    -0.502 OA
ATOM     25  H   UNL     1    -103.048  43.040  11.849  1.00  0.00     0.293 HD
ENDBRANCH   2  24
BRANCH   6  26
ATOM     26  O   UNL     1     -99.582  43.541  15.801  1.00  0.00    -0.507 OA
ATOM     27  H   UNL     1     -99.740  44.516  16.011  1.00  0.00     0.293 HD
ENDBRANCH   6  26
BRANCH   8  28
ATOM     28  O   UNL     1     -95.245  42.052  14.373  1.00  0.00    -0.508 OA
ATOM     29  H   UNL     1     -94.676  42.678  14.931  1.00  0.00     0.293 HD
ENDBRANCH   8  28
TORSDOF 7
ENDMDL
MODEL 6
REMARK VINA RESULT:    -4.483      9.505     10.548
REMARK INTER + INTRA:          -5.873
REMARK INTER:                  -5.778
REMARK INTRA:                  -0.095
REMARK UNBOUND:                -0.342
REMARK SMILES O=c1c(O)c(-c2cc(O)c(O)c(O)c2)oc2cc(O)cc(O)c12
REMARK SMILES IDX 5 1 3 2 2 3 1 4 23 5 21 6 20 7 18 8 17 9 16 10 15 11 6 12
REMARK SMILES IDX 7 13 8 14 14 15 10 16 12 17 9 18 11 20 13 22 4 24 22 26
REMARK SMILES IDX 19 28
REMARK H PARENT 9 19 11 21 13 23 4 25 22 27 19 29
REMARK Flexibility Score: inf
ROOT
ATOM      1  C   UNL     1    -100.042  50.792  14.801  1.00  0.00     0.180 A 
ATOM      2  C   UNL     1    -101.326  50.457  14.337  1.00  0.00     0.208 A 
ATOM      3  C   UNL     1    -101.874  51.181  13.265  1.00  0.00     0.238 A 
ATOM      4  O   UNL     1    -103.045  50.913  12.891  1.00  0.00    -0.285 OA
ATOM      5  C   UNL     1    -101.125  52.219  12.661  1.00  0.00     0.111 A 
ATOM      6  C   UNL     1    -101.564  52.991  11.543  1.00  0.00     0.134 A 
ATOM      7  C   UNL     1    -100.796  54.078  11.110  1.00  0.00     0.093 A 
ATOM      8  C   UNL     1     -99.573  54.381  11.713  1.00  0.00     0.123 A 
ATOM      9  C   UNL     1     -99.107  53.597  12.765  1.00  0.00     0.094 A 
ATOM     10  C   UNL     1     -99.868  52.528  13.243  1.00  0.00     0.146 A 
ATOM     11  O   UNL     1     -99.392  51.813  14.256  1.00  0.00    -0.452 OA
ENDROOT
BRANCH   1  12
ATOM     12  C   UNL     1     -99.389  50.059  15.909  1.00  0.00     0.029 A 
ATOM     13  C   UNL     1     -98.845  50.776  16.985  1.00  0.00     0.062 A 
ATOM     14  C   UNL     1     -98.204  50.111  18.036  1.00  0.00     0.162 A 
ATOM     15  C   UNL     1     -99.250  48.660  15.879  1.00  0.00     0.062 A 
ATOM     16  C   UNL     1     -98.086  48.711  18.012  1.00  0.00     0.200 A 
ATOM     17  C   UNL     1     -98.607  47.986  16.926  1.00  0.00     0.162 A 
BRANCH  14  18
ATOM     18  O   UNL     1     -97.690  50.859  19.095  1.00  0.00    -0.504 OA
ATOM     19  H   UNL     1     -97.415  51.827  18.987  1.00  0.00     0.293 HD
ENDBRANCH  14  18
BRANCH  16  20
ATOM     20  O   UNL     1     -97.448  48.055  19.065  1.00  0.00    -0.502 OA
ATOM     21  H   UNL     1     -97.480  47.048  19.173  1.00  0.00     0.293 HD
ENDBRANCH  16  20
BRANCH  17  22
ATOM     22  O   UNL     1     -98.481  46.598  16.889  1.00  0.00    -0.504 OA
ATOM     23  H   UNL     1     -98.062  46.124  16.098  1.00  0.00     0.293 HD
ENDBRANCH  17  22
ENDBRANCH   1  12
BRANCH   2  24
ATOM     24  O   UNL     1    -102.057  49.444  14.963  1.00  0.00    -0.502 OA
ATOM     25  H   UNL     1    -102.271  48.566  14.506  1.00  0.00     0.293 HD
ENDBRANCH   2  24
BRANCH   6  26
ATOM     26  O   UNL     1    -102.724  52.716  10.813  1.00  0.00    -0.507 OA
ATOM     27  H   UNL     1    -102.936  51.828  10.382  1.00  0.00     0.293 HD
ENDBRANCH   6  26
BRANCH   8  28
ATOM     28  O   UNL     1     -98.806  55.456  11.265  1.00  0.00    -0.508 OA
ATOM     29  H   UNL     1     -98.211  55.378  10.449  1.00  0.00     0.293 HD
ENDBRANCH   8  28
TORSDOF 7
ENDMDL
MODEL 7
REMARK VINA RESULT:    -4.465      2.062      2.778
REMARK INTER + INTRA:          -5.851
REMARK INTER:                  -5.498
REMARK INTRA:                  -0.353
REMARK UNBOUND:                -0.342
REMARK SMILES O=c1c(O)c(-c2cc(O)c(O)c(O)c2)oc2cc(O)cc(O)c12
REMARK SMILES IDX 5 1 3 2 2 3 1 4 23 5 21 6 20 7 18 8 17 9 16 10 15 11 6 12
REMARK SMILES IDX 7 13 8 14 14 15 10 16 12 17 9 18 11 20 13 22 4 24 22 26
REMARK SMILES IDX 19 28
REMARK H PARENT 9 19 11 21 13 23 4 25 22 27 19 29
REMARK Flexibility Score: inf
ROOT
ATOM      1  C   UNL     1    -100.026  42.036   7.865  1.00  0.00     0.180 A 
ATOM      2  C   UNL     1    -100.717  40.893   7.426  1.00  0.00     0.208 A 
ATOM      3  C   UNL     1    -100.880  40.683   6.047  1.00  0.00     0.238 A 
ATOM      4  O   UNL     1    -101.547  39.687   5.662  1.00  0.00    -0.285 OA
ATOM      5  C   UNL     1    -100.337  41.608   5.125  1.00  0.00     0.111 A 
ATOM      6  C   UNL     1    -100.406  41.474   3.705  1.00  0.00     0.134 A 
ATOM      7  C   UNL     1     -99.948  42.515   2.889  1.00  0.00     0.093 A 
ATOM      8  C   UNL     1     -99.362  43.657   3.441  1.00  0.00     0.123 A 
ATOM      9  C   UNL     1     -99.235  43.772   4.823  1.00  0.00     0.094 A 
ATOM     10  C   UNL     1     -99.716  42.765   5.664  1.00  0.00     0.146 A 
ATOM     11  O   UNL     1     -99.585  42.919   6.976  1.00  0.00    -0.452 OA
ENDROOT
BRANCH   1  12
ATOM     12  C   UNL     1     -99.793  42.313   9.300  1.00  0.00     0.029 A 
ATOM     13  C   UNL     1    -100.603  43.246   9.964  1.00  0.00     0.062 A 
ATOM     14  C   UNL     1    -100.392  43.544  11.314  1.00  0.00     0.162 A 
ATOM     15  C   UNL     1     -98.737  41.703  10.001  1.00  0.00     0.062 A 
ATOM     16  C   UNL     1     -99.350  42.915  12.016  1.00  0.00     0.200 A 
ATOM     17  C   UNL     1     -98.518  41.997  11.353  1.00  0.00     0.162 A 
BRANCH  14  18
ATOM     18  O   UNL     1    -101.229  44.466  11.941  1.00  0.00    -0.504 OA
ATOM     19  H   UNL     1    -101.215  45.452  11.709  1.00  0.00     0.293 HD
ENDBRANCH  14  18
BRANCH  16  20
ATOM     20  O   UNL     1     -99.148  43.215  13.364  1.00  0.00    -0.502 OA
ATOM     21  H   UNL     1     -99.815  42.957  14.082  1.00  0.00     0.293 HD
ENDBRANCH  16  20
BRANCH  17  22
ATOM     22  O   UNL     1     -97.473  41.381  12.040  1.00  0.00    -0.504 OA
ATOM     23  H   UNL     1     -96.545  41.788  12.072  1.00  0.00     0.293 HD
ENDBRANCH  17  22
ENDBRANCH   1  12
BRANCH   2  24
ATOM     24  O   UNL     1    -101.265  40.005   8.355  1.00  0.00    -0.502 OA
ATOM     25  H   UNL     1    -101.977  40.283   9.019  1.00  0.00     0.293 HD
ENDBRANCH   2  24
BRANCH   6  26
ATOM     26  O   UNL     1    -100.888  40.336   3.052  1.00  0.00    -0.507 OA
ATOM     27  H   UNL     1    -101.234  39.509   3.517  1.00  0.00     0.293 HD
ENDBRANCH   6  26
BRANCH   8  28
ATOM     28  O   UNL     1     -98.894  44.683   2.621  1.00  0.00    -0.508 OA
ATOM     29  H   UNL     1     -97.942  44.690   2.273  1.00  0.00     0.293 HD
ENDBRANCH   8  28
TORSDOF 7
ENDMDL
MODEL 8
REMARK VINA RESULT:    -4.398      2.370      7.583
REMARK INTER + INTRA:          -5.768
REMARK INTER:                  -5.511
REMARK INTRA:                  -0.257
REMARK UNBOUND:                -0.342
REMARK SMILES O=c1c(O)c(-c2cc(O)c(O)c(O)c2)oc2cc(O)cc(O)c12
REMARK SMILES IDX 5 1 3 2 2 3 1 4 23 5 21 6 20 7 18 8 17 9 16 10 15 11 6 12
REMARK SMILES IDX 7 13 8 14 14 15 10 16 12 17 9 18 11 20 13 22 4 24 22 26
REMARK SMILES IDX 19 28
REMARK H PARENT 9 19 11 21 13 23 4 25 22 27 19 29
REMARK Flexibility Score: inf
ROOT
ATOM      1  C   UNL     1     -99.357  42.564  11.195  1.00  0.00     0.180 A 
ATOM      2  C   UNL     1     -98.190  41.929  11.652  1.00  0.00     0.208 A 
ATOM      3  C   UNL     1     -97.837  42.043  13.007  1.00  0.00     0.238 A 
ATOM      4  O   UNL     1     -96.762  41.519  13.398  1.00  0.00    -0.285 OA
ATOM      5  C   UNL     1     -98.664  42.778  13.890  1.00  0.00     0.111 A 
ATOM      6  C   UNL     1     -98.426  42.926  15.290  1.00  0.00     0.134 A 
ATOM      7  C   UNL     1     -99.238  43.783  16.042  1.00  0.00     0.093 A 
ATOM      8  C   UNL     1    -100.321  44.444  15.458  1.00  0.00     0.123 A 
ATOM      9  C   UNL     1    -100.598  44.260  14.106  1.00  0.00     0.094 A 
ATOM     10  C   UNL     1     -99.783  43.440  13.322  1.00  0.00     0.146 A 
ATOM     11  O   UNL     1    -100.076  43.300  12.034  1.00  0.00    -0.452 OA
ENDROOT
BRANCH   1  12
ATOM     12  C   UNL     1     -99.806  42.469   9.788  1.00  0.00     0.029 A 
ATOM     13  C   UNL     1    -100.295  41.248   9.300  1.00  0.00     0.062 A 
ATOM     14  C   UNL     1    -100.706  41.124   7.969  1.00  0.00     0.162 A 
ATOM     15  C   UNL     1     -99.700  43.563   8.911  1.00  0.00     0.062 A 
ATOM     16  C   UNL     1    -100.619  42.225   7.102  1.00  0.00     0.200 A 
ATOM     17  C   UNL     1    -100.108  43.447   7.575  1.00  0.00     0.162 A 
BRANCH  14  18
ATOM     18  O   UNL     1    -101.200  39.897   7.527  1.00  0.00    -0.504 OA
ATOM     19  H   UNL     1    -101.366  39.123   8.158  1.00  0.00     0.293 HD
ENDBRANCH  14  18
BRANCH  16  20
ATOM     20  O   UNL     1    -101.034  42.094   5.776  1.00  0.00    -0.502 OA
ATOM     21  H   UNL     1    -101.900  41.633   5.523  1.00  0.00     0.293 HD
ENDBRANCH  16  20
BRANCH  17  22
ATOM     22  O   UNL     1    -100.005  44.539   6.716  1.00  0.00    -0.504 OA
ATOM     23  H   UNL     1    -100.806  44.892   6.206  1.00  0.00     0.293 HD
ENDBRANCH  17  22
ENDBRANCH   1  12
BRANCH   2  24
ATOM     24  O   UNL     1     -97.376  41.228  10.759  1.00  0.00    -0.502 OA
ATOM     25  H   UNL     1     -96.451  41.550  10.497  1.00  0.00     0.293 HD
ENDBRANCH   2  24
BRANCH   6  26
ATOM     26  O   UNL     1     -97.428  42.238  15.988  1.00  0.00    -0.507 OA
ATOM     27  H   UNL     1     -96.690  41.701  15.557  1.00  0.00     0.293 HD
ENDBRANCH   6  26
BRANCH   8  28
ATOM     28  O   UNL     1    -101.134  45.283  16.218  1.00  0.00    -0.508 OA
ATOM     29  H   UNL     1    -101.680  46.022  15.790  1.00  0.00     0.293 HD
ENDBRANCH   8  28
TORSDOF 7
ENDMDL
MODEL 9
REMARK VINA RESULT:    -3.228      3.359      8.746
REMARK INTER + INTRA:          -4.324
REMARK INTER:                  -4.069
REMARK INTRA:                  -0.255
REMARK UNBOUND:                -0.342
REMARK SMILES O=c1c(O)c(-c2cc(O)c(O)c(O)c2)oc2cc(O)cc(O)c12
REMARK SMILES IDX 5 1 3 2 2 3 1 4 23 5 21 6 20 7 18 8 17 9 16 10 15 11 6 12
REMARK SMILES IDX 7 13 8 14 14 15 10 16 12 17 9 18 11 20 13 22 4 24 22 26
REMARK SMILES IDX 19 28
REMARK H PARENT 9 19 11 21 13 23 4 25 22 27 19 29
REMARK Flexibility Score: inf
ROOT
ATOM      1  C   UNL     1     -99.287  43.583   3.202  1.00  0.00     0.180 A 
ATOM      2  C   UNL     1     -99.625  42.235   2.991  1.00  0.00     0.208 A 
ATOM      3  C   UNL     1     -99.978  41.440   4.094  1.00  0.00     0.238 A 
ATOM      4  O   UNL     1    -100.226  40.220   3.906  1.00  0.00    -0.285 OA
ATOM      5  C   UNL     1    -100.003  42.006   5.391  1.00  0.00     0.111 A 
ATOM      6  C   UNL     1    -100.386  41.306   6.575  1.00  0.00     0.134 A 
ATOM      7  C   UNL     1    -100.248  41.928   7.821  1.00  0.00     0.093 A 
ATOM      8  C   UNL     1     -99.807  43.250   7.920  1.00  0.00     0.123 A 
ATOM      9  C   UNL     1     -99.489  43.962   6.767  1.00  0.00     0.094 A 
ATOM     10  C   UNL     1     -99.580  43.356   5.512  1.00  0.00     0.146 A 
ATOM     11  O   UNL     1     -99.258  44.067   4.438  1.00  0.00    -0.452 OA
ENDROOT
BRANCH   1  12
ATOM     12  C   UNL     1     -98.928  44.489   2.088  1.00  0.00     0.029 A 
ATOM     13  C   UNL     1     -99.840  45.471   1.675  1.00  0.00     0.062 A 
ATOM     14  C   UNL     1     -99.537  46.326   0.611  1.00  0.00     0.162 A 
ATOM     15  C   UNL     1     -97.714  44.348   1.393  1.00  0.00     0.062 A 
ATOM     16  C   UNL     1     -98.313  46.197  -0.066  1.00  0.00     0.200 A 
ATOM     17  C   UNL     1     -97.402  45.200   0.325  1.00  0.00     0.162 A 
BRANCH  14  18
ATOM     18  O   UNL     1    -100.465  47.299   0.240  1.00  0.00    -0.504 OA
ATOM     19  H   UNL     1    -100.319  48.283   0.430  1.00  0.00     0.293 HD
ENDBRANCH  14  18
BRANCH  16  20
ATOM     20  O   UNL     1     -98.015  47.056  -1.125  1.00  0.00    -0.502 OA
ATOM     21  H   UNL     1     -97.063  47.263  -1.402  1.00  0.00     0.293 HD
ENDBRANCH  16  20
BRANCH  17  22
ATOM     22  O   UNL     1     -96.192  45.056  -0.352  1.00  0.00    -0.504 OA
ATOM     23  H   UNL     1     -95.923  44.177  -0.778  1.00  0.00     0.293 HD
ENDBRANCH  17  22
ENDBRANCH   1  12
BRANCH   2  24
ATOM     24  O   UNL     1     -99.571  41.690   1.706  1.00  0.00    -0.502 OA
ATOM     25  H   UNL     1    -100.050  42.108   0.917  1.00  0.00     0.293 HD
ENDBRANCH   2  24
BRANCH   6  26
ATOM     26  O   UNL     1    -100.925  40.016   6.578  1.00  0.00    -0.507 OA
ATOM     27  H   UNL     1    -100.472  39.204   6.971  1.00  0.00     0.293 HD
ENDBRANCH   6  26
BRANCH   8  28
ATOM     28  O   UNL     1     -99.688  43.869   9.164  1.00  0.00    -0.508 OA
ATOM     29  H   UNL     1     -98.783  44.050   9.581  1.00  0.00     0.293 HD
ENDBRANCH   8  28
TORSDOF 7
ENDMDL
