MODEL 1
REMARK VINA RESULT:     6.675      0.000      0.000
REMARK INTER + INTRA:           7.228
REMARK INTER:                   7.261
REMARK INTRA:                  -0.032
REMARK UNBOUND:                -0.032
REMARK SMILES O=C([O-])c1ccc(O)cc1
REMARK SMILES IDX 4 1 5 2 10 3 6 4 9 5 7 6 2 7 1 8 3 9 8 10
REMARK H PARENT 8 11
REMARK Flexibility Score: inf
ROOT
ATOM      1  C   UNL     1     -37.351  16.490  18.228  1.00  0.00    -0.003 A 
ATOM      2  C   UNL     1     -37.205  17.890  18.266  1.00  0.00     0.014 A 
ATOM      3  C   UNL     1     -36.201  15.687  18.129  1.00  0.00     0.014 A 
ATOM      4  C   UNL     1     -35.934  18.471  18.205  1.00  0.00     0.047 A 
ATOM      5  C   UNL     1     -34.932  16.272  18.070  1.00  0.00     0.047 A 
ATOM      6  C   UNL     1     -34.796  17.665  18.109  1.00  0.00     0.115 A 
ENDROOT
BRANCH   1   7
ATOM      7  C   UNL     1     -38.693  15.870  18.291  1.00  0.00     0.071 C 
ATOM      8  O   UNL     1     -38.882  14.818  18.958  1.00  0.00    -0.545 OA
ATOM      9  O   UNL     1     -39.765  16.440  17.615  1.00  0.00    -0.545 OA
ENDBRANCH   1   7
BRANCH   6  10
ATOM     10  O   UNL     1     -33.537  18.259  18.050  1.00  0.00    -0.508 OA
ATOM     11  H   UNL     1     -33.026  18.499  18.891  1.00  0.00     0.293 HD
ENDBRANCH   6  10
TORSDOF 2
ENDMDL
MODEL 2
REMARK VINA RESULT:     8.977      3.254      4.399
REMARK INTER + INTRA:           9.733
REMARK INTER:                   9.768
REMARK INTRA:                  -0.036
REMARK UNBOUND:                -0.032
REMARK SMILES O=C([O-])c1ccc(O)cc1
REMARK SMILES IDX 4 1 5 2 10 3 6 4 9 5 7 6 2 7 1 8 3 9 8 10
REMARK H PARENT 8 11
REMARK Flexibility Score: inf
ROOT
ATOM      1  C   UNL     1     -34.328  14.341  17.783  1.00  0.00    -0.003 A 
ATOM      2  C   UNL     1     -34.743  14.801  19.047  1.00  0.00     0.014 A 
ATOM      3  C   UNL     1     -34.657  15.093  16.641  1.00  0.00     0.014 A 
ATOM      4  C   UNL     1     -35.472  15.990  19.163  1.00  0.00     0.047 A 
ATOM      5  C   UNL     1     -35.385  16.281  16.762  1.00  0.00     0.047 A 
ATOM      6  C   UNL     1     -35.793  16.732  18.023  1.00  0.00     0.115 A 
ENDROOT
BRANCH   1   7
ATOM      7  C   UNL     1     -33.557  13.085  17.654  1.00  0.00     0.071 C 
ATOM      8  O   UNL     1     -33.100  12.725  16.537  1.00  0.00    -0.545 OA
ATOM      9  O   UNL     1     -33.325  12.283  18.766  1.00  0.00    -0.545 OA
ENDBRANCH   1   7
BRANCH   6  10
ATOM     10  O   UNL     1     -36.520  17.914  18.155  1.00  0.00    -0.508 OA
ATOM     11  H   UNL     1     -37.514  17.948  17.962  1.00  0.00     0.293 HD
ENDBRANCH   6  10
TORSDOF 2
ENDMDL
MODEL 3
REMARK VINA RESULT:     9.387      3.160      4.295
REMARK INTER + INTRA:          10.179
REMARK INTER:                  10.205
REMARK INTRA:                  -0.027
REMARK UNBOUND:                -0.032
REMARK SMILES O=C([O-])c1ccc(O)cc1
REMARK SMILES IDX 4 1 5 2 10 3 6 4 9 5 7 6 2 7 1 8 3 9 8 10
REMARK H PARENT 8 11
REMARK Flexibility Score: inf
ROOT
ATOM      1  C   UNL     1     -34.971  15.274  17.888  1.00  0.00    -0.003 A 
ATOM      2  C   UNL     1     -34.579  14.574  19.045  1.00  0.00     0.014 A 
ATOM      3  C   UNL     1     -34.662  14.735  16.627  1.00  0.00     0.014 A 
ATOM      4  C   UNL     1     -33.892  13.360  18.939  1.00  0.00     0.047 A 
ATOM      5  C   UNL     1     -33.975  13.520  16.525  1.00  0.00     0.047 A 
ATOM      6  C   UNL     1     -33.590  12.830  17.681  1.00  0.00     0.115 A 
ENDROOT
BRANCH   1   7
ATOM      7  C   UNL     1     -35.698  16.558  17.994  1.00  0.00     0.071 C 
ATOM      8  O   UNL     1     -36.956  16.581  18.045  1.00  0.00    -0.545 OA
ATOM      9  O   UNL     1     -35.000  17.760  18.040  1.00  0.00    -0.545 OA
ENDBRANCH   1   7
BRANCH   6  10
ATOM     10  O   UNL     1     -32.905  11.620  17.592  1.00  0.00    -0.508 OA
ATOM     11  H   UNL     1     -32.505  11.302  16.716  1.00  0.00     0.293 HD
ENDBRANCH   6  10
TORSDOF 2
ENDMDL
MODEL 4
REMARK VINA RESULT:     9.618      5.401      6.405
REMARK INTER + INTRA:          10.429
REMARK INTER:                  10.464
REMARK INTRA:                  -0.035
REMARK UNBOUND:                -0.032
REMARK SMILES O=C([O-])c1ccc(O)cc1
REMARK SMILES IDX 4 1 5 2 10 3 6 4 9 5 7 6 2 7 1 8 3 9 8 10
REMARK H PARENT 8 11
REMARK Flexibility Score: inf
ROOT
ATOM      1  C   UNL     1     -33.688  11.585  19.849  1.00  0.00    -0.003 A 
ATOM      2  C   UNL     1     -33.974  12.932  19.557  1.00  0.00     0.014 A 
ATOM      3  C   UNL     1     -33.090  10.785  18.860  1.00  0.00     0.014 A 
ATOM      4  C   UNL     1     -33.666  13.465  18.301  1.00  0.00     0.047 A 
ATOM      5  C   UNL     1     -32.783  11.321  17.605  1.00  0.00     0.047 A 
ATOM      6  C   UNL     1     -33.071  12.662  17.323  1.00  0.00     0.115 A 
ENDROOT
BRANCH   1   7
ATOM      7  C   UNL     1     -34.011  11.016  21.176  1.00  0.00     0.071 C 
ATOM      8  O   UNL     1     -34.032   9.769  21.351  1.00  0.00    -0.545 OA
ATOM      9  O   UNL     1     -34.294  11.852  22.250  1.00  0.00    -0.545 OA
ENDBRANCH   1   7
BRANCH   6  10
ATOM     10  O   UNL     1     -32.770  13.208  16.076  1.00  0.00    -0.508 OA
ATOM     11  H   UNL     1     -31.957  13.797  15.939  1.00  0.00     0.293 HD
ENDBRANCH   6  10
TORSDOF 2
ENDMDL
