MODEL 1
REMARK VINA RESULT:    -2.810      0.000      0.000
REMARK INTER + INTRA:          -3.486
REMARK INTER:                  -3.220
REMARK INTRA:                  -0.265
REMARK UNBOUND:                -0.265
REMARK SMILES COC(=O)c1ccccc1O
REMARK SMILES IDX 5 1 6 2 7 3 8 4 9 5 10 6 3 7 4 8 2 9 1 10 11 11
REMARK H PARENT 11 12
REMARK Flexibility Score: inf
ROOT
ATOM      1  C   UNL     1     131.649 145.781 138.327  1.00  0.00     0.101 A 
ATOM      2  C   UNL     1     132.289 146.552 139.317  1.00  0.00     0.019 A 
ATOM      3  C   UNL     1     133.427 146.072 139.971  1.00  0.00     0.001 A 
ATOM      4  C   UNL     1     133.942 144.816 139.649  1.00  0.00     0.004 A 
ATOM      5  C   UNL     1     133.322 144.038 138.671  1.00  0.00     0.047 A 
ATOM      6  C   UNL     1     132.179 144.508 138.006  1.00  0.00     0.130 A 
ENDROOT
BRANCH   1   7
ATOM      7  C   UNL     1     130.443 146.325 137.653  1.00  0.00     0.341 C 
ATOM      8  O   UNL     1     130.506 146.752 136.468  1.00  0.00    -0.246 OA
BRANCH   7   9
ATOM      9  O   UNL     1     129.224 146.364 138.340  1.00  0.00    -0.465 OA
ATOM     10  C   UNL     1     128.499 145.190 138.689  1.00  0.00     0.282 C 
ENDBRANCH   7   9
ENDBRANCH   1   7
BRANCH   6  11
ATOM     11  O   UNL     1     131.578 143.709 137.033  1.00  0.00    -0.507 OA
ATOM     12  H   UNL     1     132.099 143.355 136.239  1.00  0.00     0.293 HD
ENDBRANCH   6  11
TORSDOF 3
ENDMDL
MODEL 2
REMARK VINA RESULT:    -2.802     11.757     12.721
REMARK INTER + INTRA:          -3.477
REMARK INTER:                  -3.186
REMARK INTRA:                  -0.291
REMARK UNBOUND:                -0.265
REMARK SMILES COC(=O)c1ccccc1O
REMARK SMILES IDX 5 1 6 2 7 3 8 4 9 5 10 6 3 7 4 8 2 9 1 10 11 11
REMARK H PARENT 11 12
REMARK Flexibility Score: inf
ROOT
ATOM      1  C   UNL     1     143.868 145.383 138.954  1.00  0.00     0.101 A 
ATOM      2  C   UNL     1     142.768 144.510 138.854  1.00  0.00     0.019 A 
ATOM      3  C   UNL     1     142.797 143.251 139.460  1.00  0.00     0.001 A 
ATOM      4  C   UNL     1     143.925 142.844 140.173  1.00  0.00     0.004 A 
ATOM      5  C   UNL     1     145.025 143.694 140.283  1.00  0.00     0.047 A 
ATOM      6  C   UNL     1     145.009 144.961 139.679  1.00  0.00     0.130 A 
ENDROOT
BRANCH   1   7
ATOM      7  C   UNL     1     143.801 146.713 138.297  1.00  0.00     0.341 C 
ATOM      8  O   UNL     1     143.773 146.808 137.039  1.00  0.00    -0.246 OA
BRANCH   7   9
ATOM      9  O   UNL     1     143.768 147.872 139.080  1.00  0.00    -0.465 OA
ATOM     10  C   UNL     1     142.827 148.065 140.130  1.00  0.00     0.282 C 
ENDBRANCH   7   9
ENDBRANCH   1   7
BRANCH   6  11
ATOM     11  O   UNL     1     146.123 145.792 139.804  1.00  0.00    -0.507 OA
ATOM     12  H   UNL     1     146.965 145.639 139.261  1.00  0.00     0.293 HD
ENDBRANCH   6  11
TORSDOF 3
ENDMDL
MODEL 3
REMARK VINA RESULT:    -2.691      1.720      2.454
REMARK INTER + INTRA:          -3.350
REMARK INTER:                  -3.032
REMARK INTRA:                  -0.318
REMARK UNBOUND:                -0.265
REMARK SMILES COC(=O)c1ccccc1O
REMARK SMILES IDX 5 1 6 2 7 3 8 4 9 5 10 6 3 7 4 8 2 9 1 10 11 11
REMARK H PARENT 11 12
REMARK Flexibility Score: inf
ROOT
ATOM      1  C   UNL     1     129.800 146.202 139.054  1.00  0.00     0.101 A 
ATOM      2  C   UNL     1     129.773 146.625 140.397  1.00  0.00     0.019 A 
ATOM      3  C   UNL     1     130.940 147.059 141.033  1.00  0.00     0.001 A 
ATOM      4  C   UNL     1     132.150 147.075 140.339  1.00  0.00     0.004 A 
ATOM      5  C   UNL     1     132.197 146.659 139.008  1.00  0.00     0.047 A 
ATOM      6  C   UNL     1     131.032 146.221 138.358  1.00  0.00     0.130 A 
ENDROOT
BRANCH   1   7
ATOM      7  C   UNL     1     128.540 145.748 138.412  1.00  0.00     0.341 C 
ATOM      8  O   UNL     1     128.059 146.373 137.428  1.00  0.00    -0.246 OA
BRANCH   7   9
ATOM      9  O   UNL     1     127.879 144.617 138.904  1.00  0.00    -0.465 OA
ATOM     10  C   UNL     1     128.454 143.316 138.874  1.00  0.00     0.282 C 
ENDBRANCH   7   9
ENDBRANCH   1   7
BRANCH   6  11
ATOM     11  O   UNL     1     131.107 145.810 137.026  1.00  0.00    -0.507 OA
ATOM     12  H   UNL     1     130.538 146.237 136.305  1.00  0.00     0.293 HD
ENDBRANCH   6  11
TORSDOF 3
ENDMDL
MODEL 4
REMARK VINA RESULT:    -2.685     10.863     12.389
REMARK INTER + INTRA:          -3.343
REMARK INTER:                  -2.984
REMARK INTRA:                  -0.358
REMARK UNBOUND:                -0.265
REMARK SMILES COC(=O)c1ccccc1O
REMARK SMILES IDX 5 1 6 2 7 3 8 4 9 5 10 6 3 7 4 8 2 9 1 10 11 11
REMARK H PARENT 11 12
REMARK Flexibility Score: inf
ROOT
ATOM      1  C   UNL     1     143.648 145.313 139.081  1.00  0.00     0.101 A 
ATOM      2  C   UNL     1     143.498 143.988 139.534  1.00  0.00     0.019 A 
ATOM      3  C   UNL     1     142.527 143.150 138.980  1.00  0.00     0.001 A 
ATOM      4  C   UNL     1     141.691 143.620 137.967  1.00  0.00     0.004 A 
ATOM      5  C   UNL     1     141.824 144.930 137.505  1.00  0.00     0.047 A 
ATOM      6  C   UNL     1     142.795 145.783 138.053  1.00  0.00     0.130 A 
ENDROOT
BRANCH   1   7
ATOM      7  C   UNL     1     144.691 146.175 139.694  1.00  0.00     0.341 C 
ATOM      8  O   UNL     1     145.879 145.767 139.803  1.00  0.00    -0.246 OA
BRANCH   7   9
ATOM      9  O   UNL     1     144.351 147.451 140.157  1.00  0.00    -0.465 OA
ATOM     10  C   UNL     1     143.471 147.663 141.255  1.00  0.00     0.282 C 
ENDBRANCH   7   9
ENDBRANCH   1   7
BRANCH   6  11
ATOM     11  O   UNL     1     142.907 147.088 137.573  1.00  0.00    -0.507 OA
ATOM     12  H   UNL     1     142.329 147.427 136.813  1.00  0.00     0.293 HD
ENDBRANCH   6  11
TORSDOF 3
ENDMDL
MODEL 5
REMARK VINA RESULT:    -2.678      2.031      3.893
REMARK INTER + INTRA:          -3.334
REMARK INTER:                  -3.012
REMARK INTRA:                  -0.322
REMARK UNBOUND:                -0.265
REMARK SMILES COC(=O)c1ccccc1O
REMARK SMILES IDX 5 1 6 2 7 3 8 4 9 5 10 6 3 7 4 8 2 9 1 10 11 11
REMARK H PARENT 11 12
REMARK Flexibility Score: inf
ROOT
ATOM      1  C   UNL     1     130.897 146.491 139.263  1.00  0.00     0.101 A 
ATOM      2  C   UNL     1     130.136 146.736 140.423  1.00  0.00     0.019 A 
ATOM      3  C   UNL     1     128.740 146.708 140.380  1.00  0.00     0.001 A 
ATOM      4  C   UNL     1     128.082 146.436 139.181  1.00  0.00     0.004 A 
ATOM      5  C   UNL     1     128.818 146.191 138.021  1.00  0.00     0.047 A 
ATOM      6  C   UNL     1     130.221 146.216 138.050  1.00  0.00     0.130 A 
ENDROOT
BRANCH   1   7
ATOM      7  C   UNL     1     132.379 146.530 139.347  1.00  0.00     0.341 C 
ATOM      8  O   UNL     1     132.978 147.595 139.658  1.00  0.00    -0.246 OA
BRANCH   7   9
ATOM      9  O   UNL     1     133.119 145.372 139.078  1.00  0.00    -0.465 OA
ATOM     10  C   UNL     1     132.852 144.125 139.708  1.00  0.00     0.282 C 
ENDBRANCH   7   9
ENDBRANCH   1   7
BRANCH   6  11
ATOM     11  O   UNL     1     130.933 145.968 136.876  1.00  0.00    -0.507 OA
ATOM     12  H   UNL     1     130.523 146.121 135.962  1.00  0.00     0.293 HD
ENDBRANCH   6  11
TORSDOF 3
ENDMDL
MODEL 6
REMARK VINA RESULT:    -2.674      1.853      2.403
REMARK INTER + INTRA:          -3.331
REMARK INTER:                  -2.972
REMARK INTRA:                  -0.359
REMARK UNBOUND:                -0.265
REMARK SMILES COC(=O)c1ccccc1O
REMARK SMILES IDX 5 1 6 2 7 3 8 4 9 5 10 6 3 7 4 8 2 9 1 10 11 11
REMARK H PARENT 11 12
REMARK Flexibility Score: inf
ROOT
ATOM      1  C   UNL     1     132.408 145.631 139.071  1.00  0.00     0.101 A 
ATOM      2  C   UNL     1     133.621 145.080 139.529  1.00  0.00     0.019 A 
ATOM      3  C   UNL     1     134.111 143.887 138.992  1.00  0.00     0.001 A 
ATOM      4  C   UNL     1     133.399 143.226 137.991  1.00  0.00     0.004 A 
ATOM      5  C   UNL     1     132.196 143.755 137.524  1.00  0.00     0.047 A 
ATOM      6  C   UNL     1     131.692 144.953 138.055  1.00  0.00     0.130 A 
ENDROOT
BRANCH   1   7
ATOM      7  C   UNL     1     131.919 146.901 139.665  1.00  0.00     0.341 C 
ATOM      8  O   UNL     1     132.689 147.893 139.785  1.00  0.00    -0.246 OA
BRANCH   7   9
ATOM      9  O   UNL     1     130.591 146.998 140.097  1.00  0.00    -0.465 OA
ATOM     10  C   UNL     1     130.086 146.259 141.203  1.00  0.00     0.282 C 
ENDBRANCH   7   9
ENDBRANCH   1   7
BRANCH   6  11
ATOM     11  O   UNL     1     130.486 145.462 137.570  1.00  0.00    -0.507 OA
ATOM     12  H   UNL     1     130.388 146.433 137.301  1.00  0.00     0.293 HD
ENDBRANCH   6  11
TORSDOF 3
ENDMDL
MODEL 7
REMARK VINA RESULT:    -2.606      1.381      2.945
REMARK INTER + INTRA:          -3.253
REMARK INTER:                  -2.896
REMARK INTRA:                  -0.356
REMARK UNBOUND:                -0.265
REMARK SMILES COC(=O)c1ccccc1O
REMARK SMILES IDX 5 1 6 2 7 3 8 4 9 5 10 6 3 7 4 8 2 9 1 10 11 11
REMARK H PARENT 11 12
REMARK Flexibility Score: inf
ROOT
ATOM      1  C   UNL     1     132.395 144.717 138.561  1.00  0.00     0.101 A 
ATOM      2  C   UNL     1     133.528 144.895 139.378  1.00  0.00     0.019 A 
ATOM      3  C   UNL     1     133.745 146.103 140.046  1.00  0.00     0.001 A 
ATOM      4  C   UNL     1     132.836 147.152 139.907  1.00  0.00     0.004 A 
ATOM      5  C   UNL     1     131.708 146.996 139.102  1.00  0.00     0.047 A 
ATOM      6  C   UNL     1     131.478 145.788 138.426  1.00  0.00     0.130 A 
ENDROOT
BRANCH   1   7
ATOM      7  C   UNL     1     132.198 143.419 137.867  1.00  0.00     0.341 C 
ATOM      8  O   UNL     1     133.114 142.926 137.154  1.00  0.00    -0.246 OA
BRANCH   7   9
ATOM      9  O   UNL     1     130.983 142.737 138.005  1.00  0.00    -0.465 OA
ATOM     10  C   UNL     1     130.522 142.232 139.252  1.00  0.00     0.282 C 
ENDBRANCH   7   9
ENDBRANCH   1   7
BRANCH   6  11
ATOM     11  O   UNL     1     130.342 145.658 137.626  1.00  0.00    -0.507 OA
ATOM     12  H   UNL     1     129.645 146.391 137.568  1.00  0.00     0.293 HD
ENDBRANCH   6  11
TORSDOF 3
ENDMDL
MODEL 8
REMARK VINA RESULT:    -2.580     16.048     17.848
REMARK INTER + INTRA:          -3.222
REMARK INTER:                  -2.865
REMARK INTRA:                  -0.357
REMARK UNBOUND:                -0.265
REMARK SMILES COC(=O)c1ccccc1O
REMARK SMILES IDX 5 1 6 2 7 3 8 4 9 5 10 6 3 7 4 8 2 9 1 10 11 11
REMARK H PARENT 11 12
REMARK Flexibility Score: inf
ROOT
ATOM      1  C   UNL     1     145.896 135.415 138.530  1.00  0.00     0.101 A 
ATOM      2  C   UNL     1     145.065 134.650 139.371  1.00  0.00     0.019 A 
ATOM      3  C   UNL     1     145.576 133.559 140.079  1.00  0.00     0.001 A 
ATOM      4  C   UNL     1     146.923 133.214 139.957  1.00  0.00     0.004 A 
ATOM      5  C   UNL     1     147.762 133.960 139.129  1.00  0.00     0.047 A 
ATOM      6  C   UNL     1     147.261 135.059 138.412  1.00  0.00     0.130 A 
ENDROOT
BRANCH   1   7
ATOM      7  C   UNL     1     145.317 136.568 137.794  1.00  0.00     0.341 C 
ATOM      8  O   UNL     1     144.279 136.427 137.093  1.00  0.00    -0.246 OA
BRANCH   7   9
ATOM      9  O   UNL     1     145.931 137.823 137.878  1.00  0.00    -0.465 OA
ATOM     10  C   UNL     1     146.041 138.545 139.099  1.00  0.00     0.282 C 
ENDBRANCH   7   9
ENDBRANCH   1   7
BRANCH   6  11
ATOM     11  O   UNL     1     148.122 135.788 137.591  1.00  0.00    -0.507 OA
ATOM     12  H   UNL     1     147.916 136.741 137.317  1.00  0.00     0.293 HD
ENDBRANCH   6  11
TORSDOF 3
ENDMDL
MODEL 9
REMARK VINA RESULT:    -0.960      1.619      2.439
REMARK INTER + INTRA:          -1.366
REMARK INTER:                  -1.063
REMARK INTRA:                  -0.303
REMARK UNBOUND:                -0.265
REMARK SMILES COC(=O)c1ccccc1O
REMARK SMILES IDX 5 1 6 2 7 3 8 4 9 5 10 6 3 7 4 8 2 9 1 10 11 11
REMARK H PARENT 11 12
REMARK Flexibility Score: inf
ROOT
ATOM      1  C   UNL     1     132.352 145.881 139.026  1.00  0.00     0.101 A 
ATOM      2  C   UNL     1     132.820 144.561 138.876  1.00  0.00     0.019 A 
ATOM      3  C   UNL     1     134.042 144.169 139.429  1.00  0.00     0.001 A 
ATOM      4  C   UNL     1     134.815 145.088 140.139  1.00  0.00     0.004 A 
ATOM      5  C   UNL     1     134.368 146.400 140.298  1.00  0.00     0.047 A 
ATOM      6  C   UNL     1     133.143 146.807 139.747  1.00  0.00     0.130 A 
ENDROOT
BRANCH   1   7
ATOM      7  C   UNL     1     131.048 146.260 138.424  1.00  0.00     0.341 C 
ATOM      8  O   UNL     1     130.892 146.254 137.172  1.00  0.00    -0.246 OA
BRANCH   7   9
ATOM      9  O   UNL     1     129.982 146.628 139.253  1.00  0.00    -0.465 OA
ATOM     10  C   UNL     1     129.436 145.757 140.236  1.00  0.00     0.282 C 
ENDBRANCH   7   9
ENDBRANCH   1   7
BRANCH   6  11
ATOM     11  O   UNL     1     132.720 148.125 139.920  1.00  0.00    -0.507 OA
ATOM     12  H   UNL     1     133.172 148.747 140.580  1.00  0.00     0.293 HD
ENDBRANCH   6  11
TORSDOF 3
ENDMDL
