MODEL 1
REMARK VINA RESULT:    -2.456      0.000      0.000
REMARK INTER + INTRA:          -5.255
REMARK INTER:                  -4.466
REMARK INTRA:                  -0.789
REMARK UNBOUND:                -0.789
REMARK SMILES CCCCCCCCCCCCCC[C@H](C)C(=O)[O-]
REMARK SMILES IDX 9 1 10 2 11 3 12 4 13 5 14 6 15 7 16 8 17 9 18 10 19 11 8 12
REMARK SMILES IDX 7 13 6 14 5 15 4 16 3 17 2 18 1 19
REMARK H PARENT
REMARK Flexibility Score: inf
ROOT
ATOM      1  C   UNL     1      36.268 107.419 263.134  1.00  0.00     0.000 C 
ENDROOT
BRANCH   1   2
ATOM      2  C   UNL     1      35.193 106.403 263.562  1.00  0.00     0.000 C 
BRANCH   2   3
ATOM      3  C   UNL     1      35.787 105.090 264.097  1.00  0.00     0.000 C 
BRANCH   3   4
ATOM      4  C   UNL     1      34.882 104.397 265.133  1.00  0.00     0.000 C 
BRANCH   4   5
ATOM      5  C   UNL     1      34.906 105.010 266.546  1.00  0.00     0.001 C 
BRANCH   5   6
ATOM      6  C   UNL     1      35.710 106.323 266.618  1.00  0.00     0.009 C 
BRANCH   6   7
ATOM      7  C   UNL     1      34.883 107.551 267.060  1.00  0.00     0.032 C 
ATOM      8  C   UNL     1      35.086 108.767 266.144  1.00  0.00     0.014 C 
BRANCH   7   9
ATOM      9  C   UNL     1      35.130 107.898 268.505  1.00  0.00     0.044 C 
ATOM     10  O   UNL     1      35.260 109.102 268.848  1.00  0.00    -0.550 OA
ATOM     11  O   UNL     1      35.165 106.904 269.477  1.00  0.00    -0.550 OA
ENDBRANCH   7   9
ENDBRANCH   6   7
ENDBRANCH   5   6
ENDBRANCH   4   5
ENDBRANCH   3   4
ENDBRANCH   2   3
ENDBRANCH   1   2
BRANCH   1  12
ATOM     12  C   UNL     1      37.724 106.971 263.355  1.00  0.00     0.000 C 
BRANCH  12  13
ATOM     13  C   UNL     1      38.608 107.169 262.112  1.00  0.00    -0.000 C 
BRANCH  13  14
ATOM     14  C   UNL     1      38.546 105.980 261.139  1.00  0.00    -0.000 C 
BRANCH  14  15
ATOM     15  C   UNL     1      37.182 105.763 260.455  1.00  0.00    -0.000 C 
BRANCH  15  16
ATOM     16  C   UNL     1      37.241 105.815 258.914  1.00  0.00    -0.000 C 
BRANCH  16  17
ATOM     17  C   UNL     1      36.047 106.569 258.310  1.00  0.00    -0.000 C 
BRANCH  17  18
ATOM     18  C   UNL     1      36.401 108.036 258.041  1.00  0.00    -0.003 C 
ATOM     19  C   UNL     1      35.143 108.886 257.882  1.00  0.00     0.004 C 
ENDBRANCH  17  18
ENDBRANCH  16  17
ENDBRANCH  15  16
ENDBRANCH  14  15
ENDBRANCH  13  14
ENDBRANCH  12  13
ENDBRANCH   1  12
TORSDOF 14
ENDMDL
MODEL 2
REMARK VINA RESULT:    -1.990      2.865      7.124
REMARK INTER + INTRA:          -4.407
REMARK INTER:                  -4.326
REMARK INTRA:                  -0.081
REMARK UNBOUND:                -0.789
REMARK SMILES CCCCCCCCCCCCCC[C@H](C)C(=O)[O-]
REMARK SMILES IDX 9 1 10 2 11 3 12 4 13 5 14 6 15 7 16 8 17 9 18 10 19 11 8 12
REMARK SMILES IDX 7 13 6 14 5 15 4 16 3 17 2 18 1 19
REMARK H PARENT
REMARK Flexibility Score: inf
ROOT
ATOM      1  C   UNL     1      36.021 105.066 265.733  1.00  0.00     0.000 C 
ENDROOT
BRANCH   1   2
ATOM      2  C   UNL     1      36.056 104.186 264.470  1.00  0.00     0.000 C 
BRANCH   2   3
ATOM      3  C   UNL     1      34.967 104.556 263.450  1.00  0.00     0.000 C 
BRANCH   3   4
ATOM      4  C   UNL     1      35.249 104.002 262.041  1.00  0.00     0.000 C 
BRANCH   4   5
ATOM      5  C   UNL     1      36.315 104.765 261.232  1.00  0.00     0.001 C 
BRANCH   5   6
ATOM      6  C   UNL     1      36.554 106.196 261.753  1.00  0.00     0.009 C 
BRANCH   6   7
ATOM      7  C   UNL     1      37.878 106.833 261.275  1.00  0.00     0.032 C 
ATOM      8  C   UNL     1      38.619 105.968 260.246  1.00  0.00     0.014 C 
BRANCH   7   9
ATOM      9  C   UNL     1      38.767 107.203 262.434  1.00  0.00     0.044 C 
ATOM     10  O   UNL     1      38.292 107.252 263.599  1.00  0.00    -0.550 OA
ATOM     11  O   UNL     1      40.124 107.438 262.241  1.00  0.00    -0.550 OA
ENDBRANCH   7   9
ENDBRANCH   6   7
ENDBRANCH   5   6
ENDBRANCH   4   5
ENDBRANCH   3   4
ENDBRANCH   2   3
ENDBRANCH   1   2
BRANCH   1  12
ATOM     12  C   UNL     1      34.882 106.101 265.785  1.00  0.00     0.000 C 
BRANCH  12  13
ATOM     13  C   UNL     1      35.153 107.336 264.910  1.00  0.00    -0.000 C 
BRANCH  13  14
ATOM     14  C   UNL     1      36.169 108.304 265.541  1.00  0.00    -0.000 C 
BRANCH  14  15
ATOM     15  C   UNL     1      35.720 108.954 266.864  1.00  0.00    -0.000 C 
BRANCH  15  16
ATOM     16  C   UNL     1      34.918 108.010 267.784  1.00  0.00    -0.000 C 
BRANCH  16  17
ATOM     17  C   UNL     1      35.292 108.181 269.264  1.00  0.00    -0.000 C 
BRANCH  17  18
ATOM     18  C   UNL     1      35.698 106.841 269.888  1.00  0.00    -0.003 C 
ATOM     19  C   UNL     1      34.875 105.692 269.311  1.00  0.00     0.004 C 
ENDBRANCH  17  18
ENDBRANCH  16  17
ENDBRANCH  15  16
ENDBRANCH  14  15
ENDBRANCH  13  14
ENDBRANCH  12  13
ENDBRANCH   1  12
TORSDOF 14
ENDMDL
MODEL 3
REMARK VINA RESULT:    -1.888      3.850      8.083
REMARK INTER + INTRA:          -4.222
REMARK INTER:                  -3.447
REMARK INTRA:                  -0.775
REMARK UNBOUND:                -0.789
REMARK SMILES CCCCCCCCCCCCCC[C@H](C)C(=O)[O-]
REMARK SMILES IDX 9 1 10 2 11 3 12 4 13 5 14 6 15 7 16 8 17 9 18 10 19 11 8 12
REMARK SMILES IDX 7 13 6 14 5 15 4 16 3 17 2 18 1 19
REMARK H PARENT
REMARK Flexibility Score: inf
ROOT
ATOM      1  C   UNL     1      36.280 107.561 265.543  1.00  0.00     0.000 C 
ENDROOT
BRANCH   1   2
ATOM      2  C   UNL     1      36.576 106.944 264.164  1.00  0.00     0.000 C 
BRANCH   2   3
ATOM      3  C   UNL     1      35.303 106.529 263.407  1.00  0.00     0.000 C 
BRANCH   3   4
ATOM      4  C   UNL     1      35.157 105.002 263.268  1.00  0.00     0.000 C 
BRANCH   4   5
ATOM      5  C   UNL     1      35.799 104.388 262.010  1.00  0.00     0.001 C 
BRANCH   5   6
ATOM      6  C   UNL     1      35.899 105.386 260.839  1.00  0.00     0.009 C 
BRANCH   6   7
ATOM      7  C   UNL     1      37.304 105.481 260.203  1.00  0.00     0.032 C 
ATOM      8  C   UNL     1      38.329 106.162 261.122  1.00  0.00     0.014 C 
BRANCH   7   9
ATOM      9  C   UNL     1      37.257 106.131 258.845  1.00  0.00     0.044 C 
ATOM     10  O   UNL     1      38.139 105.860 257.989  1.00  0.00    -0.550 OA
ATOM     11  O   UNL     1      36.218 106.990 258.505  1.00  0.00    -0.550 OA
ENDBRANCH   7   9
ENDBRANCH   6   7
ENDBRANCH   5   6
ENDBRANCH   4   5
ENDBRANCH   3   4
ENDBRANCH   2   3
ENDBRANCH   1   2
BRANCH   1  12
ATOM     12  C   UNL     1      34.881 108.186 265.701  1.00  0.00     0.000 C 
BRANCH  12  13
ATOM     13  C   UNL     1      34.922 109.613 266.270  1.00  0.00    -0.000 C 
BRANCH  13  14
ATOM     14  C   UNL     1      34.954 109.644 267.807  1.00  0.00    -0.000 C 
BRANCH  14  15
ATOM     15  C   UNL     1      34.875 108.265 268.492  1.00  0.00    -0.000 C 
BRANCH  15  16
ATOM     16  C   UNL     1      35.915 108.064 269.614  1.00  0.00    -0.000 C 
BRANCH  16  17
ATOM     17  C   UNL     1      36.006 106.600 270.069  1.00  0.00    -0.000 C 
BRANCH  17  18
ATOM     18  C   UNL     1      34.922 105.746 269.400  1.00  0.00    -0.003 C 
ATOM     19  C   UNL     1      35.380 105.248 268.032  1.00  0.00     0.004 C 
ENDBRANCH  17  18
ENDBRANCH  16  17
ENDBRANCH  15  16
ENDBRANCH  14  15
ENDBRANCH  13  14
ENDBRANCH  12  13
ENDBRANCH   1  12
TORSDOF 14
ENDMDL
MODEL 4
REMARK VINA RESULT:    -1.569      3.729      7.800
REMARK INTER + INTRA:          -3.643
REMARK INTER:                  -3.688
REMARK INTRA:                   0.045
REMARK UNBOUND:                -0.789
REMARK SMILES CCCCCCCCCCCCCC[C@H](C)C(=O)[O-]
REMARK SMILES IDX 9 1 10 2 11 3 12 4 13 5 14 6 15 7 16 8 17 9 18 10 19 11 8 12
REMARK SMILES IDX 7 13 6 14 5 15 4 16 3 17 2 18 1 19
REMARK H PARENT
REMARK Flexibility Score: inf
ROOT
ATOM      1  C   UNL     1      36.033 104.697 265.961  1.00  0.00     0.000 C 
ENDROOT
BRANCH   1   2
ATOM      2  C   UNL     1      35.669 104.706 264.465  1.00  0.00     0.000 C 
BRANCH   2   3
ATOM      3  C   UNL     1      35.600 106.123 263.872  1.00  0.00     0.000 C 
BRANCH   3   4
ATOM      4  C   UNL     1      36.957 106.850 263.888  1.00  0.00     0.000 C 
BRANCH   4   5
ATOM      5  C   UNL     1      37.885 106.543 262.697  1.00  0.00     0.001 C 
BRANCH   5   6
ATOM      6  C   UNL     1      37.254 106.902 261.337  1.00  0.00     0.009 C 
BRANCH   6   7
ATOM      7  C   UNL     1      37.328 105.773 260.284  1.00  0.00     0.032 C 
ATOM      8  C   UNL     1      38.666 105.021 260.309  1.00  0.00     0.014 C 
BRANCH   7   9
ATOM      9  C   UNL     1      37.000 106.278 258.903  1.00  0.00     0.044 C 
ATOM     10  O   UNL     1      37.851 106.179 257.981  1.00  0.00    -0.550 OA
ATOM     11  O   UNL     1      35.745 106.804 258.619  1.00  0.00    -0.550 OA
ENDBRANCH   7   9
ENDBRANCH   6   7
ENDBRANCH   5   6
ENDBRANCH   4   5
ENDBRANCH   3   4
ENDBRANCH   2   3
ENDBRANCH   1   2
BRANCH   1  12
ATOM     12  C   UNL     1      34.880 104.343 266.918  1.00  0.00     0.000 C 
BRANCH  12  13
ATOM     13  C   UNL     1      34.963 105.092 268.259  1.00  0.00    -0.000 C 
BRANCH  13  14
ATOM     14  C   UNL     1      35.298 106.584 268.091  1.00  0.00    -0.000 C 
BRANCH  14  15
ATOM     15  C   UNL     1      35.871 107.272 269.346  1.00  0.00    -0.000 C 
BRANCH  15  16
ATOM     16  C   UNL     1      35.408 108.733 269.522  1.00  0.00    -0.000 C 
BRANCH  16  17
ATOM     17  C   UNL     1      34.876 109.339 268.215  1.00  0.00    -0.000 C 
BRANCH  17  18
ATOM     18  C   UNL     1      35.827 109.049 267.047  1.00  0.00    -0.003 C 
ATOM     19  C   UNL     1      35.057 108.873 265.741  1.00  0.00     0.004 C 
ENDBRANCH  17  18
ENDBRANCH  16  17
ENDBRANCH  15  16
ENDBRANCH  14  15
ENDBRANCH  13  14
ENDBRANCH  12  13
ENDBRANCH   1  12
TORSDOF 14
ENDMDL
MODEL 5
REMARK VINA RESULT:    -1.092      3.643      7.795
REMARK INTER + INTRA:          -2.775
REMARK INTER:                  -2.644
REMARK INTRA:                  -0.130
REMARK UNBOUND:                -0.789
REMARK SMILES CCCCCCCCCCCCCC[C@H](C)C(=O)[O-]
REMARK SMILES IDX 9 1 10 2 11 3 12 4 13 5 14 6 15 7 16 8 17 9 18 10 19 11 8 12
REMARK SMILES IDX 7 13 6 14 5 15 4 16 3 17 2 18 1 19
REMARK H PARENT
REMARK Flexibility Score: inf
ROOT
ATOM      1  C   UNL     1      35.126 105.882 264.795  1.00  0.00     0.000 C 
ENDROOT
BRANCH   1   2
ATOM      2  C   UNL     1      35.493 106.527 263.446  1.00  0.00     0.000 C 
BRANCH   2   3
ATOM      3  C   UNL     1      37.002 106.780 263.292  1.00  0.00     0.000 C 
BRANCH   3   4
ATOM      4  C   UNL     1      37.410 107.129 261.849  1.00  0.00     0.000 C 
BRANCH   4   5
ATOM      5  C   UNL     1      37.923 105.948 261.003  1.00  0.00     0.001 C 
BRANCH   5   6
ATOM      6  C   UNL     1      36.826 105.318 260.122  1.00  0.00     0.009 C 
BRANCH   6   7
ATOM      7  C   UNL     1      36.896 105.724 258.633  1.00  0.00     0.032 C 
ATOM      8  C   UNL     1      38.336 105.825 258.109  1.00  0.00     0.014 C 
BRANCH   7   9
ATOM      9  C   UNL     1      36.118 106.985 258.362  1.00  0.00     0.044 C 
ATOM     10  O   UNL     1      34.958 106.914 257.876  1.00  0.00    -0.550 OA
ATOM     11  O   UNL     1      36.643 108.229 258.694  1.00  0.00    -0.550 OA
ENDBRANCH   7   9
ENDBRANCH   6   7
ENDBRANCH   5   6
ENDBRANCH   4   5
ENDBRANCH   3   4
ENDBRANCH   2   3
ENDBRANCH   1   2
BRANCH   1  12
ATOM     12  C   UNL     1      35.343 104.360 264.879  1.00  0.00     0.000 C 
BRANCH  12  13
ATOM     13  C   UNL     1      36.478 103.969 265.841  1.00  0.00    -0.000 C 
BRANCH  13  14
ATOM     14  C   UNL     1      36.003 103.811 267.295  1.00  0.00    -0.000 C 
BRANCH  14  15
ATOM     15  C   UNL     1      34.878 104.773 267.725  1.00  0.00    -0.000 C 
BRANCH  15  16
ATOM     16  C   UNL     1      35.257 105.688 268.907  1.00  0.00    -0.000 C 
BRANCH  16  17
ATOM     17  C   UNL     1      35.170 107.178 268.543  1.00  0.00    -0.000 C 
BRANCH  17  18
ATOM     18  C   UNL     1      35.427 107.395 267.047  1.00  0.00    -0.003 C 
ATOM     19  C   UNL     1      35.213 108.855 266.657  1.00  0.00     0.004 C 
ENDBRANCH  17  18
ENDBRANCH  16  17
ENDBRANCH  15  16
ENDBRANCH  14  15
ENDBRANCH  13  14
ENDBRANCH  12  13
ENDBRANCH   1  12
TORSDOF 14
ENDMDL
MODEL 6
REMARK VINA RESULT:    -0.829      3.481      7.869
REMARK INTER + INTRA:          -2.296
REMARK INTER:                  -3.639
REMARK INTRA:                   1.343
REMARK UNBOUND:                -0.789
REMARK SMILES CCCCCCCCCCCCCC[C@H](C)C(=O)[O-]
REMARK SMILES IDX 9 1 10 2 11 3 12 4 13 5 14 6 15 7 16 8 17 9 18 10 19 11 8 12
REMARK SMILES IDX 7 13 6 14 5 15 4 16 3 17 2 18 1 19
REMARK H PARENT
REMARK Flexibility Score: inf
ROOT
ATOM      1  C   UNL     1      36.769 106.487 262.438  1.00  0.00     0.000 C 
ENDROOT
BRANCH   1   2
ATOM      2  C   UNL     1      37.690 107.362 263.309  1.00  0.00     0.000 C 
BRANCH   2   3
ATOM      3  C   UNL     1      39.009 107.728 262.609  1.00  0.00     0.000 C 
BRANCH   3   4
ATOM      4  C   UNL     1      39.700 106.517 261.956  1.00  0.00     0.000 C 
BRANCH   4   5
ATOM      5  C   UNL     1      39.244 106.190 260.522  1.00  0.00     0.001 C 
BRANCH   5   6
ATOM      6  C   UNL     1      37.741 105.858 260.431  1.00  0.00     0.009 C 
BRANCH   6   7
ATOM      7  C   UNL     1      37.174 105.863 258.994  1.00  0.00     0.032 C 
ATOM      8  C   UNL     1      38.265 105.724 257.923  1.00  0.00     0.014 C 
BRANCH   7   9
ATOM      9  C   UNL     1      36.301 107.065 258.744  1.00  0.00     0.044 C 
ATOM     10  O   UNL     1      35.239 106.942 258.079  1.00  0.00    -0.550 OA
ATOM     11  O   UNL     1      36.626 108.304 259.286  1.00  0.00    -0.550 OA
ENDBRANCH   7   9
ENDBRANCH   6   7
ENDBRANCH   5   6
ENDBRANCH   4   5
ENDBRANCH   3   4
ENDBRANCH   2   3
ENDBRANCH   1   2
BRANCH   1  12
ATOM     12  C   UNL     1      35.392 106.168 263.048  1.00  0.00     0.000 C 
BRANCH  12  13
ATOM     13  C   UNL     1      35.380 106.262 264.583  1.00  0.00    -0.000 C 
BRANCH  13  14
ATOM     14  C   UNL     1      35.379 104.885 265.267  1.00  0.00    -0.000 C 
BRANCH  14  15
ATOM     15  C   UNL     1      35.138 104.909 266.790  1.00  0.00    -0.000 C 
BRANCH  15  16
ATOM     16  C   UNL     1      34.875 106.319 267.358  1.00  0.00    -0.000 C 
BRANCH  16  17
ATOM     17  C   UNL     1      34.942 106.351 268.892  1.00  0.00    -0.000 C 
BRANCH  17  18
ATOM     18  C   UNL     1      35.265 107.761 269.400  1.00  0.00    -0.003 C 
ATOM     19  C   UNL     1      35.609 108.698 268.246  1.00  0.00     0.004 C 
ENDBRANCH  17  18
ENDBRANCH  16  17
ENDBRANCH  15  16
ENDBRANCH  14  15
ENDBRANCH  13  14
ENDBRANCH  12  13
ENDBRANCH   1  12
TORSDOF 14
ENDMDL
MODEL 7
REMARK VINA RESULT:    -0.448      1.433      2.507
REMARK INTER + INTRA:          -1.604
REMARK INTER:                  -2.019
REMARK INTRA:                   0.415
REMARK UNBOUND:                -0.789
REMARK SMILES CCCCCCCCCCCCCC[C@H](C)C(=O)[O-]
REMARK SMILES IDX 9 1 10 2 11 3 12 4 13 5 14 6 15 7 16 8 17 9 18 10 19 11 8 12
REMARK SMILES IDX 7 13 6 14 5 15 4 16 3 17 2 18 1 19
REMARK H PARENT
REMARK Flexibility Score: inf
ROOT
ATOM      1  C   UNL     1      38.060 106.779 263.642  1.00  0.00     0.000 C 
ENDROOT
BRANCH   1   2
ATOM      2  C   UNL     1      36.764 107.329 263.019  1.00  0.00     0.000 C 
BRANCH   2   3
ATOM      3  C   UNL     1      35.499 106.876 263.768  1.00  0.00     0.000 C 
BRANCH   3   4
ATOM      4  C   UNL     1      35.652 105.493 264.428  1.00  0.00     0.000 C 
BRANCH   4   5
ATOM      5  C   UNL     1      35.943 105.511 265.940  1.00  0.00     0.001 C 
BRANCH   5   6
ATOM      6  C   UNL     1      34.876 106.276 266.748  1.00  0.00     0.009 C 
BRANCH   6   7
ATOM      7  C   UNL     1      35.450 107.216 267.831  1.00  0.00     0.032 C 
ATOM      8  C   UNL     1      35.032 106.814 269.252  1.00  0.00     0.014 C 
BRANCH   7   9
ATOM      9  C   UNL     1      35.125 108.659 267.545  1.00  0.00     0.044 C 
ATOM     10  O   UNL     1      34.909 109.454 268.496  1.00  0.00    -0.550 OA
ATOM     11  O   UNL     1      35.114 109.139 266.239  1.00  0.00    -0.550 OA
ENDBRANCH   7   9
ENDBRANCH   6   7
ENDBRANCH   5   6
ENDBRANCH   4   5
ENDBRANCH   3   4
ENDBRANCH   2   3
ENDBRANCH   1   2
BRANCH   1  12
ATOM     12  C   UNL     1      39.361 107.434 263.141  1.00  0.00     0.000 C 
BRANCH  12  13
ATOM     13  C   UNL     1      39.624 107.181 261.647  1.00  0.00    -0.000 C 
BRANCH  13  14
ATOM     14  C   UNL     1      38.795 106.014 261.084  1.00  0.00    -0.000 C 
BRANCH  14  15
ATOM     15  C   UNL     1      38.401 106.147 259.599  1.00  0.00    -0.000 C 
BRANCH  15  16
ATOM     16  C   UNL     1      36.915 106.495 259.377  1.00  0.00    -0.000 C 
BRANCH  16  17
ATOM     17  C   UNL     1      35.978 105.361 259.818  1.00  0.00    -0.000 C 
BRANCH  17  18
ATOM     18  C   UNL     1      36.498 104.679 261.090  1.00  0.00    -0.003 C 
ATOM     19  C   UNL     1      35.394 103.881 261.778  1.00  0.00     0.004 C 
ENDBRANCH  17  18
ENDBRANCH  16  17
ENDBRANCH  15  16
ENDBRANCH  14  15
ENDBRANCH  13  14
ENDBRANCH  12  13
ENDBRANCH   1  12
TORSDOF 14
ENDMDL
MODEL 8
REMARK VINA RESULT:    -0.129      3.719      6.606
REMARK INTER + INTRA:          -1.024
REMARK INTER:                  -0.421
REMARK INTRA:                  -0.603
REMARK UNBOUND:                -0.789
REMARK SMILES CCCCCCCCCCCCCC[C@H](C)C(=O)[O-]
REMARK SMILES IDX 9 1 10 2 11 3 12 4 13 5 14 6 15 7 16 8 17 9 18 10 19 11 8 12
REMARK SMILES IDX 7 13 6 14 5 15 4 16 3 17 2 18 1 19
REMARK H PARENT
REMARK Flexibility Score: inf
ROOT
ATOM      1  C   UNL     1      34.882 105.248 266.349  1.00  0.00     0.000 C 
ENDROOT
BRANCH   1   2
ATOM      2  C   UNL     1      35.948 104.167 266.098  1.00  0.00     0.000 C 
BRANCH   2   3
ATOM      3  C   UNL     1      36.396 104.094 264.629  1.00  0.00     0.000 C 
BRANCH   3   4
ATOM      4  C   UNL     1      35.512 104.935 263.688  1.00  0.00     0.000 C 
BRANCH   4   5
ATOM      5  C   UNL     1      35.569 104.541 262.200  1.00  0.00     0.001 C 
BRANCH   5   6
ATOM      6  C   UNL     1      35.975 105.712 261.284  1.00  0.00     0.009 C 
BRANCH   6   7
ATOM      7  C   UNL     1      36.834 105.300 260.068  1.00  0.00     0.032 C 
ATOM      8  C   UNL     1      38.272 104.927 260.453  1.00  0.00     0.014 C 
BRANCH   7   9
ATOM      9  C   UNL     1      36.803 106.347 258.985  1.00  0.00     0.044 C 
ATOM     10  O   UNL     1      37.881 106.767 258.487  1.00  0.00    -0.550 OA
ATOM     11  O   UNL     1      35.594 106.819 258.488  1.00  0.00    -0.550 OA
ENDBRANCH   7   9
ENDBRANCH   6   7
ENDBRANCH   5   6
ENDBRANCH   4   5
ENDBRANCH   3   4
ENDBRANCH   2   3
ENDBRANCH   1   2
BRANCH   1  12
ATOM     12  C   UNL     1      34.876 105.852 267.766  1.00  0.00     0.000 C 
BRANCH  12  13
ATOM     13  C   UNL     1      34.990 107.385 267.765  1.00  0.00    -0.000 C 
BRANCH  13  14
ATOM     14  C   UNL     1      34.959 107.987 266.350  1.00  0.00    -0.000 C 
BRANCH  14  15
ATOM     15  C   UNL     1      36.340 108.224 265.708  1.00  0.00    -0.000 C 
BRANCH  15  16
ATOM     16  C   UNL     1      36.482 107.624 264.294  1.00  0.00    -0.000 C 
BRANCH  16  17
ATOM     17  C   UNL     1      37.881 107.041 264.047  1.00  0.00    -0.000 C 
BRANCH  17  18
ATOM     18  C   UNL     1      38.465 107.550 262.723  1.00  0.00    -0.003 C 
ATOM     19  C   UNL     1      39.910 107.094 262.547  1.00  0.00     0.004 C 
ENDBRANCH  17  18
ENDBRANCH  16  17
ENDBRANCH  15  16
ENDBRANCH  14  15
ENDBRANCH  13  14
ENDBRANCH  12  13
ENDBRANCH   1  12
TORSDOF 14
ENDMDL
