MODEL 1
REMARK VINA RESULT:     0.000      0.000      0.000
REMARK INTER + INTRA:          -0.072
REMARK INTER:                   0.000
REMARK INTRA:                  -0.072
REMARK UNBOUND:                -0.072
REMARK SMILES CCCC(=O)[O-]
REMARK SMILES IDX 3 1 4 2 5 3 6 4 2 5 1 6
REMARK H PARENT
REMARK Flexibility Score: inf
ROOT
ATOM      1  C   UNL     1     177.202 183.354 183.633  1.00  0.00     0.052 C 
ENDROOT
BRANCH   1   2
ATOM      2  C   UNL     1     177.509 184.715 183.092  1.00  0.00     0.041 C 
ATOM      3  O   UNL     1     177.513 185.714 183.857  1.00  0.00    -0.550 OA
ATOM      4  O   UNL     1     177.742 184.886 181.734  1.00  0.00    -0.550 OA
ENDBRANCH   1   2
BRANCH   1   5
ATOM      5  C   UNL     1     178.269 182.926 184.644  1.00  0.00     0.003 C 
ATOM      6  C   UNL     1     179.640 182.811 183.984  1.00  0.00     0.004 C 
ENDBRANCH   1   5
TORSDOF 2
ENDMDL
MODEL 2
REMARK VINA RESULT:     0.000      7.012      7.804
REMARK INTER + INTRA:          -0.072
REMARK INTER:                   0.000
REMARK INTRA:                  -0.072
REMARK UNBOUND:                -0.072
REMARK SMILES CCCC(=O)[O-]
REMARK SMILES IDX 3 1 4 2 5 3 6 4 2 5 1 6
REMARK H PARENT
REMARK Flexibility Score: inf
ROOT
ATOM      1  C   UNL     1     180.418 177.766 183.361  1.00  0.00     0.052 C 
ENDROOT
BRANCH   1   2
ATOM      2  C   UNL     1     180.040 176.322 183.468  1.00  0.00     0.041 C 
ATOM      3  O   UNL     1     179.900 175.626 182.428  1.00  0.00    -0.550 OA
ATOM      4  O   UNL     1     179.795 175.758 184.713  1.00  0.00    -0.550 OA
ENDBRANCH   1   2
BRANCH   1   5
ATOM      5  C   UNL     1     179.369 178.646 184.046  1.00  0.00     0.003 C 
ATOM      6  C   UNL     1     178.029 178.570 183.321  1.00  0.00     0.004 C 
ENDBRANCH   1   5
TORSDOF 2
ENDMDL
MODEL 3
REMARK VINA RESULT:     0.000      9.051      9.632
REMARK INTER + INTRA:          -0.072
REMARK INTER:                   0.000
REMARK INTRA:                  -0.072
REMARK UNBOUND:                -0.072
REMARK SMILES CCCC(=O)[O-]
REMARK SMILES IDX 3 1 4 2 5 3 6 4 2 5 1 6
REMARK H PARENT
REMARK Flexibility Score: inf
ROOT
ATOM      1  C   UNL     1     184.867 176.848 183.212  1.00  0.00     0.052 C 
ENDROOT
BRANCH   1   2
ATOM      2  C   UNL     1     184.756 177.661 181.960  1.00  0.00     0.041 C 
ATOM      3  O   UNL     1     185.575 177.491 181.020  1.00  0.00    -0.550 OA
ATOM      4  O   UNL     1     183.778 178.642 181.853  1.00  0.00    -0.550 OA
ENDBRANCH   1   2
BRANCH   1   5
ATOM      5  C   UNL     1     185.021 177.760 184.432  1.00  0.00     0.003 C 
ATOM      6  C   UNL     1     186.339 178.527 184.383  1.00  0.00     0.004 C 
ENDBRANCH   1   5
TORSDOF 2
ENDMDL
MODEL 4
REMARK VINA RESULT:     0.000      7.589      8.437
REMARK INTER + INTRA:          -0.072
REMARK INTER:                   0.000
REMARK INTRA:                  -0.072
REMARK UNBOUND:                -0.072
REMARK SMILES CCCC(=O)[O-]
REMARK SMILES IDX 3 1 4 2 5 3 6 4 2 5 1 6
REMARK H PARENT
REMARK Flexibility Score: inf
ROOT
ATOM      1  C   UNL     1     175.800 181.386 176.174  1.00  0.00     0.052 C 
ENDROOT
BRANCH   1   2
ATOM      2  C   UNL     1     175.507 182.471 175.186  1.00  0.00     0.041 C 
ATOM      3  O   UNL     1     174.561 182.342 174.365  1.00  0.00    -0.550 OA
ATOM      4  O   UNL     1     176.309 183.604 175.141  1.00  0.00    -0.550 OA
ENDBRANCH   1   2
BRANCH   1   5
ATOM      5  C   UNL     1     174.621 181.202 177.133  1.00  0.00     0.003 C 
ATOM      6  C   UNL     1     174.382 182.462 177.960  1.00  0.00     0.004 C 
ENDBRANCH   1   5
TORSDOF 2
ENDMDL
MODEL 5
REMARK VINA RESULT:     0.000      7.159      7.921
REMARK INTER + INTRA:          -0.072
REMARK INTER:                   0.000
REMARK INTRA:                  -0.072
REMARK UNBOUND:                -0.072
REMARK SMILES CCCC(=O)[O-]
REMARK SMILES IDX 3 1 4 2 5 3 6 4 2 5 1 6
REMARK H PARENT
REMARK Flexibility Score: inf
ROOT
ATOM      1  C   UNL     1     179.745 177.135 180.394  1.00  0.00     0.052 C 
ENDROOT
BRANCH   1   2
ATOM      2  C   UNL     1     180.170 176.480 181.670  1.00  0.00     0.041 C 
ATOM      3  O   UNL     1     179.423 175.635 182.228  1.00  0.00    -0.550 OA
ATOM      4  O   UNL     1     181.371 176.838 182.268  1.00  0.00    -0.550 OA
ENDBRANCH   1   2
BRANCH   1   5
ATOM      5  C   UNL     1     179.719 178.657 180.556  1.00  0.00     0.003 C 
ATOM      6  C   UNL     1     178.650 179.087 181.556  1.00  0.00     0.004 C 
ENDBRANCH   1   5
TORSDOF 2
ENDMDL
MODEL 6
REMARK VINA RESULT:     0.000      9.241      9.682
REMARK INTER + INTRA:          -0.072
REMARK INTER:                   0.000
REMARK INTRA:                  -0.072
REMARK UNBOUND:                -0.072
REMARK SMILES CCCC(=O)[O-]
REMARK SMILES IDX 3 1 4 2 5 3 6 4 2 5 1 6
REMARK H PARENT
REMARK Flexibility Score: inf
ROOT
ATOM      1  C   UNL     1     180.086 187.114 175.792  1.00  0.00     0.052 C 
ENDROOT
BRANCH   1   2
ATOM      2  C   UNL     1     179.728 187.740 174.481  1.00  0.00     0.041 C 
ATOM      3  O   UNL     1     178.897 187.180 173.718  1.00  0.00    -0.550 OA
ATOM      4  O   UNL     1     180.348 188.916 174.080  1.00  0.00    -0.550 OA
ENDBRANCH   1   2
BRANCH   1   5
ATOM      5  C   UNL     1     181.595 186.867 175.874  1.00  0.00     0.003 C 
ATOM      6  C   UNL     1     182.040 185.830 174.847  1.00  0.00     0.004 C 
ENDBRANCH   1   5
TORSDOF 2
ENDMDL
MODEL 7
REMARK VINA RESULT:     0.000     13.533     14.121
REMARK INTER + INTRA:          -0.072
REMARK INTER:                   0.000
REMARK INTRA:                  -0.072
REMARK UNBOUND:                -0.072
REMARK SMILES CCCC(=O)[O-]
REMARK SMILES IDX 3 1 4 2 5 3 6 4 2 5 1 6
REMARK H PARENT
REMARK Flexibility Score: inf
ROOT
ATOM      1  C   UNL     1     178.193 172.421 175.792  1.00  0.00     0.052 C 
ENDROOT
BRANCH   1   2
ATOM      2  C   UNL     1     177.665 173.314 174.713  1.00  0.00     0.041 C 
ATOM      3  O   UNL     1     176.977 172.834 173.774  1.00  0.00    -0.550 OA
ATOM      4  O   UNL     1     177.974 174.668 174.718  1.00  0.00    -0.550 OA
ENDBRANCH   1   2
BRANCH   1   5
ATOM      5  C   UNL     1     179.718 172.526 175.875  1.00  0.00     0.003 C 
ATOM      6  C   UNL     1     180.377 171.988 174.609  1.00  0.00     0.004 C 
ENDBRANCH   1   5
TORSDOF 2
ENDMDL
MODEL 8
REMARK VINA RESULT:     0.000     14.524     14.985
REMARK INTER + INTRA:          -0.072
REMARK INTER:                   0.000
REMARK INTRA:                  -0.072
REMARK UNBOUND:                -0.072
REMARK SMILES CCCC(=O)[O-]
REMARK SMILES IDX 3 1 4 2 5 3 6 4 2 5 1 6
REMARK H PARENT
REMARK Flexibility Score: inf
ROOT
ATOM      1  C   UNL     1     186.785 177.074 175.191  1.00  0.00     0.052 C 
ENDROOT
BRANCH   1   2
ATOM      2  C   UNL     1     186.865 175.920 174.242  1.00  0.00     0.041 C 
ATOM      3  O   UNL     1     187.811 175.844 173.416  1.00  0.00    -0.550 OA
ATOM      4  O   UNL     1     185.868 174.953 174.238  1.00  0.00    -0.550 OA
ENDBRANCH   1   2
BRANCH   1   5
ATOM      5  C   UNL     1     187.985 177.072 176.141  1.00  0.00     0.003 C 
ATOM      6  C   UNL     1     187.995 175.819 177.012  1.00  0.00     0.004 C 
ENDBRANCH   1   5
TORSDOF 2
ENDMDL
MODEL 9
REMARK VINA RESULT:     0.000      8.565      9.013
REMARK INTER + INTRA:          -0.072
REMARK INTER:                   0.000
REMARK INTRA:                  -0.072
REMARK UNBOUND:                -0.072
REMARK SMILES CCCC(=O)[O-]
REMARK SMILES IDX 3 1 4 2 5 3 6 4 2 5 1 6
REMARK H PARENT
REMARK Flexibility Score: inf
ROOT
ATOM      1  C   UNL     1     175.073 176.440 178.089  1.00  0.00     0.052 C 
ENDROOT
BRANCH   1   2
ATOM      2  C   UNL     1     175.066 177.936 178.129  1.00  0.00     0.041 C 
ATOM      3  O   UNL     1     175.260 178.541 179.215  1.00  0.00    -0.550 OA
ATOM      4  O   UNL     1     174.797 178.660 176.975  1.00  0.00    -0.550 OA
ENDBRANCH   1   2
BRANCH   1   5
ATOM      5  C   UNL     1     176.455 175.900 178.466  1.00  0.00     0.003 C 
ATOM      6  C   UNL     1     177.513 176.346 177.462  1.00  0.00     0.004 C 
ENDBRANCH   1   5
TORSDOF 2
ENDMDL
