MODEL 1
REMARK VINA RESULT:    -6.186      0.000      0.000
REMARK INTER + INTRA:          -7.743
REMARK INTER:                  -7.451
REMARK INTRA:                  -0.292
REMARK UNBOUND:                -0.292
REMARK SMILES O=c1c(O)c(-c2ccc(O)c(O)c2)oc2cc(O)cc(O)c12
REMARK SMILES IDX 5 1 3 2 2 3 1 4 22 5 20 6 19 7 17 8 16 9 15 10 14 11 6 12
REMARK SMILES IDX 7 13 8 14 9 15 13 16 11 17 10 18 12 20 4 22 21 24 18 26
REMARK H PARENT 10 19 12 21 4 23 21 25 18 27
REMARK Flexibility Score: inf
ROOT
ATOM      1  C   UNL     1      81.705  25.300  44.932  1.00  0.00     0.180 A 
ATOM      2  C   UNL     1      80.790  25.987  44.115  1.00  0.00     0.208 A 
ATOM      3  C   UNL     1      80.546  25.513  42.816  1.00  0.00     0.238 A 
ATOM      4  O   UNL     1      79.768  26.163  42.071  1.00  0.00    -0.285 OA
ATOM      5  C   UNL     1      81.206  24.347  42.357  1.00  0.00     0.111 A 
ATOM      6  C   UNL     1      81.004  23.753  41.075  1.00  0.00     0.134 A 
ATOM      7  C   UNL     1      81.808  22.678  40.678  1.00  0.00     0.093 A 
ATOM      8  C   UNL     1      82.760  22.133  41.542  1.00  0.00     0.123 A 
ATOM      9  C   UNL     1      82.924  22.667  42.817  1.00  0.00     0.094 A 
ATOM     10  C   UNL     1      82.162  23.764  43.229  1.00  0.00     0.146 A 
ATOM     11  O   UNL     1      82.357  24.249  44.449  1.00  0.00    -0.452 OA
ENDROOT
BRANCH   1  12
ATOM     12  C   UNL     1      81.996  25.725  46.320  1.00  0.00     0.025 A 
ATOM     13  C   UNL     1      83.136  26.489  46.628  1.00  0.00     0.016 A 
ATOM     14  C   UNL     1      83.378  26.899  47.940  1.00  0.00     0.051 A 
ATOM     15  C   UNL     1      82.481  26.565  48.963  1.00  0.00     0.157 A 
ATOM     16  C   UNL     1      81.089  25.411  47.346  1.00  0.00     0.062 A 
ATOM     17  C   UNL     1      81.329  25.820  48.662  1.00  0.00     0.158 A 
BRANCH  15  18
ATOM     18  O   UNL     1      82.726  26.976  50.273  1.00  0.00    -0.504 OA
ATOM     19  H   UNL     1      83.609  27.394  50.541  1.00  0.00     0.293 HD
ENDBRANCH  15  18
BRANCH  17  20
ATOM     20  O   UNL     1      80.412  25.477  49.655  1.00  0.00    -0.504 OA
ATOM     21  H   UNL     1      79.534  25.969  49.771  1.00  0.00     0.293 HD
ENDBRANCH  17  20
ENDBRANCH   1  12
BRANCH   2  22
ATOM     22  O   UNL     1      80.166  27.148  44.580  1.00  0.00    -0.502 OA
ATOM     23  H   UNL     1      80.674  27.891  45.044  1.00  0.00     0.293 HD
ENDBRANCH   2  22
BRANCH   6  24
ATOM     24  O   UNL     1      80.017  24.163  40.172  1.00  0.00    -0.507 OA
ATOM     25  H   UNL     1      80.197  24.646  39.305  1.00  0.00     0.293 HD
ENDBRANCH   6  24
BRANCH   8  26
ATOM     26  O   UNL     1      83.545  21.052  41.144  1.00  0.00    -0.508 OA
ATOM     27  H   UNL     1      84.489  20.927  41.489  1.00  0.00     0.293 HD
ENDBRANCH   8  26
TORSDOF 6
ENDMDL
MODEL 2
REMARK VINA RESULT:    -5.897      8.459     11.031
REMARK INTER + INTRA:          -7.395
REMARK INTER:                  -7.095
REMARK INTRA:                  -0.300
REMARK UNBOUND:                -0.292
REMARK SMILES O=c1c(O)c(-c2ccc(O)c(O)c2)oc2cc(O)cc(O)c12
REMARK SMILES IDX 5 1 3 2 2 3 1 4 22 5 20 6 19 7 17 8 16 9 15 10 14 11 6 12
REMARK SMILES IDX 7 13 8 14 9 15 13 16 11 17 10 18 12 20 4 22 21 24 18 26
REMARK H PARENT 10 19 12 21 4 23 21 25 18 27
REMARK Flexibility Score: inf
ROOT
ATOM      1  C   UNL     1      76.098  17.594  44.493  1.00  0.00     0.180 A 
ATOM      2  C   UNL     1      75.399  18.171  45.567  1.00  0.00     0.208 A 
ATOM      3  C   UNL     1      76.083  18.426  46.767  1.00  0.00     0.238 A 
ATOM      4  O   UNL     1      75.440  18.893  47.743  1.00  0.00    -0.285 OA
ATOM      5  C   UNL     1      77.461  18.116  46.871  1.00  0.00     0.111 A 
ATOM      6  C   UNL     1      78.263  18.369  48.024  1.00  0.00     0.134 A 
ATOM      7  C   UNL     1      79.582  17.901  48.063  1.00  0.00     0.093 A 
ATOM      8  C   UNL     1      80.148  17.248  46.966  1.00  0.00     0.123 A 
ATOM      9  C   UNL     1      79.391  17.049  45.814  1.00  0.00     0.094 A 
ATOM     10  C   UNL     1      78.061  17.473  45.758  1.00  0.00     0.146 A 
ATOM     11  O   UNL     1      77.372  17.253  44.644  1.00  0.00    -0.452 OA
ENDROOT
BRANCH   1  12
ATOM     12  C   UNL     1      75.451  17.318  43.189  1.00  0.00     0.025 A 
ATOM     13  C   UNL     1      74.958  16.040  42.873  1.00  0.00     0.016 A 
ATOM     14  C   UNL     1      74.331  15.808  41.647  1.00  0.00     0.051 A 
ATOM     15  C   UNL     1      74.174  16.851  40.725  1.00  0.00     0.157 A 
ATOM     16  C   UNL     1      75.273  18.364  42.270  1.00  0.00     0.062 A 
ATOM     17  C   UNL     1      74.645  18.136  41.040  1.00  0.00     0.158 A 
BRANCH  15  18
ATOM     18  O   UNL     1      73.548  16.616  39.501  1.00  0.00    -0.504 OA
ATOM     19  H   UNL     1      73.797  17.138  38.668  1.00  0.00     0.293 HD
ENDBRANCH  15  18
BRANCH  17  20
ATOM     20  O   UNL     1      74.499  19.197  40.147  1.00  0.00    -0.504 OA
ATOM     21  H   UNL     1      75.289  19.602  39.659  1.00  0.00     0.293 HD
ENDBRANCH  17  20
ENDBRANCH   1  12
BRANCH   2  22
ATOM     22  O   UNL     1      74.034  18.449  45.450  1.00  0.00    -0.502 OA
ATOM     23  H   UNL     1      73.348  18.092  46.104  1.00  0.00     0.293 HD
ENDBRANCH   2  22
BRANCH   6  24
ATOM     24  O   UNL     1      77.823  19.092  49.138  1.00  0.00    -0.507 OA
ATOM     25  H   UNL     1      76.856  19.239  49.381  1.00  0.00     0.293 HD
ENDBRANCH   6  24
BRANCH   8  26
ATOM     26  O   UNL     1      81.466  16.800  47.008  1.00  0.00    -0.508 OA
ATOM     27  H   UNL     1      81.697  15.859  47.305  1.00  0.00     0.293 HD
ENDBRANCH   8  26
TORSDOF 6
ENDMDL
MODEL 3
REMARK VINA RESULT:    -5.767      2.431      3.718
REMARK INTER + INTRA:          -7.239
REMARK INTER:                  -6.952
REMARK INTRA:                  -0.287
REMARK UNBOUND:                -0.292
REMARK SMILES O=c1c(O)c(-c2ccc(O)c(O)c2)oc2cc(O)cc(O)c12
REMARK SMILES IDX 5 1 3 2 2 3 1 4 22 5 20 6 19 7 17 8 16 9 15 10 14 11 6 12
REMARK SMILES IDX 7 13 8 14 9 15 13 16 11 17 10 18 12 20 4 22 21 24 18 26
REMARK H PARENT 10 19 12 21 4 23 21 25 18 27
REMARK Flexibility Score: inf
ROOT
ATOM      1  C   UNL     1      80.770  26.073  46.600  1.00  0.00     0.180 A 
ATOM      2  C   UNL     1      82.127  26.435  46.665  1.00  0.00     0.208 A 
ATOM      3  C   UNL     1      83.022  25.894  45.727  1.00  0.00     0.238 A 
ATOM      4  O   UNL     1      84.244  26.179  45.823  1.00  0.00    -0.285 OA
ATOM      5  C   UNL     1      82.545  25.013  44.726  1.00  0.00     0.111 A 
ATOM      6  C   UNL     1      83.355  24.439  43.700  1.00  0.00     0.134 A 
ATOM      7  C   UNL     1      82.804  23.478  42.844  1.00  0.00     0.093 A 
ATOM      8  C   UNL     1      81.457  23.120  42.934  1.00  0.00     0.123 A 
ATOM      9  C   UNL     1      80.645  23.719  43.893  1.00  0.00     0.094 A 
ATOM     10  C   UNL     1      81.174  24.654  44.786  1.00  0.00     0.146 A 
ATOM     11  O   UNL     1      80.367  25.193  45.692  1.00  0.00    -0.452 OA
ENDROOT
BRANCH   1  12
ATOM     12  C   UNL     1      79.763  26.619  47.539  1.00  0.00     0.025 A 
ATOM     13  C   UNL     1      78.881  27.643  47.151  1.00  0.00     0.016 A 
ATOM     14  C   UNL     1      77.923  28.127  48.045  1.00  0.00     0.051 A 
ATOM     15  C   UNL     1      77.823  27.587  49.334  1.00  0.00     0.157 A 
ATOM     16  C   UNL     1      79.645  26.068  48.825  1.00  0.00     0.062 A 
ATOM     17  C   UNL     1      78.687  26.551  49.724  1.00  0.00     0.158 A 
BRANCH  15  18
ATOM     18  O   UNL     1      76.867  28.074  50.225  1.00  0.00    -0.504 OA
ATOM     19  H   UNL     1      77.066  28.850  50.845  1.00  0.00     0.293 HD
ENDBRANCH  15  18
BRANCH  17  20
ATOM     20  O   UNL     1      78.609  25.988  50.997  1.00  0.00    -0.504 OA
ATOM     21  H   UNL     1      77.934  26.302  51.684  1.00  0.00     0.293 HD
ENDBRANCH  17  20
ENDBRANCH   1  12
BRANCH   2  22
ATOM     22  O   UNL     1      82.580  27.289  47.674  1.00  0.00    -0.502 OA
ATOM     23  H   UNL     1      82.039  27.481  48.508  1.00  0.00     0.293 HD
ENDBRANCH   2  22
BRANCH   6  24
ATOM     24  O   UNL     1      84.687  24.795  43.466  1.00  0.00    -0.507 OA
ATOM     25  H   UNL     1      85.266  24.405  42.739  1.00  0.00     0.293 HD
ENDBRANCH   6  24
BRANCH   8  26
ATOM     26  O   UNL     1      80.914  22.174  42.067  1.00  0.00    -0.508 OA
ATOM     27  H   UNL     1      79.940  21.898  42.125  1.00  0.00     0.293 HD
ENDBRANCH   8  26
TORSDOF 6
ENDMDL
MODEL 4
REMARK VINA RESULT:    -5.641      1.644      7.029
REMARK INTER + INTRA:          -7.087
REMARK INTER:                  -7.022
REMARK INTRA:                  -0.066
REMARK UNBOUND:                -0.292
REMARK SMILES O=c1c(O)c(-c2ccc(O)c(O)c2)oc2cc(O)cc(O)c12
REMARK SMILES IDX 5 1 3 2 2 3 1 4 22 5 20 6 19 7 17 8 16 9 15 10 14 11 6 12
REMARK SMILES IDX 7 13 8 14 9 15 13 16 11 17 10 18 12 20 4 22 21 24 18 26
REMARK H PARENT 10 19 12 21 4 23 21 25 18 27
REMARK Flexibility Score: inf
ROOT
ATOM      1  C   UNL     1      81.603  24.713  44.982  1.00  0.00     0.180 A 
ATOM      2  C   UNL     1      82.609  25.439  45.645  1.00  0.00     0.208 A 
ATOM      3  C   UNL     1      82.364  25.911  46.944  1.00  0.00     0.238 A 
ATOM      4  O   UNL     1      83.247  26.606  47.511  1.00  0.00    -0.285 OA
ATOM      5  C   UNL     1      81.124  25.637  47.571  1.00  0.00     0.111 A 
ATOM      6  C   UNL     1      80.783  26.031  48.900  1.00  0.00     0.134 A 
ATOM      7  C   UNL     1      79.481  25.821  49.369  1.00  0.00     0.093 A 
ATOM      8  C   UNL     1      78.527  25.172  48.582  1.00  0.00     0.123 A 
ATOM      9  C   UNL     1      78.868  24.731  47.306  1.00  0.00     0.094 A 
ATOM     10  C   UNL     1      80.149  24.958  46.796  1.00  0.00     0.146 A 
ATOM     11  O   UNL     1      80.428  24.531  45.570  1.00  0.00    -0.452 OA
ENDROOT
BRANCH   1  12
ATOM     12  C   UNL     1      81.796  24.163  43.620  1.00  0.00     0.025 A 
ATOM     13  C   UNL     1      82.897  23.345  43.311  1.00  0.00     0.016 A 
ATOM     14  C   UNL     1      83.046  22.818  42.026  1.00  0.00     0.051 A 
ATOM     15  C   UNL     1      82.092  23.086  41.036  1.00  0.00     0.157 A 
ATOM     16  C   UNL     1      80.832  24.412  42.630  1.00  0.00     0.062 A 
ATOM     17  C   UNL     1      80.978  23.885  41.342  1.00  0.00     0.158 A 
BRANCH  15  18
ATOM     18  O   UNL     1      82.245  22.559  39.754  1.00  0.00    -0.504 OA
ATOM     19  H   UNL     1      83.161  22.406  39.349  1.00  0.00     0.293 HD
ENDBRANCH  15  18
BRANCH  17  20
ATOM     20  O   UNL     1      80.007  24.166  40.382  1.00  0.00    -0.504 OA
ATOM     21  H   UNL     1      79.505  25.046  40.365  1.00  0.00     0.293 HD
ENDBRANCH  17  20
ENDBRANCH   1  12
BRANCH   2  22
ATOM     22  O   UNL     1      83.817  25.717  44.999  1.00  0.00    -0.502 OA
ATOM     23  H   UNL     1      84.394  24.993  44.588  1.00  0.00     0.293 HD
ENDBRANCH   2  22
BRANCH   6  24
ATOM     24  O   UNL     1      81.688  26.604  49.800  1.00  0.00    -0.507 OA
ATOM     25  H   UNL     1      82.407  26.097  50.293  1.00  0.00     0.293 HD
ENDBRANCH   6  24
BRANCH   8  26
ATOM     26  O   UNL     1      77.238  24.953  49.064  1.00  0.00    -0.508 OA
ATOM     27  H   UNL     1      76.866  24.017  49.175  1.00  0.00     0.293 HD
ENDBRANCH   8  26
TORSDOF 6
ENDMDL
MODEL 5
REMARK VINA RESULT:    -5.641      2.430      4.061
REMARK INTER + INTRA:          -7.087
REMARK INTER:                  -6.782
REMARK INTRA:                  -0.305
REMARK UNBOUND:                -0.292
REMARK SMILES O=c1c(O)c(-c2ccc(O)c(O)c2)oc2cc(O)cc(O)c12
REMARK SMILES IDX 5 1 3 2 2 3 1 4 22 5 20 6 19 7 17 8 16 9 15 10 14 11 6 12
REMARK SMILES IDX 7 13 8 14 9 15 13 16 11 17 10 18 12 20 4 22 21 24 18 26
REMARK H PARENT 10 19 12 21 4 23 21 25 18 27
REMARK Flexibility Score: inf
ROOT
ATOM      1  C   UNL     1      80.630  25.528  47.435  1.00  0.00     0.180 A 
ATOM      2  C   UNL     1      81.931  26.060  47.418  1.00  0.00     0.208 A 
ATOM      3  C   UNL     1      82.714  25.910  46.261  1.00  0.00     0.238 A 
ATOM      4  O   UNL     1      83.896  26.340  46.270  1.00  0.00    -0.285 OA
ATOM      5  C   UNL     1      82.178  25.245  45.131  1.00  0.00     0.111 A 
ATOM      6  C   UNL     1      82.866  25.072  43.892  1.00  0.00     0.134 A 
ATOM      7  C   UNL     1      82.291  24.284  42.888  1.00  0.00     0.093 A 
ATOM      8  C   UNL     1      81.024  23.719  43.052  1.00  0.00     0.123 A 
ATOM      9  C   UNL     1      80.320  23.932  44.234  1.00  0.00     0.094 A 
ATOM     10  C   UNL     1      80.883  24.684  45.269  1.00  0.00     0.146 A 
ATOM     11  O   UNL     1      80.182  24.853  46.384  1.00  0.00    -0.452 OA
ENDROOT
BRANCH   1  12
ATOM     12  C   UNL     1      79.737  25.668  48.608  1.00  0.00     0.025 A 
ATOM     13  C   UNL     1      79.622  24.644  49.566  1.00  0.00     0.016 A 
ATOM     14  C   UNL     1      78.792  24.807  50.677  1.00  0.00     0.051 A 
ATOM     15  C   UNL     1      78.076  25.998  50.856  1.00  0.00     0.157 A 
ATOM     16  C   UNL     1      79.034  26.867  48.804  1.00  0.00     0.062 A 
ATOM     17  C   UNL     1      78.201  27.034  49.917  1.00  0.00     0.158 A 
BRANCH  15  18
ATOM     18  O   UNL     1      77.247  26.156  51.967  1.00  0.00    -0.504 OA
ATOM     19  H   UNL     1      77.625  26.324  52.891  1.00  0.00     0.293 HD
ENDBRANCH  15  18
BRANCH  17  20
ATOM     20  O   UNL     1      77.508  28.234  50.069  1.00  0.00    -0.504 OA
ATOM     21  H   UNL     1      76.496  28.270  50.111  1.00  0.00     0.293 HD
ENDBRANCH  17  20
ENDBRANCH   1  12
BRANCH   2  22
ATOM     22  O   UNL     1      82.448  26.693  48.552  1.00  0.00    -0.502 OA
ATOM     23  H   UNL     1      81.952  26.719  49.434  1.00  0.00     0.293 HD
ENDBRANCH   2  22
BRANCH   6  24
ATOM     24  O   UNL     1      84.095  25.669  43.591  1.00  0.00    -0.507 OA
ATOM     25  H   UNL     1      84.219  26.435  42.947  1.00  0.00     0.293 HD
ENDBRANCH   6  24
BRANCH   8  26
ATOM     26  O   UNL     1      80.452  22.950  42.041  1.00  0.00    -0.508 OA
ATOM     27  H   UNL     1      80.662  23.118  41.064  1.00  0.00     0.293 HD
ENDBRANCH   8  26
TORSDOF 6
ENDMDL
MODEL 6
REMARK VINA RESULT:    -5.639      7.953     11.083
REMARK INTER + INTRA:          -7.085
REMARK INTER:                  -6.938
REMARK INTRA:                  -0.147
REMARK UNBOUND:                -0.292
REMARK SMILES O=c1c(O)c(-c2ccc(O)c(O)c2)oc2cc(O)cc(O)c12
REMARK SMILES IDX 5 1 3 2 2 3 1 4 22 5 20 6 19 7 17 8 16 9 15 10 14 11 6 12
REMARK SMILES IDX 7 13 8 14 9 15 13 16 11 17 10 18 12 20 4 22 21 24 18 26
REMARK H PARENT 10 19 12 21 4 23 21 25 18 27
REMARK Flexibility Score: inf
ROOT
ATOM      1  C   UNL     1      76.478  17.775  44.240  1.00  0.00     0.180 A 
ATOM      2  C   UNL     1      77.497  16.932  44.716  1.00  0.00     0.208 A 
ATOM      3  C   UNL     1      78.189  17.291  45.885  1.00  0.00     0.238 A 
ATOM      4  O   UNL     1      79.136  16.560  46.275  1.00  0.00    -0.285 OA
ATOM      5  C   UNL     1      77.841  18.480  46.571  1.00  0.00     0.111 A 
ATOM      6  C   UNL     1      78.447  18.920  47.786  1.00  0.00     0.134 A 
ATOM      7  C   UNL     1      78.115  20.177  48.307  1.00  0.00     0.093 A 
ATOM      8  C   UNL     1      77.152  20.980  47.692  1.00  0.00     0.123 A 
ATOM      9  C   UNL     1      76.512  20.533  46.539  1.00  0.00     0.094 A 
ATOM     10  C   UNL     1      76.848  19.299  45.976  1.00  0.00     0.146 A 
ATOM     11  O   UNL     1      76.221  18.915  44.869  1.00  0.00    -0.452 OA
ENDROOT
BRANCH   1  12
ATOM     12  C   UNL     1      75.688  17.452  43.030  1.00  0.00     0.025 A 
ATOM     13  C   UNL     1      74.916  16.280  42.951  1.00  0.00     0.016 A 
ATOM     14  C   UNL     1      74.160  16.007  41.809  1.00  0.00     0.051 A 
ATOM     15  C   UNL     1      74.154  16.906  40.734  1.00  0.00     0.157 A 
ATOM     16  C   UNL     1      75.662  18.359  41.958  1.00  0.00     0.062 A 
ATOM     17  C   UNL     1      74.906  18.089  40.811  1.00  0.00     0.158 A 
BRANCH  15  18
ATOM     18  O   UNL     1      73.399  16.629  39.594  1.00  0.00    -0.504 OA
ATOM     19  H   UNL     1      73.377  15.703  39.184  1.00  0.00     0.293 HD
ENDBRANCH  15  18
BRANCH  17  20
ATOM     20  O   UNL     1      74.916  19.008  39.763  1.00  0.00    -0.504 OA
ATOM     21  H   UNL     1      75.755  19.211  39.233  1.00  0.00     0.293 HD
ENDBRANCH  17  20
ENDBRANCH   1  12
BRANCH   2  22
ATOM     22  O   UNL     1      77.839  15.774  44.011  1.00  0.00    -0.502 OA
ATOM     23  H   UNL     1      78.617  15.184  44.278  1.00  0.00     0.293 HD
ENDBRANCH   2  22
BRANCH   6  24
ATOM     24  O   UNL     1      79.353  18.155  48.528  1.00  0.00    -0.507 OA
ATOM     25  H   UNL     1      80.011  17.501  48.134  1.00  0.00     0.293 HD
ENDBRANCH   6  24
BRANCH   8  26
ATOM     26  O   UNL     1      76.817  22.222  48.226  1.00  0.00    -0.508 OA
ATOM     27  H   UNL     1      77.137  23.085  47.802  1.00  0.00     0.293 HD
ENDBRANCH   8  26
TORSDOF 6
ENDMDL
MODEL 7
REMARK VINA RESULT:    -5.449      8.572     11.091
REMARK INTER + INTRA:          -6.856
REMARK INTER:                  -6.571
REMARK INTRA:                  -0.285
REMARK UNBOUND:                -0.292
REMARK SMILES O=c1c(O)c(-c2ccc(O)c(O)c2)oc2cc(O)cc(O)c12
REMARK SMILES IDX 5 1 3 2 2 3 1 4 22 5 20 6 19 7 17 8 16 9 15 10 14 11 6 12
REMARK SMILES IDX 7 13 8 14 9 15 13 16 11 17 10 18 12 20 4 22 21 24 18 26
REMARK H PARENT 10 19 12 21 4 23 21 25 18 27
REMARK Flexibility Score: inf
ROOT
ATOM      1  C   UNL     1      74.954  18.340  42.953  1.00  0.00     0.180 A 
ATOM      2  C   UNL     1      74.869  16.954  42.729  1.00  0.00     0.208 A 
ATOM      3  C   UNL     1      75.665  16.090  43.498  1.00  0.00     0.238 A 
ATOM      4  O   UNL     1      75.625  14.855  43.255  1.00  0.00    -0.285 OA
ATOM      5  C   UNL     1      76.521  16.620  44.494  1.00  0.00     0.111 A 
ATOM      6  C   UNL     1      77.340  15.834  45.360  1.00  0.00     0.134 A 
ATOM      7  C   UNL     1      78.244  16.471  46.218  1.00  0.00     0.093 A 
ATOM      8  C   UNL     1      78.313  17.864  46.289  1.00  0.00     0.123 A 
ATOM      9  C   UNL     1      77.475  18.639  45.491  1.00  0.00     0.094 A 
ATOM     10  C   UNL     1      76.587  18.033  44.598  1.00  0.00     0.146 A 
ATOM     11  O   UNL     1      75.814  18.809  43.848  1.00  0.00    -0.452 OA
ENDROOT
BRANCH   1  12
ATOM     12  C   UNL     1      74.130  19.312  42.199  1.00  0.00     0.025 A 
ATOM     13  C   UNL     1      72.994  19.910  42.773  1.00  0.00     0.016 A 
ATOM     14  C   UNL     1      72.245  20.842  42.052  1.00  0.00     0.051 A 
ATOM     15  C   UNL     1      72.626  21.202  40.753  1.00  0.00     0.157 A 
ATOM     16  C   UNL     1      74.519  19.691  40.904  1.00  0.00     0.062 A 
ATOM     17  C   UNL     1      73.771  20.625  40.178  1.00  0.00     0.158 A 
BRANCH  15  18
ATOM     18  O   UNL     1      71.875  22.132  40.035  1.00  0.00    -0.504 OA
ATOM     19  H   UNL     1      70.880  22.243  40.188  1.00  0.00     0.293 HD
ENDBRANCH  15  18
BRANCH  17  20
ATOM     20  O   UNL     1      74.181  20.966  38.890  1.00  0.00    -0.504 OA
ATOM     21  H   UNL     1      74.033  20.352  38.098  1.00  0.00     0.293 HD
ENDBRANCH  17  20
ENDBRANCH   1  12
BRANCH   2  22
ATOM     22  O   UNL     1      74.034  16.454  41.726  1.00  0.00    -0.502 OA
ATOM     23  H   UNL     1      73.709  15.495  41.716  1.00  0.00     0.293 HD
ENDBRANCH   2  22
BRANCH   6  24
ATOM     24  O   UNL     1      77.284  14.439  45.433  1.00  0.00    -0.507 OA
ATOM     25  H   UNL     1      76.479  13.911  45.736  1.00  0.00     0.293 HD
ENDBRANCH   6  24
BRANCH   8  26
ATOM     26  O   UNL     1      79.205  18.488  47.158  1.00  0.00    -0.508 OA
ATOM     27  H   UNL     1      79.306  18.188  48.121  1.00  0.00     0.293 HD
ENDBRANCH   8  26
TORSDOF 6
ENDMDL
MODEL 8
REMARK VINA RESULT:    -5.433      8.366      9.473
REMARK INTER + INTRA:          -6.836
REMARK INTER:                  -6.561
REMARK INTRA:                  -0.275
REMARK UNBOUND:                -0.292
REMARK SMILES O=c1c(O)c(-c2ccc(O)c(O)c2)oc2cc(O)cc(O)c12
REMARK SMILES IDX 5 1 3 2 2 3 1 4 22 5 20 6 19 7 17 8 16 9 15 10 14 11 6 12
REMARK SMILES IDX 7 13 8 14 9 15 13 16 11 17 10 18 12 20 4 22 21 24 18 26
REMARK H PARENT 10 19 12 21 4 23 21 25 18 27
REMARK Flexibility Score: inf
ROOT
ATOM      1  C   UNL     1      75.663  18.153  44.821  1.00  0.00     0.180 A 
ATOM      2  C   UNL     1      75.112  17.028  44.183  1.00  0.00     0.208 A 
ATOM      3  C   UNL     1      74.730  17.128  42.835  1.00  0.00     0.238 A 
ATOM      4  O   UNL     1      74.188  16.134  42.285  1.00  0.00    -0.285 OA
ATOM      5  C   UNL     1      74.921  18.346  42.138  1.00  0.00     0.111 A 
ATOM      6  C   UNL     1      74.610  18.547  40.760  1.00  0.00     0.134 A 
ATOM      7  C   UNL     1      74.717  19.830  40.209  1.00  0.00     0.093 A 
ATOM      8  C   UNL     1      75.187  20.903  40.968  1.00  0.00     0.123 A 
ATOM      9  C   UNL     1      75.550  20.704  42.298  1.00  0.00     0.094 A 
ATOM     10  C   UNL     1      75.420  19.443  42.886  1.00  0.00     0.146 A 
ATOM     11  O   UNL     1      75.767  19.299  44.159  1.00  0.00    -0.452 OA
ENDROOT
BRANCH   1  12
ATOM     12  C   UNL     1      76.110  18.118  46.233  1.00  0.00     0.025 A 
ATOM     13  C   UNL     1      75.188  18.157  47.294  1.00  0.00     0.016 A 
ATOM     14  C   UNL     1      75.632  18.100  48.617  1.00  0.00     0.051 A 
ATOM     15  C   UNL     1      76.999  17.987  48.900  1.00  0.00     0.157 A 
ATOM     16  C   UNL     1      77.478  17.984  46.522  1.00  0.00     0.062 A 
ATOM     17  C   UNL     1      77.926  17.926  47.847  1.00  0.00     0.158 A 
BRANCH  15  18
ATOM     18  O   UNL     1      77.438  17.931  50.223  1.00  0.00    -0.504 OA
ATOM     19  H   UNL     1      77.155  17.182  50.844  1.00  0.00     0.293 HD
ENDBRANCH  15  18
BRANCH  17  20
ATOM     20  O   UNL     1      79.293  17.807  48.094  1.00  0.00    -0.504 OA
ATOM     21  H   UNL     1      79.912  17.309  47.466  1.00  0.00     0.293 HD
ENDBRANCH  17  20
ENDBRANCH   1  12
BRANCH   2  22
ATOM     22  O   UNL     1      74.912  15.842  44.896  1.00  0.00    -0.502 OA
ATOM     23  H   UNL     1      75.530  15.543  45.640  1.00  0.00     0.293 HD
ENDBRANCH   2  22
BRANCH   6  24
ATOM     24  O   UNL     1      74.220  17.524  39.890  1.00  0.00    -0.507 OA
ATOM     25  H   UNL     1      73.264  17.275  39.687  1.00  0.00     0.293 HD
ENDBRANCH   6  24
BRANCH   8  26
ATOM     26  O   UNL     1      75.306  22.173  40.407  1.00  0.00    -0.508 OA
ATOM     27  H   UNL     1      74.903  22.393  39.504  1.00  0.00     0.293 HD
ENDBRANCH   8  26
TORSDOF 6
ENDMDL
MODEL 9
REMARK VINA RESULT:    -5.306      2.484      3.500
REMARK INTER + INTRA:          -6.684
REMARK INTER:                  -6.351
REMARK INTRA:                  -0.333
REMARK UNBOUND:                -0.292
REMARK SMILES O=c1c(O)c(-c2ccc(O)c(O)c2)oc2cc(O)cc(O)c12
REMARK SMILES IDX 5 1 3 2 2 3 1 4 22 5 20 6 19 7 17 8 16 9 15 10 14 11 6 12
REMARK SMILES IDX 7 13 8 14 9 15 13 16 11 17 10 18 12 20 4 22 21 24 18 26
REMARK H PARENT 10 19 12 21 4 23 21 25 18 27
REMARK Flexibility Score: inf
ROOT
ATOM      1  C   UNL     1      79.574  25.404  46.726  1.00  0.00     0.180 A 
ATOM      2  C   UNL     1      78.685  25.437  45.637  1.00  0.00     0.208 A 
ATOM      3  C   UNL     1      79.190  25.248  44.340  1.00  0.00     0.238 A 
ATOM      4  O   UNL     1      78.399  25.333  43.365  1.00  0.00    -0.285 OA
ATOM      5  C   UNL     1      80.573  25.012  44.150  1.00  0.00     0.111 A 
ATOM      6  C   UNL     1      81.187  24.767  42.885  1.00  0.00     0.134 A 
ATOM      7  C   UNL     1      82.582  24.676  42.801  1.00  0.00     0.093 A 
ATOM      8  C   UNL     1      83.379  24.756  43.944  1.00  0.00     0.123 A 
ATOM      9  C   UNL     1      82.785  24.936  45.191  1.00  0.00     0.094 A 
ATOM     10  C   UNL     1      81.398  25.066  45.302  1.00  0.00     0.146 A 
ATOM     11  O   UNL     1      80.874  25.246  46.509  1.00  0.00    -0.452 OA
ENDROOT
BRANCH   1  12
ATOM     12  C   UNL     1      79.114  25.570  48.124  1.00  0.00     0.025 A 
ATOM     13  C   UNL     1      78.670  24.474  48.884  1.00  0.00     0.016 A 
ATOM     14  C   UNL     1      78.263  24.650  50.208  1.00  0.00     0.051 A 
ATOM     15  C   UNL     1      78.306  25.920  50.797  1.00  0.00     0.157 A 
ATOM     16  C   UNL     1      79.174  26.837  48.726  1.00  0.00     0.062 A 
ATOM     17  C   UNL     1      78.767  27.018  50.053  1.00  0.00     0.158 A 
BRANCH  15  18
ATOM     18  O   UNL     1      77.897  26.093  52.119  1.00  0.00    -0.504 OA
ATOM     19  H   UNL     1      78.202  25.466  52.855  1.00  0.00     0.293 HD
ENDBRANCH  15  18
BRANCH  17  20
ATOM     20  O   UNL     1      78.829  28.294  50.612  1.00  0.00    -0.504 OA
ATOM     21  H   UNL     1      78.709  29.132  50.055  1.00  0.00     0.293 HD
ENDBRANCH  17  20
ENDBRANCH   1  12
BRANCH   2  22
ATOM     22  O   UNL     1      77.327  25.693  45.844  1.00  0.00    -0.502 OA
ATOM     23  H   UNL     1      76.999  26.494  46.369  1.00  0.00     0.293 HD
ENDBRANCH   2  22
BRANCH   6  24
ATOM     24  O   UNL     1      80.475  24.579  41.695  1.00  0.00    -0.507 OA
ATOM     25  H   UNL     1      80.701  23.892  40.993  1.00  0.00     0.293 HD
ENDBRANCH   6  24
BRANCH   8  26
ATOM     26  O   UNL     1      84.766  24.649  43.853  1.00  0.00    -0.508 OA
ATOM     27  H   UNL     1      85.224  24.431  42.975  1.00  0.00     0.293 HD
ENDBRANCH   8  26
TORSDOF 6
ENDMDL
