MODEL 1
REMARK VINA RESULT:    -3.489      0.000      0.000
REMARK INTER + INTRA:         -12.300
REMARK INTER:                  -8.792
REMARK INTRA:                  -3.508
REMARK UNBOUND:                -3.508
REMARK SMILES CCCCCCCCCCCCCCCCCCCCCCCCCCCC(=O)[O-]
REMARK SMILES IDX 15 1 16 2 17 3 18 4 19 5 20 6 21 7 22 8 23 9 24 10 25 11
REMARK SMILES IDX 26 12 27 13 28 14 29 15 30 16 14 17 13 18 12 19 11 20 10 21
REMARK SMILES IDX 9 22 8 23 7 24 6 25 5 26 4 27 3 28 2 29 1 30
REMARK H PARENT
REMARK Flexibility Score: inf
ROOT
ATOM      1  C   UNL     1      10.446  35.848  22.581  1.00  0.00     0.000 C 
ENDROOT
BRANCH   1   2
ATOM      2  C   UNL     1      11.573  35.083  21.873  1.00  0.00     0.000 C 
BRANCH   2   3
ATOM      3  C   UNL     1      12.865  35.909  21.742  1.00  0.00     0.000 C 
BRANCH   3   4
ATOM      4  C   UNL     1      13.824  35.463  20.618  1.00  0.00     0.000 C 
BRANCH   4   5
ATOM      5  C   UNL     1      13.161  35.125  19.266  1.00  0.00     0.000 C 
BRANCH   5   6
ATOM      6  C   UNL     1      13.205  33.630  18.875  1.00  0.00     0.000 C 
BRANCH   6   7
ATOM      7  C   UNL     1      13.936  32.740  19.898  1.00  0.00     0.000 C 
BRANCH   7   8
ATOM      8  C   UNL     1      13.763  31.225  19.682  1.00  0.00     0.000 C 
BRANCH   8   9
ATOM      9  C   UNL     1      13.207  30.448  20.894  1.00  0.00     0.000 C 
BRANCH   9  10
ATOM     10  C   UNL     1      13.680  30.950  22.270  1.00  0.00     0.000 C 
BRANCH  10  11
ATOM     11  C   UNL     1      14.770  30.058  22.889  1.00  0.00     0.000 C 
BRANCH  11  12
ATOM     12  C   UNL     1      16.178  30.674  22.779  1.00  0.00     0.006 C 
BRANCH  12  13
ATOM     13  C   UNL     1      16.963  30.245  21.529  1.00  0.00     0.053 C 
BRANCH  13  14
ATOM     14  C   UNL     1      17.594  31.412  20.834  1.00  0.00     0.041 C 
ATOM     15  O   UNL     1      17.598  32.548  21.378  1.00  0.00    -0.550 OA
ATOM     16  O   UNL     1      18.209  31.238  19.600  1.00  0.00    -0.550 OA
ENDBRANCH  13  14
ENDBRANCH  12  13
ENDBRANCH  11  12
ENDBRANCH  10  11
ENDBRANCH   9  10
ENDBRANCH   8   9
ENDBRANCH   7   8
ENDBRANCH   6   7
ENDBRANCH   5   6
ENDBRANCH   4   5
ENDBRANCH   3   4
ENDBRANCH   2   3
ENDBRANCH   1   2
BRANCH   1  17
ATOM     17  C   UNL     1       9.539  36.550  21.563  1.00  0.00     0.000 C 
BRANCH  17  18
ATOM     18  C   UNL     1       9.985  36.246  20.125  1.00  0.00     0.000 C 
BRANCH  18  19
ATOM     19  C   UNL     1       8.847  36.416  19.106  1.00  0.00     0.000 C 
BRANCH  19  20
ATOM     20  C   UNL     1       7.563  35.677  19.526  1.00  0.00     0.000 C 
BRANCH  20  21
ATOM     21  C   UNL     1       7.856  34.365  20.269  1.00  0.00     0.000 C 
BRANCH  21  22
ATOM     22  C   UNL     1       8.310  33.240  19.322  1.00  0.00    -0.000 C 
BRANCH  22  23
ATOM     23  C   UNL     1       9.733  32.751  19.628  1.00  0.00    -0.000 C 
BRANCH  23  24
ATOM     24  C   UNL     1       9.929  31.261  19.298  1.00  0.00    -0.000 C 
BRANCH  24  25
ATOM     25  C   UNL     1       8.610  30.469  19.312  1.00  0.00    -0.000 C 
BRANCH  25  26
ATOM     26  C   UNL     1       8.175  29.959  20.701  1.00  0.00    -0.000 C 
BRANCH  26  27
ATOM     27  C   UNL     1       6.653  29.931  20.938  1.00  0.00    -0.000 C 
BRANCH  27  28
ATOM     28  C   UNL     1       5.795  30.341  19.724  1.00  0.00    -0.000 C 
BRANCH  28  29
ATOM     29  C   UNL     1       4.917  31.586  19.944  1.00  0.00    -0.003 C 
ATOM     30  C   UNL     1       5.083  32.194  21.335  1.00  0.00     0.004 C 
ENDBRANCH  28  29
ENDBRANCH  27  28
ENDBRANCH  26  27
ENDBRANCH  25  26
ENDBRANCH  24  25
ENDBRANCH  23  24
ENDBRANCH  22  23
ENDBRANCH  21  22
ENDBRANCH  20  21
ENDBRANCH  19  20
ENDBRANCH  18  19
ENDBRANCH  17  18
ENDBRANCH   1  17
TORSDOF 26
ENDMDL
MODEL 2
REMARK VINA RESULT:    -3.111      3.561      8.002
REMARK INTER + INTRA:         -11.348
REMARK INTER:                  -8.651
REMARK INTRA:                  -2.697
REMARK UNBOUND:                -3.508
REMARK SMILES CCCCCCCCCCCCCCCCCCCCCCCCCCCC(=O)[O-]
REMARK SMILES IDX 15 1 16 2 17 3 18 4 19 5 20 6 21 7 22 8 23 9 24 10 25 11
REMARK SMILES IDX 26 12 27 13 28 14 29 15 30 16 14 17 13 18 12 19 11 20 10 21
REMARK SMILES IDX 9 22 8 23 7 24 6 25 5 26 4 27 3 28 2 29 1 30
REMARK H PARENT
REMARK Flexibility Score: inf
ROOT
ATOM      1  C   UNL     1      11.790  35.652  22.888  1.00  0.00     0.000 C 
ENDROOT
BRANCH   1   2
ATOM      2  C   UNL     1      10.478  36.423  23.090  1.00  0.00     0.000 C 
BRANCH   2   3
ATOM      3  C   UNL     1       9.628  36.502  21.810  1.00  0.00     0.000 C 
BRANCH   3   4
ATOM      4  C   UNL     1      10.400  36.874  20.525  1.00  0.00     0.000 C 
BRANCH   4   5
ATOM      5  C   UNL     1       9.733  36.457  19.198  1.00  0.00     0.000 C 
BRANCH   5   6
ATOM      6  C   UNL     1       8.229  36.114  19.304  1.00  0.00     0.000 C 
BRANCH   6   7
ATOM      7  C   UNL     1       7.930  34.893  20.196  1.00  0.00     0.000 C 
BRANCH   7   8
ATOM      8  C   UNL     1       7.736  33.568  19.439  1.00  0.00     0.000 C 
BRANCH   8   9
ATOM      9  C   UNL     1       9.034  32.800  19.114  1.00  0.00     0.000 C 
BRANCH   9  10
ATOM     10  C   UNL     1       9.254  31.507  19.920  1.00  0.00     0.000 C 
BRANCH  10  11
ATOM     11  C   UNL     1       8.188  30.436  19.634  1.00  0.00     0.000 C 
BRANCH  11  12
ATOM     12  C   UNL     1       7.170  30.286  20.779  1.00  0.00     0.006 C 
BRANCH  12  13
ATOM     13  C   UNL     1       5.742  29.951  20.320  1.00  0.00     0.053 C 
BRANCH  13  14
ATOM     14  C   UNL     1       4.814  31.117  20.470  1.00  0.00     0.041 C 
ATOM     15  O   UNL     1       5.054  32.012  21.323  1.00  0.00    -0.550 OA
ATOM     16  O   UNL     1       3.703  31.235  19.643  1.00  0.00    -0.550 OA
ENDBRANCH  13  14
ENDBRANCH  12  13
ENDBRANCH  11  12
ENDBRANCH  10  11
ENDBRANCH   9  10
ENDBRANCH   8   9
ENDBRANCH   7   8
ENDBRANCH   6   7
ENDBRANCH   5   6
ENDBRANCH   4   5
ENDBRANCH   3   4
ENDBRANCH   2   3
ENDBRANCH   1   2
BRANCH   1  17
ATOM     17  C   UNL     1      11.514  34.216  22.427  1.00  0.00     0.000 C 
BRANCH  17  18
ATOM     18  C   UNL     1      12.006  33.994  20.988  1.00  0.00     0.000 C 
BRANCH  18  19
ATOM     19  C   UNL     1      13.532  34.121  20.861  1.00  0.00     0.000 C 
BRANCH  19  20
ATOM     20  C   UNL     1      14.075  33.465  19.578  1.00  0.00     0.000 C 
BRANCH  20  21
ATOM     21  C   UNL     1      13.044  32.546  18.906  1.00  0.00     0.000 C 
BRANCH  21  22
ATOM     22  C   UNL     1      12.942  31.172  19.594  1.00  0.00    -0.000 C 
BRANCH  22  23
ATOM     23  C   UNL     1      14.304  30.475  19.721  1.00  0.00    -0.000 C 
BRANCH  23  24
ATOM     24  C   UNL     1      14.532  29.876  21.119  1.00  0.00    -0.000 C 
BRANCH  24  25
ATOM     25  C   UNL     1      14.531  30.939  22.232  1.00  0.00    -0.000 C 
BRANCH  25  26
ATOM     26  C   UNL     1      15.718  30.852  23.213  1.00  0.00    -0.000 C 
BRANCH  26  27
ATOM     27  C   UNL     1      16.883  29.957  22.748  1.00  0.00    -0.000 C 
BRANCH  27  28
ATOM     28  C   UNL     1      18.156  30.712  22.318  1.00  0.00    -0.000 C 
BRANCH  28  29
ATOM     29  C   UNL     1      17.901  32.033  21.569  1.00  0.00    -0.003 C 
ATOM     30  C   UNL     1      17.588  31.827  20.088  1.00  0.00     0.004 C 
ENDBRANCH  28  29
ENDBRANCH  27  28
ENDBRANCH  26  27
ENDBRANCH  25  26
ENDBRANCH  24  25
ENDBRANCH  23  24
ENDBRANCH  22  23
ENDBRANCH  21  22
ENDBRANCH  20  21
ENDBRANCH  19  20
ENDBRANCH  18  19
ENDBRANCH  17  18
ENDBRANCH   1  17
TORSDOF 26
ENDMDL
MODEL 3
REMARK VINA RESULT:    -3.049      1.592      2.309
REMARK INTER + INTRA:         -11.191
REMARK INTER:                  -8.452
REMARK INTRA:                  -2.739
REMARK UNBOUND:                -3.508
REMARK SMILES CCCCCCCCCCCCCCCCCCCCCCCCCCCC(=O)[O-]
REMARK SMILES IDX 15 1 16 2 17 3 18 4 19 5 20 6 21 7 22 8 23 9 24 10 25 11
REMARK SMILES IDX 26 12 27 13 28 14 29 15 30 16 14 17 13 18 12 19 11 20 10 21
REMARK SMILES IDX 9 22 8 23 7 24 6 25 5 26 4 27 3 28 2 29 1 30
REMARK H PARENT
REMARK Flexibility Score: inf
ROOT
ATOM      1  C   UNL     1      10.806  36.260  22.996  1.00  0.00     0.000 C 
ENDROOT
BRANCH   1   2
ATOM      2  C   UNL     1      12.186  36.028  22.364  1.00  0.00     0.000 C 
BRANCH   2   3
ATOM      3  C   UNL     1      12.307  34.654  21.683  1.00  0.00     0.000 C 
BRANCH   3   4
ATOM      4  C   UNL     1      13.331  34.574  20.530  1.00  0.00     0.000 C 
BRANCH   4   5
ATOM      5  C   UNL     1      14.125  33.255  20.428  1.00  0.00     0.000 C 
BRANCH   5   6
ATOM      6  C   UNL     1      13.942  32.485  19.100  1.00  0.00     0.000 C 
BRANCH   6   7
ATOM      7  C   UNL     1      14.247  30.979  19.205  1.00  0.00     0.000 C 
BRANCH   7   8
ATOM      8  C   UNL     1      15.610  30.635  19.832  1.00  0.00     0.000 C 
BRANCH   8   9
ATOM      9  C   UNL     1      16.816  31.390  19.236  1.00  0.00     0.000 C 
BRANCH   9  10
ATOM     10  C   UNL     1      18.124  31.281  20.040  1.00  0.00     0.000 C 
BRANCH  10  11
ATOM     11  C   UNL     1      18.353  29.875  20.621  1.00  0.00     0.000 C 
BRANCH  11  12
ATOM     12  C   UNL     1      18.494  29.879  22.154  1.00  0.00     0.006 C 
BRANCH  12  13
ATOM     13  C   UNL     1      17.934  31.135  22.841  1.00  0.00     0.053 C 
BRANCH  13  14
ATOM     14  C   UNL     1      16.642  30.860  23.548  1.00  0.00     0.041 C 
ATOM     15  O   UNL     1      15.566  30.789  22.897  1.00  0.00    -0.550 OA
ATOM     16  O   UNL     1      16.631  30.648  24.921  1.00  0.00    -0.550 OA
ENDBRANCH  13  14
ENDBRANCH  12  13
ENDBRANCH  11  12
ENDBRANCH  10  11
ENDBRANCH   9  10
ENDBRANCH   8   9
ENDBRANCH   7   8
ENDBRANCH   6   7
ENDBRANCH   5   6
ENDBRANCH   4   5
ENDBRANCH   3   4
ENDBRANCH   2   3
ENDBRANCH   1   2
BRANCH   1  17
ATOM     17  C   UNL     1       9.736  36.455  21.914  1.00  0.00     0.000 C 
BRANCH  17  18
ATOM     18  C   UNL     1      10.367  36.910  20.589  1.00  0.00     0.000 C 
BRANCH  18  19
ATOM     19  C   UNL     1       9.325  37.107  19.477  1.00  0.00     0.000 C 
BRANCH  19  20
ATOM     20  C   UNL     1       8.835  35.775  18.883  1.00  0.00     0.000 C 
BRANCH  20  21
ATOM     21  C   UNL     1       9.919  34.686  18.908  1.00  0.00     0.000 C 
BRANCH  21  22
ATOM     22  C   UNL     1       9.327  33.265  18.934  1.00  0.00    -0.000 C 
BRANCH  22  23
ATOM     23  C   UNL     1       9.992  32.369  19.988  1.00  0.00    -0.000 C 
BRANCH  23  24
ATOM     24  C   UNL     1      10.508  31.046  19.397  1.00  0.00    -0.000 C 
BRANCH  24  25
ATOM     25  C   UNL     1       9.427  29.951  19.351  1.00  0.00    -0.000 C 
BRANCH  25  26
ATOM     26  C   UNL     1       8.104  30.316  20.054  1.00  0.00    -0.000 C 
BRANCH  26  27
ATOM     27  C   UNL     1       6.855  30.275  19.153  1.00  0.00    -0.000 C 
BRANCH  27  28
ATOM     28  C   UNL     1       6.026  31.575  19.125  1.00  0.00    -0.000 C 
BRANCH  28  29
ATOM     29  C   UNL     1       6.166  32.457  20.379  1.00  0.00    -0.003 C 
ATOM     30  C   UNL     1       5.050  32.229  21.397  1.00  0.00     0.004 C 
ENDBRANCH  28  29
ENDBRANCH  27  28
ENDBRANCH  26  27
ENDBRANCH  25  26
ENDBRANCH  24  25
ENDBRANCH  23  24
ENDBRANCH  22  23
ENDBRANCH  21  22
ENDBRANCH  20  21
ENDBRANCH  19  20
ENDBRANCH  18  19
ENDBRANCH  17  18
ENDBRANCH   1  17
TORSDOF 26
ENDMDL
MODEL 4
REMARK VINA RESULT:    -2.931      1.630      3.070
REMARK INTER + INTRA:         -10.894
REMARK INTER:                  -8.770
REMARK INTRA:                  -2.123
REMARK UNBOUND:                -3.508
REMARK SMILES CCCCCCCCCCCCCCCCCCCCCCCCCCCC(=O)[O-]
REMARK SMILES IDX 15 1 16 2 17 3 18 4 19 5 20 6 21 7 22 8 23 9 24 10 25 11
REMARK SMILES IDX 26 12 27 13 28 14 29 15 30 16 14 17 13 18 12 19 11 20 10 21
REMARK SMILES IDX 9 22 8 23 7 24 6 25 5 26 4 27 3 28 2 29 1 30
REMARK H PARENT
REMARK Flexibility Score: inf
ROOT
ATOM      1  C   UNL     1       9.896  36.330  21.022  1.00  0.00     0.000 C 
ENDROOT
BRANCH   1   2
ATOM      2  C   UNL     1      10.638  35.809  19.783  1.00  0.00     0.000 C 
BRANCH   2   3
ATOM      3  C   UNL     1      11.407  36.915  19.039  1.00  0.00     0.000 C 
BRANCH   3   4
ATOM      4  C   UNL     1      12.927  36.683  18.897  1.00  0.00     0.000 C 
BRANCH   4   5
ATOM      5  C   UNL     1      13.406  35.231  19.106  1.00  0.00     0.000 C 
BRANCH   5   6
ATOM      6  C   UNL     1      14.052  34.950  20.482  1.00  0.00     0.000 C 
BRANCH   6   7
ATOM      7  C   UNL     1      15.440  34.288  20.395  1.00  0.00     0.000 C 
BRANCH   7   8
ATOM      8  C   UNL     1      15.482  32.969  19.603  1.00  0.00     0.000 C 
BRANCH   8   9
ATOM      9  C   UNL     1      16.639  32.017  19.972  1.00  0.00     0.000 C 
BRANCH   9  10
ATOM     10  C   UNL     1      16.233  30.553  20.221  1.00  0.00     0.000 C 
BRANCH  10  11
ATOM     11  C   UNL     1      16.611  30.058  21.627  1.00  0.00     0.000 C 
BRANCH  11  12
ATOM     12  C   UNL     1      16.236  31.062  22.734  1.00  0.00     0.006 C 
BRANCH  12  13
ATOM     13  C   UNL     1      16.906  30.792  24.090  1.00  0.00     0.053 C 
BRANCH  13  14
ATOM     14  C   UNL     1      18.349  31.192  24.094  1.00  0.00     0.041 C 
ATOM     15  O   UNL     1      18.793  31.959  24.989  1.00  0.00    -0.550 OA
ATOM     16  O   UNL     1      19.213  30.690  23.128  1.00  0.00    -0.550 OA
ENDBRANCH  13  14
ENDBRANCH  12  13
ENDBRANCH  11  12
ENDBRANCH  10  11
ENDBRANCH   9  10
ENDBRANCH   8   9
ENDBRANCH   7   8
ENDBRANCH   6   7
ENDBRANCH   5   6
ENDBRANCH   4   5
ENDBRANCH   3   4
ENDBRANCH   2   3
ENDBRANCH   1   2
BRANCH   1  17
ATOM     17  C   UNL     1      10.835  36.396  22.232  1.00  0.00     0.000 C 
BRANCH  17  18
ATOM     18  C   UNL     1      11.024  35.007  22.861  1.00  0.00     0.000 C 
BRANCH  18  19
ATOM     19  C   UNL     1      12.068  34.160  22.116  1.00  0.00     0.000 C 
BRANCH  19  20
ATOM     20  C   UNL     1      11.764  32.652  22.186  1.00  0.00     0.000 C 
BRANCH  20  21
ATOM     21  C   UNL     1      13.017  31.789  21.973  1.00  0.00     0.000 C 
BRANCH  21  22
ATOM     22  C   UNL     1      12.712  30.482  21.220  1.00  0.00    -0.000 C 
BRANCH  22  23
ATOM     23  C   UNL     1      12.634  30.683  19.700  1.00  0.00    -0.000 C 
BRANCH  23  24
ATOM     24  C   UNL     1      11.268  30.277  19.120  1.00  0.00    -0.000 C 
BRANCH  24  25
ATOM     25  C   UNL     1      10.180  31.340  19.356  1.00  0.00    -0.000 C 
BRANCH  25  26
ATOM     26  C   UNL     1       8.937  30.838  20.117  1.00  0.00    -0.000 C 
BRANCH  26  27
ATOM     27  C   UNL     1       7.636  30.804  19.292  1.00  0.00    -0.000 C 
BRANCH  27  28
ATOM     28  C   UNL     1       6.336  30.785  20.120  1.00  0.00    -0.000 C 
BRANCH  28  29
ATOM     29  C   UNL     1       5.747  32.173  20.431  1.00  0.00    -0.003 C 
ATOM     30  C   UNL     1       4.502  32.108  21.314  1.00  0.00     0.004 C 
ENDBRANCH  28  29
ENDBRANCH  27  28
ENDBRANCH  26  27
ENDBRANCH  25  26
ENDBRANCH  24  25
ENDBRANCH  23  24
ENDBRANCH  22  23
ENDBRANCH  21  22
ENDBRANCH  20  21
ENDBRANCH  19  20
ENDBRANCH  18  19
ENDBRANCH  17  18
ENDBRANCH   1  17
TORSDOF 26
ENDMDL
MODEL 5
REMARK VINA RESULT:    -2.823      2.351      8.039
REMARK INTER + INTRA:         -10.622
REMARK INTER:                  -7.146
REMARK INTRA:                  -3.476
REMARK UNBOUND:                -3.508
REMARK SMILES CCCCCCCCCCCCCCCCCCCCCCCCCCCC(=O)[O-]
REMARK SMILES IDX 15 1 16 2 17 3 18 4 19 5 20 6 21 7 22 8 23 9 24 10 25 11
REMARK SMILES IDX 26 12 27 13 28 14 29 15 30 16 14 17 13 18 12 19 11 20 10 21
REMARK SMILES IDX 9 22 8 23 7 24 6 25 5 26 4 27 3 28 2 29 1 30
REMARK H PARENT
REMARK Flexibility Score: inf
ROOT
ATOM      1  C   UNL     1      13.253  34.274  19.059  1.00  0.00     0.000 C 
ENDROOT
BRANCH   1   2
ATOM      2  C   UNL     1      11.991  33.787  19.785  1.00  0.00     0.000 C 
BRANCH   2   3
ATOM      3  C   UNL     1      11.119  32.866  18.915  1.00  0.00     0.000 C 
BRANCH   3   4
ATOM      4  C   UNL     1      10.302  31.805  19.685  1.00  0.00     0.000 C 
BRANCH   4   5
ATOM      5  C   UNL     1       8.846  31.608  19.214  1.00  0.00     0.000 C 
BRANCH   5   6
ATOM      6  C   UNL     1       7.767  31.994  20.251  1.00  0.00     0.000 C 
BRANCH   6   7
ATOM      7  C   UNL     1       6.648  32.887  19.682  1.00  0.00     0.000 C 
BRANCH   7   8
ATOM      8  C   UNL     1       6.928  34.399  19.747  1.00  0.00     0.000 C 
BRANCH   8   9
ATOM      9  C   UNL     1       8.127  34.882  18.904  1.00  0.00     0.000 C 
BRANCH   9  10
ATOM     10  C   UNL     1       8.472  36.376  19.046  1.00  0.00     0.000 C 
BRANCH  10  11
ATOM     11  C   UNL     1       9.809  36.614  19.768  1.00  0.00     0.000 C 
BRANCH  11  12
ATOM     12  C   UNL     1      10.022  35.661  20.959  1.00  0.00     0.006 C 
BRANCH  12  13
ATOM     13  C   UNL     1       9.901  36.331  22.338  1.00  0.00     0.053 C 
BRANCH  13  14
ATOM     14  C   UNL     1      11.097  36.063  23.199  1.00  0.00     0.041 C 
ATOM     15  O   UNL     1      12.225  35.868  22.675  1.00  0.00    -0.550 OA
ATOM     16  O   UNL     1      10.972  36.064  24.583  1.00  0.00    -0.550 OA
ENDBRANCH  13  14
ENDBRANCH  12  13
ENDBRANCH  11  12
ENDBRANCH  10  11
ENDBRANCH   9  10
ENDBRANCH   8   9
ENDBRANCH   7   8
ENDBRANCH   6   7
ENDBRANCH   5   6
ENDBRANCH   4   5
ENDBRANCH   3   4
ENDBRANCH   2   3
ENDBRANCH   1   2
BRANCH   1  17
ATOM     17  C   UNL     1      14.416  34.446  20.043  1.00  0.00     0.000 C 
BRANCH  17  18
ATOM     18  C   UNL     1      15.321  33.205  20.051  1.00  0.00     0.000 C 
BRANCH  18  19
ATOM     19  C   UNL     1      14.972  32.213  18.929  1.00  0.00     0.000 C 
BRANCH  19  20
ATOM     20  C   UNL     1      15.117  30.746  19.371  1.00  0.00     0.000 C 
BRANCH  20  21
ATOM     21  C   UNL     1      13.759  30.053  19.567  1.00  0.00     0.000 C 
BRANCH  21  22
ATOM     22  C   UNL     1      13.398  29.875  21.052  1.00  0.00    -0.000 C 
BRANCH  22  23
ATOM     23  C   UNL     1      13.333  31.211  21.807  1.00  0.00    -0.000 C 
BRANCH  23  24
ATOM     24  C   UNL     1      14.364  31.296  22.945  1.00  0.00    -0.000 C 
BRANCH  24  25
ATOM     25  C   UNL     1      15.015  29.937  23.264  1.00  0.00    -0.000 C 
BRANCH  25  26
ATOM     26  C   UNL     1      16.294  30.017  24.121  1.00  0.00    -0.000 C 
BRANCH  26  27
ATOM     27  C   UNL     1      17.594  30.263  23.332  1.00  0.00    -0.000 C 
BRANCH  27  28
ATOM     28  C   UNL     1      17.536  29.875  21.841  1.00  0.00    -0.000 C 
BRANCH  28  29
ATOM     29  C   UNL     1      18.734  30.355  21.002  1.00  0.00    -0.003 C 
ATOM     30  C   UNL     1      18.473  31.685  20.297  1.00  0.00     0.004 C 
ENDBRANCH  28  29
ENDBRANCH  27  28
ENDBRANCH  26  27
ENDBRANCH  25  26
ENDBRANCH  24  25
ENDBRANCH  23  24
ENDBRANCH  22  23
ENDBRANCH  21  22
ENDBRANCH  20  21
ENDBRANCH  19  20
ENDBRANCH  18  19
ENDBRANCH  17  18
ENDBRANCH   1  17
TORSDOF 26
ENDMDL
MODEL 6
REMARK VINA RESULT:    -2.816      1.353      2.562
REMARK INTER + INTRA:         -10.605
REMARK INTER:                  -8.049
REMARK INTRA:                  -2.556
REMARK UNBOUND:                -3.508
REMARK SMILES CCCCCCCCCCCCCCCCCCCCCCCCCCCC(=O)[O-]
REMARK SMILES IDX 15 1 16 2 17 3 18 4 19 5 20 6 21 7 22 8 23 9 24 10 25 11
REMARK SMILES IDX 26 12 27 13 28 14 29 15 30 16 14 17 13 18 12 19 11 20 10 21
REMARK SMILES IDX 9 22 8 23 7 24 6 25 5 26 4 27 3 28 2 29 1 30
REMARK H PARENT
REMARK Flexibility Score: inf
ROOT
ATOM      1  C   UNL     1      12.726  34.634  21.058  1.00  0.00     0.000 C 
ENDROOT
BRANCH   1   2
ATOM      2  C   UNL     1      14.242  34.513  20.844  1.00  0.00     0.000 C 
BRANCH   2   3
ATOM      3  C   UNL     1      14.615  34.169  19.392  1.00  0.00     0.000 C 
BRANCH   3   4
ATOM      4  C   UNL     1      14.713  32.661  19.074  1.00  0.00     0.000 C 
BRANCH   4   5
ATOM      5  C   UNL     1      13.369  31.926  18.887  1.00  0.00     0.000 C 
BRANCH   5   6
ATOM      6  C   UNL     1      13.197  30.652  19.745  1.00  0.00     0.000 C 
BRANCH   6   7
ATOM      7  C   UNL     1      13.005  30.934  21.248  1.00  0.00     0.000 C 
BRANCH   7   8
ATOM      8  C   UNL     1      13.654  29.904  22.189  1.00  0.00     0.000 C 
BRANCH   8   9
ATOM      9  C   UNL     1      15.149  30.141  22.494  1.00  0.00     0.000 C 
BRANCH   9  10
ATOM     10  C   UNL     1      15.529  30.111  23.986  1.00  0.00     0.000 C 
BRANCH  10  11
ATOM     11  C   UNL     1      17.044  29.976  24.214  1.00  0.00     0.000 C 
BRANCH  11  12
ATOM     12  C   UNL     1      17.841  31.163  23.642  1.00  0.00     0.006 C 
BRANCH  12  13
ATOM     13  C   UNL     1      18.608  30.848  22.347  1.00  0.00     0.053 C 
BRANCH  13  14
ATOM     14  C   UNL     1      18.002  31.523  21.156  1.00  0.00     0.041 C 
ATOM     15  O   UNL     1      17.671  32.737  21.215  1.00  0.00    -0.550 OA
ATOM     16  O   UNL     1      17.834  30.821  19.968  1.00  0.00    -0.550 OA
ENDBRANCH  13  14
ENDBRANCH  12  13
ENDBRANCH  11  12
ENDBRANCH  10  11
ENDBRANCH   9  10
ENDBRANCH   8   9
ENDBRANCH   7   8
ENDBRANCH   6   7
ENDBRANCH   5   6
ENDBRANCH   4   5
ENDBRANCH   3   4
ENDBRANCH   2   3
ENDBRANCH   1   2
BRANCH   1  17
ATOM     17  C   UNL     1      12.287  36.103  21.033  1.00  0.00     0.000 C 
BRANCH  17  18
ATOM     18  C   UNL     1      11.687  36.477  19.669  1.00  0.00     0.000 C 
BRANCH  18  19
ATOM     19  C   UNL     1      11.214  35.248  18.876  1.00  0.00     0.000 C 
BRANCH  19  20
ATOM     20  C   UNL     1      10.208  34.389  19.662  1.00  0.00     0.000 C 
BRANCH  20  21
ATOM     21  C   UNL     1       9.984  33.010  19.021  1.00  0.00     0.000 C 
BRANCH  21  22
ATOM     22  C   UNL     1       9.706  31.913  20.064  1.00  0.00    -0.000 C 
BRANCH  22  23
ATOM     23  C   UNL     1       9.251  30.594  19.423  1.00  0.00    -0.000 C 
BRANCH  23  24
ATOM     24  C   UNL     1       7.925  30.080  20.010  1.00  0.00    -0.000 C 
BRANCH  24  25
ATOM     25  C   UNL     1       6.736  30.264  19.050  1.00  0.00    -0.000 C 
BRANCH  25  26
ATOM     26  C   UNL     1       5.353  30.306  19.730  1.00  0.00    -0.000 C 
BRANCH  26  27
ATOM     27  C   UNL     1       4.879  31.709  20.156  1.00  0.00    -0.000 C 
BRANCH  27  28
ATOM     28  C   UNL     1       5.950  32.580  20.842  1.00  0.00    -0.000 C 
BRANCH  28  29
ATOM     29  C   UNL     1       6.629  33.612  19.924  1.00  0.00    -0.003 C 
ATOM     30  C   UNL     1       6.808  34.976  20.590  1.00  0.00     0.004 C 
ENDBRANCH  28  29
ENDBRANCH  27  28
ENDBRANCH  26  27
ENDBRANCH  25  26
ENDBRANCH  24  25
ENDBRANCH  23  24
ENDBRANCH  22  23
ENDBRANCH  21  22
ENDBRANCH  20  21
ENDBRANCH  19  20
ENDBRANCH  18  19
ENDBRANCH  17  18
ENDBRANCH   1  17
TORSDOF 26
ENDMDL
MODEL 7
REMARK VINA RESULT:    -2.527      3.364      8.135
REMARK INTER + INTRA:          -9.876
REMARK INTER:                  -6.770
REMARK INTRA:                  -3.106
REMARK UNBOUND:                -3.508
REMARK SMILES CCCCCCCCCCCCCCCCCCCCCCCCCCCC(=O)[O-]
REMARK SMILES IDX 15 1 16 2 17 3 18 4 19 5 20 6 21 7 22 8 23 9 24 10 25 11
REMARK SMILES IDX 26 12 27 13 28 14 29 15 30 16 14 17 13 18 12 19 11 20 10 21
REMARK SMILES IDX 9 22 8 23 7 24 6 25 5 26 4 27 3 28 2 29 1 30
REMARK H PARENT
REMARK Flexibility Score: inf
ROOT
ATOM      1  C   UNL     1      12.203  36.045  22.445  1.00  0.00     0.000 C 
ENDROOT
BRANCH   1   2
ATOM      2  C   UNL     1      10.707  35.757  22.634  1.00  0.00     0.000 C 
BRANCH   2   3
ATOM      3  C   UNL     1       9.814  36.611  21.717  1.00  0.00     0.000 C 
BRANCH   3   4
ATOM      4  C   UNL     1       8.669  35.851  21.015  1.00  0.00     0.000 C 
BRANCH   4   5
ATOM      5  C   UNL     1       8.759  35.775  19.476  1.00  0.00     0.000 C 
BRANCH   5   6
ATOM      6  C   UNL     1       9.259  34.423  18.918  1.00  0.00     0.000 C 
BRANCH   6   7
ATOM      7  C   UNL     1      10.770  34.190  19.110  1.00  0.00     0.000 C 
BRANCH   7   8
ATOM      8  C   UNL     1      11.238  32.743  18.875  1.00  0.00     0.000 C 
BRANCH   8   9
ATOM      9  C   UNL     1      10.123  31.677  18.917  1.00  0.00     0.000 C 
BRANCH   9  10
ATOM     10  C   UNL     1       9.766  31.152  20.320  1.00  0.00     0.000 C 
BRANCH  10  11
ATOM     11  C   UNL     1       8.710  30.035  20.289  1.00  0.00     0.000 C 
BRANCH  11  12
ATOM     12  C   UNL     1       7.394  30.476  19.623  1.00  0.00     0.006 C 
BRANCH  12  13
ATOM     13  C   UNL     1       6.221  30.670  20.598  1.00  0.00     0.053 C 
BRANCH  13  14
ATOM     14  C   UNL     1       5.818  32.108  20.714  1.00  0.00     0.041 C 
ATOM     15  O   UNL     1       4.916  32.450  21.524  1.00  0.00    -0.550 OA
ATOM     16  O   UNL     1       6.463  33.075  19.954  1.00  0.00    -0.550 OA
ENDBRANCH  13  14
ENDBRANCH  12  13
ENDBRANCH  11  12
ENDBRANCH  10  11
ENDBRANCH   9  10
ENDBRANCH   8   9
ENDBRANCH   7   8
ENDBRANCH   6   7
ENDBRANCH   5   6
ENDBRANCH   4   5
ENDBRANCH   3   4
ENDBRANCH   2   3
ENDBRANCH   1   2
BRANCH   1  17
ATOM     17  C   UNL     1      12.920  34.830  21.843  1.00  0.00     0.000 C 
BRANCH  17  18
ATOM     18  C   UNL     1      12.193  33.525  22.204  1.00  0.00     0.000 C 
BRANCH  18  19
ATOM     19  C   UNL     1      12.872  32.286  21.600  1.00  0.00     0.000 C 
BRANCH  19  20
ATOM     20  C   UNL     1      13.036  31.145  22.620  1.00  0.00     0.000 C 
BRANCH  20  21
ATOM     21  C   UNL     1      14.285  30.291  22.352  1.00  0.00     0.000 C 
BRANCH  21  22
ATOM     22  C   UNL     1      15.548  30.871  23.012  1.00  0.00    -0.000 C 
BRANCH  22  23
ATOM     23  C   UNL     1      16.805  30.042  22.709  1.00  0.00    -0.000 C 
BRANCH  23  24
ATOM     24  C   UNL     1      18.101  30.853  22.879  1.00  0.00    -0.000 C 
BRANCH  24  25
ATOM     25  C   UNL     1      19.237  30.361  21.963  1.00  0.00    -0.000 C 
BRANCH  25  26
ATOM     26  C   UNL     1      18.784  29.880  20.570  1.00  0.00    -0.000 C 
BRANCH  26  27
ATOM     27  C   UNL     1      18.258  30.988  19.637  1.00  0.00    -0.000 C 
BRANCH  27  28
ATOM     28  C   UNL     1      16.726  31.031  19.473  1.00  0.00    -0.000 C 
BRANCH  28  29
ATOM     29  C   UNL     1      16.094  32.420  19.679  1.00  0.00    -0.003 C 
ATOM     30  C   UNL     1      16.698  33.181  20.858  1.00  0.00     0.004 C 
ENDBRANCH  28  29
ENDBRANCH  27  28
ENDBRANCH  26  27
ENDBRANCH  25  26
ENDBRANCH  24  25
ENDBRANCH  23  24
ENDBRANCH  22  23
ENDBRANCH  21  22
ENDBRANCH  20  21
ENDBRANCH  19  20
ENDBRANCH  18  19
ENDBRANCH  17  18
ENDBRANCH   1  17
TORSDOF 26
ENDMDL
MODEL 8
REMARK VINA RESULT:    -2.463      1.268      3.024
REMARK INTER + INTRA:          -9.714
REMARK INTER:                  -6.942
REMARK INTRA:                  -2.772
REMARK UNBOUND:                -3.508
REMARK SMILES CCCCCCCCCCCCCCCCCCCCCCCCCCCC(=O)[O-]
REMARK SMILES IDX 15 1 16 2 17 3 18 4 19 5 20 6 21 7 22 8 23 9 24 10 25 11
REMARK SMILES IDX 26 12 27 13 28 14 29 15 30 16 14 17 13 18 12 19 11 20 10 21
REMARK SMILES IDX 9 22 8 23 7 24 6 25 5 26 4 27 3 28 2 29 1 30
REMARK H PARENT
REMARK Flexibility Score: inf
ROOT
ATOM      1  C   UNL     1      11.227  35.329  22.598  1.00  0.00     0.000 C 
ENDROOT
BRANCH   1   2
ATOM      2  C   UNL     1      12.624  35.882  22.283  1.00  0.00     0.000 C 
BRANCH   2   3
ATOM      3  C   UNL     1      12.966  35.822  20.784  1.00  0.00     0.000 C 
BRANCH   3   4
ATOM      4  C   UNL     1      14.361  35.253  20.446  1.00  0.00     0.000 C 
BRANCH   4   5
ATOM      5  C   UNL     1      14.440  33.719  20.296  1.00  0.00     0.000 C 
BRANCH   5   6
ATOM      6  C   UNL     1      15.613  33.208  19.429  1.00  0.00     0.000 C 
BRANCH   6   7
ATOM      7  C   UNL     1      15.453  31.750  18.959  1.00  0.00     0.000 C 
BRANCH   7   8
ATOM      8  C   UNL     1      15.433  30.703  20.087  1.00  0.00     0.000 C 
BRANCH   8   9
ATOM      9  C   UNL     1      14.123  30.637  20.900  1.00  0.00     0.000 C 
BRANCH   9  10
ATOM     10  C   UNL     1      14.261  30.963  22.398  1.00  0.00     0.000 C 
BRANCH  10  11
ATOM     11  C   UNL     1      15.226  30.016  23.130  1.00  0.00     0.000 C 
BRANCH  11  12
ATOM     12  C   UNL     1      16.321  30.767  23.910  1.00  0.00     0.006 C 
BRANCH  12  13
ATOM     13  C   UNL     1      17.756  30.431  23.473  1.00  0.00     0.053 C 
BRANCH  13  14
ATOM     14  C   UNL     1      18.102  31.054  22.155  1.00  0.00     0.041 C 
ATOM     15  O   UNL     1      17.779  32.247  21.914  1.00  0.00    -0.550 OA
ATOM     16  O   UNL     1      18.813  30.328  21.207  1.00  0.00    -0.550 OA
ENDBRANCH  13  14
ENDBRANCH  12  13
ENDBRANCH  11  12
ENDBRANCH  10  11
ENDBRANCH   9  10
ENDBRANCH   8   9
ENDBRANCH   7   8
ENDBRANCH   6   7
ENDBRANCH   5   6
ENDBRANCH   4   5
ENDBRANCH   3   4
ENDBRANCH   2   3
ENDBRANCH   1   2
BRANCH   1  17
ATOM     17  C   UNL     1      10.572  34.751  21.338  1.00  0.00     0.000 C 
BRANCH  17  18
ATOM     18  C   UNL     1      10.727  33.224  21.286  1.00  0.00     0.000 C 
BRANCH  18  19
ATOM     19  C   UNL     1      11.493  32.750  20.041  1.00  0.00     0.000 C 
BRANCH  19  20
ATOM     20  C   UNL     1      10.743  31.651  19.267  1.00  0.00     0.000 C 
BRANCH  20  21
ATOM     21  C   UNL     1      10.483  30.402  20.125  1.00  0.00     0.000 C 
BRANCH  21  22
ATOM     22  C   UNL     1       8.982  30.145  20.350  1.00  0.00    -0.000 C 
BRANCH  22  23
ATOM     23  C   UNL     1       8.227  29.879  19.040  1.00  0.00    -0.000 C 
BRANCH  23  24
ATOM     24  C   UNL     1       6.805  30.468  19.049  1.00  0.00    -0.000 C 
BRANCH  24  25
ATOM     25  C   UNL     1       6.444  31.135  20.388  1.00  0.00    -0.000 C 
BRANCH  25  26
ATOM     26  C   UNL     1       6.344  32.673  20.341  1.00  0.00    -0.000 C 
BRANCH  26  27
ATOM     27  C   UNL     1       6.841  33.318  19.033  1.00  0.00    -0.000 C 
BRANCH  27  28
ATOM     28  C   UNL     1       8.035  34.280  19.192  1.00  0.00    -0.000 C 
BRANCH  28  29
ATOM     29  C   UNL     1       7.715  35.759  18.909  1.00  0.00    -0.003 C 
ATOM     30  C   UNL     1       8.961  36.643  18.876  1.00  0.00     0.004 C 
ENDBRANCH  28  29
ENDBRANCH  27  28
ENDBRANCH  26  27
ENDBRANCH  25  26
ENDBRANCH  24  25
ENDBRANCH  23  24
ENDBRANCH  22  23
ENDBRANCH  21  22
ENDBRANCH  20  21
ENDBRANCH  19  20
ENDBRANCH  18  19
ENDBRANCH  17  18
ENDBRANCH   1  17
TORSDOF 26
ENDMDL
MODEL 9
REMARK VINA RESULT:    -2.260      1.390      3.122
REMARK INTER + INTRA:          -9.203
REMARK INTER:                  -6.866
REMARK INTRA:                  -2.337
REMARK UNBOUND:                -3.508
REMARK SMILES CCCCCCCCCCCCCCCCCCCCCCCCCCCC(=O)[O-]
REMARK SMILES IDX 15 1 16 2 17 3 18 4 19 5 20 6 21 7 22 8 23 9 24 10 25 11
REMARK SMILES IDX 26 12 27 13 28 14 29 15 30 16 14 17 13 18 12 19 11 20 10 21
REMARK SMILES IDX 9 22 8 23 7 24 6 25 5 26 4 27 3 28 2 29 1 30
REMARK H PARENT
REMARK Flexibility Score: inf
ROOT
ATOM      1  C   UNL     1      13.678  34.496  21.116  1.00  0.00     0.000 C 
ENDROOT
BRANCH   1   2
ATOM      2  C   UNL     1      15.018  34.294  20.395  1.00  0.00     0.000 C 
BRANCH   2   3
ATOM      3  C   UNL     1      14.856  33.664  19.000  1.00  0.00     0.000 C 
BRANCH   3   4
ATOM      4  C   UNL     1      14.757  32.123  18.978  1.00  0.00     0.000 C 
BRANCH   4   5
ATOM      5  C   UNL     1      13.331  31.542  19.073  1.00  0.00     0.000 C 
BRANCH   5   6
ATOM      6  C   UNL     1      13.127  30.497  20.193  1.00  0.00     0.000 C 
BRANCH   6   7
ATOM      7  C   UNL     1      13.524  30.999  21.595  1.00  0.00     0.000 C 
BRANCH   7   8
ATOM      8  C   UNL     1      14.326  29.994  22.442  1.00  0.00     0.000 C 
BRANCH   8   9
ATOM      9  C   UNL     1      15.832  30.301  22.575  1.00  0.00     0.000 C 
BRANCH   9  10
ATOM     10  C   UNL     1      16.290  30.754  23.973  1.00  0.00     0.000 C 
BRANCH  10  11
ATOM     11  C   UNL     1      17.772  30.450  24.245  1.00  0.00     0.000 C 
BRANCH  11  12
ATOM     12  C   UNL     1      18.699  30.944  23.118  1.00  0.00     0.006 C 
BRANCH  12  13
ATOM     13  C   UNL     1      19.026  29.884  22.054  1.00  0.00     0.053 C 
BRANCH  13  14
ATOM     14  C   UNL     1      18.878  30.419  20.663  1.00  0.00     0.041 C 
ATOM     15  O   UNL     1      17.970  31.251  20.397  1.00  0.00    -0.550 OA
ATOM     16  O   UNL     1      19.765  30.027  19.668  1.00  0.00    -0.550 OA
ENDBRANCH  13  14
ENDBRANCH  12  13
ENDBRANCH  11  12
ENDBRANCH  10  11
ENDBRANCH   9  10
ENDBRANCH   8   9
ENDBRANCH   7   8
ENDBRANCH   6   7
ENDBRANCH   5   6
ENDBRANCH   4   5
ENDBRANCH   3   4
ENDBRANCH   2   3
ENDBRANCH   1   2
BRANCH   1  17
ATOM     17  C   UNL     1      13.231  35.961  21.037  1.00  0.00     0.000 C 
BRANCH  17  18
ATOM     18  C   UNL     1      12.403  36.217  19.768  1.00  0.00     0.000 C 
BRANCH  18  19
ATOM     19  C   UNL     1      11.212  35.254  19.637  1.00  0.00     0.000 C 
BRANCH  19  20
ATOM     20  C   UNL     1      10.379  35.164  20.929  1.00  0.00     0.000 C 
BRANCH  20  21
ATOM     21  C   UNL     1       8.872  35.049  20.650  1.00  0.00     0.000 C 
BRANCH  21  22
ATOM     22  C   UNL     1       8.571  34.314  19.332  1.00  0.00    -0.000 C 
BRANCH  22  23
ATOM     23  C   UNL     1       7.085  34.375  18.951  1.00  0.00    -0.000 C 
BRANCH  23  24
ATOM     24  C   UNL     1       6.437  32.982  18.876  1.00  0.00    -0.000 C 
BRANCH  24  25
ATOM     25  C   UNL     1       5.847  32.524  20.222  1.00  0.00    -0.000 C 
BRANCH  25  26
ATOM     26  C   UNL     1       5.783  30.996  20.416  1.00  0.00    -0.000 C 
BRANCH  26  27
ATOM     27  C   UNL     1       7.114  30.334  20.823  1.00  0.00    -0.000 C 
BRANCH  27  28
ATOM     28  C   UNL     1       8.005  29.884  19.649  1.00  0.00    -0.000 C 
BRANCH  28  29
ATOM     29  C   UNL     1       9.516  29.887  19.947  1.00  0.00    -0.003 C 
ATOM     30  C   UNL     1      10.022  31.240  20.443  1.00  0.00     0.004 C 
ENDBRANCH  28  29
ENDBRANCH  27  28
ENDBRANCH  26  27
ENDBRANCH  25  26
ENDBRANCH  24  25
ENDBRANCH  23  24
ENDBRANCH  22  23
ENDBRANCH  21  22
ENDBRANCH  20  21
ENDBRANCH  19  20
ENDBRANCH  18  19
ENDBRANCH  17  18
ENDBRANCH   1  17
TORSDOF 26
ENDMDL
