MODEL 1
REMARK VINA RESULT:    -3.173      0.000      0.000
REMARK INTER + INTRA:          -4.146
REMARK INTER:                  -3.916
REMARK INTRA:                  -0.231
REMARK UNBOUND:                -0.231
REMARK SMILES CCCCCC(=O)[O-]
REMARK SMILES IDX 4 1 5 2 6 3 7 4 8 5 3 6 2 7 1 8
REMARK H PARENT
REMARK Flexibility Score: inf
ROOT
ATOM      1  C   UNL     1      -7.478   3.723  51.071  1.00  0.00     0.006 C 
ENDROOT
BRANCH   1   2
ATOM      2  C   UNL     1      -7.444   5.247  51.227  1.00  0.00     0.053 C 
BRANCH   2   3
ATOM      3  C   UNL     1      -8.782   5.760  51.655  1.00  0.00     0.041 C 
ATOM      4  O   UNL     1      -9.680   5.978  50.799  1.00  0.00    -0.550 OA
ATOM      5  O   UNL     1      -9.055   5.952  53.003  1.00  0.00    -0.550 OA
ENDBRANCH   2   3
ENDBRANCH   1   2
BRANCH   1   6
ATOM      6  C   UNL     1      -7.186   3.028  52.408  1.00  0.00     0.000 C 
BRANCH   6   7
ATOM      7  C   UNL     1      -5.966   3.624  53.128  1.00  0.00    -0.003 C 
ATOM      8  C   UNL     1      -6.279   4.059  54.560  1.00  0.00     0.004 C 
ENDBRANCH   6   7
ENDBRANCH   1   6
TORSDOF 4
ENDMDL
MODEL 2
REMARK VINA RESULT:    -3.027      1.305      1.515
REMARK INTER + INTRA:          -3.966
REMARK INTER:                  -3.823
REMARK INTRA:                  -0.143
REMARK UNBOUND:                -0.231
REMARK SMILES CCCCCC(=O)[O-]
REMARK SMILES IDX 4 1 5 2 6 3 7 4 8 5 3 6 2 7 1 8
REMARK H PARENT
REMARK Flexibility Score: inf
ROOT
ATOM      1  C   UNL     1      -7.396   4.789  51.029  1.00  0.00     0.006 C 
ENDROOT
BRANCH   1   2
ATOM      2  C   UNL     1      -8.511   5.683  51.582  1.00  0.00     0.053 C 
BRANCH   2   3
ATOM      3  C   UNL     1      -9.820   5.345  50.942  1.00  0.00     0.041 C 
ATOM      4  O   UNL     1     -10.601   6.264  50.575  1.00  0.00    -0.550 OA
ATOM      5  O   UNL     1     -10.157   4.019  50.704  1.00  0.00    -0.550 OA
ENDBRANCH   2   3
ENDBRANCH   1   2
BRANCH   1   6
ATOM      6  C   UNL     1      -6.895   3.810  52.100  1.00  0.00     0.000 C 
BRANCH   6   7
ATOM      7  C   UNL     1      -6.987   4.391  53.520  1.00  0.00    -0.003 C 
ATOM      8  C   UNL     1      -5.872   3.888  54.437  1.00  0.00     0.004 C 
ENDBRANCH   6   7
ENDBRANCH   1   6
TORSDOF 4
ENDMDL
MODEL 3
REMARK VINA RESULT:    -3.012     11.079     12.195
REMARK INTER + INTRA:          -3.946
REMARK INTER:                  -3.800
REMARK INTRA:                  -0.147
REMARK UNBOUND:                -0.231
REMARK SMILES CCCCCC(=O)[O-]
REMARK SMILES IDX 4 1 5 2 6 3 7 4 8 5 3 6 2 7 1 8
REMARK H PARENT
REMARK Flexibility Score: inf
ROOT
ATOM      1  C   UNL     1       1.541  -1.370  53.516  1.00  0.00     0.006 C 
ENDROOT
BRANCH   1   2
ATOM      2  C   UNL     1       2.710  -0.399  53.324  1.00  0.00     0.053 C 
BRANCH   2   3
ATOM      3  C   UNL     1       2.591   0.757  54.264  1.00  0.00     0.041 C 
ATOM      4  O   UNL     1       2.856   0.609  55.487  1.00  0.00    -0.550 OA
ATOM      5  O   UNL     1       2.234   2.011  53.785  1.00  0.00    -0.550 OA
ENDBRANCH   2   3
ENDBRANCH   1   2
BRANCH   1   6
ATOM      6  C   UNL     1       2.046  -2.767  53.906  1.00  0.00     0.000 C 
BRANCH   6   7
ATOM      7  C   UNL     1       3.522  -2.762  54.334  1.00  0.00    -0.003 C 
ATOM      8  C   UNL     1       3.954  -4.076  54.983  1.00  0.00     0.004 C 
ENDBRANCH   6   7
ENDBRANCH   1   6
TORSDOF 4
ENDMDL
MODEL 4
REMARK VINA RESULT:    -2.980     10.879     11.743
REMARK INTER + INTRA:          -3.908
REMARK INTER:                  -3.762
REMARK INTRA:                  -0.146
REMARK UNBOUND:                -0.231
REMARK SMILES CCCCCC(=O)[O-]
REMARK SMILES IDX 4 1 5 2 6 3 7 4 8 5 3 6 2 7 1 8
REMARK H PARENT
REMARK Flexibility Score: inf
ROOT
ATOM      1  C   UNL     1       2.955  -1.848  53.851  1.00  0.00     0.006 C 
ENDROOT
BRANCH   1   2
ATOM      2  C   UNL     1       2.569  -0.511  53.210  1.00  0.00     0.053 C 
BRANCH   2   3
ATOM      3  C   UNL     1       2.726   0.606  54.191  1.00  0.00     0.041 C 
ATOM      4  O   UNL     1       3.248   0.391  55.317  1.00  0.00    -0.550 OA
ATOM      5  O   UNL     1       2.343   1.895  53.845  1.00  0.00    -0.550 OA
ENDBRANCH   2   3
ENDBRANCH   1   2
BRANCH   1   6
ATOM      6  C   UNL     1       1.771  -2.824  53.840  1.00  0.00     0.000 C 
BRANCH   6   7
ATOM      7  C   UNL     1       0.522  -2.229  53.171  1.00  0.00    -0.003 C 
ATOM      8  C   UNL     1      -0.302  -3.275  52.421  1.00  0.00     0.004 C 
ENDBRANCH   6   7
ENDBRANCH   1   6
TORSDOF 4
ENDMDL
MODEL 5
REMARK VINA RESULT:    -2.958      1.052      1.873
REMARK INTER + INTRA:          -3.880
REMARK INTER:                  -3.690
REMARK INTRA:                  -0.190
REMARK UNBOUND:                -0.231
REMARK SMILES CCCCCC(=O)[O-]
REMARK SMILES IDX 4 1 5 2 6 3 7 4 8 5 3 6 2 7 1 8
REMARK H PARENT
REMARK Flexibility Score: inf
ROOT
ATOM      1  C   UNL     1      -7.647   5.433  51.332  1.00  0.00     0.006 C 
ENDROOT
BRANCH   1   2
ATOM      2  C   UNL     1      -8.760   5.799  52.318  1.00  0.00     0.053 C 
BRANCH   2   3
ATOM      3  C   UNL     1     -10.103   5.572  51.701  1.00  0.00     0.041 C 
ATOM      4  O   UNL     1     -10.960   4.862  52.292  1.00  0.00    -0.550 OA
ATOM      5  O   UNL     1     -10.428   6.184  50.498  1.00  0.00    -0.550 OA
ENDBRANCH   2   3
ENDBRANCH   1   2
BRANCH   1   6
ATOM      6  C   UNL     1      -7.502   3.910  51.207  1.00  0.00     0.000 C 
BRANCH   6   7
ATOM      7  C   UNL     1      -7.290   3.224  52.567  1.00  0.00    -0.003 C 
ATOM      8  C   UNL     1      -5.949   3.584  53.206  1.00  0.00     0.004 C 
ENDBRANCH   6   7
ENDBRANCH   1   6
TORSDOF 4
ENDMDL
MODEL 6
REMARK VINA RESULT:    -2.954      1.714      2.366
REMARK INTER + INTRA:          -3.875
REMARK INTER:                  -3.752
REMARK INTRA:                  -0.123
REMARK UNBOUND:                -0.231
REMARK SMILES CCCCCC(=O)[O-]
REMARK SMILES IDX 4 1 5 2 6 3 7 4 8 5 3 6 2 7 1 8
REMARK H PARENT
REMARK Flexibility Score: inf
ROOT
ATOM      1  C   UNL     1      -6.457   3.859  53.161  1.00  0.00     0.006 C 
ENDROOT
BRANCH   1   2
ATOM      2  C   UNL     1      -7.711   4.706  52.922  1.00  0.00     0.053 C 
BRANCH   2   3
ATOM      3  C   UNL     1      -7.752   5.196  51.511  1.00  0.00     0.041 C 
ATOM      4  O   UNL     1      -8.790   5.753  51.063  1.00  0.00    -0.550 OA
ATOM      5  O   UNL     1      -6.628   5.085  50.702  1.00  0.00    -0.550 OA
ENDBRANCH   2   3
ENDBRANCH   1   2
BRANCH   1   6
ATOM      6  C   UNL     1      -5.904   4.084  54.576  1.00  0.00     0.000 C 
BRANCH   6   7
ATOM      7  C   UNL     1      -6.680   5.163  55.348  1.00  0.00    -0.003 C 
ATOM      8  C   UNL     1      -6.145   5.378  56.763  1.00  0.00     0.004 C 
ENDBRANCH   6   7
ENDBRANCH   1   6
TORSDOF 4
ENDMDL
MODEL 7
REMARK VINA RESULT:    -2.922     10.012     11.091
REMARK INTER + INTRA:          -3.836
REMARK INTER:                  -3.585
REMARK INTRA:                  -0.251
REMARK UNBOUND:                -0.231
REMARK SMILES CCCCCC(=O)[O-]
REMARK SMILES IDX 4 1 5 2 6 3 7 4 8 5 3 6 2 7 1 8
REMARK H PARENT
REMARK Flexibility Score: inf
ROOT
ATOM      1  C   UNL     1       2.936   0.643  55.046  1.00  0.00     0.006 C 
ENDROOT
BRANCH   1   2
ATOM      2  C   UNL     1       1.713   1.520  55.332  1.00  0.00     0.053 C 
BRANCH   2   3
ATOM      3  C   UNL     1       0.726   0.786  56.181  1.00  0.00     0.041 C 
ATOM      4  O   UNL     1       0.986  -0.377  56.592  1.00  0.00    -0.550 OA
ATOM      5  O   UNL     1      -0.459   1.401  56.563  1.00  0.00    -0.550 OA
ENDBRANCH   2   3
ENDBRANCH   1   2
BRANCH   1   6
ATOM      6  C   UNL     1       2.891   0.087  53.616  1.00  0.00     0.000 C 
BRANCH   6   7
ATOM      7  C   UNL     1       2.685  -1.436  53.581  1.00  0.00    -0.003 C 
ATOM      8  C   UNL     1       1.236  -1.829  53.297  1.00  0.00     0.004 C 
ENDBRANCH   6   7
ENDBRANCH   1   6
TORSDOF 4
ENDMDL
MODEL 8
REMARK VINA RESULT:    -2.901     10.586     11.654
REMARK INTER + INTRA:          -3.810
REMARK INTER:                  -3.616
REMARK INTRA:                  -0.195
REMARK UNBOUND:                -0.231
REMARK SMILES CCCCCC(=O)[O-]
REMARK SMILES IDX 4 1 5 2 6 3 7 4 8 5 3 6 2 7 1 8
REMARK H PARENT
REMARK Flexibility Score: inf
ROOT
ATOM      1  C   UNL     1       3.036   0.345  54.697  1.00  0.00     0.006 C 
ENDROOT
BRANCH   1   2
ATOM      2  C   UNL     1       2.935  -0.397  53.361  1.00  0.00     0.053 C 
BRANCH   2   3
ATOM      3  C   UNL     1       2.270  -1.724  53.546  1.00  0.00     0.041 C 
ATOM      4  O   UNL     1       2.909  -2.688  54.047  1.00  0.00    -0.550 OA
ATOM      5  O   UNL     1       0.932  -1.884  53.214  1.00  0.00    -0.550 OA
ENDBRANCH   2   3
ENDBRANCH   1   2
BRANCH   1   6
ATOM      6  C   UNL     1       2.094   1.557  54.724  1.00  0.00     0.000 C 
BRANCH   6   7
ATOM      7  C   UNL     1       1.226   1.602  55.992  1.00  0.00    -0.003 C 
ATOM      8  C   UNL     1       0.476   0.294  56.242  1.00  0.00     0.004 C 
ENDBRANCH   6   7
ENDBRANCH   1   6
TORSDOF 4
ENDMDL
MODEL 9
REMARK VINA RESULT:    -2.822      1.488      2.207
REMARK INTER + INTRA:          -3.713
REMARK INTER:                  -3.529
REMARK INTRA:                  -0.184
REMARK UNBOUND:                -0.231
REMARK SMILES CCCCCC(=O)[O-]
REMARK SMILES IDX 4 1 5 2 6 3 7 4 8 5 3 6 2 7 1 8
REMARK H PARENT
REMARK Flexibility Score: inf
ROOT
ATOM      1  C   UNL     1      -8.434   4.556  53.646  1.00  0.00     0.006 C 
ENDROOT
BRANCH   1   2
ATOM      2  C   UNL     1      -9.155   5.734  52.983  1.00  0.00     0.053 C 
BRANCH   2   3
ATOM      3  C   UNL     1      -8.937   5.718  51.504  1.00  0.00     0.041 C 
ATOM      4  O   UNL     1      -7.821   5.370  51.032  1.00  0.00    -0.550 OA
ATOM      5  O   UNL     1      -9.978   6.039  50.643  1.00  0.00    -0.550 OA
ENDBRANCH   2   3
ENDBRANCH   1   2
BRANCH   1   6
ATOM      6  C   UNL     1      -7.436   5.047  54.704  1.00  0.00     0.000 C 
BRANCH   6   7
ATOM      7  C   UNL     1      -6.127   4.243  54.699  1.00  0.00    -0.003 C 
ATOM      8  C   UNL     1      -5.907   3.479  53.394  1.00  0.00     0.004 C 
ENDBRANCH   6   7
ENDBRANCH   1   6
TORSDOF 4
ENDMDL
