MODEL 1
REMARK VINA RESULT:    -4.516      0.000      0.000
REMARK INTER + INTRA:          -6.655
REMARK INTER:                  -6.101
REMARK INTRA:                  -0.554
REMARK UNBOUND:                -0.554
REMARK SMILES C[C@H](O)[C@H](O)[C@@H](O)[C@@H](O)C=O
REMARK SMILES IDX 4 1 2 2 1 3 3 4 6 6 8 7 10 8 11 9 9 10 7 12 5 14
REMARK H PARENT 3 5 9 11 7 13 5 15
REMARK Flexibility Score: inf
ROOT
ATOM      1  C   UNL     1       0.933  -2.713  -6.879  1.00  0.00     0.174 C 
ENDROOT
BRANCH   1   2
ATOM      2  C   UNL     1       0.480  -1.230  -7.039  1.00  0.00     0.142 C 
ATOM      3  C   UNL     1       0.689  -0.695  -8.457  1.00  0.00     0.041 C 
BRANCH   2   4
ATOM      4  O   UNL     1       1.133  -0.385  -6.126  1.00  0.00    -0.391 OA
ATOM      5  H   UNL     1       1.689  -0.958  -5.535  1.00  0.00     0.211 HD
ENDBRANCH   2   4
ENDBRANCH   1   2
BRANCH   1   6
ATOM      6  C   UNL     1       2.396  -3.069  -7.287  1.00  0.00     0.181 C 
BRANCH   6   7
ATOM      7  C   UNL     1       2.690  -4.582  -7.485  1.00  0.00     0.209 C 
BRANCH   7   8
ATOM      8  C   UNL     1       1.638  -5.241  -8.340  1.00  0.00     0.258 C 
ATOM      9  O   UNL     1       1.919  -6.188  -9.059  1.00  0.00    -0.300 OA
ENDBRANCH   7   8
BRANCH   7  10
ATOM     10  O   UNL     1       2.796  -5.261  -6.259  1.00  0.00    -0.383 OA
ATOM     11  H   UNL     1       2.124  -5.991  -6.259  1.00  0.00     0.211 HD
ENDBRANCH   7  10
ENDBRANCH   6   7
BRANCH   6  12
ATOM     12  O   UNL     1       3.276  -2.539  -6.324  1.00  0.00    -0.387 OA
ATOM     13  H   UNL     1       2.908  -1.665  -6.032  1.00  0.00     0.211 HD
ENDBRANCH   6  12
ENDBRANCH   1   6
BRANCH   1  14
ATOM     14  O   UNL     1       0.636  -3.199  -5.592  1.00  0.00    -0.388 OA
ATOM     15  H   UNL     1      -0.269  -2.888  -5.340  1.00  0.00     0.211 HD
ENDBRANCH   1  14
TORSDOF 8
ENDMDL
MODEL 2
REMARK VINA RESULT:    -4.406      0.923      4.199
REMARK INTER + INTRA:          -6.506
REMARK INTER:                  -5.951
REMARK INTRA:                  -0.555
REMARK UNBOUND:                -0.554
REMARK SMILES C[C@H](O)[C@H](O)[C@@H](O)[C@@H](O)C=O
REMARK SMILES IDX 4 1 2 2 1 3 3 4 6 6 8 7 10 8 11 9 9 10 7 12 5 14
REMARK H PARENT 3 5 9 11 7 13 5 15
REMARK Flexibility Score: inf
ROOT
ATOM      1  C   UNL     1       2.407  -3.097  -7.261  1.00  0.00     0.174 C 
ENDROOT
BRANCH   1   2
ATOM      2  C   UNL     1       2.787  -4.592  -7.486  1.00  0.00     0.142 C 
ATOM      3  C   UNL     1       1.890  -5.284  -8.514  1.00  0.00     0.041 C 
BRANCH   2   4
ATOM      4  O   UNL     1       2.762  -5.321  -6.285  1.00  0.00    -0.391 OA
ATOM      5  H   UNL     1       2.394  -6.220  -6.490  1.00  0.00     0.211 HD
ENDBRANCH   2   4
ENDBRANCH   1   2
BRANCH   1   6
ATOM      6  C   UNL     1       0.911  -2.769  -6.965  1.00  0.00     0.181 C 
BRANCH   6   7
ATOM      7  C   UNL     1       0.493  -1.287  -7.173  1.00  0.00     0.209 C 
BRANCH   7   8
ATOM      8  C   UNL     1       0.855  -0.801  -8.553  1.00  0.00     0.258 C 
ATOM      9  O   UNL     1       0.864   0.392  -8.814  1.00  0.00    -0.300 OA
ENDBRANCH   7   8
BRANCH   7  10
ATOM     10  O   UNL     1       1.064  -0.439  -6.209  1.00  0.00    -0.383 OA
ATOM     11  H   UNL     1       1.129  -0.948  -5.360  1.00  0.00     0.211 HD
ENDBRANCH   7  10
ENDBRANCH   6   7
BRANCH   6  12
ATOM     12  O   UNL     1       0.615  -3.161  -5.645  1.00  0.00    -0.387 OA
ATOM     13  H   UNL     1       0.698  -2.357  -5.069  1.00  0.00     0.211 HD
ENDBRANCH   6  12
ENDBRANCH   1   6
BRANCH   1  14
ATOM     14  O   UNL     1       3.253  -2.495  -6.311  1.00  0.00    -0.388 OA
ATOM     15  H   UNL     1       4.095  -3.013  -6.267  1.00  0.00     0.211 HD
ENDBRANCH   1  14
TORSDOF 8
ENDMDL
MODEL 3
REMARK VINA RESULT:    -4.248      1.332      2.166
REMARK INTER + INTRA:          -6.292
REMARK INTER:                  -5.644
REMARK INTRA:                  -0.648
REMARK UNBOUND:                -0.554
REMARK SMILES C[C@H](O)[C@H](O)[C@@H](O)[C@@H](O)C=O
REMARK SMILES IDX 4 1 2 2 1 3 3 4 6 6 8 7 10 8 11 9 9 10 7 12 5 14
REMARK H PARENT 3 5 9 11 7 13 5 15
REMARK Flexibility Score: inf
ROOT
ATOM      1  C   UNL     1       0.808  -1.258  -7.190  1.00  0.00     0.174 C 
ENDROOT
BRANCH   1   2
ATOM      2  C   UNL     1       0.462  -0.532  -8.527  1.00  0.00     0.142 C 
ATOM      3  C   UNL     1      -0.319  -1.419  -9.498  1.00  0.00     0.041 C 
BRANCH   2   4
ATOM      4  O   UNL     1       1.615  -0.048  -9.168  1.00  0.00    -0.391 OA
ATOM      5  H   UNL     1       1.425  -0.020 -10.142  1.00  0.00     0.211 HD
ENDBRANCH   2   4
ENDBRANCH   1   2
BRANCH   1   6
ATOM      6  C   UNL     1       1.868  -2.401  -7.243  1.00  0.00     0.181 C 
BRANCH   6   7
ATOM      7  C   UNL     1       1.885  -3.359  -6.019  1.00  0.00     0.209 C 
BRANCH   7   8
ATOM      8  C   UNL     1       2.170  -4.779  -6.435  1.00  0.00     0.258 C 
ATOM      9  O   UNL     1       2.997  -5.024  -7.299  1.00  0.00    -0.300 OA
ENDBRANCH   7   8
BRANCH   7  10
ATOM     10  O   UNL     1       0.680  -3.311  -5.297  1.00  0.00    -0.383 OA
ATOM     11  H   UNL     1       0.183  -4.150  -5.482  1.00  0.00     0.211 HD
ENDBRANCH   7  10
ENDBRANCH   6   7
BRANCH   6  12
ATOM     12  O   UNL     1       3.143  -1.828  -7.411  1.00  0.00    -0.387 OA
ATOM     13  H   UNL     1       3.447  -1.510  -6.521  1.00  0.00     0.211 HD
ENDBRANCH   6  12
ENDBRANCH   1   6
BRANCH   1  14
ATOM     14  O   UNL     1       1.113  -0.333  -6.174  1.00  0.00    -0.388 OA
ATOM     15  H   UNL     1       0.840  -0.720  -5.305  1.00  0.00     0.211 HD
ENDBRANCH   1  14
TORSDOF 8
ENDMDL
MODEL 4
REMARK VINA RESULT:    -4.228      1.454      2.038
REMARK INTER + INTRA:          -6.265
REMARK INTER:                  -5.727
REMARK INTRA:                  -0.538
REMARK UNBOUND:                -0.554
REMARK SMILES C[C@H](O)[C@H](O)[C@@H](O)[C@@H](O)C=O
REMARK SMILES IDX 4 1 2 2 1 3 3 4 6 6 8 7 10 8 11 9 9 10 7 12 5 14
REMARK H PARENT 3 5 9 11 7 13 5 15
REMARK Flexibility Score: inf
ROOT
ATOM      1  C   UNL     1       2.028  -1.674  -7.990  1.00  0.00     0.174 C 
ENDROOT
BRANCH   1   2
ATOM      2  C   UNL     1       0.729  -1.291  -7.217  1.00  0.00     0.142 C 
ATOM      3  C   UNL     1      -0.331  -0.653  -8.117  1.00  0.00     0.041 C 
BRANCH   2   4
ATOM      4  O   UNL     1       1.000  -0.431  -6.140  1.00  0.00    -0.391 OA
ATOM      5  H   UNL     1       0.464   0.395  -6.276  1.00  0.00     0.211 HD
ENDBRANCH   2   4
ENDBRANCH   1   2
BRANCH   1   6
ATOM      6  C   UNL     1       2.892  -2.839  -7.417  1.00  0.00     0.181 C 
BRANCH   6   7
ATOM      7  C   UNL     1       2.239  -4.248  -7.466  1.00  0.00     0.209 C 
BRANCH   7   8
ATOM      8  C   UNL     1       1.819  -4.710  -6.094  1.00  0.00     0.258 C 
ATOM      9  O   UNL     1       2.560  -5.401  -5.413  1.00  0.00    -0.300 OA
ENDBRANCH   7   8
BRANCH   7  10
ATOM     10  O   UNL     1       3.092  -5.203  -8.046  1.00  0.00    -0.383 OA
ATOM     11  H   UNL     1       2.858  -6.089  -7.664  1.00  0.00     0.211 HD
ENDBRANCH   7  10
ENDBRANCH   6   7
BRANCH   6  12
ATOM     12  O   UNL     1       3.245  -2.529  -6.089  1.00  0.00    -0.387 OA
ATOM     13  H   UNL     1       3.857  -3.243  -5.768  1.00  0.00     0.211 HD
ENDBRANCH   6  12
ENDBRANCH   1   6
BRANCH   1  14
ATOM     14  O   UNL     1       1.767  -1.867  -9.360  1.00  0.00    -0.388 OA
ATOM     15  H   UNL     1       2.496  -1.447  -9.880  1.00  0.00     0.211 HD
ENDBRANCH   1  14
TORSDOF 8
ENDMDL
MODEL 5
REMARK VINA RESULT:    -4.188      1.680      4.322
REMARK INTER + INTRA:          -6.211
REMARK INTER:                  -5.533
REMARK INTRA:                  -0.678
REMARK UNBOUND:                -0.554
REMARK SMILES C[C@H](O)[C@H](O)[C@@H](O)[C@@H](O)C=O
REMARK SMILES IDX 4 1 2 2 1 3 3 4 6 6 8 7 10 8 11 9 9 10 7 12 5 14
REMARK H PARENT 3 5 9 11 7 13 5 15
REMARK Flexibility Score: inf
ROOT
ATOM      1  C   UNL     1       2.809  -2.934  -7.221  1.00  0.00     0.174 C 
ENDROOT
BRANCH   1   2
ATOM      2  C   UNL     1       2.140  -4.336  -7.086  1.00  0.00     0.142 C 
ATOM      3  C   UNL     1       2.346  -4.962  -5.706  1.00  0.00     0.041 C 
BRANCH   2   4
ATOM      4  O   UNL     1       2.600  -5.227  -8.071  1.00  0.00    -0.391 OA
ATOM      5  H   UNL     1       1.868  -5.872  -8.254  1.00  0.00     0.211 HD
ENDBRANCH   2   4
ENDBRANCH   1   2
BRANCH   1   6
ATOM      6  C   UNL     1       2.074  -1.864  -8.086  1.00  0.00     0.181 C 
BRANCH   6   7
ATOM      7  C   UNL     1       0.775  -1.276  -7.468  1.00  0.00     0.209 C 
BRANCH   7   8
ATOM      8  C   UNL     1       0.054  -0.384  -8.447  1.00  0.00     0.258 C 
ATOM      9  O   UNL     1       0.670   0.403  -9.148  1.00  0.00    -0.300 OA
ENDBRANCH   7   8
BRANCH   7  10
ATOM     10  O   UNL     1       1.031  -0.567  -6.283  1.00  0.00    -0.383 OA
ATOM     11  H   UNL     1       1.997  -0.339  -6.269  1.00  0.00     0.211 HD
ENDBRANCH   7  10
ENDBRANCH   6   7
BRANCH   6  12
ATOM     12  O   UNL     1       1.786  -2.422  -9.347  1.00  0.00    -0.387 OA
ATOM     13  H   UNL     1       2.651  -2.650  -9.777  1.00  0.00     0.211 HD
ENDBRANCH   6  12
ENDBRANCH   1   6
BRANCH   1  14
ATOM     14  O   UNL     1       3.154  -2.412  -5.960  1.00  0.00    -0.388 OA
ATOM     15  H   UNL     1       3.069  -3.134  -5.288  1.00  0.00     0.211 HD
ENDBRANCH   1  14
TORSDOF 8
ENDMDL
MODEL 6
REMARK VINA RESULT:    -4.150      1.256      3.931
REMARK INTER + INTRA:          -6.160
REMARK INTER:                  -5.753
REMARK INTRA:                  -0.407
REMARK UNBOUND:                -0.554
REMARK SMILES C[C@H](O)[C@H](O)[C@@H](O)[C@@H](O)C=O
REMARK SMILES IDX 4 1 2 2 1 3 3 4 6 6 8 7 10 8 11 9 9 10 7 12 5 14
REMARK H PARENT 3 5 9 11 7 13 5 15
REMARK Flexibility Score: inf
ROOT
ATOM      1  C   UNL     1       2.078  -3.999  -6.597  1.00  0.00     0.174 C 
ENDROOT
BRANCH   1   2
ATOM      2  C   UNL     1       2.326  -4.647  -7.993  1.00  0.00     0.142 C 
ATOM      3  C   UNL     1       1.101  -5.392  -8.528  1.00  0.00     0.041 C 
BRANCH   2   4
ATOM      4  O   UNL     1       3.426  -5.522  -7.972  1.00  0.00    -0.391 OA
ATOM      5  H   UNL     1       3.106  -6.411  -8.278  1.00  0.00     0.211 HD
ENDBRANCH   2   4
ENDBRANCH   1   2
BRANCH   1   6
ATOM      6  C   UNL     1       2.320  -2.464  -6.460  1.00  0.00     0.181 C 
BRANCH   6   7
ATOM      7  C   UNL     1       1.080  -1.563  -6.715  1.00  0.00     0.209 C 
BRANCH   7   8
ATOM      8  C   UNL     1       0.918  -1.247  -8.180  1.00  0.00     0.258 C 
ATOM      9  O   UNL     1       1.574  -0.361  -8.705  1.00  0.00    -0.300 OA
ENDBRANCH   7   8
BRANCH   7  10
ATOM     10  O   UNL     1       1.138  -0.368  -5.978  1.00  0.00    -0.383 OA
ATOM     11  H   UNL     1       2.041   0.022  -6.105  1.00  0.00     0.211 HD
ENDBRANCH   7  10
ENDBRANCH   6   7
BRANCH   6  12
ATOM     12  O   UNL     1       3.361  -2.091  -7.333  1.00  0.00    -0.387 OA
ATOM     13  H   UNL     1       2.980  -1.460  -7.998  1.00  0.00     0.211 HD
ENDBRANCH   6  12
ENDBRANCH   1   6
BRANCH   1  14
ATOM     14  O   UNL     1       0.817  -4.359  -6.086  1.00  0.00    -0.388 OA
ATOM     15  H   UNL     1       0.792  -4.132  -5.123  1.00  0.00     0.211 HD
ENDBRANCH   1  14
TORSDOF 8
ENDMDL
MODEL 7
REMARK VINA RESULT:    -3.811      1.984      4.018
REMARK INTER + INTRA:          -5.702
REMARK INTER:                  -4.986
REMARK INTRA:                  -0.715
REMARK UNBOUND:                -0.554
REMARK SMILES C[C@H](O)[C@H](O)[C@@H](O)[C@@H](O)C=O
REMARK SMILES IDX 4 1 2 2 1 3 3 4 6 6 8 7 10 8 11 9 9 10 7 12 5 14
REMARK H PARENT 3 5 9 11 7 13 5 15
REMARK Flexibility Score: inf
ROOT
ATOM      1  C   UNL     1       1.050  -3.083  -7.247  1.00  0.00     0.174 C 
ENDROOT
BRANCH   1   2
ATOM      2  C   UNL     1       2.449  -3.575  -6.765  1.00  0.00     0.142 C 
ATOM      3  C   UNL     1       2.366  -4.791  -5.841  1.00  0.00     0.041 C 
BRANCH   2   4
ATOM      4  O   UNL     1       3.166  -2.552  -6.120  1.00  0.00    -0.391 OA
ATOM      5  H   UNL     1       3.412  -2.885  -5.217  1.00  0.00     0.211 HD
ENDBRANCH   2   4
ENDBRANCH   1   2
BRANCH   1   6
ATOM      6  C   UNL     1       0.962  -1.656  -7.870  1.00  0.00     0.181 C 
BRANCH   6   7
ATOM      7  C   UNL     1       1.878  -1.401  -9.099  1.00  0.00     0.209 C 
BRANCH   7   8
ATOM      8  C   UNL     1       1.492  -0.136  -9.822  1.00  0.00     0.258 C 
ATOM      9  O   UNL     1       0.884   0.753  -9.247  1.00  0.00    -0.300 OA
ENDBRANCH   7   8
BRANCH   7  10
ATOM     10  O   UNL     1       1.865  -2.482  -9.998  1.00  0.00    -0.383 OA
ATOM     11  H   UNL     1       2.770  -2.890  -9.992  1.00  0.00     0.211 HD
ENDBRANCH   7  10
ENDBRANCH   6   7
BRANCH   6  12
ATOM     12  O   UNL     1       1.242  -0.706  -6.869  1.00  0.00    -0.387 OA
ATOM     13  H   UNL     1       0.403  -0.552  -6.361  1.00  0.00     0.211 HD
ENDBRANCH   6  12
ENDBRANCH   1   6
BRANCH   1  14
ATOM     14  O   UNL     1       0.435  -4.036  -8.079  1.00  0.00    -0.388 OA
ATOM     15  H   UNL     1      -0.515  -3.786  -8.195  1.00  0.00     0.211 HD
ENDBRANCH   1  14
TORSDOF 8
ENDMDL
MODEL 8
REMARK VINA RESULT:    -3.739      1.452      2.489
REMARK INTER + INTRA:          -5.605
REMARK INTER:                  -4.838
REMARK INTRA:                  -0.767
REMARK UNBOUND:                -0.554
REMARK SMILES C[C@H](O)[C@H](O)[C@@H](O)[C@@H](O)C=O
REMARK SMILES IDX 4 1 2 2 1 3 3 4 6 6 8 7 10 8 11 9 9 10 7 12 5 14
REMARK H PARENT 3 5 9 11 7 13 5 15
REMARK Flexibility Score: inf
ROOT
ATOM      1  C   UNL     1       2.720  -2.882  -6.988  1.00  0.00     0.174 C 
ENDROOT
BRANCH   1   2
ATOM      2  C   UNL     1       1.296  -2.409  -6.563  1.00  0.00     0.142 C 
ATOM      3  C   UNL     1       1.287  -0.989  -5.993  1.00  0.00     0.041 C 
BRANCH   2   4
ATOM      4  O   UNL     1       0.714  -3.285  -5.631  1.00  0.00    -0.391 OA
ATOM      5  H   UNL     1       0.534  -4.142  -6.100  1.00  0.00     0.211 HD
ENDBRANCH   2   4
ENDBRANCH   1   2
BRANCH   1   6
ATOM      6  C   UNL     1       2.834  -4.248  -7.732  1.00  0.00     0.181 C 
BRANCH   6   7
ATOM      7  C   UNL     1       1.851  -4.451  -8.919  1.00  0.00     0.209 C 
BRANCH   7   8
ATOM      8  C   UNL     1       2.042  -5.798  -9.568  1.00  0.00     0.258 C 
ATOM      9  O   UNL     1       3.110  -6.385  -9.490  1.00  0.00    -0.300 OA
ENDBRANCH   7   8
BRANCH   7  10
ATOM     10  O   UNL     1       1.977  -3.439  -9.885  1.00  0.00    -0.383 OA
ATOM     11  H   UNL     1       1.791  -3.843 -10.772  1.00  0.00     0.211 HD
ENDBRANCH   7  10
ENDBRANCH   6   7
BRANCH   6  12
ATOM     12  O   UNL     1       2.667  -5.288  -6.798  1.00  0.00    -0.387 OA
ATOM     13  H   UNL     1       1.692  -5.397  -6.644  1.00  0.00     0.211 HD
ENDBRANCH   6  12
ENDBRANCH   1   6
BRANCH   1  14
ATOM     14  O   UNL     1       3.405  -1.869  -7.683  1.00  0.00    -0.388 OA
ATOM     15  H   UNL     1       4.222  -1.637  -7.174  1.00  0.00     0.211 HD
ENDBRANCH   1  14
TORSDOF 8
ENDMDL
MODEL 9
REMARK VINA RESULT:    -3.629      1.329      4.138
REMARK INTER + INTRA:          -5.456
REMARK INTER:                  -4.988
REMARK INTRA:                  -0.468
REMARK UNBOUND:                -0.554
REMARK SMILES C[C@H](O)[C@H](O)[C@@H](O)[C@@H](O)C=O
REMARK SMILES IDX 4 1 2 2 1 3 3 4 6 6 8 7 10 8 11 9 9 10 7 12 5 14
REMARK H PARENT 3 5 9 11 7 13 5 15
REMARK Flexibility Score: inf
ROOT
ATOM      1  C   UNL     1       2.461  -4.388  -6.851  1.00  0.00     0.174 C 
ENDROOT
BRANCH   1   2
ATOM      2  C   UNL     1       2.694  -5.253  -8.127  1.00  0.00     0.142 C 
ATOM      3  C   UNL     1       3.435  -4.496  -9.230  1.00  0.00     0.041 C 
BRANCH   2   4
ATOM      4  O   UNL     1       1.486  -5.755  -8.642  1.00  0.00    -0.391 OA
ATOM      5  H   UNL     1       0.797  -5.050  -8.525  1.00  0.00     0.211 HD
ENDBRANCH   2   4
ENDBRANCH   1   2
BRANCH   1   6
ATOM      6  C   UNL     1       1.137  -3.568  -6.767  1.00  0.00     0.181 C 
BRANCH   6   7
ATOM      7  C   UNL     1       0.985  -2.428  -7.812  1.00  0.00     0.209 C 
BRANCH   7   8
ATOM      8  C   UNL     1       0.378  -1.193  -7.198  1.00  0.00     0.258 C 
ATOM      9  O   UNL     1       1.065  -0.406  -6.564  1.00  0.00    -0.300 OA
ENDBRANCH   7   8
BRANCH   7  10
ATOM     10  O   UNL     1       0.220  -2.829  -8.921  1.00  0.00    -0.383 OA
ATOM     11  H   UNL     1       0.481  -3.759  -9.147  1.00  0.00     0.211 HD
ENDBRANCH   7  10
ENDBRANCH   6   7
BRANCH   6  12
ATOM     12  O   UNL     1       1.016  -3.036  -5.469  1.00  0.00    -0.387 OA
ATOM     13  H   UNL     1       0.274  -2.375  -5.485  1.00  0.00     0.211 HD
ENDBRANCH   6  12
ENDBRANCH   1   6
BRANCH   1  14
ATOM     14  O   UNL     1       2.660  -5.145  -5.681  1.00  0.00    -0.388 OA
ATOM     15  H   UNL     1       2.100  -4.762  -4.960  1.00  0.00     0.211 HD
ENDBRANCH   1  14
TORSDOF 8
ENDMDL
