MODEL 1
REMARK VINA RESULT:    -3.249      0.000      0.000
REMARK INTER + INTRA:          -5.011
REMARK INTER:                  -4.959
REMARK INTRA:                  -0.052
REMARK UNBOUND:                -0.052
REMARK SMILES CC1=CCC[C@H](C)C(=O)C[C@@H](C(C)C)C(=O)C1
REMARK SMILES IDX 8 1 9 2 6 3 7 4 5 5 4 6 3 7 2 8 1 9 10 11 11 12 15 13 16 14
REMARK SMILES IDX 17 15 12 17 13 18 14 19
REMARK H PARENT
REMARK Flexibility Score: 70.00
ROOT
ATOM      1  C   UNL     1      13.890  24.968  33.829  1.00  0.00     0.136 C 
ATOM      2  O   UNL     1      14.315  25.511  34.838  1.00  0.00    -0.299 OA
ENDROOT
BRANCH   1   3
ATOM      3  C   UNL     1      12.400  24.986  33.542  1.00  0.00     0.053 C 
ATOM      4  C   UNL     1      11.722  26.132  34.306  1.00  0.00     0.016 C 
BRANCH   3   5
ATOM      5  C   UNL     1      12.141  25.107  32.023  1.00  0.00     0.015 C 
BRANCH   5   6
ATOM      6  C   UNL     1      12.682  26.436  31.460  1.00  0.00     0.028 C 
BRANCH   6   7
ATOM      7  C   UNL     1      13.420  26.273  30.155  1.00  0.00    -0.028 C 
ATOM      8  C   UNL     1      14.766  26.335  29.999  1.00  0.00    -0.070 CG0
ATOM      9  C   UNL     1      15.326  26.047  28.628  1.00  0.00     0.039 C 
ATOM     10  G   UNL     1      15.727  26.723  31.115  1.00  0.00     0.000 G0
ENDBRANCH   6   7
ENDBRANCH   5   6
ENDBRANCH   3   5
ENDBRANCH   1   3
BRANCH   1  11
ATOM     11  C   UNL     1      14.865  24.279  32.900  1.00  0.00     0.087 C 
BRANCH  11  12
ATOM     12  C   UNL     1      16.276  24.927  32.943  1.00  0.00     0.066 C 
BRANCH  12  13
ATOM     13  C   UNL     1      16.606  25.617  31.627  1.00  0.00     0.140 C 
ATOM     14  O   UNL     1      17.607  25.307  30.998  1.00  0.00    -0.299 OA
BRANCH  13  15
ATOM     15  C   UNL     1      15.724  26.735  31.120  1.00  0.00     0.106 CG0
ATOM     16  G   UNL     1      14.760  26.311  30.019  1.00  0.00     0.000 G0
ENDBRANCH  13  15
ENDBRANCH  12  13
BRANCH  12  17
ATOM     17  C   UNL     1      17.404  23.933  33.378  1.00  0.00    -0.006 C 
ATOM     18  C   UNL     1      17.066  22.454  33.113  1.00  0.00     0.008 C 
ATOM     19  C   UNL     1      17.783  24.123  34.856  1.00  0.00     0.008 C 
ENDBRANCH  12  17
ENDBRANCH  11  12
ENDBRANCH   1  11
TORSDOF 1
ENDMDL
MODEL 2
REMARK VINA RESULT:    -3.011      5.813      8.082
REMARK INTER + INTRA:          -4.647
REMARK INTER:                  -4.472
REMARK INTRA:                  -0.175
REMARK UNBOUND:                -0.052
REMARK SMILES CC1=CCC[C@H](C)C(=O)C[C@@H](C(C)C)C(=O)C1
REMARK SMILES IDX 8 1 9 2 6 3 7 4 5 5 4 6 3 7 2 8 1 9 10 11 11 12 15 13 16 14
REMARK SMILES IDX 17 15 12 17 13 18 14 19
REMARK H PARENT
REMARK Flexibility Score: 70.00
ROOT
ATOM      1  C   UNL     1      14.107  26.725  27.075  1.00  0.00     0.136 C 
ATOM      2  O   UNL     1      14.041  25.625  27.605  1.00  0.00    -0.299 OA
ENDROOT
BRANCH   1   3
ATOM      3  C   UNL     1      14.757  26.858  25.710  1.00  0.00     0.053 C 
ATOM      4  C   UNL     1      16.219  26.396  25.767  1.00  0.00     0.016 C 
BRANCH   3   5
ATOM      5  C   UNL     1      13.965  26.056  24.652  1.00  0.00     0.015 C 
BRANCH   5   6
ATOM      6  C   UNL     1      12.728  26.834  24.160  1.00  0.00     0.028 C 
BRANCH   6   7
ATOM      7  C   UNL     1      13.076  28.120  23.454  1.00  0.00    -0.028 C 
ATOM      8  C   UNL     1      12.681  29.359  23.837  1.00  0.00    -0.070 CG0
ATOM      9  C   UNL     1      13.214  30.536  23.057  1.00  0.00     0.039 C 
ATOM     10  G   UNL     1      11.701  29.619  24.974  1.00  0.00     0.000 G0
ENDBRANCH   6   7
ENDBRANCH   5   6
ENDBRANCH   3   5
ENDBRANCH   1   3
BRANCH   1  11
ATOM     11  C   UNL     1      13.550  27.927  27.806  1.00  0.00     0.087 C 
BRANCH  11  12
ATOM     12  C   UNL     1      12.175  28.374  27.240  1.00  0.00     0.066 C 
BRANCH  12  13
ATOM     13  C   UNL     1      12.315  29.614  26.367  1.00  0.00     0.140 C 
ATOM     14  O   UNL     1      12.889  30.607  26.790  1.00  0.00    -0.299 OA
BRANCH  13  15
ATOM     15  C   UNL     1      11.692  29.642  24.991  1.00  0.00     0.106 CG0
ATOM     16  G   UNL     1      12.674  29.357  23.862  1.00  0.00     0.000 G0
ENDBRANCH  13  15
ENDBRANCH  12  13
BRANCH  12  17
ATOM     17  C   UNL     1      11.079  28.558  28.341  1.00  0.00    -0.006 C 
ATOM     18  C   UNL     1      10.996  27.388  29.339  1.00  0.00     0.008 C 
ATOM     19  C   UNL     1       9.695  28.811  27.722  1.00  0.00     0.008 C 
ENDBRANCH  12  17
ENDBRANCH  11  12
ENDBRANCH   1  11
TORSDOF 1
ENDMDL
MODEL 3
REMARK VINA RESULT:    -2.980      5.737      7.611
REMARK INTER + INTRA:          -4.599
REMARK INTER:                  -4.371
REMARK INTRA:                  -0.228
REMARK UNBOUND:                -0.052
REMARK SMILES CC1=CCC[C@H](C)C(=O)C[C@@H](C(C)C)C(=O)C1
REMARK SMILES IDX 8 1 9 2 6 3 7 4 5 5 4 6 3 7 2 8 1 9 10 11 11 12 15 13 16 14
REMARK SMILES IDX 17 15 12 17 13 18 14 19
REMARK H PARENT
REMARK Flexibility Score: 70.00
ROOT
ATOM      1  C   UNL     1      13.083  27.637  24.376  1.00  0.00     0.136 C 
ATOM      2  O   UNL     1      12.806  26.452  24.258  1.00  0.00    -0.299 OA
ENDROOT
BRANCH   1   3
ATOM      3  C   UNL     1      12.086  28.686  23.921  1.00  0.00     0.053 C 
ATOM      4  C   UNL     1      11.260  28.161  22.738  1.00  0.00     0.016 C 
BRANCH   3   5
ATOM      5  C   UNL     1      11.168  29.106  25.091  1.00  0.00     0.015 C 
BRANCH   5   6
ATOM      6  C   UNL     1      11.748  30.306  25.865  1.00  0.00     0.028 C 
BRANCH   6   7
ATOM      7  C   UNL     1      11.842  30.067  27.351  1.00  0.00    -0.028 C 
ATOM      8  C   UNL     1      12.987  29.838  28.041  1.00  0.00    -0.070 CG0
ATOM      9  C   UNL     1      12.888  29.719  29.541  1.00  0.00     0.039 C 
ATOM     10  G   UNL     1      14.346  29.650  27.380  1.00  0.00     0.000 G0
ENDBRANCH   6   7
ENDBRANCH   5   6
ENDBRANCH   3   5
ENDBRANCH   1   3
BRANCH   1  11
ATOM     11  C   UNL     1      14.423  28.022  24.962  1.00  0.00     0.087 C 
BRANCH  11  12
ATOM     12  C   UNL     1      14.719  27.278  26.293  1.00  0.00     0.066 C 
BRANCH  12  13
ATOM     13  C   UNL     1      14.929  28.259  27.438  1.00  0.00     0.140 C 
ATOM     14  O   UNL     1      15.519  27.912  28.451  1.00  0.00    -0.299 OA
BRANCH  13  15
ATOM     15  C   UNL     1      14.354  29.653  27.351  1.00  0.00     0.106 CG0
ATOM     16  G   UNL     1      13.003  29.809  28.037  1.00  0.00     0.000 G0
ENDBRANCH  13  15
ENDBRANCH  12  13
BRANCH  12  17
ATOM     17  C   UNL     1      15.895  26.252  26.183  1.00  0.00    -0.006 C 
ATOM     18  C   UNL     1      16.858  26.531  25.014  1.00  0.00     0.008 C 
ATOM     19  C   UNL     1      15.375  24.808  26.092  1.00  0.00     0.008 C 
ENDBRANCH  12  17
ENDBRANCH  11  12
ENDBRANCH   1  11
TORSDOF 1
ENDMDL
MODEL 4
REMARK VINA RESULT:    -2.968      2.122      5.159
REMARK INTER + INTRA:          -4.581
REMARK INTER:                  -4.977
REMARK INTRA:                   0.396
REMARK UNBOUND:                -0.052
REMARK SMILES CC1=CCC[C@H](C)C(=O)C[C@@H](C(C)C)C(=O)C1
REMARK SMILES IDX 8 1 9 2 6 3 7 4 5 5 4 6 3 7 2 8 1 9 10 11 11 12 15 13 16 14
REMARK SMILES IDX 17 15 12 17 13 18 14 19
REMARK H PARENT
REMARK Flexibility Score: 70.00
ROOT
ATOM      1  C   UNL     1      16.308  23.493  32.254  1.00  0.00     0.136 C 
ATOM      2  O   UNL     1      16.828  24.015  31.278  1.00  0.00    -0.299 OA
ENDROOT
BRANCH   1   3
ATOM      3  C   UNL     1      16.916  22.231  32.838  1.00  0.00     0.053 C 
ATOM      4  C   UNL     1      17.393  21.299  31.716  1.00  0.00     0.016 C 
BRANCH   3   5
ATOM      5  C   UNL     1      18.077  22.582  33.796  1.00  0.00     0.015 C 
BRANCH   5   6
ATOM      6  C   UNL     1      17.627  23.561  34.898  1.00  0.00     0.028 C 
BRANCH   6   7
ATOM      7  C   UNL     1      18.238  24.933  34.759  1.00  0.00    -0.028 C 
ATOM      8  C   UNL     1      17.546  26.097  34.675  1.00  0.00    -0.070 CG0
ATOM      9  C   UNL     1      18.338  27.381  34.640  1.00  0.00     0.039 C 
ATOM     10  G   UNL     1      16.028  26.170  34.567  1.00  0.00     0.000 G0
ENDBRANCH   6   7
ENDBRANCH   5   6
ENDBRANCH   3   5
ENDBRANCH   1   3
BRANCH   1  11
ATOM     11  C   UNL     1      15.062  24.116  32.842  1.00  0.00     0.087 C 
BRANCH  11  12
ATOM     12  C   UNL     1      14.820  25.557  32.318  1.00  0.00     0.066 C 
BRANCH  12  13
ATOM     13  C   UNL     1      15.484  26.590  33.219  1.00  0.00     0.140 C 
ATOM     14  O   UNL     1      15.634  27.741  32.837  1.00  0.00    -0.299 OA
BRANCH  13  15
ATOM     15  C   UNL     1      16.015  26.179  34.573  1.00  0.00     0.106 CG0
ATOM     16  G   UNL     1      17.535  26.116  34.647  1.00  0.00     0.000 G0
ENDBRANCH  13  15
ENDBRANCH  12  13
BRANCH  12  17
ATOM     17  C   UNL     1      13.310  25.885  32.071  1.00  0.00    -0.006 C 
ATOM     18  C   UNL     1      13.051  26.694  30.787  1.00  0.00     0.008 C 
ATOM     19  C   UNL     1      12.687  26.608  33.276  1.00  0.00     0.008 C 
ENDBRANCH  12  17
ENDBRANCH  11  12
ENDBRANCH   1  11
TORSDOF 1
ENDMDL
MODEL 5
REMARK VINA RESULT:    -2.808      6.723      9.213
REMARK INTER + INTRA:          -4.338
REMARK INTER:                  -4.339
REMARK INTRA:                   0.001
REMARK UNBOUND:                -0.052
REMARK SMILES CC1=CCC[C@H](C)C(=O)C[C@@H](C(C)C)C(=O)C1
REMARK SMILES IDX 8 1 9 2 6 3 7 4 5 5 4 6 3 7 2 8 1 9 10 11 11 12 15 13 16 14
REMARK SMILES IDX 17 15 12 17 13 18 14 19
REMARK H PARENT
REMARK Flexibility Score: 70.00
ROOT
ATOM      1  C   UNL     1      13.246  27.900  26.133  1.00  0.00     0.136 C 
ATOM      2  O   UNL     1      13.587  27.215  27.087  1.00  0.00    -0.299 OA
ENDROOT
BRANCH   1   3
ATOM      3  C   UNL     1      13.550  27.423  24.725  1.00  0.00     0.053 C 
ATOM      4  C   UNL     1      14.018  25.961  24.745  1.00  0.00     0.016 C 
BRANCH   3   5
ATOM      5  C   UNL     1      12.312  27.594  23.815  1.00  0.00     0.015 C 
BRANCH   5   6
ATOM      6  C   UNL     1      12.355  28.928  23.044  1.00  0.00     0.028 C 
BRANCH   6   7
ATOM      7  C   UNL     1      10.986  29.453  22.688  1.00  0.00    -0.028 C 
ATOM      8  C   UNL     1      10.230  30.268  23.465  1.00  0.00    -0.070 CG0
ATOM      9  C   UNL     1       8.927  30.769  22.893  1.00  0.00     0.039 C 
ATOM     10  G   UNL     1      10.604  30.662  24.888  1.00  0.00     0.000 G0
ENDBRANCH   6   7
ENDBRANCH   5   6
ENDBRANCH   3   5
ENDBRANCH   1   3
BRANCH   1  11
ATOM     11  C   UNL     1      12.543  29.214  26.388  1.00  0.00     0.087 C 
BRANCH  11  12
ATOM     12  C   UNL     1      11.083  29.015  26.877  1.00  0.00     0.066 C 
BRANCH  12  13
ATOM     13  C   UNL     1      10.093  29.725  25.963  1.00  0.00     0.140 C 
ATOM     14  O   UNL     1       8.896  29.494  26.049  1.00  0.00    -0.299 OA
BRANCH  13  15
ATOM     15  C   UNL     1      10.595  30.677  24.903  1.00  0.00     0.106 CG0
ATOM     16  G   UNL     1      10.236  30.263  23.482  1.00  0.00     0.000 G0
ENDBRANCH  13  15
ENDBRANCH  12  13
BRANCH  12  17
ATOM     17  C   UNL     1      10.871  29.403  28.378  1.00  0.00    -0.006 C 
ATOM     18  C   UNL     1      11.959  30.339  28.938  1.00  0.00     0.008 C 
ATOM     19  C   UNL     1      10.749  28.157  29.270  1.00  0.00     0.008 C 
ENDBRANCH  12  17
ENDBRANCH  11  12
ENDBRANCH   1  11
TORSDOF 1
ENDMDL
MODEL 6
REMARK VINA RESULT:    -2.762      4.519      6.279
REMARK INTER + INTRA:          -4.268
REMARK INTER:                  -3.934
REMARK INTRA:                  -0.334
REMARK UNBOUND:                -0.052
REMARK SMILES CC1=CCC[C@H](C)C(=O)C[C@@H](C(C)C)C(=O)C1
REMARK SMILES IDX 8 1 9 2 6 3 7 4 5 5 4 6 3 7 2 8 1 9 10 11 11 12 15 13 16 14
REMARK SMILES IDX 17 15 12 17 13 18 14 19
REMARK H PARENT
REMARK Flexibility Score: 70.00
ROOT
ATOM      1  C   UNL     1      12.464  27.490  28.567  1.00  0.00     0.136 C 
ATOM      2  O   UNL     1      12.559  27.696  29.768  1.00  0.00    -0.299 OA
ENDROOT
BRANCH   1   3
ATOM      3  C   UNL     1      11.567  28.379  27.725  1.00  0.00     0.053 C 
ATOM      4  C   UNL     1      10.155  28.436  28.327  1.00  0.00     0.016 C 
BRANCH   3   5
ATOM      5  C   UNL     1      12.170  29.796  27.599  1.00  0.00     0.015 C 
BRANCH   5   6
ATOM      6  C   UNL     1      12.921  29.976  26.265  1.00  0.00     0.028 C 
BRANCH   6   7
ATOM      7  C   UNL     1      12.327  29.172  25.135  1.00  0.00    -0.028 C 
ATOM      8  C   UNL     1      12.929  28.129  24.511  1.00  0.00    -0.070 CG0
ATOM      9  C   UNL     1      12.133  27.385  23.467  1.00  0.00     0.039 C 
ATOM     10  G   UNL     1      14.368  27.704  24.774  1.00  0.00     0.000 G0
ENDBRANCH   6   7
ENDBRANCH   5   6
ENDBRANCH   3   5
ENDBRANCH   1   3
BRANCH   1  11
ATOM     11  C   UNL     1      13.237  26.342  27.956  1.00  0.00     0.087 C 
BRANCH  11  12
ATOM     12  C   UNL     1      14.537  26.816  27.252  1.00  0.00     0.066 C 
BRANCH  12  13
ATOM     13  C   UNL     1      14.486  26.541  25.755  1.00  0.00     0.140 C 
ATOM     14  O   UNL     1      14.594  25.399  25.332  1.00  0.00    -0.299 OA
BRANCH  13  15
ATOM     15  C   UNL     1      14.361  27.689  24.781  1.00  0.00     0.106 CG0
ATOM     16  G   UNL     1      12.923  28.111  24.505  1.00  0.00     0.000 G0
ENDBRANCH  13  15
ENDBRANCH  12  13
BRANCH  12  17
ATOM     17  C   UNL     1      15.840  26.248  27.905  1.00  0.00    -0.006 C 
ATOM     18  C   UNL     1      15.645  25.739  29.345  1.00  0.00     0.008 C 
ATOM     19  C   UNL     1      16.983  27.275  27.868  1.00  0.00     0.008 C 
ENDBRANCH  12  17
ENDBRANCH  11  12
ENDBRANCH   1  11
TORSDOF 1
ENDMDL
MODEL 7
REMARK VINA RESULT:    -2.728      2.850      5.314
REMARK INTER + INTRA:          -4.215
REMARK INTER:                  -3.904
REMARK INTRA:                  -0.311
REMARK UNBOUND:                -0.052
REMARK SMILES CC1=CCC[C@H](C)C(=O)C[C@@H](C(C)C)C(=O)C1
REMARK SMILES IDX 8 1 9 2 6 3 7 4 5 5 4 6 3 7 2 8 1 9 10 11 11 12 15 13 16 14
REMARK SMILES IDX 17 15 12 17 13 18 14 19
REMARK H PARENT
REMARK Flexibility Score: 70.00
ROOT
ATOM      1  C   UNL     1      11.613  27.731  32.757  1.00  0.00     0.136 C 
ATOM      2  O   UNL     1      10.513  27.255  32.998  1.00  0.00    -0.299 OA
ENDROOT
BRANCH   1   3
ATOM      3  C   UNL     1      12.833  27.201  33.488  1.00  0.00     0.053 C 
ATOM      4  C   UNL     1      12.804  27.635  34.961  1.00  0.00     0.016 C 
BRANCH   3   5
ATOM      5  C   UNL     1      12.912  25.663  33.368  1.00  0.00     0.015 C 
BRANCH   5   6
ATOM      6  C   UNL     1      13.518  25.229  32.019  1.00  0.00     0.028 C 
BRANCH   6   7
ATOM      7  C   UNL     1      14.747  26.016  31.638  1.00  0.00    -0.028 C 
ATOM      8  C   UNL     1      14.846  26.858  30.579  1.00  0.00    -0.070 CG0
ATOM      9  C   UNL     1      16.129  27.634  30.419  1.00  0.00     0.039 C 
ATOM     10  G   UNL     1      13.756  27.022  29.528  1.00  0.00     0.000 G0
ENDBRANCH   6   7
ENDBRANCH   5   6
ENDBRANCH   3   5
ENDBRANCH   1   3
BRANCH   1  11
ATOM     11  C   UNL     1      11.723  28.848  31.743  1.00  0.00     0.087 C 
BRANCH  11  12
ATOM     12  C   UNL     1      11.616  28.330  30.283  1.00  0.00     0.066 C 
BRANCH  12  13
ATOM     13  C   UNL     1      12.979  28.306  29.605  1.00  0.00     0.140 C 
ATOM     14  O   UNL     1      13.431  29.316  29.087  1.00  0.00    -0.299 OA
BRANCH  13  15
ATOM     15  C   UNL     1      13.755  27.013  29.519  1.00  0.00     0.106 CG0
ATOM     16  G   UNL     1      14.846  26.876  30.573  1.00  0.00     0.000 G0
ENDBRANCH  13  15
ENDBRANCH  12  13
BRANCH  12  17
ATOM     17  C   UNL     1      10.554  29.096  29.428  1.00  0.00    -0.006 C 
ATOM     18  C   UNL     1       9.381  29.662  30.251  1.00  0.00     0.008 C 
ATOM     19  C   UNL     1      10.011  28.221  28.286  1.00  0.00     0.008 C 
ENDBRANCH  12  17
ENDBRANCH  11  12
ENDBRANCH   1  11
TORSDOF 1
ENDMDL
MODEL 8
REMARK VINA RESULT:    -2.719      5.411      7.933
REMARK INTER + INTRA:          -4.201
REMARK INTER:                  -3.949
REMARK INTRA:                  -0.253
REMARK UNBOUND:                -0.052
REMARK SMILES CC1=CCC[C@H](C)C(=O)C[C@@H](C(C)C)C(=O)C1
REMARK SMILES IDX 8 1 9 2 6 3 7 4 5 5 4 6 3 7 2 8 1 9 10 11 11 12 15 13 16 14
REMARK SMILES IDX 17 15 12 17 13 18 14 19
REMARK H PARENT
REMARK Flexibility Score: 70.00
ROOT
ATOM      1  C   UNL     1      14.002  26.604  25.587  1.00  0.00     0.136 C 
ATOM      2  O   UNL     1      13.530  26.014  24.626  1.00  0.00    -0.299 OA
ENDROOT
BRANCH   1   3
ATOM      3  C   UNL     1      15.386  26.231  26.086  1.00  0.00     0.053 C 
ATOM      4  C   UNL     1      15.501  24.709  26.255  1.00  0.00     0.016 C 
BRANCH   3   5
ATOM      5  C   UNL     1      16.472  26.763  25.124  1.00  0.00     0.015 C 
BRANCH   5   6
ATOM      6  C   UNL     1      17.261  27.931  25.749  1.00  0.00     0.028 C 
BRANCH   6   7
ATOM      7  C   UNL     1      17.367  27.841  27.251  1.00  0.00    -0.028 C 
ATOM      8  C   UNL     1      16.701  28.624  28.135  1.00  0.00    -0.070 CG0
ATOM      9  C   UNL     1      16.862  28.317  29.603  1.00  0.00     0.039 C 
ATOM     10  G   UNL     1      15.844  29.816  27.727  1.00  0.00     0.000 G0
ENDBRANCH   6   7
ENDBRANCH   5   6
ENDBRANCH   3   5
ENDBRANCH   1   3
BRANCH   1  11
ATOM     11  C   UNL     1      13.184  27.684  26.259  1.00  0.00     0.087 C 
BRANCH  11  12
ATOM     12  C   UNL     1      13.866  29.076  26.177  1.00  0.00     0.066 C 
BRANCH  12  13
ATOM     13  C   UNL     1      14.376  29.522  27.541  1.00  0.00     0.140 C 
ATOM     14  O   UNL     1      13.599  29.679  28.471  1.00  0.00    -0.299 OA
BRANCH  13  15
ATOM     15  C   UNL     1      15.842  29.832  27.734  1.00  0.00     0.106 CG0
ATOM     16  G   UNL     1      16.682  28.623  28.125  1.00  0.00     0.000 G0
ENDBRANCH  13  15
ENDBRANCH  12  13
BRANCH  12  17
ATOM     17  C   UNL     1      12.971  30.169  25.504  1.00  0.00    -0.006 C 
ATOM     18  C   UNL     1      11.477  29.799  25.445  1.00  0.00     0.008 C 
ATOM     19  C   UNL     1      13.475  30.520  24.095  1.00  0.00     0.008 C 
ENDBRANCH  12  17
ENDBRANCH  11  12
ENDBRANCH   1  11
TORSDOF 1
ENDMDL
MODEL 9
REMARK VINA RESULT:    -2.701      5.093      7.068
REMARK INTER + INTRA:          -4.174
REMARK INTER:                  -3.812
REMARK INTRA:                  -0.362
REMARK UNBOUND:                -0.052
REMARK SMILES CC1=CCC[C@H](C)C(=O)C[C@@H](C(C)C)C(=O)C1
REMARK SMILES IDX 8 1 9 2 6 3 7 4 5 5 4 6 3 7 2 8 1 9 10 11 11 12 15 13 16 14
REMARK SMILES IDX 17 15 12 17 13 18 14 19
REMARK H PARENT
REMARK Flexibility Score: 70.00
ROOT
ATOM      1  C   UNL     1       9.859  29.221  27.750  1.00  0.00     0.136 C 
ATOM      2  O   UNL     1       9.287  30.024  28.473  1.00  0.00    -0.299 OA
ENDROOT
BRANCH   1   3
ATOM      3  C   UNL     1       9.903  29.462  26.252  1.00  0.00     0.053 C 
ATOM      4  C   UNL     1       8.481  29.632  25.697  1.00  0.00     0.016 C 
BRANCH   3   5
ATOM      5  C   UNL     1      10.773  30.697  25.926  1.00  0.00     0.015 C 
BRANCH   5   6
ATOM      6  C   UNL     1      12.275  30.347  25.920  1.00  0.00     0.028 C 
BRANCH   6   7
ATOM      7  C   UNL     1      12.591  29.096  25.141  1.00  0.00    -0.028 C 
ATOM      8  C   UNL     1      13.225  28.002  25.632  1.00  0.00    -0.070 CG0
ATOM      9  C   UNL     1      13.362  26.806  24.723  1.00  0.00     0.039 C 
ATOM     10  G   UNL     1      13.840  27.938  27.024  1.00  0.00     0.000 G0
ENDBRANCH   6   7
ENDBRANCH   5   6
ENDBRANCH   3   5
ENDBRANCH   1   3
BRANCH   1  11
ATOM     11  C   UNL     1      10.498  28.000  28.373  1.00  0.00     0.087 C 
BRANCH  11  12
ATOM     12  C   UNL     1      11.960  28.264  28.822  1.00  0.00     0.066 C 
BRANCH  12  13
ATOM     13  C   UNL     1      12.936  27.353  28.090  1.00  0.00     0.140 C 
ATOM     14  O   UNL     1      13.021  26.171  28.387  1.00  0.00    -0.299 OA
BRANCH  13  15
ATOM     15  C   UNL     1      13.848  27.923  27.028  1.00  0.00     0.106 CG0
ATOM     16  G   UNL     1      13.215  27.998  25.645  1.00  0.00     0.000 G0
ENDBRANCH  13  15
ENDBRANCH  12  13
BRANCH  12  17
ATOM     17  C   UNL     1      12.156  28.200  30.373  1.00  0.00    -0.006 C 
ATOM     18  C   UNL     1      10.837  28.127  31.164  1.00  0.00     0.008 C 
ATOM     19  C   UNL     1      13.003  29.377  30.883  1.00  0.00     0.008 C 
ENDBRANCH  12  17
ENDBRANCH  11  12
ENDBRANCH   1  11
TORSDOF 1
ENDMDL
