MODEL 1
REMARK VINA RESULT:    -8.386      0.000      0.000
REMARK INTER + INTRA:         -10.137
REMARK INTER:                  -9.856
REMARK INTRA:                  -0.281
REMARK UNBOUND:                -0.281
REMARK SMILES O=c1cc(-c2ccc(O)c(O)c2)oc2cc(O)cc(O)c12
REMARK SMILES IDX 4 1 3 2 2 3 1 4 21 5 19 6 18 7 16 8 15 9 14 10 13 11 5 12
REMARK SMILES IDX 6 13 7 14 8 15 12 16 10 17 9 18 11 20 20 22 17 24
REMARK H PARENT 9 19 11 21 20 23 17 25
REMARK Flexibility Score: inf
ROOT
ATOM      1  C   UNL     1      17.109  26.171   0.642  1.00  0.00     0.138 A 
ATOM      2  C   UNL     1      15.709  26.223   0.612  1.00  0.00     0.100 A 
ATOM      3  C   UNL     1      14.975  25.038   0.547  1.00  0.00     0.197 A 
ATOM      4  O   UNL     1      13.720  25.113   0.585  1.00  0.00    -0.289 OA
ATOM      5  C   UNL     1      15.650  23.795   0.480  1.00  0.00     0.107 A 
ATOM      6  C   UNL     1      15.008  22.526   0.370  1.00  0.00     0.134 A 
ATOM      7  C   UNL     1      15.775  21.356   0.429  1.00  0.00     0.093 A 
ATOM      8  C   UNL     1      17.167  21.413   0.533  1.00  0.00     0.123 A 
ATOM      9  C   UNL     1      17.809  22.649   0.587  1.00  0.00     0.094 A 
ATOM     10  C   UNL     1      17.068  23.832   0.564  1.00  0.00     0.146 A 
ATOM     11  O   UNL     1      17.717  24.989   0.633  1.00  0.00    -0.456 OA
ENDROOT
BRANCH   1  12
ATOM     12  C   UNL     1      17.937  27.401   0.710  1.00  0.00     0.021 A 
ATOM     13  C   UNL     1      17.770  28.351   1.735  1.00  0.00     0.016 A 
ATOM     14  C   UNL     1      18.556  29.505   1.768  1.00  0.00     0.051 A 
ATOM     15  C   UNL     1      19.517  29.736   0.776  1.00  0.00     0.157 A 
ATOM     16  C   UNL     1      18.895  27.647  -0.290  1.00  0.00     0.062 A 
ATOM     17  C   UNL     1      19.685  28.802  -0.259  1.00  0.00     0.158 A 
BRANCH  15  18
ATOM     18  O   UNL     1      20.301  30.888   0.814  1.00  0.00    -0.504 OA
ATOM     19  H   UNL     1      21.272  30.879   0.521  1.00  0.00     0.293 HD
ENDBRANCH  15  18
BRANCH  17  20
ATOM     20  O   UNL     1      20.630  29.004  -1.265  1.00  0.00    -0.504 OA
ATOM     21  H   UNL     1      21.011  28.236  -1.806  1.00  0.00     0.293 HD
ENDBRANCH  17  20
ENDBRANCH   1  12
BRANCH   6  22
ATOM     22  O   UNL     1      13.633  22.361   0.177  1.00  0.00    -0.507 OA
ATOM     23  H   UNL     1      13.183  21.488  -0.053  1.00  0.00     0.293 HD
ENDBRANCH   6  22
BRANCH   8  24
ATOM     24  O   UNL     1      17.925  20.244   0.575  1.00  0.00    -0.508 OA
ATOM     25  H   UNL     1      17.771  19.488  -0.083  1.00  0.00     0.293 HD
ENDBRANCH   8  24
TORSDOF 5
ENDMDL
MODEL 2
REMARK VINA RESULT:    -8.248      1.593      7.308
REMARK INTER + INTRA:          -9.975
REMARK INTER:                  -9.701
REMARK INTRA:                  -0.274
REMARK UNBOUND:                -0.281
REMARK SMILES O=c1cc(-c2ccc(O)c(O)c2)oc2cc(O)cc(O)c12
REMARK SMILES IDX 4 1 3 2 2 3 1 4 21 5 19 6 18 7 16 8 15 9 14 10 13 11 5 12
REMARK SMILES IDX 6 13 7 14 8 15 12 16 10 17 9 18 11 20 20 22 17 24
REMARK H PARENT 9 19 11 21 20 23 17 25
REMARK Flexibility Score: inf
ROOT
ATOM      1  C   UNL     1      17.113  25.498   0.160  1.00  0.00     0.138 A 
ATOM      2  C   UNL     1      18.392  25.451  -0.411  1.00  0.00     0.100 A 
ATOM      3  C   UNL     1      19.179  26.605  -0.439  1.00  0.00     0.197 A 
ATOM      4  O   UNL     1      20.346  26.517  -0.902  1.00  0.00    -0.289 OA
ATOM      5  C   UNL     1      18.667  27.817   0.081  1.00  0.00     0.107 A 
ATOM      6  C   UNL     1      19.361  29.064   0.070  1.00  0.00     0.134 A 
ATOM      7  C   UNL     1      18.801  30.172   0.718  1.00  0.00     0.093 A 
ATOM      8  C   UNL     1      17.545  30.093   1.324  1.00  0.00     0.123 A 
ATOM      9  C   UNL     1      16.835  28.894   1.294  1.00  0.00     0.094 A 
ATOM     10  C   UNL     1      17.382  27.763   0.684  1.00  0.00     0.146 A 
ATOM     11  O   UNL     1      16.678  26.636   0.691  1.00  0.00    -0.456 OA
ENDROOT
BRANCH   1  12
ATOM     12  C   UNL     1      16.236  24.302   0.214  1.00  0.00     0.021 A 
ATOM     13  C   UNL     1      16.599  23.150   0.938  1.00  0.00     0.016 A 
ATOM     14  C   UNL     1      15.758  22.034   0.963  1.00  0.00     0.051 A 
ATOM     15  C   UNL     1      14.547  22.045   0.261  1.00  0.00     0.157 A 
ATOM     16  C   UNL     1      15.024  24.299  -0.499  1.00  0.00     0.062 A 
ATOM     17  C   UNL     1      14.179  23.183  -0.475  1.00  0.00     0.158 A 
BRANCH  15  18
ATOM     18  O   UNL     1      13.709  20.930   0.290  1.00  0.00    -0.504 OA
ATOM     19  H   UNL     1      12.717  21.016   0.478  1.00  0.00     0.293 HD
ENDBRANCH  15  18
BRANCH  17  20
ATOM     20  O   UNL     1      12.982  23.225  -1.188  1.00  0.00    -0.504 OA
ATOM     21  H   UNL     1      12.730  22.508  -1.859  1.00  0.00     0.293 HD
ENDBRANCH  17  20
ENDBRANCH   1  12
BRANCH   6  22
ATOM     22  O   UNL     1      20.582  29.272  -0.580  1.00  0.00    -0.507 OA
ATOM     23  H   UNL     1      21.229  30.014  -0.367  1.00  0.00     0.293 HD
ENDBRANCH   6  22
BRANCH   8  24
ATOM     24  O   UNL     1      16.989  31.205   1.953  1.00  0.00    -0.508 OA
ATOM     25  H   UNL     1      17.430  31.635   2.758  1.00  0.00     0.293 HD
ENDBRANCH   8  24
TORSDOF 5
ENDMDL
MODEL 3
REMARK VINA RESULT:    -8.085      1.370      1.881
REMARK INTER + INTRA:          -9.784
REMARK INTER:                  -9.498
REMARK INTRA:                  -0.286
REMARK UNBOUND:                -0.281
REMARK SMILES O=c1cc(-c2ccc(O)c(O)c2)oc2cc(O)cc(O)c12
REMARK SMILES IDX 4 1 3 2 2 3 1 4 21 5 19 6 18 7 16 8 15 9 14 10 13 11 5 12
REMARK SMILES IDX 6 13 7 14 8 15 12 16 10 17 9 18 11 20 20 22 17 24
REMARK H PARENT 9 19 11 21 20 23 17 25
REMARK Flexibility Score: inf
ROOT
ATOM      1  C   UNL     1      16.885  27.127   0.419  1.00  0.00     0.138 A 
ATOM      2  C   UNL     1      15.569  27.222  -0.054  1.00  0.00     0.100 A 
ATOM      3  C   UNL     1      14.831  26.059  -0.280  1.00  0.00     0.197 A 
ATOM      4  O   UNL     1      13.633  26.178  -0.645  1.00  0.00    -0.289 OA
ATOM      5  C   UNL     1      15.427  24.794  -0.059  1.00  0.00     0.107 A 
ATOM      6  C   UNL     1      14.785  23.542  -0.295  1.00  0.00     0.134 A 
ATOM      7  C   UNL     1      15.433  22.355   0.070  1.00  0.00     0.093 A 
ATOM      8  C   UNL     1      16.723  22.373   0.605  1.00  0.00     0.123 A 
ATOM      9  C   UNL     1      17.380  23.589   0.789  1.00  0.00     0.094 A 
ATOM     10  C   UNL     1      16.747  24.791   0.466  1.00  0.00     0.146 A 
ATOM     11  O   UNL     1      17.402  25.929   0.670  1.00  0.00    -0.456 OA
ENDROOT
BRANCH   1  12
ATOM     12  C   UNL     1      17.714  28.332   0.675  1.00  0.00     0.021 A 
ATOM     13  C   UNL     1      19.120  28.293   0.599  1.00  0.00     0.016 A 
ATOM     14  C   UNL     1      19.875  29.440   0.856  1.00  0.00     0.051 A 
ATOM     15  C   UNL     1      19.244  30.641   1.199  1.00  0.00     0.157 A 
ATOM     16  C   UNL     1      17.089  29.539   1.034  1.00  0.00     0.062 A 
ATOM     17  C   UNL     1      17.844  30.690   1.291  1.00  0.00     0.158 A 
BRANCH  15  18
ATOM     18  O   UNL     1      20.002  31.784   1.452  1.00  0.00    -0.504 OA
ATOM     19  H   UNL     1      19.568  32.661   1.717  1.00  0.00     0.293 HD
ENDBRANCH  15  18
BRANCH  17  20
ATOM     20  O   UNL     1      17.184  31.869   1.635  1.00  0.00    -0.504 OA
ATOM     21  H   UNL     1      17.090  32.172   2.598  1.00  0.00     0.293 HD
ENDBRANCH  17  20
ENDBRANCH   1  12
BRANCH   6  22
ATOM     22  O   UNL     1      13.532  23.408  -0.902  1.00  0.00    -0.507 OA
ATOM     23  H   UNL     1      13.220  22.592  -1.405  1.00  0.00     0.293 HD
ENDBRANCH   6  22
BRANCH   8  24
ATOM     24  O   UNL     1      17.366  21.187   0.951  1.00  0.00    -0.508 OA
ATOM     25  H   UNL     1      18.046  21.151   1.702  1.00  0.00     0.293 HD
ENDBRANCH   8  24
TORSDOF 5
ENDMDL
MODEL 4
REMARK VINA RESULT:    -7.619      1.492      2.969
REMARK INTER + INTRA:          -9.236
REMARK INTER:                  -8.944
REMARK INTRA:                  -0.292
REMARK UNBOUND:                -0.281
REMARK SMILES O=c1cc(-c2ccc(O)c(O)c2)oc2cc(O)cc(O)c12
REMARK SMILES IDX 4 1 3 2 2 3 1 4 21 5 19 6 18 7 16 8 15 9 14 10 13 11 5 12
REMARK SMILES IDX 6 13 7 14 8 15 12 16 10 17 9 18 11 20 20 22 17 24
REMARK H PARENT 9 19 11 21 20 23 17 25
REMARK Flexibility Score: inf
ROOT
ATOM      1  C   UNL     1      17.256  26.557   0.797  1.00  0.00     0.138 A 
ATOM      2  C   UNL     1      18.456  25.846   0.659  1.00  0.00     0.100 A 
ATOM      3  C   UNL     1      18.424  24.457   0.525  1.00  0.00     0.197 A 
ATOM      4  O   UNL     1      19.512  23.853   0.341  1.00  0.00    -0.289 OA
ATOM      5  C   UNL     1      17.184  23.776   0.560  1.00  0.00     0.107 A 
ATOM      6  C   UNL     1      17.032  22.360   0.475  1.00  0.00     0.134 A 
ATOM      7  C   UNL     1      15.748  21.805   0.404  1.00  0.00     0.093 A 
ATOM      8  C   UNL     1      14.610  22.613   0.476  1.00  0.00     0.123 A 
ATOM      9  C   UNL     1      14.747  23.993   0.614  1.00  0.00     0.094 A 
ATOM     10  C   UNL     1      16.015  24.578   0.654  1.00  0.00     0.146 A 
ATOM     11  O   UNL     1      16.102  25.898   0.771  1.00  0.00    -0.456 OA
ENDROOT
BRANCH   1  12
ATOM     12  C   UNL     1      17.233  28.034   0.943  1.00  0.00     0.021 A 
ATOM     13  C   UNL     1      16.061  28.782   0.723  1.00  0.00     0.016 A 
ATOM     14  C   UNL     1      16.071  30.173   0.858  1.00  0.00     0.051 A 
ATOM     15  C   UNL     1      17.251  30.841   1.207  1.00  0.00     0.157 A 
ATOM     16  C   UNL     1      18.416  28.715   1.281  1.00  0.00     0.062 A 
ATOM     17  C   UNL     1      18.429  30.108   1.417  1.00  0.00     0.158 A 
BRANCH  15  18
ATOM     18  O   UNL     1      17.257  32.229   1.343  1.00  0.00    -0.504 OA
ATOM     19  H   UNL     1      16.620  32.704   1.973  1.00  0.00     0.293 HD
ENDBRANCH  15  18
BRANCH  17  20
ATOM     20  O   UNL     1      19.622  30.743   1.762  1.00  0.00    -0.504 OA
ATOM     21  H   UNL     1      19.753  31.741   1.647  1.00  0.00     0.293 HD
ENDBRANCH  17  20
ENDBRANCH   1  12
BRANCH   6  22
ATOM     22  O   UNL     1      18.101  21.458   0.481  1.00  0.00    -0.507 OA
ATOM     23  H   UNL     1      18.271  20.770   1.199  1.00  0.00     0.293 HD
ENDBRANCH   6  22
BRANCH   8  24
ATOM     24  O   UNL     1      13.336  22.052   0.420  1.00  0.00    -0.508 OA
ATOM     25  H   UNL     1      12.987  21.613  -0.423  1.00  0.00     0.293 HD
ENDBRANCH   8  24
TORSDOF 5
ENDMDL
MODEL 5
REMARK VINA RESULT:    -7.417      1.493      6.873
REMARK INTER + INTRA:          -8.999
REMARK INTER:                  -8.710
REMARK INTRA:                  -0.289
REMARK UNBOUND:                -0.281
REMARK SMILES O=c1cc(-c2ccc(O)c(O)c2)oc2cc(O)cc(O)c12
REMARK SMILES IDX 4 1 3 2 2 3 1 4 21 5 19 6 18 7 16 8 15 9 14 10 13 11 5 12
REMARK SMILES IDX 6 13 7 14 8 15 12 16 10 17 9 18 11 20 20 22 17 24
REMARK H PARENT 9 19 11 21 20 23 17 25
REMARK Flexibility Score: inf
ROOT
ATOM      1  C   UNL     1      16.670  25.013   0.686  1.00  0.00     0.138 A 
ATOM      2  C   UNL     1      16.129  25.940   1.588  1.00  0.00     0.100 A 
ATOM      3  C   UNL     1      16.681  27.219   1.678  1.00  0.00     0.197 A 
ATOM      4  O   UNL     1      16.135  28.048   2.451  1.00  0.00    -0.289 OA
ATOM      5  C   UNL     1      17.800  27.559   0.882  1.00  0.00     0.107 A 
ATOM      6  C   UNL     1      18.472  28.818   0.919  1.00  0.00     0.134 A 
ATOM      7  C   UNL     1      19.496  29.081   0.002  1.00  0.00     0.093 A 
ATOM      8  C   UNL     1      19.914  28.109  -0.910  1.00  0.00     0.123 A 
ATOM      9  C   UNL     1      19.301  26.857  -0.918  1.00  0.00     0.094 A 
ATOM     10  C   UNL     1      18.254  26.577  -0.038  1.00  0.00     0.146 A 
ATOM     11  O   UNL     1      17.687  25.376  -0.089  1.00  0.00    -0.456 OA
ENDROOT
BRANCH   1  12
ATOM     12  C   UNL     1      16.122  23.640   0.551  1.00  0.00     0.021 A 
ATOM     13  C   UNL     1      14.740  23.403   0.432  1.00  0.00     0.016 A 
ATOM     14  C   UNL     1      14.251  22.099   0.317  1.00  0.00     0.051 A 
ATOM     15  C   UNL     1      15.131  21.010   0.326  1.00  0.00     0.157 A 
ATOM     16  C   UNL     1      16.998  22.540   0.573  1.00  0.00     0.062 A 
ATOM     17  C   UNL     1      16.511  21.232   0.457  1.00  0.00     0.158 A 
BRANCH  15  18
ATOM     18  O   UNL     1      14.640  19.710   0.209  1.00  0.00    -0.504 OA
ATOM     19  H   UNL     1      13.830  19.498  -0.361  1.00  0.00     0.293 HD
ENDBRANCH  15  18
BRANCH  17  20
ATOM     20  O   UNL     1      17.415  20.170   0.474  1.00  0.00    -0.504 OA
ATOM     21  H   UNL     1      17.152  19.235   0.185  1.00  0.00     0.293 HD
ENDBRANCH  17  20
ENDBRANCH   1  12
BRANCH   6  22
ATOM     22  O   UNL     1      18.189  29.826   1.846  1.00  0.00    -0.507 OA
ATOM     23  H   UNL     1      18.284  30.814   1.670  1.00  0.00     0.293 HD
ENDBRANCH   6  22
BRANCH   8  24
ATOM     24  O   UNL     1      20.946  28.374  -1.809  1.00  0.00    -0.508 OA
ATOM     25  H   UNL     1      21.452  27.627  -2.270  1.00  0.00     0.293 HD
ENDBRANCH   8  24
TORSDOF 5
ENDMDL
MODEL 6
REMARK VINA RESULT:    -6.918      4.238      6.221
REMARK INTER + INTRA:          -8.413
REMARK INTER:                  -8.149
REMARK INTRA:                  -0.263
REMARK UNBOUND:                -0.281
REMARK SMILES O=c1cc(-c2ccc(O)c(O)c2)oc2cc(O)cc(O)c12
REMARK SMILES IDX 4 1 3 2 2 3 1 4 21 5 19 6 18 7 16 8 15 9 14 10 13 11 5 12
REMARK SMILES IDX 6 13 7 14 8 15 12 16 10 17 9 18 11 20 20 22 17 24
REMARK H PARENT 9 19 11 21 20 23 17 25
REMARK Flexibility Score: inf
ROOT
ATOM      1  C   UNL     1      18.053  26.248  -3.003  1.00  0.00     0.138 A 
ATOM      2  C   UNL     1      18.478  25.166  -2.220  1.00  0.00     0.100 A 
ATOM      3  C   UNL     1      18.159  25.129  -0.861  1.00  0.00     0.197 A 
ATOM      4  O   UNL     1      18.500  24.117  -0.197  1.00  0.00    -0.289 OA
ATOM      5  C   UNL     1      17.435  26.198  -0.280  1.00  0.00     0.107 A 
ATOM      6  C   UNL     1      17.088  26.289   1.101  1.00  0.00     0.134 A 
ATOM      7  C   UNL     1      16.269  27.337   1.540  1.00  0.00     0.093 A 
ATOM      8  C   UNL     1      15.836  28.330   0.658  1.00  0.00     0.123 A 
ATOM      9  C   UNL     1      16.214  28.280  -0.682  1.00  0.00     0.094 A 
ATOM     10  C   UNL     1      17.002  27.229  -1.156  1.00  0.00     0.146 A 
ATOM     11  O   UNL     1      17.327  27.211  -2.444  1.00  0.00    -0.456 OA
ENDROOT
BRANCH   1  12
ATOM     12  C   UNL     1      18.367  26.337  -4.451  1.00  0.00     0.021 A 
ATOM     13  C   UNL     1      17.518  25.781  -5.428  1.00  0.00     0.016 A 
ATOM     14  C   UNL     1      17.844  25.870  -6.784  1.00  0.00     0.051 A 
ATOM     15  C   UNL     1      19.023  26.508  -7.188  1.00  0.00     0.157 A 
ATOM     16  C   UNL     1      19.556  26.963  -4.865  1.00  0.00     0.062 A 
ATOM     17  C   UNL     1      19.884  27.055  -6.223  1.00  0.00     0.158 A 
BRANCH  15  18
ATOM     18  O   UNL     1      19.344  26.597  -8.542  1.00  0.00    -0.504 OA
ATOM     19  H   UNL     1      19.326  27.482  -9.035  1.00  0.00     0.293 HD
ENDBRANCH  15  18
BRANCH  17  20
ATOM     20  O   UNL     1      21.068  27.693  -6.591  1.00  0.00    -0.504 OA
ATOM     21  H   UNL     1      21.383  27.729  -7.554  1.00  0.00     0.293 HD
ENDBRANCH  17  20
ENDBRANCH   1  12
BRANCH   6  22
ATOM     22  O   UNL     1      17.538  25.397   2.079  1.00  0.00    -0.507 OA
ATOM     23  H   UNL     1      17.594  25.602   3.065  1.00  0.00     0.293 HD
ENDBRANCH   6  22
BRANCH   8  24
ATOM     24  O   UNL     1      15.034  29.378   1.107  1.00  0.00    -0.508 OA
ATOM     25  H   UNL     1      14.842  30.185   0.524  1.00  0.00     0.293 HD
ENDBRANCH   8  24
TORSDOF 5
ENDMDL
MODEL 7
REMARK VINA RESULT:    -6.886      4.877      6.672
REMARK INTER + INTRA:          -8.375
REMARK INTER:                  -8.087
REMARK INTRA:                  -0.288
REMARK UNBOUND:                -0.281
REMARK SMILES O=c1cc(-c2ccc(O)c(O)c2)oc2cc(O)cc(O)c12
REMARK SMILES IDX 4 1 3 2 2 3 1 4 21 5 19 6 18 7 16 8 15 9 14 10 13 11 5 12
REMARK SMILES IDX 6 13 7 14 8 15 12 16 10 17 9 18 11 20 20 22 17 24
REMARK H PARENT 9 19 11 21 20 23 17 25
REMARK Flexibility Score: inf
ROOT
ATOM      1  C   UNL     1      17.087  26.594  -2.577  1.00  0.00     0.138 A 
ATOM      2  C   UNL     1      18.317  26.474  -3.240  1.00  0.00     0.100 A 
ATOM      3  C   UNL     1      18.354  26.497  -4.635  1.00  0.00     0.197 A 
ATOM      4  O   UNL     1      19.476  26.450  -5.201  1.00  0.00    -0.289 OA
ATOM      5  C   UNL     1      17.148  26.610  -5.369  1.00  0.00     0.107 A 
ATOM      6  C   UNL     1      17.060  26.602  -6.793  1.00  0.00     0.134 A 
ATOM      7  C   UNL     1      15.825  26.837  -7.409  1.00  0.00     0.093 A 
ATOM      8  C   UNL     1      14.664  27.018  -6.652  1.00  0.00     0.123 A 
ATOM      9  C   UNL     1      14.731  26.973  -5.261  1.00  0.00     0.094 A 
ATOM     10  C   UNL     1      15.954  26.775  -4.617  1.00  0.00     0.146 A 
ATOM     11  O   UNL     1      15.976  26.753  -3.288  1.00  0.00    -0.456 OA
ENDROOT
BRANCH   1  12
ATOM     12  C   UNL     1      16.992  26.574  -1.096  1.00  0.00     0.021 A 
ATOM     13  C   UNL     1      17.584  25.553  -0.328  1.00  0.00     0.016 A 
ATOM     14  C   UNL     1      17.468  25.554   1.064  1.00  0.00     0.051 A 
ATOM     15  C   UNL     1      16.755  26.569   1.714  1.00  0.00     0.157 A 
ATOM     16  C   UNL     1      16.266  27.582  -0.435  1.00  0.00     0.062 A 
ATOM     17  C   UNL     1      16.150  27.586   0.960  1.00  0.00     0.158 A 
BRANCH  15  18
ATOM     18  O   UNL     1      16.644  26.568   3.104  1.00  0.00    -0.504 OA
ATOM     19  H   UNL     1      16.282  25.766   3.607  1.00  0.00     0.293 HD
ENDBRANCH  15  18
BRANCH  17  20
ATOM     20  O   UNL     1      15.429  28.609   1.576  1.00  0.00    -0.504 OA
ATOM     21  H   UNL     1      14.830  28.439   2.376  1.00  0.00     0.293 HD
ENDBRANCH  17  20
ENDBRANCH   1  12
BRANCH   6  22
ATOM     22  O   UNL     1      18.142  26.347  -7.641  1.00  0.00    -0.507 OA
ATOM     23  H   UNL     1      18.291  26.789  -8.535  1.00  0.00     0.293 HD
ENDBRANCH   6  22
BRANCH   8  24
ATOM     24  O   UNL     1      13.437  27.236  -7.274  1.00  0.00    -0.508 OA
ATOM     25  H   UNL     1      13.170  26.731  -8.111  1.00  0.00     0.293 HD
ENDBRANCH   8  24
TORSDOF 5
ENDMDL
MODEL 8
REMARK VINA RESULT:    -6.840      4.750      6.343
REMARK INTER + INTRA:          -8.321
REMARK INTER:                  -8.046
REMARK INTRA:                  -0.274
REMARK UNBOUND:                -0.281
REMARK SMILES O=c1cc(-c2ccc(O)c(O)c2)oc2cc(O)cc(O)c12
REMARK SMILES IDX 4 1 3 2 2 3 1 4 21 5 19 6 18 7 16 8 15 9 14 10 13 11 5 12
REMARK SMILES IDX 6 13 7 14 8 15 12 16 10 17 9 18 11 20 20 22 17 24
REMARK H PARENT 9 19 11 21 20 23 17 25
REMARK Flexibility Score: inf
ROOT
ATOM      1  C   UNL     1      16.999  26.665  -2.657  1.00  0.00     0.138 A 
ATOM      2  C   UNL     1      15.847  26.899  -3.421  1.00  0.00     0.100 A 
ATOM      3  C   UNL     1      15.939  26.940  -4.814  1.00  0.00     0.197 A 
ATOM      4  O   UNL     1      14.879  27.090  -5.475  1.00  0.00    -0.289 OA
ATOM      5  C   UNL     1      17.198  26.776  -5.440  1.00  0.00     0.107 A 
ATOM      6  C   UNL     1      17.419  26.840  -6.848  1.00  0.00     0.134 A 
ATOM      7  C   UNL     1      18.688  26.546  -7.363  1.00  0.00     0.093 A 
ATOM      8  C   UNL     1      19.758  26.251  -6.514  1.00  0.00     0.123 A 
ATOM      9  C   UNL     1      19.565  26.240  -5.134  1.00  0.00     0.094 A 
ATOM     10  C   UNL     1      18.303  26.495  -4.593  1.00  0.00     0.146 A 
ATOM     11  O   UNL     1      18.158  26.460  -3.273  1.00  0.00    -0.456 OA
ENDROOT
BRANCH   1  12
ATOM     12  C   UNL     1      16.957  26.613  -1.174  1.00  0.00     0.021 A 
ATOM     13  C   UNL     1      17.568  25.570  -0.452  1.00  0.00     0.016 A 
ATOM     14  C   UNL     1      17.503  25.540   0.943  1.00  0.00     0.051 A 
ATOM     15  C   UNL     1      16.824  26.546   1.641  1.00  0.00     0.157 A 
ATOM     16  C   UNL     1      16.265  27.612  -0.465  1.00  0.00     0.062 A 
ATOM     17  C   UNL     1      16.200  27.585   0.933  1.00  0.00     0.158 A 
BRANCH  15  18
ATOM     18  O   UNL     1      16.764  26.514   3.034  1.00  0.00    -0.504 OA
ATOM     19  H   UNL     1      16.013  26.966   3.544  1.00  0.00     0.293 HD
ENDBRANCH  15  18
BRANCH  17  20
ATOM     20  O   UNL     1      15.512  28.599   1.598  1.00  0.00    -0.504 OA
ATOM     21  H   UNL     1      15.847  28.997   2.467  1.00  0.00     0.293 HD
ENDBRANCH  17  20
ENDBRANCH   1  12
BRANCH   6  22
ATOM     22  O   UNL     1      16.439  27.207  -7.777  1.00  0.00    -0.507 OA
ATOM     23  H   UNL     1      15.832  26.563  -8.259  1.00  0.00     0.293 HD
ENDBRANCH   6  22
BRANCH   8  24
ATOM     24  O   UNL     1      21.022  25.976  -7.033  1.00  0.00    -0.508 OA
ATOM     25  H   UNL     1      21.159  25.780  -8.018  1.00  0.00     0.293 HD
ENDBRANCH   8  24
TORSDOF 5
ENDMDL
MODEL 9
REMARK VINA RESULT:    -6.749     10.523     11.499
REMARK INTER + INTRA:          -8.214
REMARK INTER:                  -7.897
REMARK INTRA:                  -0.316
REMARK UNBOUND:                -0.281
REMARK SMILES O=c1cc(-c2ccc(O)c(O)c2)oc2cc(O)cc(O)c12
REMARK SMILES IDX 4 1 3 2 2 3 1 4 21 5 19 6 18 7 16 8 15 9 14 10 13 11 5 12
REMARK SMILES IDX 6 13 7 14 8 15 12 16 10 17 9 18 11 20 20 22 17 24
REMARK H PARENT 9 19 11 21 20 23 17 25
REMARK Flexibility Score: inf
ROOT
ATOM      1  C   UNL     1      12.581  27.989  -8.819  1.00  0.00     0.138 A 
ATOM      2  C   UNL     1      13.114  26.700  -8.679  1.00  0.00     0.100 A 
ATOM      3  C   UNL     1      12.277  25.589  -8.800  1.00  0.00     0.197 A 
ATOM      4  O   UNL     1      12.794  24.445  -8.731  1.00  0.00    -0.289 OA
ATOM      5  C   UNL     1      10.892  25.774  -9.031  1.00  0.00     0.107 A 
ATOM      6  C   UNL     1       9.937  24.719  -9.131  1.00  0.00     0.134 A 
ATOM      7  C   UNL     1       8.613  25.016  -9.477  1.00  0.00     0.093 A 
ATOM      8  C   UNL     1       8.198  26.337  -9.668  1.00  0.00     0.123 A 
ATOM      9  C   UNL     1       9.111  27.379  -9.520  1.00  0.00     0.094 A 
ATOM     10  C   UNL     1      10.446  27.111  -9.208  1.00  0.00     0.146 A 
ATOM     11  O   UNL     1      11.288  28.132  -9.091  1.00  0.00    -0.456 OA
ENDROOT
BRANCH   1  12
ATOM     12  C   UNL     1      13.426  29.203  -8.699  1.00  0.00     0.021 A 
ATOM     13  C   UNL     1      14.830  29.124  -8.633  1.00  0.00     0.016 A 
ATOM     14  C   UNL     1      15.601  30.283  -8.509  1.00  0.00     0.051 A 
ATOM     15  C   UNL     1      14.984  31.539  -8.443  1.00  0.00     0.157 A 
ATOM     16  C   UNL     1      12.815  30.467  -8.618  1.00  0.00     0.062 A 
ATOM     17  C   UNL     1      13.584  31.630  -8.495  1.00  0.00     0.158 A 
BRANCH  15  18
ATOM     18  O   UNL     1      15.757  32.694  -8.321  1.00  0.00    -0.504 OA
ATOM     19  H   UNL     1      16.237  32.923  -7.459  1.00  0.00     0.293 HD
ENDBRANCH  15  18
BRANCH  17  20
ATOM     20  O   UNL     1      12.939  32.864  -8.426  1.00  0.00    -0.504 OA
ATOM     21  H   UNL     1      13.420  33.734  -8.623  1.00  0.00     0.293 HD
ENDBRANCH  17  20
ENDBRANCH   1  12
BRANCH   6  22
ATOM     22  O   UNL     1      10.229  23.375  -8.877  1.00  0.00    -0.507 OA
ATOM     23  H   UNL     1       9.831  22.830  -8.127  1.00  0.00     0.293 HD
ENDBRANCH   6  22
BRANCH   8  24
ATOM     24  O   UNL     1       6.875  26.625  -9.998  1.00  0.00    -0.508 OA
ATOM     25  H   UNL     1       6.388  27.415  -9.591  1.00  0.00     0.293 HD
ENDBRANCH   8  24
TORSDOF 5
ENDMDL
