MODEL 1
REMARK VINA RESULT:    -4.070      0.000      0.000
REMARK INTER + INTRA:          -6.425
REMARK INTER:                  -5.974
REMARK INTRA:                  -0.451
REMARK UNBOUND:                -0.451
REMARK SMILES CC(C)(O)CC[C@@H](O)[C@](C)(O)[C@@H]1CC[C@]2(O)C3=CC(=O)[C@H]4C[C@H](O)[C@H](O)C[C@]4(C)[C@@H]3CC[C@@]12C
REMARK SMILES IDX 6 1 7 2 9 3 10 4 12 5 34 6 33 7 32 8 15 9 31 10 17 11 14 12
REMARK SMILES IDX 13 13 30 14 18 15 28 16 19 17 21 18 27 19 29 20 20 21 22 22
REMARK SMILES IDX 25 23 23 24 16 25 26 27 24 29 11 31 8 33 5 35 2 36 1 37 3 38
REMARK SMILES IDX 4 39
REMARK H PARENT 16 26 26 28 24 30 11 32 8 34 4 40
REMARK Flexibility Score: inf
ROOT
ATOM      1  C   UNL     1      -0.930  16.995  44.532  1.00  0.00     0.038 C 
ENDROOT
BRANCH   1   2
ATOM      2  C   UNL     1      -1.487  16.107  45.675  1.00  0.00     0.146 C 
BRANCH   2   3
ATOM      3  C   UNL     1      -2.150  14.713  45.291  1.00  0.00     0.091 C 
ATOM      4  C   UNL     1      -2.902  14.744  43.938  1.00  0.00     0.045 C 
BRANCH   3   5
ATOM      5  C   UNL     1      -1.113  13.498  45.292  1.00  0.00     0.032 C 
ATOM      6  C   UNL     1       0.086  14.023  47.529  1.00  0.00     0.015 C 
ATOM      7  C   UNL     1       0.262  13.552  46.046  1.00  0.00     0.006 C 
ATOM      8  C   UNL     1       1.389  14.436  45.419  1.00  0.00     0.011 C 
ATOM      9  C   UNL     1       0.682  12.046  45.962  1.00  0.00     0.092 C 
ATOM     10  C   UNL     1       2.791  14.166  46.041  1.00  0.00     0.009 C 
ATOM     11  C   UNL     1       1.971  11.869  46.747  1.00  0.00    -0.031 C 
ATOM     12  C   UNL     1      -0.599  11.318  46.386  1.00  0.00     0.041 C 
ATOM     13  C   UNL     1      -1.719  12.122  45.698  1.00  0.00     0.010 C 
ATOM     14  C   UNL     1       3.169  12.657  46.189  1.00  0.00     0.025 C 
ATOM     15  C   UNL     1       2.004  11.269  47.952  1.00  0.00     0.050 C 
ATOM     16  C   UNL     1       4.517  12.363  46.963  1.00  0.00    -0.013 C 
ATOM     17  C   UNL     1       3.166  11.399  48.842  1.00  0.00     0.159 C 
ATOM     18  C   UNL     1       4.245  12.391  48.498  1.00  0.00     0.070 C 
ATOM     19  C   UNL     1       5.622  13.416  46.634  1.00  0.00     0.042 C 
ATOM     20  C   UNL     1       5.013  10.957  46.502  1.00  0.00     0.013 C 
ATOM     21  O   UNL     1       3.201  10.745  49.921  1.00  0.00    -0.295 OA
ATOM     22  C   UNL     1       5.529  12.195  49.337  1.00  0.00     0.047 C 
ATOM     23  C   UNL     1       6.912  13.224  47.456  1.00  0.00     0.143 C 
ATOM     24  C   UNL     1       6.615  13.226  48.971  1.00  0.00     0.143 C 
BRANCH   9  25
ATOM     25  O   UNL     1       0.910  11.581  44.640  1.00  0.00    -0.385 OA
ATOM     26  H   UNL     1       0.587  12.220  43.965  1.00  0.00     0.211 HD
ENDBRANCH   9  25
BRANCH  23  27
ATOM     27  O   UNL     1       7.808  14.261  47.143  1.00  0.00    -0.390 OA
ATOM     28  H   UNL     1       8.423  13.909  46.448  1.00  0.00     0.211 HD
ENDBRANCH  23  27
BRANCH  24  29
ATOM     29  O   UNL     1       6.218  14.515  49.379  1.00  0.00    -0.390 OA
ATOM     30  H   UNL     1       7.014  15.102  49.308  1.00  0.00     0.211 HD
ENDBRANCH  24  29
ENDBRANCH   3   5
BRANCH   3  31
ATOM     31  O   UNL     1      -3.125  14.451  46.283  1.00  0.00    -0.387 OA
ATOM     32  H   UNL     1      -3.710  15.248  46.392  1.00  0.00     0.211 HD
ENDBRANCH   3  31
ENDBRANCH   2   3
BRANCH   2  33
ATOM     33  O   UNL     1      -2.397  16.893  46.422  1.00  0.00    -0.390 OA
ATOM     34  H   UNL     1      -1.877  17.486  47.036  1.00  0.00     0.211 HD
ENDBRANCH   2  33
ENDBRANCH   1   2
BRANCH   1  35
ATOM     35  C   UNL     1      -1.009  18.521  44.794  1.00  0.00     0.037 C 
BRANCH  35  36
ATOM     36  C   UNL     1      -2.305  19.217  44.279  1.00  0.00     0.059 C 
ATOM     37  C   UNL     1      -1.987  20.524  43.520  1.00  0.00     0.042 C 
ATOM     38  C   UNL     1      -3.116  18.273  43.374  1.00  0.00     0.042 C 
BRANCH  36  39
ATOM     39  O   UNL     1      -3.125  19.529  45.383  1.00  0.00    -0.390 OA
ATOM     40  H   UNL     1      -3.351  20.497  45.337  1.00  0.00     0.211 HD
ENDBRANCH  36  39
ENDBRANCH  35  36
ENDBRANCH   1  35
TORSDOF 11
ENDMDL
