MODEL 1
REMARK VINA RESULT:    -4.549      0.000      0.000
REMARK INTER + INTRA:          -5.701
REMARK INTER:                  -5.479
REMARK INTRA:                  -0.222
REMARK UNBOUND:                -0.222
REMARK SMILES OCC(O)CO
REMARK SMILES IDX 3 1 5 2 6 3 2 5 1 6 4 8
REMARK H PARENT 6 4 1 7 4 9
REMARK Flexibility Score: inf
ROOT
ATOM      1  C   UNL     1      30.205   2.733  14.054  1.00  0.00     0.165 C 
ENDROOT
BRANCH   1   2
ATOM      2  C   UNL     1      31.551   3.230  13.499  1.00  0.00     0.190 C 
BRANCH   2   3
ATOM      3  O   UNL     1      31.715   4.597  13.755  1.00  0.00    -0.394 OA
ATOM      4  H   UNL     1      32.195   4.967  12.969  1.00  0.00     0.210 HD
ENDBRANCH   2   3
ENDBRANCH   1   2
BRANCH   1   5
ATOM      5  C   UNL     1      29.042   3.033  13.102  1.00  0.00     0.190 C 
BRANCH   5   6
ATOM      6  O   UNL     1      28.838   4.415  12.991  1.00  0.00    -0.394 OA
ATOM      7  H   UNL     1      28.813   4.613  12.019  1.00  0.00     0.210 HD
ENDBRANCH   5   6
ENDBRANCH   1   5
BRANCH   1   8
ATOM      8  O   UNL     1      29.949   3.313  15.308  1.00  0.00    -0.388 OA
ATOM      9  H   UNL     1      30.687   3.032  15.910  1.00  0.00     0.211 HD
ENDBRANCH   1   8
TORSDOF 5
ENDMDL
MODEL 2
REMARK VINA RESULT:    -4.117      1.438      1.984
REMARK INTER + INTRA:          -5.181
REMARK INTER:                  -4.960
REMARK INTRA:                  -0.221
REMARK UNBOUND:                -0.222
REMARK SMILES OCC(O)CO
REMARK SMILES IDX 3 1 5 2 6 3 2 5 1 6 4 8
REMARK H PARENT 6 4 1 7 4 9
REMARK Flexibility Score: inf
ROOT
ATOM      1  C   UNL     1      29.166   2.262  12.795  1.00  0.00     0.165 C 
ENDROOT
BRANCH   1   2
ATOM      2  C   UNL     1      30.321   2.774  13.672  1.00  0.00     0.190 C 
BRANCH   2   3
ATOM      3  O   UNL     1      29.910   2.900  15.005  1.00  0.00    -0.394 OA
ATOM      4  H   UNL     1      30.552   3.523  15.433  1.00  0.00     0.210 HD
ENDBRANCH   2   3
ENDBRANCH   1   2
BRANCH   1   5
ATOM      5  C   UNL     1      28.211   3.389  12.382  1.00  0.00     0.190 C 
BRANCH   5   6
ATOM      6  O   UNL     1      28.642   4.617  12.902  1.00  0.00    -0.394 OA
ATOM      7  H   UNL     1      27.820   5.112  13.154  1.00  0.00     0.210 HD
ENDBRANCH   5   6
ENDBRANCH   1   5
BRANCH   1   8
ATOM      8  O   UNL     1      28.447   1.260  13.468  1.00  0.00    -0.388 OA
ATOM      9  H   UNL     1      29.054   0.889  14.162  1.00  0.00     0.211 HD
ENDBRANCH   1   8
TORSDOF 5
ENDMDL
MODEL 3
REMARK VINA RESULT:    -4.105      1.440      2.812
REMARK INTER + INTRA:          -5.167
REMARK INTER:                  -4.943
REMARK INTRA:                  -0.224
REMARK UNBOUND:                -0.222
REMARK SMILES OCC(O)CO
REMARK SMILES IDX 3 1 5 2 6 3 2 5 1 6 4 8
REMARK H PARENT 6 4 1 7 4 9
REMARK Flexibility Score: inf
ROOT
ATOM      1  C   UNL     1      29.165   2.329  13.125  1.00  0.00     0.165 C 
ENDROOT
BRANCH   1   2
ATOM      2  C   UNL     1      28.221   3.353  12.475  1.00  0.00     0.190 C 
BRANCH   2   3
ATOM      3  O   UNL     1      28.589   4.657  12.828  1.00  0.00    -0.394 OA
ATOM      4  H   UNL     1      29.422   4.573  13.360  1.00  0.00     0.210 HD
ENDBRANCH   2   3
ENDBRANCH   1   2
BRANCH   1   5
ATOM      5  C   UNL     1      30.372   2.999  13.794  1.00  0.00     0.190 C 
BRANCH   5   6
ATOM      6  O   UNL     1      30.035   3.461  15.073  1.00  0.00    -0.394 OA
ATOM      7  H   UNL     1      29.224   2.956  15.343  1.00  0.00     0.210 HD
ENDBRANCH   5   6
ENDBRANCH   1   5
BRANCH   1   8
ATOM      8  O   UNL     1      29.612   1.400  12.171  1.00  0.00    -0.388 OA
ATOM      9  H   UNL     1      28.875   1.285  11.515  1.00  0.00     0.211 HD
ENDBRANCH   1   8
TORSDOF 5
ENDMDL
MODEL 4
REMARK VINA RESULT:    -4.053     13.714     14.370
REMARK INTER + INTRA:          -5.104
REMARK INTER:                  -5.089
REMARK INTRA:                  -0.015
REMARK UNBOUND:                -0.222
REMARK SMILES OCC(O)CO
REMARK SMILES IDX 3 1 5 2 6 3 2 5 1 6 4 8
REMARK H PARENT 6 4 1 7 4 9
REMARK Flexibility Score: inf
ROOT
ATOM      1  C   UNL     1      21.888  -8.773  14.651  1.00  0.00     0.165 C 
ENDROOT
BRANCH   1   2
ATOM      2  C   UNL     1      23.009  -7.866  15.183  1.00  0.00     0.190 C 
BRANCH   2   3
ATOM      3  O   UNL     1      24.004  -8.627  15.810  1.00  0.00    -0.394 OA
ATOM      4  H   UNL     1      24.423  -8.031  16.483  1.00  0.00     0.210 HD
ENDBRANCH   2   3
ENDBRANCH   1   2
BRANCH   1   5
ATOM      5  C   UNL     1      21.216  -8.190  13.402  1.00  0.00     0.190 C 
BRANCH   5   6
ATOM      6  O   UNL     1      21.868  -7.019  12.992  1.00  0.00    -0.394 OA
ATOM      7  H   UNL     1      22.796  -7.085  13.336  1.00  0.00     0.210 HD
ENDBRANCH   5   6
ENDBRANCH   1   5
BRANCH   1   8
ATOM      8  O   UNL     1      20.920  -8.991  15.647  1.00  0.00    -0.388 OA
ATOM      9  H   UNL     1      20.105  -8.498  15.367  1.00  0.00     0.211 HD
ENDBRANCH   1   8
TORSDOF 5
ENDMDL
MODEL 5
REMARK VINA RESULT:    -3.975     14.052     14.801
REMARK INTER + INTRA:          -5.010
REMARK INTER:                  -4.790
REMARK INTRA:                  -0.219
REMARK UNBOUND:                -0.222
REMARK SMILES OCC(O)CO
REMARK SMILES IDX 3 1 5 2 6 3 2 5 1 6 4 8
REMARK H PARENT 6 4 1 7 4 9
REMARK Flexibility Score: inf
ROOT
ATOM      1  C   UNL     1      21.438  -7.710  14.259  1.00  0.00     0.165 C 
ENDROOT
BRANCH   1   2
ATOM      2  C   UNL     1      22.850  -7.640  14.864  1.00  0.00     0.190 C 
BRANCH   2   3
ATOM      3  O   UNL     1      23.130  -8.800  15.597  1.00  0.00    -0.394 OA
ATOM      4  H   UNL     1      23.897  -9.234  15.141  1.00  0.00     0.210 HD
ENDBRANCH   2   3
ENDBRANCH   1   2
BRANCH   1   5
ATOM      5  C   UNL     1      20.902  -9.146  14.209  1.00  0.00     0.190 C 
BRANCH   5   6
ATOM      6  O   UNL     1      20.204  -9.454  15.385  1.00  0.00    -0.394 OA
ATOM      7  H   UNL     1      20.619  -8.909  16.102  1.00  0.00     0.210 HD
ENDBRANCH   5   6
ENDBRANCH   1   5
BRANCH   1   8
ATOM      8  O   UNL     1      21.431  -7.160  12.966  1.00  0.00    -0.388 OA
ATOM      9  H   UNL     1      22.321  -7.352  12.569  1.00  0.00     0.211 HD
ENDBRANCH   1   8
TORSDOF 5
ENDMDL
MODEL 6
REMARK VINA RESULT:    -3.934     13.797     14.713
REMARK INTER + INTRA:          -4.960
REMARK INTER:                  -4.742
REMARK INTRA:                  -0.219
REMARK UNBOUND:                -0.222
REMARK SMILES OCC(O)CO
REMARK SMILES IDX 3 1 5 2 6 3 2 5 1 6 4 8
REMARK H PARENT 6 4 1 7 4 9
REMARK Flexibility Score: inf
ROOT
ATOM      1  C   UNL     1      22.062  -8.123  13.905  1.00  0.00     0.165 C 
ENDROOT
BRANCH   1   2
ATOM      2  C   UNL     1      20.751  -8.843  14.263  1.00  0.00     0.190 C 
BRANCH   2   3
ATOM      3  O   UNL     1      20.692  -9.106  15.637  1.00  0.00    -0.394 OA
ATOM      4  H   UNL     1      20.205  -9.965  15.732  1.00  0.00     0.210 HD
ENDBRANCH   2   3
ENDBRANCH   1   2
BRANCH   1   5
ATOM      5  C   UNL     1      22.806  -7.625  15.150  1.00  0.00     0.190 C 
BRANCH   5   6
ATOM      6  O   UNL     1      23.667  -8.616  15.641  1.00  0.00    -0.394 OA
ATOM      7  H   UNL     1      23.092  -9.391  15.872  1.00  0.00     0.210 HD
ENDBRANCH   5   6
ENDBRANCH   1   5
BRANCH   1   8
ATOM      8  O   UNL     1      21.808  -7.041  13.046  1.00  0.00    -0.388 OA
ATOM      9  H   UNL     1      21.254  -7.392  12.299  1.00  0.00     0.211 HD
ENDBRANCH   1   8
TORSDOF 5
ENDMDL
MODEL 7
REMARK VINA RESULT:    -3.927      1.224      3.163
REMARK INTER + INTRA:          -4.953
REMARK INTER:                  -4.942
REMARK INTRA:                  -0.011
REMARK UNBOUND:                -0.222
REMARK SMILES OCC(O)CO
REMARK SMILES IDX 3 1 5 2 6 3 2 5 1 6 4 8
REMARK H PARENT 6 4 1 7 4 9
REMARK Flexibility Score: inf
ROOT
ATOM      1  C   UNL     1      29.301   3.072  12.871  1.00  0.00     0.165 C 
ENDROOT
BRANCH   1   2
ATOM      2  C   UNL     1      28.185   2.026  13.031  1.00  0.00     0.190 C 
BRANCH   2   3
ATOM      3  O   UNL     1      26.925   2.628  12.927  1.00  0.00    -0.394 OA
ATOM      4  H   UNL     1      26.942   3.156  12.088  1.00  0.00     0.210 HD
ENDBRANCH   2   3
ENDBRANCH   1   2
BRANCH   1   5
ATOM      5  C   UNL     1      30.406   2.903  13.920  1.00  0.00     0.190 C 
BRANCH   5   6
ATOM      6  O   UNL     1      30.096   3.619  15.084  1.00  0.00    -0.394 OA
ATOM      7  H   UNL     1      30.620   4.461  15.037  1.00  0.00     0.210 HD
ENDBRANCH   5   6
ENDBRANCH   1   5
BRANCH   1   8
ATOM      8  O   UNL     1      28.770   4.370  12.952  1.00  0.00    -0.388 OA
ATOM      9  H   UNL     1      27.912   4.361  12.450  1.00  0.00     0.211 HD
ENDBRANCH   1   8
TORSDOF 5
ENDMDL
MODEL 8
REMARK VINA RESULT:    -3.883     14.060     14.773
REMARK INTER + INTRA:          -4.899
REMARK INTER:                  -4.882
REMARK INTRA:                  -0.017
REMARK UNBOUND:                -0.222
REMARK SMILES OCC(O)CO
REMARK SMILES IDX 3 1 5 2 6 3 2 5 1 6 4 8
REMARK H PARENT 6 4 1 7 4 9
REMARK Flexibility Score: inf
ROOT
ATOM      1  C   UNL     1      22.116  -8.561  14.530  1.00  0.00     0.165 C 
ENDROOT
BRANCH   1   2
ATOM      2  C   UNL     1      22.422  -7.337  13.650  1.00  0.00     0.190 C 
BRANCH   2   3
ATOM      3  O   UNL     1      21.366  -7.093  12.762  1.00  0.00    -0.394 OA
ATOM      4  H   UNL     1      20.717  -7.830  12.898  1.00  0.00     0.210 HD
ENDBRANCH   2   3
ENDBRANCH   1   2
BRANCH   1   5
ATOM      5  C   UNL     1      20.767  -8.434  15.247  1.00  0.00     0.190 C 
BRANCH   5   6
ATOM      6  O   UNL     1      20.128  -9.678  15.323  1.00  0.00    -0.394 OA
ATOM      7  H   UNL     1      19.213  -9.497  15.662  1.00  0.00     0.210 HD
ENDBRANCH   5   6
ENDBRANCH   1   5
BRANCH   1   8
ATOM      8  O   UNL     1      23.136  -8.749  15.478  1.00  0.00    -0.388 OA
ATOM      9  H   UNL     1      23.147  -9.717  15.699  1.00  0.00     0.211 HD
ENDBRANCH   1   8
TORSDOF 5
ENDMDL
MODEL 9
REMARK VINA RESULT:    -3.845      1.422      1.861
REMARK INTER + INTRA:          -4.854
REMARK INTER:                  -4.836
REMARK INTRA:                  -0.018
REMARK UNBOUND:                -0.222
REMARK SMILES OCC(O)CO
REMARK SMILES IDX 3 1 5 2 6 3 2 5 1 6 4 8
REMARK H PARENT 6 4 1 7 4 9
REMARK Flexibility Score: inf
ROOT
ATOM      1  C   UNL     1      29.302   2.756  13.286  1.00  0.00     0.165 C 
ENDROOT
BRANCH   1   2
ATOM      2  C   UNL     1      30.782   2.741  13.703  1.00  0.00     0.190 C 
BRANCH   2   3
ATOM      3  O   UNL     1      31.283   4.046  13.787  1.00  0.00    -0.394 OA
ATOM      4  H   UNL     1      30.826   4.467  14.560  1.00  0.00     0.210 HD
ENDBRANCH   2   3
ENDBRANCH   1   2
BRANCH   1   5
ATOM      5  C   UNL     1      29.030   1.834  12.091  1.00  0.00     0.190 C 
BRANCH   5   6
ATOM      6  O   UNL     1      29.345   2.479  10.888  1.00  0.00    -0.394 OA
ATOM      7  H   UNL     1      30.335   2.494  10.834  1.00  0.00     0.210 HD
ENDBRANCH   5   6
ENDBRANCH   1   5
BRANCH   1   8
ATOM      8  O   UNL     1      28.894   4.063  12.974  1.00  0.00    -0.388 OA
ATOM      9  H   UNL     1      28.210   4.319  13.648  1.00  0.00     0.211 HD
ENDBRANCH   1   8
TORSDOF 5
ENDMDL
