MODEL 1
REMARK VINA RESULT:    -4.509      0.000      0.000
REMARK INTER + INTRA:          -7.179
REMARK INTER:                  -6.882
REMARK INTRA:                  -0.297
REMARK UNBOUND:                -0.297
REMARK SMILES O=C([O-])CCCCCCCCC(=O)[O-]
REMARK SMILES IDX 7 1 6 2 5 3 4 4 2 5 1 6 3 7 8 8 9 9 10 10 11 11 12 12 13 13
REMARK SMILES IDX 14 14
REMARK H PARENT
REMARK Flexibility Score: inf
ROOT
ATOM      1  C   UNL     1      -8.905  22.714  14.402  1.00  0.00     0.000 C 
ENDROOT
BRANCH   1   2
ATOM      2  C   UNL     1      -7.753  23.726  14.260  1.00  0.00     0.000 C 
BRANCH   2   3
ATOM      3  C   UNL     1      -8.211  25.179  14.476  1.00  0.00     0.006 C 
BRANCH   3   4
ATOM      4  C   UNL     1      -9.045  25.749  13.317  1.00  0.00     0.053 C 
BRANCH   4   5
ATOM      5  C   UNL     1      -8.887  27.234  13.188  1.00  0.00     0.041 C 
ATOM      6  O   UNL     1      -9.727  27.906  12.532  1.00  0.00    -0.550 OA
ATOM      7  O   UNL     1      -7.807  27.874  13.780  1.00  0.00    -0.550 OA
ENDBRANCH   4   5
ENDBRANCH   3   4
ENDBRANCH   2   3
ENDBRANCH   1   2
BRANCH   1   8
ATOM      8  C   UNL     1      -8.394  21.265  14.537  1.00  0.00     0.000 C 
BRANCH   8   9
ATOM      9  C   UNL     1      -6.901  21.166  14.893  1.00  0.00     0.000 C 
BRANCH   9  10
ATOM     10  C   UNL     1      -6.176  20.059  14.116  1.00  0.00     0.006 C 
BRANCH  10  11
ATOM     11  C   UNL     1      -4.916  19.603  14.855  1.00  0.00     0.053 C 
BRANCH  11  12
ATOM     12  C   UNL     1      -4.240  18.498  14.105  1.00  0.00     0.041 C 
ATOM     13  O   UNL     1      -3.743  18.717  12.969  1.00  0.00    -0.550 OA
ATOM     14  O   UNL     1      -4.204  17.217  14.637  1.00  0.00    -0.550 OA
ENDBRANCH  11  12
ENDBRANCH  10  11
ENDBRANCH   9  10
ENDBRANCH   8   9
ENDBRANCH   1   8
TORSDOF 9
ENDMDL
MODEL 2
REMARK VINA RESULT:    -4.153      0.614      8.268
REMARK INTER + INTRA:          -6.635
REMARK INTER:                  -6.439
REMARK INTRA:                  -0.196
REMARK UNBOUND:                -0.297
REMARK SMILES O=C([O-])CCCCCCCCC(=O)[O-]
REMARK SMILES IDX 7 1 6 2 5 3 4 4 2 5 1 6 3 7 8 8 9 9 10 10 11 11 12 12 13 13
REMARK SMILES IDX 14 14
REMARK H PARENT
REMARK Flexibility Score: inf
ROOT
ATOM      1  C   UNL     1      -7.927  21.367  14.137  1.00  0.00     0.000 C 
ENDROOT
BRANCH   1   2
ATOM      2  C   UNL     1      -7.235  20.380  15.094  1.00  0.00     0.000 C 
BRANCH   2   3
ATOM      3  C   UNL     1      -5.927  19.811  14.516  1.00  0.00     0.006 C 
BRANCH   3   4
ATOM      4  C   UNL     1      -5.510  18.463  15.125  1.00  0.00     0.053 C 
BRANCH   4   5
ATOM      5  C   UNL     1      -4.337  17.863  14.411  1.00  0.00     0.041 C 
ATOM      6  O   UNL     1      -3.832  16.783  14.818  1.00  0.00    -0.550 OA
ATOM      7  O   UNL     1      -3.792  18.502  13.306  1.00  0.00    -0.550 OA
ENDBRANCH   4   5
ENDBRANCH   3   4
ENDBRANCH   2   3
ENDBRANCH   1   2
BRANCH   1   8
ATOM      8  C   UNL     1      -8.221  22.724  14.812  1.00  0.00     0.000 C 
BRANCH   8   9
ATOM      9  C   UNL     1      -7.770  23.937  13.982  1.00  0.00     0.000 C 
BRANCH   9  10
ATOM     10  C   UNL     1      -8.512  25.227  14.360  1.00  0.00     0.006 C 
BRANCH  10  11
ATOM     11  C   UNL     1      -9.142  25.881  13.129  1.00  0.00     0.053 C 
BRANCH  11  12
ATOM     12  C   UNL     1      -9.000  27.369  13.197  1.00  0.00     0.041 C 
ATOM     13  O   UNL     1      -9.899  28.113  12.722  1.00  0.00    -0.550 OA
ATOM     14  O   UNL     1      -7.852  27.935  13.736  1.00  0.00    -0.550 OA
ENDBRANCH  11  12
ENDBRANCH  10  11
ENDBRANCH   9  10
ENDBRANCH   8   9
ENDBRANCH   1   8
TORSDOF 9
ENDMDL
MODEL 3
REMARK VINA RESULT:    -4.056      1.359      7.637
REMARK INTER + INTRA:          -6.488
REMARK INTER:                  -6.171
REMARK INTRA:                  -0.316
REMARK UNBOUND:                -0.297
REMARK SMILES O=C([O-])CCCCCCCCC(=O)[O-]
REMARK SMILES IDX 7 1 6 2 5 3 4 4 2 5 1 6 3 7 8 8 9 9 10 10 11 11 12 12 13 13
REMARK SMILES IDX 14 14
REMARK H PARENT
REMARK Flexibility Score: inf
ROOT
ATOM      1  C   UNL     1      -7.167  20.625  14.819  1.00  0.00     0.000 C 
ENDROOT
BRANCH   1   2
ATOM      2  C   UNL     1      -6.661  19.204  15.125  1.00  0.00     0.000 C 
BRANCH   2   3
ATOM      3  C   UNL     1      -5.129  19.086  15.026  1.00  0.00     0.006 C 
BRANCH   3   4
ATOM      4  C   UNL     1      -4.605  18.957  13.587  1.00  0.00     0.053 C 
BRANCH   4   5
ATOM      5  C   UNL     1      -3.160  18.566  13.548  1.00  0.00     0.041 C 
ATOM      6  O   UNL     1      -2.727  17.828  12.623  1.00  0.00    -0.550 OA
ATOM      7  O   UNL     1      -2.292  19.002  14.540  1.00  0.00    -0.550 OA
ENDBRANCH   4   5
ENDBRANCH   3   4
ENDBRANCH   2   3
ENDBRANCH   1   2
BRANCH   1   8
ATOM      8  C   UNL     1      -8.703  20.680  14.684  1.00  0.00     0.000 C 
BRANCH   8   9
ATOM      9  C   UNL     1      -9.246  22.083  14.365  1.00  0.00     0.000 C 
BRANCH   9  10
ATOM     10  C   UNL     1      -8.263  23.201  14.736  1.00  0.00     0.006 C 
BRANCH  10  11
ATOM     11  C   UNL     1      -7.997  24.119  13.541  1.00  0.00     0.053 C 
BRANCH  11  12
ATOM     12  C   UNL     1      -8.493  25.503  13.823  1.00  0.00     0.041 C 
ATOM     13  O   UNL     1      -7.888  26.236  14.649  1.00  0.00    -0.550 OA
ATOM     14  O   UNL     1      -9.651  25.964  13.212  1.00  0.00    -0.550 OA
ENDBRANCH  11  12
ENDBRANCH  10  11
ENDBRANCH   9  10
ENDBRANCH   8   9
ENDBRANCH   1   8
TORSDOF 9
ENDMDL
MODEL 4
REMARK VINA RESULT:    -3.736      3.057      8.877
REMARK INTER + INTRA:          -5.998
REMARK INTER:                  -5.683
REMARK INTRA:                  -0.315
REMARK UNBOUND:                -0.297
REMARK SMILES O=C([O-])CCCCCCCCC(=O)[O-]
REMARK SMILES IDX 7 1 6 2 5 3 4 4 2 5 1 6 3 7 8 8 9 9 10 10 11 11 12 12 13 13
REMARK SMILES IDX 14 14
REMARK H PARENT
REMARK Flexibility Score: inf
ROOT
ATOM      1  C   UNL     1      -3.887  18.596  13.240  1.00  0.00     0.000 C 
ENDROOT
BRANCH   1   2
ATOM      2  C   UNL     1      -2.402  18.821  12.899  1.00  0.00     0.000 C 
BRANCH   2   3
ATOM      3  C   UNL     1      -1.463  17.918  13.717  1.00  0.00     0.006 C 
BRANCH   3   4
ATOM      4  C   UNL     1      -0.683  16.899  12.869  1.00  0.00     0.053 C 
BRANCH   4   5
ATOM      5  C   UNL     1      -1.586  15.880  12.245  1.00  0.00     0.041 C 
ATOM      6  O   UNL     1      -1.787  15.887  11.001  1.00  0.00    -0.550 OA
ATOM      7  O   UNL     1      -2.218  14.930  13.037  1.00  0.00    -0.550 OA
ENDBRANCH   4   5
ENDBRANCH   3   4
ENDBRANCH   2   3
ENDBRANCH   1   2
BRANCH   1   8
ATOM      8  C   UNL     1      -4.282  19.249  14.581  1.00  0.00     0.000 C 
BRANCH   8   9
ATOM      9  C   UNL     1      -5.800  19.410  14.766  1.00  0.00     0.000 C 
BRANCH   9  10
ATOM     10  C   UNL     1      -6.261  20.871  14.667  1.00  0.00     0.006 C 
BRANCH  10  11
ATOM     11  C   UNL     1      -7.783  20.977  14.779  1.00  0.00     0.053 C 
BRANCH  11  12
ATOM     12  C   UNL     1      -8.230  22.382  14.519  1.00  0.00     0.041 C 
ATOM     13  O   UNL     1      -9.458  22.650  14.438  1.00  0.00    -0.550 OA
ATOM     14  O   UNL     1      -7.292  23.384  14.314  1.00  0.00    -0.550 OA
ENDBRANCH  11  12
ENDBRANCH  10  11
ENDBRANCH   9  10
ENDBRANCH   8   9
ENDBRANCH   1   8
TORSDOF 9
ENDMDL
MODEL 5
REMARK VINA RESULT:    -3.572      3.070      4.452
REMARK INTER + INTRA:          -5.748
REMARK INTER:                  -5.795
REMARK INTRA:                   0.046
REMARK UNBOUND:                -0.297
REMARK SMILES O=C([O-])CCCCCCCCC(=O)[O-]
REMARK SMILES IDX 7 1 6 2 5 3 4 4 2 5 1 6 3 7 8 8 9 9 10 10 11 11 12 12 13 13
REMARK SMILES IDX 14 14
REMARK H PARENT
REMARK Flexibility Score: inf
ROOT
ATOM      1  C   UNL     1      -9.257  26.459  12.891  1.00  0.00     0.000 C 
ENDROOT
BRANCH   1   2
ATOM      2  C   UNL     1      -8.879  27.948  12.996  1.00  0.00     0.000 C 
BRANCH   2   3
ATOM      3  C   UNL     1      -8.078  28.268  14.270  1.00  0.00     0.006 C 
BRANCH   3   4
ATOM      4  C   UNL     1      -6.826  29.125  14.021  1.00  0.00     0.053 C 
BRANCH   4   5
ATOM      5  C   UNL     1      -5.570  28.410  14.412  1.00  0.00     0.041 C 
ATOM      6  O   UNL     1      -4.464  29.014  14.394  1.00  0.00    -0.550 OA
ATOM      7  O   UNL     1      -5.614  27.073  14.783  1.00  0.00    -0.550 OA
ENDBRANCH   4   5
ENDBRANCH   3   4
ENDBRANCH   2   3
ENDBRANCH   1   2
BRANCH   1   8
ATOM      8  C   UNL     1      -8.679  25.628  14.056  1.00  0.00     0.000 C 
BRANCH   8   9
ATOM      9  C   UNL     1      -8.134  24.256  13.625  1.00  0.00     0.000 C 
BRANCH   9  10
ATOM     10  C   UNL     1      -7.371  23.539  14.748  1.00  0.00     0.006 C 
BRANCH  10  11
ATOM     11  C   UNL     1      -7.260  22.039  14.467  1.00  0.00     0.053 C 
BRANCH  11  12
ATOM     12  C   UNL     1      -8.595  21.378  14.613  1.00  0.00     0.041 C 
ATOM     13  O   UNL     1      -9.650  22.021  14.366  1.00  0.00    -0.550 OA
ATOM     14  O   UNL     1      -8.678  20.071  15.071  1.00  0.00    -0.550 OA
ENDBRANCH  11  12
ENDBRANCH  10  11
ENDBRANCH   9  10
ENDBRANCH   8   9
ENDBRANCH   1   8
TORSDOF 9
ENDMDL
MODEL 6
REMARK VINA RESULT:    -3.549      6.177      9.307
REMARK INTER + INTRA:          -5.714
REMARK INTER:                  -5.334
REMARK INTRA:                  -0.380
REMARK UNBOUND:                -0.297
REMARK SMILES O=C([O-])CCCCCCCCC(=O)[O-]
REMARK SMILES IDX 7 1 6 2 5 3 4 4 2 5 1 6 3 7 8 8 9 9 10 10 11 11 12 12 13 13
REMARK SMILES IDX 14 14
REMARK H PARENT
REMARK Flexibility Score: inf
ROOT
ATOM      1  C   UNL     1      -1.726  16.500  12.050  1.00  0.00     0.000 C 
ENDROOT
BRANCH   1   2
ATOM      2  C   UNL     1      -0.976  17.513  12.935  1.00  0.00     0.000 C 
BRANCH   2   3
ATOM      3  C   UNL     1      -1.866  18.690  13.373  1.00  0.00     0.006 C 
BRANCH   3   4
ATOM      4  C   UNL     1      -3.293  18.640  12.801  1.00  0.00     0.053 C 
BRANCH   4   5
ATOM      5  C   UNL     1      -4.326  18.518  13.879  1.00  0.00     0.041 C 
ATOM      6  O   UNL     1      -5.170  19.437  14.055  1.00  0.00    -0.550 OA
ATOM      7  O   UNL     1      -4.349  17.399  14.701  1.00  0.00    -0.550 OA
ENDBRANCH   4   5
ENDBRANCH   3   4
ENDBRANCH   2   3
ENDBRANCH   1   2
BRANCH   1   8
ATOM      8  C   UNL     1      -0.996  15.143  11.973  1.00  0.00     0.000 C 
BRANCH   8   9
ATOM      9  C   UNL     1      -1.942  13.930  11.994  1.00  0.00     0.000 C 
BRANCH   9  10
ATOM     10  C   UNL     1      -2.644  13.699  10.649  1.00  0.00     0.006 C 
BRANCH  10  11
ATOM     11  C   UNL     1      -2.677  12.211  10.293  1.00  0.00     0.053 C 
BRANCH  11  12
ATOM     12  C   UNL     1      -1.539  11.864   9.385  1.00  0.00     0.041 C 
ATOM     13  O   UNL     1      -1.762  11.513   8.197  1.00  0.00    -0.550 OA
ATOM     14  O   UNL     1      -0.237  11.879   9.866  1.00  0.00    -0.550 OA
ENDBRANCH  11  12
ENDBRANCH  10  11
ENDBRANCH   9  10
ENDBRANCH   8   9
ENDBRANCH   1   8
TORSDOF 9
ENDMDL
MODEL 7
REMARK VINA RESULT:    -3.526      5.967      9.184
REMARK INTER + INTRA:          -5.678
REMARK INTER:                  -5.305
REMARK INTRA:                  -0.373
REMARK UNBOUND:                -0.297
REMARK SMILES O=C([O-])CCCCCCCCC(=O)[O-]
REMARK SMILES IDX 7 1 6 2 5 3 4 4 2 5 1 6 3 7 8 8 9 9 10 10 11 11 12 12 13 13
REMARK SMILES IDX 14 14
REMARK H PARENT
REMARK Flexibility Score: inf
ROOT
ATOM      1  C   UNL     1      -1.822  16.718  11.970  1.00  0.00     0.000 C 
ENDROOT
BRANCH   1   2
ATOM      2  C   UNL     1      -1.219  17.527  13.133  1.00  0.00     0.000 C 
BRANCH   2   3
ATOM      3  C   UNL     1      -2.097  18.723  13.541  1.00  0.00     0.006 C 
BRANCH   3   4
ATOM      4  C   UNL     1      -3.531  18.661  12.990  1.00  0.00     0.053 C 
BRANCH   4   5
ATOM      5  C   UNL     1      -4.553  18.660  14.085  1.00  0.00     0.041 C 
ATOM      6  O   UNL     1      -4.612  17.698  14.897  1.00  0.00    -0.550 OA
ATOM      7  O   UNL     1      -5.453  19.712  14.201  1.00  0.00    -0.550 OA
ENDBRANCH   4   5
ENDBRANCH   3   4
ENDBRANCH   2   3
ENDBRANCH   1   2
BRANCH   1   8
ATOM      8  C   UNL     1      -0.904  15.559  11.530  1.00  0.00     0.000 C 
BRANCH   8   9
ATOM      9  C   UNL     1      -1.545  14.169  11.685  1.00  0.00     0.000 C 
BRANCH   9  10
ATOM     10  C   UNL     1      -2.585  13.868  10.598  1.00  0.00     0.006 C 
BRANCH  10  11
ATOM     11  C   UNL     1      -2.937  12.379  10.570  1.00  0.00     0.053 C 
BRANCH  11  12
ATOM     12  C   UNL     1      -1.897  11.609   9.818  1.00  0.00     0.041 C 
ATOM     13  O   UNL     1      -1.127  10.823  10.430  1.00  0.00    -0.550 OA
ATOM     14  O   UNL     1      -1.743  11.799   8.452  1.00  0.00    -0.550 OA
ENDBRANCH  11  12
ENDBRANCH  10  11
ENDBRANCH   9  10
ENDBRANCH   8   9
ENDBRANCH   1   8
TORSDOF 9
ENDMDL
MODEL 8
REMARK VINA RESULT:    -3.501      6.425     10.784
REMARK INTER + INTRA:          -5.640
REMARK INTER:                  -5.141
REMARK INTRA:                  -0.499
REMARK UNBOUND:                -0.297
REMARK SMILES O=C([O-])CCCCCCCCC(=O)[O-]
REMARK SMILES IDX 7 1 6 2 5 3 4 4 2 5 1 6 3 7 8 8 9 9 10 10 11 11 12 12 13 13
REMARK SMILES IDX 14 14
REMARK H PARENT
REMARK Flexibility Score: inf
ROOT
ATOM      1  C   UNL     1      -1.764  14.737  11.749  1.00  0.00     0.000 C 
ENDROOT
BRANCH   1   2
ATOM      2  C   UNL     1      -2.575  14.037  10.643  1.00  0.00     0.000 C 
BRANCH   2   3
ATOM      3  C   UNL     1      -2.943  12.588  11.005  1.00  0.00     0.006 C 
BRANCH   3   4
ATOM      4  C   UNL     1      -2.875  12.285  12.511  1.00  0.00     0.053 C 
BRANCH   4   5
ATOM      5  C   UNL     1      -4.238  12.142  13.117  1.00  0.00     0.041 C 
ATOM      6  O   UNL     1      -5.258  12.097  12.380  1.00  0.00    -0.550 OA
ATOM      7  O   UNL     1      -4.385  12.072  14.496  1.00  0.00    -0.550 OA
ENDBRANCH   4   5
ENDBRANCH   3   4
ENDBRANCH   2   3
ENDBRANCH   1   2
BRANCH   1   8
ATOM      8  C   UNL     1      -1.810  16.274  11.621  1.00  0.00     0.000 C 
BRANCH   8   9
ATOM      9  C   UNL     1      -0.886  17.005  12.609  1.00  0.00     0.000 C 
BRANCH   9  10
ATOM     10  C   UNL     1      -1.594  18.143  13.358  1.00  0.00     0.006 C 
BRANCH  10  11
ATOM     11  C   UNL     1      -2.960  18.444  12.737  1.00  0.00     0.053 C 
BRANCH  11  12
ATOM     12  C   UNL     1      -4.040  18.328  13.766  1.00  0.00     0.041 C 
ATOM     13  O   UNL     1      -4.922  19.221  13.861  1.00  0.00    -0.550 OA
ATOM     14  O   UNL     1      -4.042  17.262  14.655  1.00  0.00    -0.550 OA
ENDBRANCH  11  12
ENDBRANCH  10  11
ENDBRANCH   9  10
ENDBRANCH   8   9
ENDBRANCH   1   8
TORSDOF 9
ENDMDL
MODEL 9
REMARK VINA RESULT:    -3.456      6.094      8.984
REMARK INTER + INTRA:          -5.572
REMARK INTER:                  -5.132
REMARK INTRA:                  -0.440
REMARK UNBOUND:                -0.297
REMARK SMILES O=C([O-])CCCCCCCCC(=O)[O-]
REMARK SMILES IDX 7 1 6 2 5 3 4 4 2 5 1 6 3 7 8 8 9 9 10 10 11 11 12 12 13 13
REMARK SMILES IDX 14 14
REMARK H PARENT
REMARK Flexibility Score: inf
ROOT
ATOM      1  C   UNL     1      -1.849  16.697  11.781  1.00  0.00     0.000 C 
ENDROOT
BRANCH   1   2
ATOM      2  C   UNL     1      -1.143  17.404  12.952  1.00  0.00     0.000 C 
BRANCH   2   3
ATOM      3  C   UNL     1      -1.999  18.524  13.570  1.00  0.00     0.006 C 
BRANCH   3   4
ATOM      4  C   UNL     1      -3.395  18.661  12.942  1.00  0.00     0.053 C 
BRANCH   4   5
ATOM      5  C   UNL     1      -4.484  18.547  13.965  1.00  0.00     0.041 C 
ATOM      6  O   UNL     1      -5.371  19.438  14.050  1.00  0.00    -0.550 OA
ATOM      7  O   UNL     1      -4.514  17.465  14.835  1.00  0.00    -0.550 OA
ENDBRANCH   4   5
ENDBRANCH   3   4
ENDBRANCH   2   3
ENDBRANCH   1   2
BRANCH   1   8
ATOM      8  C   UNL     1      -1.214  15.328  11.460  1.00  0.00     0.000 C 
BRANCH   8   9
ATOM      9  C   UNL     1      -2.106  14.131  11.828  1.00  0.00     0.000 C 
BRANCH   9  10
ATOM     10  C   UNL     1      -2.817  13.521  10.612  1.00  0.00     0.006 C 
BRANCH  10  11
ATOM     11  C   UNL     1      -2.827  11.993  10.689  1.00  0.00     0.053 C 
BRANCH  11  12
ATOM     12  C   UNL     1      -3.592  11.535  11.891  1.00  0.00     0.041 C 
ATOM     13  O   UNL     1      -3.068  10.730  12.706  1.00  0.00    -0.550 OA
ATOM     14  O   UNL     1      -4.901  11.955  12.084  1.00  0.00    -0.550 OA
ENDBRANCH  11  12
ENDBRANCH  10  11
ENDBRANCH   9  10
ENDBRANCH   8   9
ENDBRANCH   1   8
TORSDOF 9
ENDMDL
