MODEL 1
REMARK VINA RESULT:    -4.509      0.000      0.000
REMARK INTER + INTRA:          -7.086
REMARK INTER:                  -6.882
REMARK INTRA:                  -0.204
REMARK UNBOUND:                -0.204
REMARK SMILES CC1=CCC[C@@H](C)C(=O)C[C@@H](C(C)C)C(=O)C1
REMARK SMILES IDX 8 1 9 2 6 3 7 4 5 5 4 6 3 7 2 8 1 9 10 11 11 12 15 13 16 14
REMARK SMILES IDX 17 15 12 17 13 18 14 19
REMARK H PARENT
REMARK Flexibility Score: 70.00
ROOT
ATOM      1  C   UNL     1       0.962 -20.218  -4.429  1.00  0.00     0.136 C 
ATOM      2  O   UNL     1       0.036 -21.016  -4.441  1.00  0.00    -0.299 OA
ENDROOT
BRANCH   1   3
ATOM      3  C   UNL     1       1.209 -19.405  -3.168  1.00  0.00     0.053 C 
ATOM      4  C   UNL     1       1.292 -17.918  -3.536  1.00  0.00     0.016 C 
BRANCH   3   5
ATOM      5  C   UNL     1       2.479 -19.844  -2.393  1.00  0.00     0.015 C 
BRANCH   5   6
ATOM      6  C   UNL     1       3.812 -19.227  -2.869  1.00  0.00     0.028 C 
BRANCH   6   7
ATOM      7  C   UNL     1       4.934 -20.191  -3.176  1.00  0.00    -0.028 C 
ATOM      8  C   UNL     1       5.449 -20.448  -4.399  1.00  0.00    -0.070 CG0
ATOM      9  C   UNL     1       6.730 -21.248  -4.455  1.00  0.00     0.039 C 
ATOM     10  G   UNL     1       4.841 -19.925  -5.692  1.00  0.00     0.000 G0
ENDBRANCH   6   7
ENDBRANCH   5   6
ENDBRANCH   3   5
ENDBRANCH   1   3
BRANCH   1  11
ATOM     11  C   UNL     1       1.734 -19.961  -5.707  1.00  0.00     0.087 C 
BRANCH  11  12
ATOM     12  C   UNL     1       2.522 -21.188  -6.239  1.00  0.00     0.066 C 
BRANCH  12  13
ATOM     13  C   UNL     1       4.025 -20.983  -6.423  1.00  0.00     0.140 C 
ATOM     14  O   UNL     1       4.607 -21.717  -7.208  1.00  0.00    -0.299 OA
BRANCH  13  15
ATOM     15  C   UNL     1       4.838 -19.923  -5.707  1.00  0.00     0.106 CG0
ATOM     16  G   UNL     1       5.431 -20.466  -4.415  1.00  0.00     0.000 G0
ENDBRANCH  13  15
ENDBRANCH  12  13
BRANCH  12  17
ATOM     17  C   UNL     1       1.847 -21.755  -7.529  1.00  0.00    -0.006 C 
ATOM     18  C   UNL     1       0.674 -22.706  -7.230  1.00  0.00     0.008 C 
ATOM     19  C   UNL     1       1.388 -20.639  -8.481  1.00  0.00     0.008 C 
ENDBRANCH  12  17
ENDBRANCH  11  12
ENDBRANCH   1  11
TORSDOF 1
ENDMDL
MODEL 2
REMARK VINA RESULT:    -4.097      1.993      4.023
REMARK INTER + INTRA:          -6.456
REMARK INTER:                  -6.106
REMARK INTRA:                  -0.350
REMARK UNBOUND:                -0.204
REMARK SMILES CC1=CCC[C@@H](C)C(=O)C[C@@H](C(C)C)C(=O)C1
REMARK SMILES IDX 8 1 9 2 6 3 7 4 5 5 4 6 3 7 2 8 1 9 10 11 11 12 15 13 16 14
REMARK SMILES IDX 17 15 12 17 13 18 14 19
REMARK H PARENT
REMARK Flexibility Score: 70.00
ROOT
ATOM      1  C   UNL     1       1.964 -20.825  -6.940  1.00  0.00     0.136 C 
ATOM      2  O   UNL     1       1.759 -20.942  -8.140  1.00  0.00    -0.299 OA
ENDROOT
BRANCH   1   3
ATOM      3  C   UNL     1       1.195 -21.715  -5.978  1.00  0.00     0.053 C 
ATOM      4  C   UNL     1       0.525 -22.848  -6.766  1.00  0.00     0.016 C 
BRANCH   3   5
ATOM      5  C   UNL     1       0.144 -20.945  -5.135  1.00  0.00     0.015 C 
BRANCH   5   6
ATOM      6  C   UNL     1       0.513 -20.691  -3.657  1.00  0.00     0.028 C 
BRANCH   6   7
ATOM      7  C   UNL     1       0.771 -19.257  -3.259  1.00  0.00    -0.028 C 
ATOM      8  C   UNL     1       1.983 -18.704  -3.022  1.00  0.00    -0.070 CG0
ATOM      9  C   UNL     1       2.041 -17.200  -2.889  1.00  0.00     0.039 C 
ATOM     10  G   UNL     1       3.272 -19.508  -2.948  1.00  0.00     0.000 G0
ENDBRANCH   6   7
ENDBRANCH   5   6
ENDBRANCH   3   5
ENDBRANCH   1   3
BRANCH   1  11
ATOM     11  C   UNL     1       2.860 -19.706  -6.449  1.00  0.00     0.087 C 
BRANCH  11  12
ATOM     12  C   UNL     1       3.976 -20.159  -5.471  1.00  0.00     0.066 C 
BRANCH  12  13
ATOM     13  C   UNL     1       4.130 -19.319  -4.204  1.00  0.00     0.140 C 
ATOM     14  O   UNL     1       4.972 -18.434  -4.206  1.00  0.00    -0.299 OA
BRANCH  13  15
ATOM     15  C   UNL     1       3.300 -19.505  -2.949  1.00  0.00     0.106 CG0
ATOM     16  G   UNL     1       2.004 -18.711  -3.025  1.00  0.00     0.000 G0
ENDBRANCH  13  15
ENDBRANCH  12  13
BRANCH  12  17
ATOM     17  C   UNL     1       5.333 -20.328  -6.229  1.00  0.00    -0.006 C 
ATOM     18  C   UNL     1       5.663 -21.795  -6.559  1.00  0.00     0.008 C 
ATOM     19  C   UNL     1       5.393 -19.476  -7.507  1.00  0.00     0.008 C 
ENDBRANCH  12  17
ENDBRANCH  11  12
ENDBRANCH   1  11
TORSDOF 1
ENDMDL
MODEL 3
REMARK VINA RESULT:    -3.953      1.579      3.898
REMARK INTER + INTRA:          -6.238
REMARK INTER:                  -5.934
REMARK INTRA:                  -0.303
REMARK UNBOUND:                -0.204
REMARK SMILES CC1=CCC[C@@H](C)C(=O)C[C@@H](C(C)C)C(=O)C1
REMARK SMILES IDX 8 1 9 2 6 3 7 4 5 5 4 6 3 7 2 8 1 9 10 11 11 12 15 13 16 14
REMARK SMILES IDX 17 15 12 17 13 18 14 19
REMARK H PARENT
REMARK Flexibility Score: 70.00
ROOT
ATOM      1  C   UNL     1       5.009 -21.014  -6.868  1.00  0.00     0.136 C 
ATOM      2  O   UNL     1       5.844 -21.855  -7.167  1.00  0.00    -0.299 OA
ENDROOT
BRANCH   1   3
ATOM      3  C   UNL     1       5.393 -19.545  -6.946  1.00  0.00     0.053 C 
ATOM      4  C   UNL     1       6.088 -19.277  -8.288  1.00  0.00     0.016 C 
BRANCH   3   5
ATOM      5  C   UNL     1       6.289 -19.081  -5.768  1.00  0.00     0.015 C 
BRANCH   5   6
ATOM      6  C   UNL     1       5.903 -19.614  -4.370  1.00  0.00     0.028 C 
BRANCH   6   7
ATOM      7  C   UNL     1       5.031 -18.720  -3.521  1.00  0.00    -0.028 C 
ATOM      8  C   UNL     1       3.768 -18.989  -3.120  1.00  0.00    -0.070 CG0
ATOM      9  C   UNL     1       3.168 -18.083  -2.070  1.00  0.00     0.039 C 
ATOM     10  G   UNL     1       2.963 -20.178  -3.626  1.00  0.00     0.000 G0
ENDBRANCH   6   7
ENDBRANCH   5   6
ENDBRANCH   3   5
ENDBRANCH   1   3
BRANCH   1  11
ATOM     11  C   UNL     1       3.681 -21.462  -6.293  1.00  0.00     0.087 C 
BRANCH  11  12
ATOM     12  C   UNL     1       2.589 -20.360  -6.265  1.00  0.00     0.066 C 
BRANCH  12  13
ATOM     13  C   UNL     1       2.194 -19.852  -4.879  1.00  0.00     0.140 C 
ATOM     14  O   UNL     1       1.208 -19.135  -4.796  1.00  0.00    -0.299 OA
BRANCH  13  15
ATOM     15  C   UNL     1       2.936 -20.188  -3.601  1.00  0.00     0.106 CG0
ATOM     16  G   UNL     1       3.757 -19.003  -3.114  1.00  0.00     0.000 G0
ENDBRANCH  13  15
ENDBRANCH  12  13
BRANCH  12  17
ATOM     17  C   UNL     1       1.345 -20.799  -7.103  1.00  0.00    -0.006 C 
ATOM     18  C   UNL     1       1.665 -21.020  -8.592  1.00  0.00     0.008 C 
ATOM     19  C   UNL     1       0.668 -22.051  -6.521  1.00  0.00     0.008 C 
ENDBRANCH  12  17
ENDBRANCH  11  12
ENDBRANCH   1  11
TORSDOF 1
ENDMDL
MODEL 4
REMARK VINA RESULT:    -3.903     12.454     14.459
REMARK INTER + INTRA:          -6.160
REMARK INTER:                  -5.659
REMARK INTRA:                  -0.501
REMARK UNBOUND:                -0.204
REMARK SMILES CC1=CCC[C@@H](C)C(=O)C[C@@H](C(C)C)C(=O)C1
REMARK SMILES IDX 8 1 9 2 6 3 7 4 5 5 4 6 3 7 2 8 1 9 10 11 11 12 15 13 16 14
REMARK SMILES IDX 17 15 12 17 13 18 14 19
REMARK H PARENT
REMARK Flexibility Score: 70.00
ROOT
ATOM      1  C   UNL     1      -7.738 -25.687  -2.440  1.00  0.00     0.136 C 
ATOM      2  O   UNL     1      -7.419 -24.508  -2.381  1.00  0.00    -0.299 OA
ENDROOT
BRANCH   1   3
ATOM      3  C   UNL     1      -9.176 -26.037  -2.788  1.00  0.00     0.053 C 
ATOM      4  C   UNL     1      -9.459 -25.620  -4.237  1.00  0.00     0.016 C 
BRANCH   3   5
ATOM      5  C   UNL     1     -10.213 -25.399  -1.827  1.00  0.00     0.015 C 
BRANCH   5   6
ATOM      6  C   UNL     1     -10.099 -25.803  -0.340  1.00  0.00     0.028 C 
BRANCH   6   7
ATOM      7  C   UNL     1     -10.534 -27.205   0.016  1.00  0.00    -0.028 C 
ATOM      8  C   UNL     1      -9.725 -28.209   0.423  1.00  0.00    -0.070 CG0
ATOM      9  C   UNL     1     -10.388 -29.451   0.972  1.00  0.00     0.039 C 
ATOM     10  G   UNL     1      -8.206 -28.121   0.407  1.00  0.00     0.000 G0
ENDBRANCH   6   7
ENDBRANCH   5   6
ENDBRANCH   3   5
ENDBRANCH   1   3
BRANCH   1  11
ATOM     11  C   UNL     1      -6.738 -26.746  -2.024  1.00  0.00     0.087 C 
BRANCH  11  12
ATOM     12  C   UNL     1      -7.267 -28.201  -2.116  1.00  0.00     0.066 C 
BRANCH  12  13
ATOM     13  C   UNL     1      -7.599 -28.873  -0.785  1.00  0.00     0.140 C 
ATOM     14  O   UNL     1      -7.359 -30.066  -0.674  1.00  0.00    -0.299 OA
BRANCH  13  15
ATOM     15  C   UNL     1      -8.194 -28.155   0.411  1.00  0.00     0.106 CG0
ATOM     16  G   UNL     1      -9.713 -28.228   0.395  1.00  0.00     0.000 G0
ENDBRANCH  13  15
ENDBRANCH  12  13
BRANCH  12  17
ATOM     17  C   UNL     1      -6.313 -29.077  -2.991  1.00  0.00    -0.006 C 
ATOM     18  C   UNL     1      -7.039 -29.805  -4.137  1.00  0.00     0.008 C 
ATOM     19  C   UNL     1      -5.132 -28.267  -3.549  1.00  0.00     0.008 C 
ENDBRANCH  12  17
ENDBRANCH  11  12
ENDBRANCH   1  11
TORSDOF 1
ENDMDL
MODEL 5
REMARK VINA RESULT:    -3.758      9.968     11.484
REMARK INTER + INTRA:          -5.939
REMARK INTER:                  -5.689
REMARK INTRA:                  -0.249
REMARK UNBOUND:                -0.204
REMARK SMILES CC1=CCC[C@@H](C)C(=O)C[C@@H](C(C)C)C(=O)C1
REMARK SMILES IDX 8 1 9 2 6 3 7 4 5 5 4 6 3 7 2 8 1 9 10 11 11 12 15 13 16 14
REMARK SMILES IDX 17 15 12 17 13 18 14 19
REMARK H PARENT
REMARK Flexibility Score: 70.00
ROOT
ATOM      1  C   UNL     1       4.439 -25.197   6.417  1.00  0.00     0.136 C 
ATOM      2  O   UNL     1       3.451 -25.537   7.053  1.00  0.00    -0.299 OA
ENDROOT
BRANCH   1   3
ATOM      3  C   UNL     1       5.595 -24.546   7.159  1.00  0.00     0.053 C 
ATOM      4  C   UNL     1       5.635 -25.080   8.597  1.00  0.00     0.016 C 
BRANCH   3   5
ATOM      5  C   UNL     1       5.533 -22.996   7.156  1.00  0.00     0.015 C 
BRANCH   5   6
ATOM      6  C   UNL     1       5.875 -22.305   5.818  1.00  0.00     0.028 C 
BRANCH   6   7
ATOM      7  C   UNL     1       7.247 -22.574   5.247  1.00  0.00    -0.028 C 
ATOM      8  C   UNL     1       7.513 -23.139   4.048  1.00  0.00    -0.070 CG0
ATOM      9  C   UNL     1       8.942 -23.084   3.560  1.00  0.00     0.039 C 
ATOM     10  G   UNL     1       6.446 -23.762   3.159  1.00  0.00     0.000 G0
ENDBRANCH   6   7
ENDBRANCH   5   6
ENDBRANCH   3   5
ENDBRANCH   1   3
BRANCH   1  11
ATOM     11  C   UNL     1       4.416 -25.298   4.906  1.00  0.00     0.087 C 
BRANCH  11  12
ATOM     12  C   UNL     1       5.623 -26.057   4.295  1.00  0.00     0.066 C 
BRANCH  12  13
ATOM     13  C   UNL     1       6.440 -25.284   3.260  1.00  0.00     0.140 C 
ATOM     14  O   UNL     1       7.117 -25.928   2.473  1.00  0.00    -0.299 OA
BRANCH  13  15
ATOM     15  C   UNL     1       6.456 -23.773   3.138  1.00  0.00     0.106 CG0
ATOM     16  G   UNL     1       7.516 -23.160   4.041  1.00  0.00     0.000 G0
ENDBRANCH  13  15
ENDBRANCH  12  13
BRANCH  12  17
ATOM     17  C   UNL     1       5.177 -27.456   3.760  1.00  0.00    -0.006 C 
ATOM     18  C   UNL     1       5.943 -28.624   4.409  1.00  0.00     0.008 C 
ATOM     19  C   UNL     1       3.663 -27.676   3.906  1.00  0.00     0.008 C 
ENDBRANCH  12  17
ENDBRANCH  11  12
ENDBRANCH   1  11
TORSDOF 1
ENDMDL
MODEL 6
REMARK VINA RESULT:    -3.641     10.318     12.040
REMARK INTER + INTRA:          -5.760
REMARK INTER:                  -5.225
REMARK INTRA:                  -0.535
REMARK UNBOUND:                -0.204
REMARK SMILES CC1=CCC[C@@H](C)C(=O)C[C@@H](C(C)C)C(=O)C1
REMARK SMILES IDX 8 1 9 2 6 3 7 4 5 5 4 6 3 7 2 8 1 9 10 11 11 12 15 13 16 14
REMARK SMILES IDX 17 15 12 17 13 18 14 19
REMARK H PARENT
REMARK Flexibility Score: 70.00
ROOT
ATOM      1  C   UNL     1       6.876 -23.692   5.209  1.00  0.00     0.136 C 
ATOM      2  O   UNL     1       8.031 -23.390   5.473  1.00  0.00    -0.299 OA
ENDROOT
BRANCH   1   3
ATOM      3  C   UNL     1       5.756 -23.079   6.033  1.00  0.00     0.053 C 
ATOM      4  C   UNL     1       5.762 -21.557   5.838  1.00  0.00     0.016 C 
BRANCH   3   5
ATOM      5  C   UNL     1       5.837 -23.434   7.541  1.00  0.00     0.015 C 
BRANCH   5   6
ATOM      6  C   UNL     1       5.580 -24.913   7.905  1.00  0.00     0.028 C 
BRANCH   6   7
ATOM      7  C   UNL     1       4.189 -25.442   7.648  1.00  0.00    -0.028 C 
ATOM      8  C   UNL     1       3.858 -26.414   6.767  1.00  0.00    -0.070 CG0
ATOM      9  C   UNL     1       2.456 -26.970   6.847  1.00  0.00     0.039 C 
ATOM     10  G   UNL     1       4.836 -27.001   5.761  1.00  0.00     0.000 G0
ENDBRANCH   6   7
ENDBRANCH   5   6
ENDBRANCH   3   5
ENDBRANCH   1   3
BRANCH   1  11
ATOM     11  C   UNL     1       6.611 -24.769   4.178  1.00  0.00     0.087 C 
BRANCH  11  12
ATOM     12  C   UNL     1       5.108 -25.070   3.935  1.00  0.00     0.066 C 
BRANCH  12  13
ATOM     13  C   UNL     1       4.628 -26.452   4.374  1.00  0.00     0.140 C 
ATOM     14  O   UNL     1       4.047 -27.142   3.550  1.00  0.00    -0.299 OA
BRANCH  13  15
ATOM     15  C   UNL     1       4.835 -27.028   5.761  1.00  0.00     0.106 CG0
ATOM     16  G   UNL     1       3.860 -26.422   6.760  1.00  0.00     0.000 G0
ENDBRANCH  13  15
ENDBRANCH  12  13
BRANCH  12  17
ATOM     17  C   UNL     1       4.720 -24.760   2.453  1.00  0.00    -0.006 C 
ATOM     18  C   UNL     1       4.009 -23.406   2.284  1.00  0.00     0.008 C 
ATOM     19  C   UNL     1       5.930 -24.839   1.508  1.00  0.00     0.008 C 
ENDBRANCH  12  17
ENDBRANCH  11  12
ENDBRANCH   1  11
TORSDOF 1
ENDMDL
MODEL 7
REMARK VINA RESULT:    -3.628     12.794     15.075
REMARK INTER + INTRA:          -5.741
REMARK INTER:                  -5.668
REMARK INTRA:                  -0.073
REMARK UNBOUND:                -0.204
REMARK SMILES CC1=CCC[C@@H](C)C(=O)C[C@@H](C(C)C)C(=O)C1
REMARK SMILES IDX 8 1 9 2 6 3 7 4 5 5 4 6 3 7 2 8 1 9 10 11 11 12 15 13 16 14
REMARK SMILES IDX 17 15 12 17 13 18 14 19
REMARK H PARENT
REMARK Flexibility Score: 70.00
ROOT
ATOM      1  C   UNL     1      -6.502 -29.654  -2.470  1.00  0.00     0.136 C 
ATOM      2  O   UNL     1      -6.621 -30.453  -3.389  1.00  0.00    -0.299 OA
ENDROOT
BRANCH   1   3
ATOM      3  C   UNL     1      -5.588 -28.455  -2.661  1.00  0.00     0.053 C 
ATOM      4  C   UNL     1      -5.421 -27.731  -1.318  1.00  0.00     0.016 C 
BRANCH   3   5
ATOM      5  C   UNL     1      -6.086 -27.470  -3.751  1.00  0.00     0.015 C 
BRANCH   5   6
ATOM      6  C   UNL     1      -7.618 -27.357  -3.915  1.00  0.00     0.028 C 
BRANCH   6   7
ATOM      7  C   UNL     1      -8.311 -26.294  -3.097  1.00  0.00    -0.028 C 
ATOM      8  C   UNL     1      -9.315 -26.498  -2.214  1.00  0.00    -0.070 CG0
ATOM      9  C   UNL     1      -9.692 -25.343  -1.317  1.00  0.00     0.039 C 
ATOM     10  G   UNL     1     -10.026 -27.833  -2.046  1.00  0.00     0.000 G0
ENDBRANCH   6   7
ENDBRANCH   5   6
ENDBRANCH   3   5
ENDBRANCH   1   3
BRANCH   1  11
ATOM     11  C   UNL     1      -7.146 -29.962  -1.135  1.00  0.00     0.087 C 
BRANCH  11  12
ATOM     12  C   UNL     1      -8.697 -30.011  -1.165  1.00  0.00     0.066 C 
BRANCH  12  13
ATOM     13  C   UNL     1      -9.408 -28.678  -0.934  1.00  0.00     0.140 C 
ATOM     14  O   UNL     1      -9.461 -28.252   0.210  1.00  0.00    -0.299 OA
BRANCH  13  15
ATOM     15  C   UNL     1     -10.040 -27.845  -2.032  1.00  0.00     0.106 CG0
ATOM     16  G   UNL     1      -9.321 -26.514  -2.194  1.00  0.00     0.000 G0
ENDBRANCH  13  15
ENDBRANCH  12  13
BRANCH  12  17
ATOM     17  C   UNL     1      -9.229 -31.130  -0.213  1.00  0.00    -0.006 C 
ATOM     18  C   UNL     1     -10.504 -31.815  -0.737  1.00  0.00     0.008 C 
ATOM     19  C   UNL     1      -8.155 -32.185   0.097  1.00  0.00     0.008 C 
ENDBRANCH  12  17
ENDBRANCH  11  12
ENDBRANCH   1  11
TORSDOF 1
ENDMDL
MODEL 8
REMARK VINA RESULT:    -3.600     12.713     14.857
REMARK INTER + INTRA:          -5.698
REMARK INTER:                  -5.535
REMARK INTRA:                  -0.162
REMARK UNBOUND:                -0.204
REMARK SMILES CC1=CCC[C@@H](C)C(=O)C[C@@H](C(C)C)C(=O)C1
REMARK SMILES IDX 8 1 9 2 6 3 7 4 5 5 4 6 3 7 2 8 1 9 10 11 11 12 15 13 16 14
REMARK SMILES IDX 17 15 12 17 13 18 14 19
REMARK H PARENT
REMARK Flexibility Score: 70.00
ROOT
ATOM      1  C   UNL     1      -7.177 -26.611  -2.806  1.00  0.00     0.136 C 
ATOM      2  O   UNL     1      -7.116 -25.443  -2.449  1.00  0.00    -0.299 OA
ENDROOT
BRANCH   1   3
ATOM      3  C   UNL     1      -5.904 -27.441  -2.806  1.00  0.00     0.053 C 
ATOM      4  C   UNL     1      -6.006 -28.520  -3.892  1.00  0.00     0.016 C 
BRANCH   3   5
ATOM      5  C   UNL     1      -5.591 -28.085  -1.429  1.00  0.00     0.015 C 
BRANCH   5   6
ATOM      6  C   UNL     1      -6.810 -28.394  -0.531  1.00  0.00     0.028 C 
BRANCH   6   7
ATOM      7  C   UNL     1      -7.382 -29.789  -0.622  1.00  0.00    -0.028 C 
ATOM      8  C   UNL     1      -8.693 -30.106  -0.722  1.00  0.00    -0.070 CG0
ATOM      9  C   UNL     1      -9.033 -31.539  -1.057  1.00  0.00     0.039 C 
ATOM     10  G   UNL     1      -9.815 -29.089  -0.576  1.00  0.00     0.000 G0
ENDBRANCH   6   7
ENDBRANCH   5   6
ENDBRANCH   3   5
ENDBRANCH   1   3
BRANCH   1  11
ATOM     11  C   UNL     1      -8.477 -27.144  -3.373  1.00  0.00     0.087 C 
BRANCH  11  12
ATOM     12  C   UNL     1      -9.671 -27.111  -2.382  1.00  0.00     0.066 C 
BRANCH  12  13
ATOM     13  C   UNL     1     -10.177 -28.471  -1.907  1.00  0.00     0.140 C 
ATOM     14  O   UNL     1     -10.910 -29.100  -2.656  1.00  0.00    -0.299 OA
BRANCH  13  15
ATOM     15  C   UNL     1      -9.821 -29.098  -0.573  1.00  0.00     0.106 CG0
ATOM     16  G   UNL     1      -8.706 -30.122  -0.727  1.00  0.00     0.000 G0
ENDBRANCH  13  15
ENDBRANCH  12  13
BRANCH  12  17
ATOM     17  C   UNL     1     -10.826 -26.221  -2.945  1.00  0.00    -0.006 C 
ATOM     18  C   UNL     1     -11.019 -24.911  -2.161  1.00  0.00     0.008 C 
ATOM     19  C   UNL     1     -10.645 -25.916  -4.441  1.00  0.00     0.008 C 
ENDBRANCH  12  17
ENDBRANCH  11  12
ENDBRANCH   1  11
TORSDOF 1
ENDMDL
MODEL 9
REMARK VINA RESULT:    -3.587      1.733      3.835
REMARK INTER + INTRA:          -5.678
REMARK INTER:                  -5.760
REMARK INTRA:                   0.082
REMARK UNBOUND:                -0.204
REMARK SMILES CC1=CCC[C@@H](C)C(=O)C[C@@H](C(C)C)C(=O)C1
REMARK SMILES IDX 8 1 9 2 6 3 7 4 5 5 4 6 3 7 2 8 1 9 10 11 11 12 15 13 16 14
REMARK SMILES IDX 17 15 12 17 13 18 14 19
REMARK H PARENT
REMARK Flexibility Score: 70.00
ROOT
ATOM      1  C   UNL     1       1.591 -21.050  -6.150  1.00  0.00     0.136 C 
ATOM      2  O   UNL     1       0.551 -21.683  -6.256  1.00  0.00    -0.299 OA
ENDROOT
BRANCH   1   3
ATOM      3  C   UNL     1       2.229 -20.479  -7.407  1.00  0.00     0.053 C 
ATOM      4  C   UNL     1       1.510 -21.046  -8.638  1.00  0.00     0.016 C 
BRANCH   3   5
ATOM      5  C   UNL     1       3.755 -20.748  -7.497  1.00  0.00     0.015 C 
BRANCH   5   6
ATOM      6  C   UNL     1       4.665 -19.500  -7.487  1.00  0.00     0.028 C 
BRANCH   6   7
ATOM      7  C   UNL     1       5.959 -19.611  -6.716  1.00  0.00    -0.028 C 
ATOM      8  C   UNL     1       6.152 -19.241  -5.430  1.00  0.00    -0.070 CG0
ATOM      9  C   UNL     1       7.444 -19.671  -4.774  1.00  0.00     0.039 C 
ATOM     10  G   UNL     1       5.119 -18.481  -4.612  1.00  0.00     0.000 G0
ENDBRANCH   6   7
ENDBRANCH   5   6
ENDBRANCH   3   5
ENDBRANCH   1   3
BRANCH   1  11
ATOM     11  C   UNL     1       2.282 -20.981  -4.804  1.00  0.00     0.087 C 
BRANCH  11  12
ATOM     12  C   UNL     1       2.686 -19.551  -4.361  1.00  0.00     0.066 C 
BRANCH  12  13
ATOM     13  C   UNL     1       4.139 -19.375  -3.924  1.00  0.00     0.140 C 
ATOM     14  O   UNL     1       4.530 -20.031  -2.971  1.00  0.00    -0.299 OA
BRANCH  13  15
ATOM     15  C   UNL     1       5.131 -18.452  -4.604  1.00  0.00     0.106 CG0
ATOM     16  G   UNL     1       6.146 -19.240  -5.419  1.00  0.00     0.000 G0
ENDBRANCH  13  15
ENDBRANCH  12  13
BRANCH  12  17
ATOM     17  C   UNL     1       1.685 -19.004  -3.292  1.00  0.00    -0.006 C 
ATOM     18  C   UNL     1       1.524 -17.474  -3.339  1.00  0.00     0.008 C 
ATOM     19  C   UNL     1       0.307 -19.680  -3.390  1.00  0.00     0.008 C 
ENDBRANCH  12  17
ENDBRANCH  11  12
ENDBRANCH   1  11
TORSDOF 1
ENDMDL
