MODEL 1
REMARK VINA RESULT:    -5.755      0.000      0.000
REMARK INTER + INTRA:          -7.224
REMARK INTER:                  -6.933
REMARK INTRA:                  -0.291
REMARK UNBOUND:                -0.291
REMARK SMILES O=c1c(O)c(-c2ccc(O)c(O)c2)oc2cc(O)cc(O)c12
REMARK SMILES IDX 5 1 3 2 2 3 1 4 22 5 20 6 19 7 17 8 16 9 15 10 14 11 6 12
REMARK SMILES IDX 7 13 8 14 9 15 13 16 11 17 10 18 12 20 4 22 21 24 18 26
REMARK H PARENT 10 19 12 21 4 23 21 25 18 27
REMARK Flexibility Score: inf
ROOT
ATOM      1  C   UNL     1      -5.019  -9.542   8.420  1.00  0.00     0.180 A 
ATOM      2  C   UNL     1      -4.475  -8.772   9.463  1.00  0.00     0.208 A 
ATOM      3  C   UNL     1      -3.081  -8.641   9.558  1.00  0.00     0.238 A 
ATOM      4  O   UNL     1      -2.602  -7.908  10.463  1.00  0.00    -0.285 OA
ATOM      5  C   UNL     1      -2.246  -9.295   8.620  1.00  0.00     0.111 A 
ATOM      6  C   UNL     1      -0.819  -9.264   8.644  1.00  0.00     0.134 A 
ATOM      7  C   UNL     1      -0.098  -9.837   7.590  1.00  0.00     0.093 A 
ATOM      8  C   UNL     1      -0.751 -10.497   6.545  1.00  0.00     0.123 A 
ATOM      9  C   UNL     1      -2.140 -10.583   6.543  1.00  0.00     0.094 A 
ATOM     10  C   UNL     1      -2.889  -9.989   7.563  1.00  0.00     0.146 A 
ATOM     11  O   UNL     1      -4.212 -10.087   7.516  1.00  0.00    -0.452 OA
ENDROOT
BRANCH   1  12
ATOM     12  C   UNL     1      -6.477  -9.745   8.268  1.00  0.00     0.025 A 
ATOM     13  C   UNL     1      -7.093 -10.945   8.667  1.00  0.00     0.016 A 
ATOM     14  C   UNL     1      -8.468 -11.125   8.492  1.00  0.00     0.051 A 
ATOM     15  C   UNL     1      -9.244 -10.118   7.903  1.00  0.00     0.157 A 
ATOM     16  C   UNL     1      -7.256  -8.747   7.660  1.00  0.00     0.062 A 
ATOM     17  C   UNL     1      -8.633  -8.924   7.482  1.00  0.00     0.158 A 
BRANCH  15  18
ATOM     18  O   UNL     1     -10.615 -10.300   7.731  1.00  0.00    -0.504 OA
ATOM     19  H   UNL     1     -11.069 -11.172   7.974  1.00  0.00     0.293 HD
ENDBRANCH  15  18
BRANCH  17  20
ATOM     20  O   UNL     1      -9.376  -7.906   6.888  1.00  0.00    -0.504 OA
ATOM     21  H   UNL     1      -9.591  -7.902   5.898  1.00  0.00     0.293 HD
ENDBRANCH  17  20
ENDBRANCH   1  12
BRANCH   2  22
ATOM     22  O   UNL     1      -5.318  -8.119  10.367  1.00  0.00    -0.502 OA
ATOM     23  H   UNL     1      -6.078  -8.591  10.842  1.00  0.00     0.293 HD
ENDBRANCH   2  22
BRANCH   6  24
ATOM     24  O   UNL     1      -0.068  -8.712   9.687  1.00  0.00    -0.507 OA
ATOM     25  H   UNL     1       0.820  -8.248   9.572  1.00  0.00     0.293 HD
ENDBRANCH   6  24
BRANCH   8  26
ATOM     26  O   UNL     1      -0.023 -11.079   5.509  1.00  0.00    -0.508 OA
ATOM     27  H   UNL     1      -0.474 -11.401   4.661  1.00  0.00     0.293 HD
ENDBRANCH   8  26
TORSDOF 6
ENDMDL
MODEL 2
REMARK VINA RESULT:    -5.640      1.246      2.814
REMARK INTER + INTRA:          -7.086
REMARK INTER:                  -6.798
REMARK INTRA:                  -0.288
REMARK UNBOUND:                -0.291
REMARK SMILES O=c1c(O)c(-c2ccc(O)c(O)c2)oc2cc(O)cc(O)c12
REMARK SMILES IDX 5 1 3 2 2 3 1 4 22 5 20 6 19 7 17 8 16 9 15 10 14 11 6 12
REMARK SMILES IDX 7 13 8 14 9 15 13 16 11 17 10 18 12 20 4 22 21 24 18 26
REMARK H PARENT 10 19 12 21 4 23 21 25 18 27
REMARK Flexibility Score: inf
ROOT
ATOM      1  C   UNL     1      -5.072  -9.583   8.118  1.00  0.00     0.180 A 
ATOM      2  C   UNL     1      -4.476 -10.360   7.110  1.00  0.00     0.208 A 
ATOM      3  C   UNL     1      -3.076 -10.386   7.008  1.00  0.00     0.238 A 
ATOM      4  O   UNL     1      -2.547 -11.125   6.136  1.00  0.00    -0.285 OA
ATOM      5  C   UNL     1      -2.290  -9.623   7.904  1.00  0.00     0.111 A 
ATOM      6  C   UNL     1      -0.865  -9.543   7.867  1.00  0.00     0.134 A 
ATOM      7  C   UNL     1      -0.185  -8.863   8.884  1.00  0.00     0.093 A 
ATOM      8  C   UNL     1      -0.881  -8.204   9.901  1.00  0.00     0.123 A 
ATOM      9  C   UNL     1      -2.273  -8.226   9.913  1.00  0.00     0.094 A 
ATOM     10  C   UNL     1      -2.979  -8.928   8.931  1.00  0.00     0.146 A 
ATOM     11  O   UNL     1      -4.306  -8.931   8.986  1.00  0.00    -0.452 OA
ENDROOT
BRANCH   1  12
ATOM     12  C   UNL     1      -6.541  -9.486   8.274  1.00  0.00     0.025 A 
ATOM     13  C   UNL     1      -7.226 -10.246   9.240  1.00  0.00     0.016 A 
ATOM     14  C   UNL     1      -8.615 -10.157   9.353  1.00  0.00     0.051 A 
ATOM     15  C   UNL     1      -9.343  -9.320   8.495  1.00  0.00     0.157 A 
ATOM     16  C   UNL     1      -7.276  -8.665   7.404  1.00  0.00     0.062 A 
ATOM     17  C   UNL     1      -8.669  -8.574   7.514  1.00  0.00     0.158 A 
BRANCH  15  18
ATOM     18  O   UNL     1     -10.729  -9.232   8.612  1.00  0.00    -0.504 OA
ATOM     19  H   UNL     1     -11.204  -8.338   8.636  1.00  0.00     0.293 HD
ENDBRANCH  15  18
BRANCH  17  20
ATOM     20  O   UNL     1      -9.364  -7.737   6.642  1.00  0.00    -0.504 OA
ATOM     21  H   UNL     1      -9.747  -6.848   6.938  1.00  0.00     0.293 HD
ENDBRANCH  17  20
ENDBRANCH   1  12
BRANCH   2  22
ATOM     22  O   UNL     1      -5.270 -11.122   6.248  1.00  0.00    -0.502 OA
ATOM     23  H   UNL     1      -5.784 -10.713   5.477  1.00  0.00     0.293 HD
ENDBRANCH   2  22
BRANCH   6  24
ATOM     24  O   UNL     1      -0.079 -10.087   6.846  1.00  0.00    -0.507 OA
ATOM     25  H   UNL     1      -0.203  -9.897   5.863  1.00  0.00     0.293 HD
ENDBRANCH   6  24
BRANCH   8  26
ATOM     26  O   UNL     1      -0.196  -7.515  10.900  1.00  0.00    -0.508 OA
ATOM     27  H   UNL     1      -0.686  -7.000  11.621  1.00  0.00     0.293 HD
ENDBRANCH   8  26
TORSDOF 6
ENDMDL
MODEL 3
REMARK VINA RESULT:    -5.573      2.667      7.515
REMARK INTER + INTRA:          -7.004
REMARK INTER:                  -6.727
REMARK INTRA:                  -0.277
REMARK UNBOUND:                -0.291
REMARK SMILES O=c1c(O)c(-c2ccc(O)c(O)c2)oc2cc(O)cc(O)c12
REMARK SMILES IDX 5 1 3 2 2 3 1 4 22 5 20 6 19 7 17 8 16 9 15 10 14 11 6 12
REMARK SMILES IDX 7 13 8 14 9 15 13 16 11 17 10 18 12 20 4 22 21 24 18 26
REMARK H PARENT 10 19 12 21 4 23 21 25 18 27
REMARK Flexibility Score: inf
ROOT
ATOM      1  C   UNL     1      -5.888  -8.620   9.425  1.00  0.00     0.180 A 
ATOM      2  C   UNL     1      -6.062  -9.495   8.338  1.00  0.00     0.208 A 
ATOM      3  C   UNL     1      -7.360  -9.913   8.002  1.00  0.00     0.238 A 
ATOM      4  O   UNL     1      -7.515 -10.654   6.996  1.00  0.00    -0.285 OA
ATOM      5  C   UNL     1      -8.464  -9.465   8.767  1.00  0.00     0.111 A 
ATOM      6  C   UNL     1      -9.818  -9.857   8.541  1.00  0.00     0.134 A 
ATOM      7  C   UNL     1     -10.844  -9.250   9.274  1.00  0.00     0.093 A 
ATOM      8  C   UNL     1     -10.560  -8.312  10.271  1.00  0.00     0.123 A 
ATOM      9  C   UNL     1      -9.238  -7.968  10.539  1.00  0.00     0.094 A 
ATOM     10  C   UNL     1      -8.195  -8.530   9.798  1.00  0.00     0.146 A 
ATOM     11  O   UNL     1      -6.949  -8.166  10.080  1.00  0.00    -0.452 OA
ENDROOT
BRANCH   1  12
ATOM     12  C   UNL     1      -4.550  -8.155   9.854  1.00  0.00     0.025 A 
ATOM     13  C   UNL     1      -3.667  -9.003  10.546  1.00  0.00     0.016 A 
ATOM     14  C   UNL     1      -2.418  -8.535  10.963  1.00  0.00     0.051 A 
ATOM     15  C   UNL     1      -2.039  -7.210  10.709  1.00  0.00     0.157 A 
ATOM     16  C   UNL     1      -4.172  -6.822   9.620  1.00  0.00     0.062 A 
ATOM     17  C   UNL     1      -2.923  -6.349  10.037  1.00  0.00     0.158 A 
BRANCH  15  18
ATOM     18  O   UNL     1      -0.792  -6.747  11.125  1.00  0.00    -0.504 OA
ATOM     19  H   UNL     1       0.020  -7.352  11.145  1.00  0.00     0.293 HD
ENDBRANCH  15  18
BRANCH  17  20
ATOM     20  O   UNL     1      -2.578  -5.024   9.775  1.00  0.00    -0.504 OA
ATOM     21  H   UNL     1      -2.611  -4.633   8.841  1.00  0.00     0.293 HD
ENDBRANCH  17  20
ENDBRANCH   1  12
BRANCH   2  22
ATOM     22  O   UNL     1      -4.961  -9.909   7.585  1.00  0.00    -0.502 OA
ATOM     23  H   UNL     1      -4.875  -9.716   6.594  1.00  0.00     0.293 HD
ENDBRANCH   2  22
BRANCH   6  24
ATOM     24  O   UNL     1     -10.203 -10.851   7.635  1.00  0.00    -0.507 OA
ATOM     25  H   UNL     1      -9.948 -10.868   6.659  1.00  0.00     0.293 HD
ENDBRANCH   6  24
BRANCH   8  26
ATOM     26  O   UNL     1     -11.587  -7.725  11.008  1.00  0.00    -0.508 OA
ATOM     27  H   UNL     1     -12.464  -7.460  10.576  1.00  0.00     0.293 HD
ENDBRANCH   8  26
TORSDOF 6
ENDMDL
MODEL 4
REMARK VINA RESULT:    -5.305      2.450      3.291
REMARK INTER + INTRA:          -6.682
REMARK INTER:                  -6.373
REMARK INTRA:                  -0.309
REMARK UNBOUND:                -0.291
REMARK SMILES O=c1c(O)c(-c2ccc(O)c(O)c2)oc2cc(O)cc(O)c12
REMARK SMILES IDX 5 1 3 2 2 3 1 4 22 5 20 6 19 7 17 8 16 9 15 10 14 11 6 12
REMARK SMILES IDX 7 13 8 14 9 15 13 16 11 17 10 18 12 20 4 22 21 24 18 26
REMARK H PARENT 10 19 12 21 4 23 21 25 18 27
REMARK Flexibility Score: inf
ROOT
ATOM      1  C   UNL     1      -6.374  -8.770   9.545  1.00  0.00     0.180 A 
ATOM      2  C   UNL     1      -5.750  -9.971   9.925  1.00  0.00     0.208 A 
ATOM      3  C   UNL     1      -4.362  -9.982  10.131  1.00  0.00     0.238 A 
ATOM      4  O   UNL     1      -3.817 -11.047  10.521  1.00  0.00    -0.285 OA
ATOM      5  C   UNL     1      -3.612  -8.797   9.938  1.00  0.00     0.111 A 
ATOM      6  C   UNL     1      -2.194  -8.703  10.080  1.00  0.00     0.134 A 
ATOM      7  C   UNL     1      -1.574  -7.451   9.995  1.00  0.00     0.093 A 
ATOM      8  C   UNL     1      -2.311  -6.299   9.708  1.00  0.00     0.123 A 
ATOM      9  C   UNL     1      -3.686  -6.389   9.510  1.00  0.00     0.094 A 
ATOM     10  C   UNL     1      -4.339  -7.620   9.625  1.00  0.00     0.146 A 
ATOM     11  O   UNL     1      -5.653  -7.660   9.438  1.00  0.00    -0.452 OA
ENDROOT
BRANCH   1  12
ATOM     12  C   UNL     1      -7.829  -8.685   9.287  1.00  0.00     0.025 A 
ATOM     13  C   UNL     1      -8.750  -8.513  10.337  1.00  0.00     0.016 A 
ATOM     14  C   UNL     1     -10.121  -8.459  10.072  1.00  0.00     0.051 A 
ATOM     15  C   UNL     1     -10.594  -8.592   8.760  1.00  0.00     0.157 A 
ATOM     16  C   UNL     1      -8.310  -8.837   7.976  1.00  0.00     0.062 A 
ATOM     17  C   UNL     1      -9.682  -8.785   7.708  1.00  0.00     0.158 A 
BRANCH  15  18
ATOM     18  O   UNL     1     -11.962  -8.537   8.499  1.00  0.00    -0.504 OA
ATOM     19  H   UNL     1     -12.410  -7.681   8.194  1.00  0.00     0.293 HD
ENDBRANCH  15  18
BRANCH  17  20
ATOM     20  O   UNL     1     -10.121  -8.927   6.392  1.00  0.00    -0.504 OA
ATOM     21  H   UNL     1     -10.097  -8.160   5.731  1.00  0.00     0.293 HD
ENDBRANCH  17  20
ENDBRANCH   1  12
BRANCH   2  22
ATOM     22  O   UNL     1      -6.512 -11.125  10.128  1.00  0.00    -0.502 OA
ATOM     23  H   UNL     1      -6.161 -12.053   9.924  1.00  0.00     0.293 HD
ENDBRANCH   2  22
BRANCH   6  24
ATOM     24  O   UNL     1      -1.354  -9.804  10.275  1.00  0.00    -0.507 OA
ATOM     25  H   UNL     1      -1.332 -10.368  11.111  1.00  0.00     0.293 HD
ENDBRANCH   6  24
BRANCH   8  26
ATOM     26  O   UNL     1      -1.682  -5.059   9.609  1.00  0.00    -0.508 OA
ATOM     27  H   UNL     1      -1.541  -4.470  10.421  1.00  0.00     0.293 HD
ENDBRANCH   8  26
TORSDOF 6
ENDMDL
MODEL 5
REMARK VINA RESULT:    -5.247      2.225      7.003
REMARK INTER + INTRA:          -6.612
REMARK INTER:                  -6.456
REMARK INTRA:                  -0.156
REMARK UNBOUND:                -0.291
REMARK SMILES O=c1c(O)c(-c2ccc(O)c(O)c2)oc2cc(O)cc(O)c12
REMARK SMILES IDX 5 1 3 2 2 3 1 4 22 5 20 6 19 7 17 8 16 9 15 10 14 11 6 12
REMARK SMILES IDX 7 13 8 14 9 15 13 16 11 17 10 18 12 20 4 22 21 24 18 26
REMARK H PARENT 10 19 12 21 4 23 21 25 18 27
REMARK Flexibility Score: inf
ROOT
ATOM      1  C   UNL     1      -5.037  -8.179   9.311  1.00  0.00     0.180 A 
ATOM      2  C   UNL     1      -5.241  -9.225  10.227  1.00  0.00     0.208 A 
ATOM      3  C   UNL     1      -6.456  -9.928  10.200  1.00  0.00     0.238 A 
ATOM      4  O   UNL     1      -6.611 -10.898  10.987  1.00  0.00    -0.285 OA
ATOM      5  C   UNL     1      -7.458  -9.566   9.268  1.00  0.00     0.111 A 
ATOM      6  C   UNL     1      -8.743 -10.183   9.178  1.00  0.00     0.134 A 
ATOM      7  C   UNL     1      -9.605  -9.833   8.133  1.00  0.00     0.093 A 
ATOM      8  C   UNL     1      -9.257  -8.840   7.213  1.00  0.00     0.123 A 
ATOM      9  C   UNL     1      -8.031  -8.191   7.327  1.00  0.00     0.094 A 
ATOM     10  C   UNL     1      -7.133  -8.545   8.339  1.00  0.00     0.146 A 
ATOM     11  O   UNL     1      -5.970  -7.907   8.406  1.00  0.00    -0.452 OA
ENDROOT
BRANCH   1  12
ATOM     12  C   UNL     1      -3.793  -7.377   9.294  1.00  0.00     0.025 A 
ATOM     13  C   UNL     1      -3.808  -5.999   9.575  1.00  0.00     0.016 A 
ATOM     14  C   UNL     1      -2.624  -5.257   9.530  1.00  0.00     0.051 A 
ATOM     15  C   UNL     1      -1.414  -5.875   9.190  1.00  0.00     0.157 A 
ATOM     16  C   UNL     1      -2.581  -7.987   8.934  1.00  0.00     0.062 A 
ATOM     17  C   UNL     1      -1.394  -7.247   8.887  1.00  0.00     0.158 A 
BRANCH  15  18
ATOM     18  O   UNL     1      -0.235  -5.132   9.147  1.00  0.00    -0.504 OA
ATOM     19  H   UNL     1       0.159  -4.812   8.271  1.00  0.00     0.293 HD
ENDBRANCH  15  18
BRANCH  17  20
ATOM     20  O   UNL     1      -0.207  -7.890   8.539  1.00  0.00    -0.504 OA
ATOM     21  H   UNL     1       0.666  -7.389   8.433  1.00  0.00     0.293 HD
ENDBRANCH  17  20
ENDBRANCH   1  12
BRANCH   2  22
ATOM     22  O   UNL     1      -4.230  -9.580  11.125  1.00  0.00    -0.502 OA
ATOM     23  H   UNL     1      -4.307 -10.378  11.744  1.00  0.00     0.293 HD
ENDBRANCH   2  22
BRANCH   6  24
ATOM     24  O   UNL     1      -9.226 -11.118  10.099  1.00  0.00    -0.507 OA
ATOM     25  H   UNL     1      -9.366 -12.098   9.904  1.00  0.00     0.293 HD
ENDBRANCH   6  24
BRANCH   8  26
ATOM     26  O   UNL     1     -10.129  -8.486   6.185  1.00  0.00    -0.508 OA
ATOM     27  H   UNL     1      -9.791  -8.097   5.313  1.00  0.00     0.293 HD
ENDBRANCH   8  26
TORSDOF 6
ENDMDL
MODEL 6
REMARK VINA RESULT:    -5.083      1.457      1.751
REMARK INTER + INTRA:          -6.414
REMARK INTER:                  -6.165
REMARK INTRA:                  -0.250
REMARK UNBOUND:                -0.291
REMARK SMILES O=c1c(O)c(-c2ccc(O)c(O)c2)oc2cc(O)cc(O)c12
REMARK SMILES IDX 5 1 3 2 2 3 1 4 22 5 20 6 19 7 17 8 16 9 15 10 14 11 6 12
REMARK SMILES IDX 7 13 8 14 9 15 13 16 11 17 10 18 12 20 4 22 21 24 18 26
REMARK H PARENT 10 19 12 21 4 23 21 25 18 27
REMARK Flexibility Score: inf
ROOT
ATOM      1  C   UNL     1      -3.979  -8.923   8.977  1.00  0.00     0.180 A 
ATOM      2  C   UNL     1      -3.762  -7.709   9.651  1.00  0.00     0.208 A 
ATOM      3  C   UNL     1      -2.446  -7.253   9.828  1.00  0.00     0.238 A 
ATOM      4  O   UNL     1      -2.260  -6.140  10.385  1.00  0.00    -0.285 OA
ATOM      5  C   UNL     1      -1.362  -8.025   9.342  1.00  0.00     0.111 A 
ATOM      6  C   UNL     1       0.014  -7.679   9.501  1.00  0.00     0.134 A 
ATOM      7  C   UNL     1       0.996  -8.449   8.866  1.00  0.00     0.093 A 
ATOM      8  C   UNL     1       0.656  -9.589   8.133  1.00  0.00     0.123 A 
ATOM      9  C   UNL     1      -0.679  -9.968   8.022  1.00  0.00     0.094 A 
ATOM     10  C   UNL     1      -1.685  -9.199   8.614  1.00  0.00     0.146 A 
ATOM     11  O   UNL     1      -2.946  -9.590   8.476  1.00  0.00    -0.452 OA
ENDROOT
BRANCH   1  12
ATOM     12  C   UNL     1      -5.335  -9.480   8.774  1.00  0.00     0.025 A 
ATOM     13  C   UNL     1      -5.781 -10.602   9.495  1.00  0.00     0.016 A 
ATOM     14  C   UNL     1      -7.057 -11.125   9.269  1.00  0.00     0.051 A 
ATOM     15  C   UNL     1      -7.900 -10.546   8.311  1.00  0.00     0.157 A 
ATOM     16  C   UNL     1      -6.176  -8.916   7.800  1.00  0.00     0.062 A 
ATOM     17  C   UNL     1      -7.454  -9.438   7.571  1.00  0.00     0.158 A 
BRANCH  15  18
ATOM     18  O   UNL     1      -9.172 -11.070   8.089  1.00  0.00    -0.504 OA
ATOM     19  H   UNL     1      -9.540 -11.827   8.653  1.00  0.00     0.293 HD
ENDBRANCH  15  18
BRANCH  17  20
ATOM     20  O   UNL     1      -8.266  -8.844   6.606  1.00  0.00    -0.504 OA
ATOM     21  H   UNL     1      -7.886  -8.297   5.844  1.00  0.00     0.293 HD
ENDBRANCH  17  20
ENDBRANCH   1  12
BRANCH   2  22
ATOM     22  O   UNL     1      -4.846  -6.953  10.104  1.00  0.00    -0.502 OA
ATOM     23  H   UNL     1      -5.657  -7.372  10.543  1.00  0.00     0.293 HD
ENDBRANCH   2  22
BRANCH   6  24
ATOM     24  O   UNL     1       0.466  -6.615  10.287  1.00  0.00    -0.507 OA
ATOM     25  H   UNL     1       0.849  -6.710  11.216  1.00  0.00     0.293 HD
ENDBRANCH   6  24
BRANCH   8  26
ATOM     26  O   UNL     1       1.642 -10.358   7.518  1.00  0.00    -0.508 OA
ATOM     27  H   UNL     1       2.599 -10.358   7.851  1.00  0.00     0.293 HD
ENDBRANCH   8  26
TORSDOF 6
ENDMDL
MODEL 7
REMARK VINA RESULT:    -5.068      2.321      3.434
REMARK INTER + INTRA:          -6.396
REMARK INTER:                  -6.083
REMARK INTRA:                  -0.313
REMARK UNBOUND:                -0.291
REMARK SMILES O=c1c(O)c(-c2ccc(O)c(O)c2)oc2cc(O)cc(O)c12
REMARK SMILES IDX 5 1 3 2 2 3 1 4 22 5 20 6 19 7 17 8 16 9 15 10 14 11 6 12
REMARK SMILES IDX 7 13 8 14 9 15 13 16 11 17 10 18 12 20 4 22 21 24 18 26
REMARK H PARENT 10 19 12 21 4 23 21 25 18 27
REMARK Flexibility Score: inf
ROOT
ATOM      1  C   UNL     1      -3.145  -8.893   9.235  1.00  0.00     0.180 A 
ATOM      2  C   UNL     1      -2.410  -9.773  10.047  1.00  0.00     0.208 A 
ATOM      3  C   UNL     1      -1.068  -9.478  10.333  1.00  0.00     0.238 A 
ATOM      4  O   UNL     1      -0.431 -10.243  11.105  1.00  0.00    -0.285 OA
ATOM      5  C   UNL     1      -0.472  -8.315   9.790  1.00  0.00     0.111 A 
ATOM      6  C   UNL     1       0.892  -7.938   9.981  1.00  0.00     0.134 A 
ATOM      7  C   UNL     1       1.339  -6.699   9.506  1.00  0.00     0.093 A 
ATOM      8  C   UNL     1       0.489  -5.852   8.790  1.00  0.00     0.123 A 
ATOM      9  C   UNL     1      -0.827  -6.237   8.547  1.00  0.00     0.094 A 
ATOM     10  C   UNL     1      -1.312  -7.452   9.040  1.00  0.00     0.146 A 
ATOM     11  O   UNL     1      -2.577  -7.776   8.795  1.00  0.00    -0.452 OA
ENDROOT
BRANCH   1  12
ATOM     12  C   UNL     1      -4.556  -9.148   8.870  1.00  0.00     0.025 A 
ATOM     13  C   UNL     1      -5.616  -8.599   9.614  1.00  0.00     0.016 A 
ATOM     14  C   UNL     1      -6.941  -8.873   9.266  1.00  0.00     0.051 A 
ATOM     15  C   UNL     1      -7.228  -9.711   8.180  1.00  0.00     0.157 A 
ATOM     16  C   UNL     1      -4.849 -10.004   7.795  1.00  0.00     0.062 A 
ATOM     17  C   UNL     1      -6.175 -10.282   7.444  1.00  0.00     0.158 A 
BRANCH  15  18
ATOM     18  O   UNL     1      -8.550  -9.982   7.834  1.00  0.00    -0.504 OA
ATOM     19  H   UNL     1      -8.866  -9.946   6.872  1.00  0.00     0.293 HD
ENDBRANCH  15  18
BRANCH  17  20
ATOM     20  O   UNL     1      -6.428 -11.124   6.362  1.00  0.00    -0.504 OA
ATOM     21  H   UNL     1      -7.238 -11.730   6.328  1.00  0.00     0.293 HD
ENDBRANCH  17  20
ENDBRANCH   1  12
BRANCH   2  22
ATOM     22  O   UNL     1      -3.024 -10.906  10.590  1.00  0.00    -0.502 OA
ATOM     23  H   UNL     1      -3.270 -10.975  11.570  1.00  0.00     0.293 HD
ENDBRANCH   2  22
BRANCH   6  24
ATOM     24  O   UNL     1       1.847  -8.750  10.601  1.00  0.00    -0.507 OA
ATOM     25  H   UNL     1       2.558  -9.275  10.113  1.00  0.00     0.293 HD
ENDBRANCH   6  24
BRANCH   8  26
ATOM     26  O   UNL     1       0.947  -4.629   8.307  1.00  0.00    -0.508 OA
ATOM     27  H   UNL     1       1.918  -4.488   8.055  1.00  0.00     0.293 HD
ENDBRANCH   8  26
TORSDOF 6
ENDMDL
MODEL 8
REMARK VINA RESULT:    -5.060      3.506      6.115
REMARK INTER + INTRA:          -6.386
REMARK INTER:                  -6.064
REMARK INTRA:                  -0.322
REMARK UNBOUND:                -0.291
REMARK SMILES O=c1c(O)c(-c2ccc(O)c(O)c2)oc2cc(O)cc(O)c12
REMARK SMILES IDX 5 1 3 2 2 3 1 4 22 5 20 6 19 7 17 8 16 9 15 10 14 11 6 12
REMARK SMILES IDX 7 13 8 14 9 15 13 16 11 17 10 18 12 20 4 22 21 24 18 26
REMARK H PARENT 10 19 12 21 4 23 21 25 18 27
REMARK Flexibility Score: inf
ROOT
ATOM      1  C   UNL     1      -0.114  -8.196   8.892  1.00  0.00     0.180 A 
ATOM      2  C   UNL     1       0.778  -8.789   9.801  1.00  0.00     0.208 A 
ATOM      3  C   UNL     1       1.871  -8.042  10.270  1.00  0.00     0.238 A 
ATOM      4  O   UNL     1       2.636  -8.559  11.125  1.00  0.00    -0.285 OA
ATOM      5  C   UNL     1       2.066  -6.717   9.811  1.00  0.00     0.111 A 
ATOM      6  C   UNL     1       3.161  -5.881  10.188  1.00  0.00     0.134 A 
ATOM      7  C   UNL     1       3.183  -4.544   9.776  1.00  0.00     0.093 A 
ATOM      8  C   UNL     1       2.183  -4.029   8.945  1.00  0.00     0.123 A 
ATOM      9  C   UNL     1       1.143  -4.852   8.524  1.00  0.00     0.094 A 
ATOM     10  C   UNL     1       1.074  -6.182   8.949  1.00  0.00     0.146 A 
ATOM     11  O   UNL     1       0.059  -6.929   8.531  1.00  0.00    -0.452 OA
ENDROOT
BRANCH   1  12
ATOM     12  C   UNL     1      -1.274  -8.928   8.335  1.00  0.00     0.025 A 
ATOM     13  C   UNL     1      -2.514  -8.947   8.999  1.00  0.00     0.016 A 
ATOM     14  C   UNL     1      -3.588  -9.665   8.467  1.00  0.00     0.051 A 
ATOM     15  C   UNL     1      -3.438 -10.384   7.274  1.00  0.00     0.157 A 
ATOM     16  C   UNL     1      -1.123  -9.666   7.150  1.00  0.00     0.062 A 
ATOM     17  C   UNL     1      -2.197 -10.387   6.615  1.00  0.00     0.158 A 
BRANCH  15  18
ATOM     18  O   UNL     1      -4.512 -11.097   6.746  1.00  0.00    -0.504 OA
ATOM     19  H   UNL     1      -5.430 -10.679   6.647  1.00  0.00     0.293 HD
ENDBRANCH  15  18
BRANCH  17  20
ATOM     20  O   UNL     1      -2.013 -11.097   5.430  1.00  0.00    -0.504 OA
ATOM     21  H   UNL     1      -2.176 -10.681   4.521  1.00  0.00     0.293 HD
ENDBRANCH  17  20
ENDBRANCH   1  12
BRANCH   2  22
ATOM     22  O   UNL     1       0.555 -10.091  10.257  1.00  0.00    -0.502 OA
ATOM     23  H   UNL     1      -0.307 -10.369  10.712  1.00  0.00     0.293 HD
ENDBRANCH   2  22
BRANCH   6  24
ATOM     24  O   UNL     1       4.257  -6.322  10.937  1.00  0.00    -0.507 OA
ATOM     25  H   UNL     1       4.788  -7.157  10.742  1.00  0.00     0.293 HD
ENDBRANCH   6  24
BRANCH   8  26
ATOM     26  O   UNL     1       2.222  -2.701   8.526  1.00  0.00    -0.508 OA
ATOM     27  H   UNL     1       2.101  -1.935   9.179  1.00  0.00     0.293 HD
ENDBRANCH   8  26
TORSDOF 6
ENDMDL
MODEL 9
REMARK VINA RESULT:    -4.986      2.616      4.311
REMARK INTER + INTRA:          -6.297
REMARK INTER:                  -5.971
REMARK INTRA:                  -0.326
REMARK UNBOUND:                -0.291
REMARK SMILES O=c1c(O)c(-c2ccc(O)c(O)c2)oc2cc(O)cc(O)c12
REMARK SMILES IDX 5 1 3 2 2 3 1 4 22 5 20 6 19 7 17 8 16 9 15 10 14 11 6 12
REMARK SMILES IDX 7 13 8 14 9 15 13 16 11 17 10 18 12 20 4 22 21 24 18 26
REMARK H PARENT 10 19 12 21 4 23 21 25 18 27
REMARK Flexibility Score: inf
ROOT
ATOM      1  C   UNL     1      -1.764  -9.124   8.734  1.00  0.00     0.180 A 
ATOM      2  C   UNL     1      -0.957  -9.856   9.621  1.00  0.00     0.208 A 
ATOM      3  C   UNL     1       0.241  -9.286  10.083  1.00  0.00     0.238 A 
ATOM      4  O   UNL     1       0.932  -9.925  10.918  1.00  0.00    -0.285 OA
ATOM      5  C   UNL     1       0.624  -7.998   9.638  1.00  0.00     0.111 A 
ATOM      6  C   UNL     1       1.835  -7.340  10.010  1.00  0.00     0.134 A 
ATOM      7  C   UNL     1       2.049  -6.014   9.616  1.00  0.00     0.093 A 
ATOM      8  C   UNL     1       1.126  -5.344   8.808  1.00  0.00     0.123 A 
ATOM      9  C   UNL     1      -0.031  -5.997   8.392  1.00  0.00     0.094 A 
ATOM     10  C   UNL     1      -0.289  -7.309   8.800  1.00  0.00     0.146 A 
ATOM     11  O   UNL     1      -1.410  -7.891   8.388  1.00  0.00    -0.452 OA
ENDROOT
BRANCH   1  12
ATOM     12  C   UNL     1      -3.027  -9.667   8.186  1.00  0.00     0.025 A 
ATOM     13  C   UNL     1      -3.034 -10.505   7.056  1.00  0.00     0.016 A 
ATOM     14  C   UNL     1      -4.240 -10.986   6.542  1.00  0.00     0.051 A 
ATOM     15  C   UNL     1      -5.457 -10.627   7.137  1.00  0.00     0.157 A 
ATOM     16  C   UNL     1      -4.250  -9.294   8.766  1.00  0.00     0.062 A 
ATOM     17  C   UNL     1      -5.461  -9.774   8.253  1.00  0.00     0.158 A 
BRANCH  15  18
ATOM     18  O   UNL     1      -6.659 -11.111   6.622  1.00  0.00    -0.504 OA
ATOM     19  H   UNL     1      -6.688 -11.920   6.013  1.00  0.00     0.293 HD
ENDBRANCH  15  18
BRANCH  17  20
ATOM     20  O   UNL     1      -6.655  -9.393   8.865  1.00  0.00    -0.504 OA
ATOM     21  H   UNL     1      -6.943  -8.425   8.927  1.00  0.00     0.293 HD
ENDBRANCH  17  20
ENDBRANCH   1  12
BRANCH   2  22
ATOM     22  O   UNL     1      -1.364 -11.118  10.063  1.00  0.00    -0.502 OA
ATOM     23  H   UNL     1      -1.549 -11.321  11.038  1.00  0.00     0.293 HD
ENDBRANCH   2  22
BRANCH   6  24
ATOM     24  O   UNL     1       2.864  -7.949  10.735  1.00  0.00    -0.507 OA
ATOM     25  H   UNL     1       3.654  -7.462  11.131  1.00  0.00     0.293 HD
ENDBRANCH   6  24
BRANCH   8  26
ATOM     26  O   UNL     1       1.355  -4.029   8.407  1.00  0.00    -0.508 OA
ATOM     27  H   UNL     1       1.765  -3.814   7.506  1.00  0.00     0.293 HD
ENDBRANCH   8  26
TORSDOF 6
ENDMDL
