MODEL 1
REMARK VINA RESULT:     0.270      0.000      0.000
REMARK INTER + INTRA:          -1.533
REMARK INTER:                   0.617
REMARK INTRA:                  -2.150
REMARK UNBOUND:                -2.150
REMARK SMILES CCCCCCCCCCCCCCCCCCCCCCCC(=O)[O-]
REMARK SMILES IDX 13 1 14 2 15 3 16 4 17 5 18 6 19 7 20 8 21 9 22 10 23 11
REMARK SMILES IDX 24 12 25 13 26 14 12 15 11 16 10 17 9 18 8 19 7 20 6 21 5 22
REMARK SMILES IDX 4 23 3 24 2 25 1 26
REMARK H PARENT
REMARK Flexibility Score: inf
ROOT
ATOM      1  C   UNL     1       5.754 -34.689  24.695  1.00  0.00     0.000 C 
ENDROOT
BRANCH   1   2
ATOM      2  C   UNL     1       6.112 -35.857  25.626  1.00  0.00     0.000 C 
BRANCH   2   3
ATOM      3  C   UNL     1       4.991 -36.908  25.725  1.00  0.00     0.000 C 
BRANCH   3   4
ATOM      4  C   UNL     1       5.342 -38.276  25.096  1.00  0.00     0.000 C 
BRANCH   4   5
ATOM      5  C   UNL     1       5.909 -38.177  23.667  1.00  0.00     0.000 C 
BRANCH   5   6
ATOM      6  C   UNL     1       5.532 -39.345  22.737  1.00  0.00     0.000 C 
BRANCH   6   7
ATOM      7  C   UNL     1       5.673 -39.055  21.228  1.00  0.00     0.000 C 
BRANCH   7   8
ATOM      8  C   UNL     1       5.577 -37.570  20.836  1.00  0.00     0.000 C 
BRANCH   8   9
ATOM      9  C   UNL     1       4.790 -37.344  19.536  1.00  0.00     0.000 C 
BRANCH   9  10
ATOM     10  C   UNL     1       3.337 -36.957  19.837  1.00  0.00     0.006 C 
BRANCH  10  11
ATOM     11  C   UNL     1       2.405 -37.386  18.699  1.00  0.00     0.053 C 
BRANCH  11  12
ATOM     12  C   UNL     1       0.996 -36.952  18.969  1.00  0.00     0.041 C 
ATOM     13  O   UNL     1       0.126 -37.034  18.062  1.00  0.00    -0.550 OA
ATOM     14  O   UNL     1       0.632 -36.495  20.230  1.00  0.00    -0.550 OA
ENDBRANCH  11  12
ENDBRANCH  10  11
ENDBRANCH   9  10
ENDBRANCH   8   9
ENDBRANCH   7   8
ENDBRANCH   6   7
ENDBRANCH   5   6
ENDBRANCH   4   5
ENDBRANCH   3   4
ENDBRANCH   2   3
ENDBRANCH   1   2
BRANCH   1  15
ATOM     15  C   UNL     1       5.994 -35.067  23.224  1.00  0.00     0.000 C 
BRANCH  15  16
ATOM     16  C   UNL     1       4.729 -34.932  22.364  1.00  0.00     0.000 C 
BRANCH  16  17
ATOM     17  C   UNL     1       4.890 -33.910  21.226  1.00  0.00     0.000 C 
BRANCH  17  18
ATOM     18  C   UNL     1       6.123 -34.187  20.346  1.00  0.00    -0.000 C 
BRANCH  18  19
ATOM     19  C   UNL     1       5.889 -34.034  18.829  1.00  0.00    -0.000 C 
BRANCH  19  20
ATOM     20  C   UNL     1       4.410 -33.964  18.394  1.00  0.00    -0.000 C 
BRANCH  20  21
ATOM     21  C   UNL     1       4.178 -34.066  16.876  1.00  0.00    -0.000 C 
BRANCH  21  22
ATOM     22  C   UNL     1       4.047 -35.504  16.343  1.00  0.00    -0.000 C 
BRANCH  22  23
ATOM     23  C   UNL     1       2.816 -35.714  15.434  1.00  0.00    -0.000 C 
BRANCH  23  24
ATOM     24  C   UNL     1       3.206 -36.220  14.034  1.00  0.00    -0.000 C 
BRANCH  24  25
ATOM     25  C   UNL     1       4.612 -36.837  13.996  1.00  0.00    -0.003 C 
ATOM     26  C   UNL     1       4.593 -38.365  14.066  1.00  0.00     0.004 C 
ENDBRANCH  24  25
ENDBRANCH  23  24
ENDBRANCH  22  23
ENDBRANCH  21  22
ENDBRANCH  20  21
ENDBRANCH  19  20
ENDBRANCH  18  19
ENDBRANCH  17  18
ENDBRANCH  16  17
ENDBRANCH  15  16
ENDBRANCH   1  15
TORSDOF 22
ENDMDL
MODEL 2
REMARK VINA RESULT:     1.032      2.046      5.110
REMARK INTER + INTRA:           0.210
REMARK INTER:                   1.365
REMARK INTRA:                  -1.155
REMARK UNBOUND:                -2.150
REMARK SMILES CCCCCCCCCCCCCCCCCCCCCCCC(=O)[O-]
REMARK SMILES IDX 13 1 14 2 15 3 16 4 17 5 18 6 19 7 20 8 21 9 22 10 23 11
REMARK SMILES IDX 24 12 25 13 26 14 12 15 11 16 10 17 9 18 8 19 7 20 6 21 5 22
REMARK SMILES IDX 4 23 3 24 2 25 1 26
REMARK H PARENT
REMARK Flexibility Score: inf
ROOT
ATOM      1  C   UNL     1       4.843 -35.572  24.935  1.00  0.00     0.000 C 
ENDROOT
BRANCH   1   2
ATOM      2  C   UNL     1       6.054 -34.924  24.247  1.00  0.00     0.000 C 
BRANCH   2   3
ATOM      3  C   UNL     1       5.685 -34.212  22.933  1.00  0.00     0.000 C 
BRANCH   3   4
ATOM      4  C   UNL     1       6.124 -34.962  21.655  1.00  0.00     0.000 C 
BRANCH   4   5
ATOM      5  C   UNL     1       5.289 -34.611  20.409  1.00  0.00     0.000 C 
BRANCH   5   6
ATOM      6  C   UNL     1       5.932 -33.577  19.466  1.00  0.00     0.000 C 
BRANCH   6   7
ATOM      7  C   UNL     1       5.420 -33.605  18.011  1.00  0.00     0.000 C 
BRANCH   7   8
ATOM      8  C   UNL     1       4.491 -34.784  17.668  1.00  0.00     0.000 C 
BRANCH   8   9
ATOM      9  C   UNL     1       3.644 -34.531  16.412  1.00  0.00     0.000 C 
BRANCH   9  10
ATOM     10  C   UNL     1       2.900 -35.804  15.990  1.00  0.00     0.006 C 
BRANCH  10  11
ATOM     11  C   UNL     1       3.024 -36.041  14.481  1.00  0.00     0.053 C 
BRANCH  11  12
ATOM     12  C   UNL     1       4.313 -36.731  14.151  1.00  0.00     0.041 C 
ATOM     13  O   UNL     1       5.338 -36.054  13.875  1.00  0.00    -0.550 OA
ATOM     14  O   UNL     1       4.394 -38.118  14.185  1.00  0.00    -0.550 OA
ENDBRANCH  11  12
ENDBRANCH  10  11
ENDBRANCH   9  10
ENDBRANCH   8   9
ENDBRANCH   7   8
ENDBRANCH   6   7
ENDBRANCH   5   6
ENDBRANCH   4   5
ENDBRANCH   3   4
ENDBRANCH   2   3
ENDBRANCH   1   2
BRANCH   1  15
ATOM     15  C   UNL     1       5.275 -36.774  25.791  1.00  0.00     0.000 C 
BRANCH  15  16
ATOM     16  C   UNL     1       5.964 -37.872  24.967  1.00  0.00     0.000 C 
BRANCH  16  17
ATOM     17  C   UNL     1       4.980 -38.939  24.459  1.00  0.00     0.000 C 
BRANCH  17  18
ATOM     18  C   UNL     1       5.316 -39.433  23.040  1.00  0.00    -0.000 C 
BRANCH  18  19
ATOM     19  C   UNL     1       5.719 -38.326  22.044  1.00  0.00    -0.000 C 
BRANCH  19  20
ATOM     20  C   UNL     1       5.701 -38.739  20.558  1.00  0.00    -0.000 C 
BRANCH  20  21
ATOM     21  C   UNL     1       5.480 -37.580  19.569  1.00  0.00    -0.000 C 
BRANCH  21  22
ATOM     22  C   UNL     1       4.016 -37.376  19.138  1.00  0.00    -0.000 C 
BRANCH  22  23
ATOM     23  C   UNL     1       3.148 -36.685  20.213  1.00  0.00    -0.000 C 
BRANCH  23  24
ATOM     24  C   UNL     1       1.647 -36.950  20.007  1.00  0.00    -0.000 C 
BRANCH  24  25
ATOM     25  C   UNL     1       1.328 -37.504  18.611  1.00  0.00    -0.003 C 
ATOM     26  C   UNL     1       0.233 -36.715  17.892  1.00  0.00     0.004 C 
ENDBRANCH  24  25
ENDBRANCH  23  24
ENDBRANCH  22  23
ENDBRANCH  21  22
ENDBRANCH  20  21
ENDBRANCH  19  20
ENDBRANCH  18  19
ENDBRANCH  17  18
ENDBRANCH  16  17
ENDBRANCH  15  16
ENDBRANCH   1  15
TORSDOF 22
ENDMDL
MODEL 3
REMARK VINA RESULT:     1.480      1.913      3.906
REMARK INTER + INTRA:           1.232
REMARK INTER:                   3.037
REMARK INTRA:                  -1.804
REMARK UNBOUND:                -2.150
REMARK SMILES CCCCCCCCCCCCCCCCCCCCCCCC(=O)[O-]
REMARK SMILES IDX 13 1 14 2 15 3 16 4 17 5 18 6 19 7 20 8 21 9 22 10 23 11
REMARK SMILES IDX 24 12 25 13 26 14 12 15 11 16 10 17 9 18 8 19 7 20 6 21 5 22
REMARK SMILES IDX 4 23 3 24 2 25 1 26
REMARK H PARENT
REMARK Flexibility Score: inf
ROOT
ATOM      1  C   UNL     1       6.107 -38.595  22.566  1.00  0.00     0.000 C 
ENDROOT
BRANCH   1   2
ATOM      2  C   UNL     1       4.968 -38.903  23.550  1.00  0.00     0.000 C 
BRANCH   2   3
ATOM      3  C   UNL     1       5.449 -39.007  25.008  1.00  0.00     0.000 C 
BRANCH   3   4
ATOM      4  C   UNL     1       4.969 -37.858  25.923  1.00  0.00     0.000 C 
BRANCH   4   5
ATOM      5  C   UNL     1       5.756 -36.546  25.739  1.00  0.00     0.000 C 
BRANCH   5   6
ATOM      6  C   UNL     1       4.999 -35.434  24.990  1.00  0.00     0.000 C 
BRANCH   6   7
ATOM      7  C   UNL     1       5.884 -34.476  24.166  1.00  0.00     0.000 C 
BRANCH   7   8
ATOM      8  C   UNL     1       6.114 -34.894  22.702  1.00  0.00     0.000 C 
BRANCH   8   9
ATOM      9  C   UNL     1       4.838 -34.814  21.850  1.00  0.00     0.000 C 
BRANCH   9  10
ATOM     10  C   UNL     1       4.939 -33.681  20.821  1.00  0.00     0.006 C 
BRANCH  10  11
ATOM     11  C   UNL     1       6.101 -33.919  19.851  1.00  0.00     0.053 C 
BRANCH  11  12
ATOM     12  C   UNL     1       5.638 -33.830  18.428  1.00  0.00     0.041 C 
ATOM     13  O   UNL     1       5.849 -34.786  17.636  1.00  0.00    -0.550 OA
ATOM     14  O   UNL     1       4.943 -32.711  17.986  1.00  0.00    -0.550 OA
ENDBRANCH  11  12
ENDBRANCH  10  11
ENDBRANCH   9  10
ENDBRANCH   8   9
ENDBRANCH   7   8
ENDBRANCH   6   7
ENDBRANCH   5   6
ENDBRANCH   4   5
ENDBRANCH   3   4
ENDBRANCH   2   3
ENDBRANCH   1   2
BRANCH   1  15
ATOM     15  C   UNL     1       5.930 -39.380  21.257  1.00  0.00     0.000 C 
BRANCH  15  16
ATOM     16  C   UNL     1       5.943 -38.476  20.016  1.00  0.00     0.000 C 
BRANCH  16  17
ATOM     17  C   UNL     1       5.084 -37.213  20.192  1.00  0.00     0.000 C 
BRANCH  17  18
ATOM     18  C   UNL     1       4.145 -36.958  18.998  1.00  0.00    -0.000 C 
BRANCH  18  19
ATOM     19  C   UNL     1       2.758 -37.624  19.106  1.00  0.00    -0.000 C 
BRANCH  19  20
ATOM     20  C   UNL     1       1.584 -36.795  18.548  1.00  0.00    -0.000 C 
BRANCH  20  21
ATOM     21  C   UNL     1       1.594 -36.607  17.020  1.00  0.00    -0.000 C 
BRANCH  21  22
ATOM     22  C   UNL     1       2.127 -35.243  16.545  1.00  0.00    -0.000 C 
BRANCH  22  23
ATOM     23  C   UNL     1       3.238 -35.354  15.478  1.00  0.00    -0.000 C 
BRANCH  23  24
ATOM     24  C   UNL     1       3.924 -36.731  15.493  1.00  0.00    -0.000 C 
BRANCH  24  25
ATOM     25  C   UNL     1       4.166 -37.290  14.083  1.00  0.00    -0.003 C 
ATOM     26  C   UNL     1       4.906 -38.628  14.092  1.00  0.00     0.004 C 
ENDBRANCH  24  25
ENDBRANCH  23  24
ENDBRANCH  22  23
ENDBRANCH  21  22
ENDBRANCH  20  21
ENDBRANCH  19  20
ENDBRANCH  18  19
ENDBRANCH  17  18
ENDBRANCH  16  17
ENDBRANCH  15  16
ENDBRANCH   1  15
TORSDOF 22
ENDMDL
MODEL 4
REMARK VINA RESULT:     2.251      1.384      6.141
REMARK INTER + INTRA:           2.996
REMARK INTER:                   4.817
REMARK INTRA:                  -1.821
REMARK UNBOUND:                -2.150
REMARK SMILES CCCCCCCCCCCCCCCCCCCCCCCC(=O)[O-]
REMARK SMILES IDX 13 1 14 2 15 3 16 4 17 5 18 6 19 7 20 8 21 9 22 10 23 11
REMARK SMILES IDX 24 12 25 13 26 14 12 15 11 16 10 17 9 18 8 19 7 20 6 21 5 22
REMARK SMILES IDX 4 23 3 24 2 25 1 26
REMARK H PARENT
REMARK Flexibility Score: inf
ROOT
ATOM      1  C   UNL     1       4.932 -34.847  22.242  1.00  0.00     0.000 C 
ENDROOT
BRANCH   1   2
ATOM      2  C   UNL     1       4.771 -34.293  20.818  1.00  0.00     0.000 C 
BRANCH   2   3
ATOM      3  C   UNL     1       6.092 -34.283  20.028  1.00  0.00     0.000 C 
BRANCH   3   4
ATOM      4  C   UNL     1       6.027 -33.523  18.683  1.00  0.00     0.000 C 
BRANCH   4   5
ATOM      5  C   UNL     1       4.805 -33.891  17.820  1.00  0.00     0.000 C 
BRANCH   5   6
ATOM      6  C   UNL     1       4.393 -35.374  17.875  1.00  0.00     0.000 C 
BRANCH   6   7
ATOM      7  C   UNL     1       3.953 -35.985  16.529  1.00  0.00     0.000 C 
BRANCH   7   8
ATOM      8  C   UNL     1       3.023 -35.098  15.681  1.00  0.00     0.000 C 
BRANCH   8   9
ATOM      9  C   UNL     1       1.535 -35.397  15.917  1.00  0.00     0.000 C 
BRANCH   9  10
ATOM     10  C   UNL     1       1.355 -36.719  16.673  1.00  0.00     0.006 C 
BRANCH  10  11
ATOM     11  C   UNL     1       0.394 -36.552  17.855  1.00  0.00     0.053 C 
BRANCH  11  12
ATOM     12  C   UNL     1       1.060 -36.930  19.144  1.00  0.00     0.041 C 
ATOM     13  O   UNL     1       0.506 -36.662  20.242  1.00  0.00    -0.550 OA
ATOM     14  O   UNL     1       2.272 -37.610  19.134  1.00  0.00    -0.550 OA
ENDBRANCH  11  12
ENDBRANCH  10  11
ENDBRANCH   9  10
ENDBRANCH   8   9
ENDBRANCH   7   8
ENDBRANCH   6   7
ENDBRANCH   5   6
ENDBRANCH   4   5
ENDBRANCH   3   4
ENDBRANCH   2   3
ENDBRANCH   1   2
BRANCH   1  15
ATOM     15  C   UNL     1       5.350 -33.736  23.218  1.00  0.00     0.000 C 
BRANCH  15  16
ATOM     16  C   UNL     1       5.870 -34.286  24.555  1.00  0.00     0.000 C 
BRANCH  16  17
ATOM     17  C   UNL     1       5.819 -35.822  24.625  1.00  0.00     0.000 C 
BRANCH  17  18
ATOM     18  C   UNL     1       4.818 -36.338  25.675  1.00  0.00    -0.000 C 
BRANCH  18  19
ATOM     19  C   UNL     1       5.120 -37.746  26.226  1.00  0.00    -0.000 C 
BRANCH  19  20
ATOM     20  C   UNL     1       5.734 -38.734  25.212  1.00  0.00    -0.000 C 
BRANCH  20  21
ATOM     21  C   UNL     1       4.789 -39.860  24.755  1.00  0.00    -0.000 C 
BRANCH  21  22
ATOM     22  C   UNL     1       5.358 -40.761  23.643  1.00  0.00    -0.000 C 
BRANCH  22  23
ATOM     23  C   UNL     1       6.105 -39.980  22.539  1.00  0.00    -0.000 C 
BRANCH  23  24
ATOM     24  C   UNL     1       5.159 -39.088  21.717  1.00  0.00    -0.000 C 
BRANCH  24  25
ATOM     25  C   UNL     1       5.849 -37.822  21.186  1.00  0.00    -0.003 C 
ATOM     26  C   UNL     1       5.868 -37.750  19.659  1.00  0.00     0.004 C 
ENDBRANCH  24  25
ENDBRANCH  23  24
ENDBRANCH  22  23
ENDBRANCH  21  22
ENDBRANCH  20  21
ENDBRANCH  19  20
ENDBRANCH  18  19
ENDBRANCH  17  18
ENDBRANCH  16  17
ENDBRANCH  15  16
ENDBRANCH   1  15
TORSDOF 22
ENDMDL
MODEL 5
REMARK VINA RESULT:     2.682      1.271      7.130
REMARK INTER + INTRA:           3.981
REMARK INTER:                   5.519
REMARK INTRA:                  -1.538
REMARK UNBOUND:                -2.150
REMARK SMILES CCCCCCCCCCCCCCCCCCCCCCCC(=O)[O-]
REMARK SMILES IDX 13 1 14 2 15 3 16 4 17 5 18 6 19 7 20 8 21 9 22 10 23 11
REMARK SMILES IDX 24 12 25 13 26 14 12 15 11 16 10 17 9 18 8 19 7 20 6 21 5 22
REMARK SMILES IDX 4 23 3 24 2 25 1 26
REMARK H PARENT
REMARK Flexibility Score: inf
ROOT
ATOM      1  C   UNL     1       5.028 -35.493  20.390  1.00  0.00     0.000 C 
ENDROOT
BRANCH   1   2
ATOM      2  C   UNL     1       6.035 -34.623  19.623  1.00  0.00     0.000 C 
BRANCH   2   3
ATOM      3  C   UNL     1       5.375 -33.778  18.518  1.00  0.00     0.000 C 
BRANCH   3   4
ATOM      4  C   UNL     1       4.205 -34.480  17.790  1.00  0.00     0.000 C 
BRANCH   4   5
ATOM      5  C   UNL     1       4.459 -34.717  16.289  1.00  0.00     0.000 C 
BRANCH   5   6
ATOM      6  C   UNL     1       4.183 -36.152  15.803  1.00  0.00     0.000 C 
BRANCH   6   7
ATOM      7  C   UNL     1       3.267 -36.262  14.567  1.00  0.00     0.000 C 
BRANCH   7   8
ATOM      8  C   UNL     1       1.872 -35.630  14.728  1.00  0.00     0.000 C 
BRANCH   8   9
ATOM      9  C   UNL     1       1.440 -35.501  16.196  1.00  0.00     0.000 C 
BRANCH   9  10
ATOM     10  C   UNL     1       1.117 -36.876  16.793  1.00  0.00     0.006 C 
BRANCH  10  11
ATOM     11  C   UNL     1       0.360 -36.737  18.118  1.00  0.00     0.053 C 
BRANCH  11  12
ATOM     12  C   UNL     1       1.288 -36.897  19.285  1.00  0.00     0.041 C 
ATOM     13  O   UNL     1       0.887 -36.638  20.450  1.00  0.00    -0.550 OA
ATOM     14  O   UNL     1       2.582 -37.366  19.092  1.00  0.00    -0.550 OA
ENDBRANCH  11  12
ENDBRANCH  10  11
ENDBRANCH   9  10
ENDBRANCH   8   9
ENDBRANCH   7   8
ENDBRANCH   6   7
ENDBRANCH   5   6
ENDBRANCH   4   5
ENDBRANCH   3   4
ENDBRANCH   2   3
ENDBRANCH   1   2
BRANCH   1  15
ATOM     15  C   UNL     1       5.748 -36.595  21.185  1.00  0.00     0.000 C 
BRANCH  15  16
ATOM     16  C   UNL     1       6.022 -37.850  20.344  1.00  0.00     0.000 C 
BRANCH  16  17
ATOM     17  C   UNL     1       5.336 -39.105  20.910  1.00  0.00     0.000 C 
BRANCH  17  18
ATOM     18  C   UNL     1       6.125 -39.746  22.066  1.00  0.00    -0.000 C 
BRANCH  18  19
ATOM     19  C   UNL     1       5.342 -39.891  23.387  1.00  0.00    -0.000 C 
BRANCH  19  20
ATOM     20  C   UNL     1       4.953 -38.566  24.073  1.00  0.00    -0.000 C 
BRANCH  20  21
ATOM     21  C   UNL     1       5.376 -38.453  25.548  1.00  0.00    -0.000 C 
BRANCH  21  22
ATOM     22  C   UNL     1       5.739 -37.027  26.003  1.00  0.00    -0.000 C 
BRANCH  22  23
ATOM     23  C   UNL     1       6.065 -36.072  24.834  1.00  0.00    -0.000 C 
BRANCH  23  24
ATOM     24  C   UNL     1       5.829 -34.598  25.204  1.00  0.00    -0.000 C 
BRANCH  24  25
ATOM     25  C   UNL     1       6.023 -33.648  24.013  1.00  0.00    -0.003 C 
ATOM     26  C   UNL     1       4.821 -33.624  23.068  1.00  0.00     0.004 C 
ENDBRANCH  24  25
ENDBRANCH  23  24
ENDBRANCH  22  23
ENDBRANCH  21  22
ENDBRANCH  20  21
ENDBRANCH  19  20
ENDBRANCH  18  19
ENDBRANCH  17  18
ENDBRANCH  16  17
ENDBRANCH  15  16
ENDBRANCH   1  15
TORSDOF 22
ENDMDL
MODEL 6
REMARK VINA RESULT:     3.167      2.193      6.540
REMARK INTER + INTRA:           5.091
REMARK INTER:                   4.133
REMARK INTRA:                   0.958
REMARK UNBOUND:                -2.150
REMARK SMILES CCCCCCCCCCCCCCCCCCCCCCCC(=O)[O-]
REMARK SMILES IDX 13 1 14 2 15 3 16 4 17 5 18 6 19 7 20 8 21 9 22 10 23 11
REMARK SMILES IDX 24 12 25 13 26 14 12 15 11 16 10 17 9 18 8 19 7 20 6 21 5 22
REMARK SMILES IDX 4 23 3 24 2 25 1 26
REMARK H PARENT
REMARK Flexibility Score: inf
ROOT
ATOM      1  C   UNL     1       5.768 -35.036  21.225  1.00  0.00     0.000 C 
ENDROOT
BRANCH   1   2
ATOM      2  C   UNL     1       5.867 -34.635  19.745  1.00  0.00     0.000 C 
BRANCH   2   3
ATOM      3  C   UNL     1       5.356 -35.733  18.794  1.00  0.00     0.000 C 
BRANCH   3   4
ATOM      4  C   UNL     1       4.330 -36.700  19.428  1.00  0.00     0.000 C 
BRANCH   4   5
ATOM      5  C   UNL     1       2.937 -36.077  19.643  1.00  0.00     0.000 C 
BRANCH   5   6
ATOM      6  C   UNL     1       1.759 -36.929  19.136  1.00  0.00     0.000 C 
BRANCH   6   7
ATOM      7  C   UNL     1       1.910 -37.469  17.698  1.00  0.00     0.000 C 
BRANCH   7   8
ATOM      8  C   UNL     1       2.730 -36.578  16.748  1.00  0.00     0.000 C 
BRANCH   8   9
ATOM      9  C   UNL     1       1.950 -35.349  16.259  1.00  0.00     0.000 C 
BRANCH   9  10
ATOM     10  C   UNL     1       2.205 -35.097  14.768  1.00  0.00     0.006 C 
BRANCH  10  11
ATOM     11  C   UNL     1       2.573 -36.396  14.044  1.00  0.00     0.053 C 
BRANCH  11  12
ATOM     12  C   UNL     1       4.052 -36.637  14.096  1.00  0.00     0.041 C 
ATOM     13  O   UNL     1       4.853 -35.672  13.983  1.00  0.00    -0.550 OA
ATOM     14  O   UNL     1       4.547 -37.919  14.306  1.00  0.00    -0.550 OA
ENDBRANCH  11  12
ENDBRANCH  10  11
ENDBRANCH   9  10
ENDBRANCH   8   9
ENDBRANCH   7   8
ENDBRANCH   6   7
ENDBRANCH   5   6
ENDBRANCH   4   5
ENDBRANCH   3   4
ENDBRANCH   2   3
ENDBRANCH   1   2
BRANCH   1  15
ATOM     15  C   UNL     1       5.316 -33.846  22.087  1.00  0.00     0.000 C 
BRANCH  15  16
ATOM     16  C   UNL     1       5.385 -34.144  23.592  1.00  0.00     0.000 C 
BRANCH  16  17
ATOM     17  C   UNL     1       5.144 -35.628  23.916  1.00  0.00     0.000 C 
BRANCH  17  18
ATOM     18  C   UNL     1       5.967 -36.117  25.122  1.00  0.00    -0.000 C 
BRANCH  18  19
ATOM     19  C   UNL     1       5.814 -37.616  25.450  1.00  0.00    -0.000 C 
BRANCH  19  20
ATOM     20  C   UNL     1       4.460 -38.242  25.058  1.00  0.00    -0.000 C 
BRANCH  20  21
ATOM     21  C   UNL     1       4.552 -39.401  24.049  1.00  0.00    -0.000 C 
BRANCH  21  22
ATOM     22  C   UNL     1       5.456 -40.565  24.492  1.00  0.00    -0.000 C 
BRANCH  22  23
ATOM     23  C   UNL     1       5.789 -41.554  23.352  1.00  0.00    -0.000 C 
BRANCH  23  24
ATOM     24  C   UNL     1       6.124 -40.833  22.035  1.00  0.00    -0.000 C 
BRANCH  24  25
ATOM     25  C   UNL     1       6.115 -39.303  22.177  1.00  0.00    -0.003 C 
ATOM     26  C   UNL     1       6.062 -38.581  20.831  1.00  0.00     0.004 C 
ENDBRANCH  24  25
ENDBRANCH  23  24
ENDBRANCH  22  23
ENDBRANCH  21  22
ENDBRANCH  20  21
ENDBRANCH  19  20
ENDBRANCH  18  19
ENDBRANCH  17  18
ENDBRANCH  16  17
ENDBRANCH  15  16
ENDBRANCH   1  15
TORSDOF 22
ENDMDL
MODEL 7
REMARK VINA RESULT:     3.204      2.011      4.722
REMARK INTER + INTRA:           5.176
REMARK INTER:                   4.031
REMARK INTRA:                   1.145
REMARK UNBOUND:                -2.150
REMARK SMILES CCCCCCCCCCCCCCCCCCCCCCCC(=O)[O-]
REMARK SMILES IDX 13 1 14 2 15 3 16 4 17 5 18 6 19 7 20 8 21 9 22 10 23 11
REMARK SMILES IDX 24 12 25 13 26 14 12 15 11 16 10 17 9 18 8 19 7 20 6 21 5 22
REMARK SMILES IDX 4 23 3 24 2 25 1 26
REMARK H PARENT
REMARK Flexibility Score: inf
ROOT
ATOM      1  C   UNL     1       6.125 -35.418  19.697  1.00  0.00     0.000 C 
ENDROOT
BRANCH   1   2
ATOM      2  C   UNL     1       5.579 -34.331  20.635  1.00  0.00     0.000 C 
BRANCH   2   3
ATOM      3  C   UNL     1       5.758 -34.681  22.124  1.00  0.00     0.000 C 
BRANCH   3   4
ATOM      4  C   UNL     1       4.885 -33.843  23.086  1.00  0.00     0.000 C 
BRANCH   4   5
ATOM      5  C   UNL     1       5.104 -34.176  24.574  1.00  0.00     0.000 C 
BRANCH   5   6
ATOM      6  C   UNL     1       5.770 -35.538  24.843  1.00  0.00     0.000 C 
BRANCH   6   7
ATOM      7  C   UNL     1       4.980 -36.485  25.771  1.00  0.00     0.000 C 
BRANCH   7   8
ATOM      8  C   UNL     1       5.790 -37.658  26.350  1.00  0.00     0.000 C 
BRANCH   8   9
ATOM      9  C   UNL     1       5.412 -39.011  25.728  1.00  0.00     0.000 C 
BRANCH   9  10
ATOM     10  C   UNL     1       4.841 -38.822  24.317  1.00  0.00     0.006 C 
BRANCH  10  11
ATOM     11  C   UNL     1       5.630 -39.640  23.289  1.00  0.00     0.053 C 
BRANCH  11  12
ATOM     12  C   UNL     1       5.771 -38.887  22.000  1.00  0.00     0.041 C 
ATOM     13  O   UNL     1       6.124 -39.490  20.953  1.00  0.00    -0.550 OA
ATOM     14  O   UNL     1       5.476 -37.530  21.945  1.00  0.00    -0.550 OA
ENDBRANCH  11  12
ENDBRANCH  10  11
ENDBRANCH   9  10
ENDBRANCH   8   9
ENDBRANCH   7   8
ENDBRANCH   6   7
ENDBRANCH   5   6
ENDBRANCH   4   5
ENDBRANCH   3   4
ENDBRANCH   2   3
ENDBRANCH   1   2
BRANCH   1  15
ATOM     15  C   UNL     1       5.104 -35.760  18.600  1.00  0.00     0.000 C 
BRANCH  15  16
ATOM     16  C   UNL     1       4.355 -37.072  18.874  1.00  0.00     0.000 C 
BRANCH  16  17
ATOM     17  C   UNL     1       2.915 -37.058  18.333  1.00  0.00     0.000 C 
BRANCH  17  18
ATOM     18  C   UNL     1       1.863 -37.303  19.430  1.00  0.00    -0.000 C 
BRANCH  18  19
ATOM     19  C   UNL     1       0.409 -36.998  19.018  1.00  0.00    -0.000 C 
BRANCH  19  20
ATOM     20  C   UNL     1       0.249 -36.159  17.733  1.00  0.00    -0.000 C 
BRANCH  20  21
ATOM     21  C   UNL     1       1.188 -36.558  16.581  1.00  0.00    -0.000 C 
BRANCH  21  22
ATOM     22  C   UNL     1       2.310 -35.545  16.288  1.00  0.00    -0.000 C 
BRANCH  22  23
ATOM     23  C   UNL     1       2.857 -35.633  14.846  1.00  0.00    -0.000 C 
BRANCH  23  24
ATOM     24  C   UNL     1       3.211 -37.075  14.445  1.00  0.00    -0.000 C 
BRANCH  24  25
ATOM     25  C   UNL     1       4.633 -37.202  13.877  1.00  0.00    -0.003 C 
ATOM     26  C   UNL     1       5.262 -38.569  14.148  1.00  0.00     0.004 C 
ENDBRANCH  24  25
ENDBRANCH  23  24
ENDBRANCH  22  23
ENDBRANCH  21  22
ENDBRANCH  20  21
ENDBRANCH  19  20
ENDBRANCH  18  19
ENDBRANCH  17  18
ENDBRANCH  16  17
ENDBRANCH  15  16
ENDBRANCH   1  15
TORSDOF 22
ENDMDL
