MODEL 1
REMARK VINA RESULT:    -2.957      0.000      0.000
REMARK INTER + INTRA:          -2.957
REMARK INTER:                  -2.957
REMARK INTRA:                   0.000
REMARK UNBOUND:                 0.000
REMARK SMILES O=c1ccc2ccccc2o1
REMARK SMILES IDX 7 1 8 2 9 3 10 4 5 5 6 6 4 7 3 8 2 9 1 10 11 11
REMARK H PARENT
REMARK Flexibility Score: inf
ROOT
ATOM      1  C   UNL     1       1.631  -0.869   2.246  1.00  0.00     0.001 A 
ATOM      2  C   UNL     1       2.451  -0.475   1.184  1.00  0.00     0.004 A 
ATOM      3  C   UNL     1       2.130  -0.843  -0.128  1.00  0.00     0.048 A 
ATOM      4  C   UNL     1       0.985  -1.607  -0.381  1.00  0.00     0.138 A 
ATOM      5  C   UNL     1       0.157  -2.005   0.693  1.00  0.00     0.018 A 
ATOM      6  C   UNL     1       0.484  -1.633   2.005  1.00  0.00     0.012 A 
ATOM      7  C   UNL     1      -0.981  -2.767   0.409  1.00  0.00     0.019 A 
ATOM      8  C   UNL     1      -1.262  -3.110  -0.913  1.00  0.00     0.094 A 
ATOM      9  C   UNL     1      -0.396  -2.681  -1.925  1.00  0.00     0.336 A 
ATOM     10  O   UNL     1      -0.634  -2.981  -3.124  1.00  0.00    -0.246 OA
ATOM     11  O   UNL     1       0.679  -1.956  -1.628  1.00  0.00    -0.423 OA
ENDROOT
TORSDOF 0
ENDMDL
MODEL 2
REMARK VINA RESULT:    -2.438      1.523      3.805
REMARK INTER + INTRA:          -2.438
REMARK INTER:                  -2.438
REMARK INTRA:                   0.000
REMARK UNBOUND:                 0.000
REMARK SMILES O=c1ccc2ccccc2o1
REMARK SMILES IDX 7 1 8 2 9 3 10 4 5 5 6 6 4 7 3 8 2 9 1 10 11 11
REMARK H PARENT
REMARK Flexibility Score: inf
ROOT
ATOM      1  C   UNL     1      -1.480  -3.125  -1.082  1.00  0.00     0.001 A 
ATOM      2  C   UNL     1      -0.636  -2.709  -2.116  1.00  0.00     0.004 A 
ATOM      3  C   UNL     1       0.538  -2.004  -1.827  1.00  0.00     0.048 A 
ATOM      4  C   UNL     1       0.871  -1.712  -0.500  1.00  0.00     0.138 A 
ATOM      5  C   UNL     1       0.017  -2.131   0.545  1.00  0.00     0.018 A 
ATOM      6  C   UNL     1      -1.157  -2.838   0.249  1.00  0.00     0.012 A 
ATOM      7  C   UNL     1       0.376  -1.826   1.862  1.00  0.00     0.019 A 
ATOM      8  C   UNL     1       1.555  -1.121   2.103  1.00  0.00     0.094 A 
ATOM      9  C   UNL     1       2.351  -0.737   1.018  1.00  0.00     0.336 A 
ATOM     10  O   UNL     1       3.419  -0.101   1.217  1.00  0.00    -0.246 OA
ATOM     11  O   UNL     1       1.987  -1.041  -0.225  1.00  0.00    -0.423 OA
ENDROOT
TORSDOF 0
ENDMDL
MODEL 3
REMARK VINA RESULT:    -1.065      1.549      3.806
REMARK INTER + INTRA:          -1.065
REMARK INTER:                  -1.065
REMARK INTRA:                   0.000
REMARK UNBOUND:                 0.000
REMARK SMILES O=c1ccc2ccccc2o1
REMARK SMILES IDX 7 1 8 2 9 3 10 4 5 5 6 6 4 7 3 8 2 9 1 10 11 11
REMARK H PARENT
REMARK Flexibility Score: inf
ROOT
ATOM      1  C   UNL     1      -1.679  -2.605  -0.998  1.00  0.00     0.001 A 
ATOM      2  C   UNL     1      -0.737  -2.607  -2.032  1.00  0.00     0.004 A 
ATOM      3  C   UNL     1       0.565  -2.149  -1.799  1.00  0.00     0.048 A 
ATOM      4  C   UNL     1       0.929  -1.688  -0.529  1.00  0.00     0.138 A 
ATOM      5  C   UNL     1      -0.023  -1.687   0.515  1.00  0.00     0.018 A 
ATOM      6  C   UNL     1      -1.326  -2.147   0.275  1.00  0.00     0.012 A 
ATOM      7  C   UNL     1       0.370  -1.221   1.775  1.00  0.00     0.019 A 
ATOM      8  C   UNL     1       1.678  -0.775   1.961  1.00  0.00     0.094 A 
ATOM      9  C   UNL     1       2.566  -0.805   0.880  1.00  0.00     0.336 A 
ATOM     10  O   UNL     1       3.751  -0.407   1.030  1.00  0.00    -0.246 OA
ATOM     11  O   UNL     1       2.167  -1.254  -0.307  1.00  0.00    -0.423 OA
ENDROOT
TORSDOF 0
ENDMDL
