MODEL 1
REMARK VINA RESULT:    -4.489      0.000      0.000
REMARK INTER + INTRA:          -4.489
REMARK INTER:                  -4.489
REMARK INTRA:                   0.000
REMARK UNBOUND:                 0.000
REMARK SMILES CC1=CC[C@H]2[C@H](C1)C2(C)C
REMARK SMILES IDX 1 1 2 2 3 3 4 4 5 5 6 6 7 7 8 8 9 9 10 10
REMARK H PARENT
REMARK Flexibility Score: inf
ROOT
ATOM      1  C   UNL     1      32.635  11.485  33.201  1.00  0.00     0.039 C 
ATOM      2  C   UNL     1      32.123  10.085  33.382  1.00  0.00    -0.077 C 
ATOM      3  C   UNL     1      32.178   9.209  32.334  1.00  0.00    -0.028 C 
ATOM      4  C   UNL     1      31.697   7.765  32.462  1.00  0.00     0.031 C 
ATOM      5  C   UNL     1      31.745   7.383  33.946  1.00  0.00     0.003 C 
ATOM      6  C   UNL     1      30.718   8.409  34.557  1.00  0.00     0.003 C 
ATOM      7  C   UNL     1      31.608   9.642  34.756  1.00  0.00     0.034 C 
ATOM      8  C   UNL     1      30.743   6.962  34.998  1.00  0.00    -0.029 C 
ATOM      9  C   UNL     1      31.281   6.708  36.408  1.00  0.00     0.012 C 
ATOM     10  C   UNL     1      29.603   6.067  34.504  1.00  0.00     0.012 C 
ENDROOT
TORSDOF 0
ENDMDL
MODEL 2
REMARK VINA RESULT:    -4.459      1.198      2.590
REMARK INTER + INTRA:          -4.459
REMARK INTER:                  -4.459
REMARK INTRA:                   0.000
REMARK UNBOUND:                 0.000
REMARK SMILES CC1=CC[C@H]2[C@H](C1)C2(C)C
REMARK SMILES IDX 1 1 2 2 3 3 4 4 5 5 6 6 7 7 8 8 9 9 10 10
REMARK H PARENT
REMARK Flexibility Score: inf
ROOT
ATOM      1  C   UNL     1      33.088  12.024  31.156  1.00  0.00     0.039 C 
ATOM      2  C   UNL     1      32.562  11.065  32.185  1.00  0.00    -0.077 C 
ATOM      3  C   UNL     1      32.464  11.464  33.489  1.00  0.00    -0.028 C 
ATOM      4  C   UNL     1      31.913  10.545  34.576  1.00  0.00     0.031 C 
ATOM      5  C   UNL     1      31.028   9.492  33.899  1.00  0.00     0.003 C 
ATOM      6  C   UNL     1      32.076   8.762  32.977  1.00  0.00     0.003 C 
ATOM      7  C   UNL     1      32.082   9.677  31.747  1.00  0.00     0.034 C 
ATOM      8  C   UNL     1      31.038   7.986  33.757  1.00  0.00    -0.029 C 
ATOM      9  C   UNL     1      29.916   7.360  32.924  1.00  0.00     0.012 C 
ATOM     10  C   UNL     1      31.527   7.210  34.982  1.00  0.00     0.012 C 
ENDROOT
TORSDOF 0
ENDMDL
MODEL 3
REMARK VINA RESULT:    -4.392      3.343      5.889
REMARK INTER + INTRA:          -4.392
REMARK INTER:                  -4.392
REMARK INTRA:                   0.000
REMARK UNBOUND:                 0.000
REMARK SMILES CC1=CC[C@H]2[C@H](C1)C2(C)C
REMARK SMILES IDX 1 1 2 2 3 3 4 4 5 5 6 6 7 7 8 8 9 9 10 10
REMARK H PARENT
REMARK Flexibility Score: inf
ROOT
ATOM      1  C   UNL     1      33.125  11.126  33.453  1.00  0.00     0.039 C 
ATOM      2  C   UNL     1      32.653  10.853  32.054  1.00  0.00    -0.077 C 
ATOM      3  C   UNL     1      31.954   9.708  31.791  1.00  0.00    -0.028 C 
ATOM      4  C   UNL     1      31.425   9.387  30.395  1.00  0.00     0.031 C 
ATOM      5  C   UNL     1      31.294  10.706  29.626  1.00  0.00     0.003 C 
ATOM      6  C   UNL     1      32.792  11.192  29.598  1.00  0.00     0.003 C 
ATOM      7  C   UNL     1      32.905  11.894  30.957  1.00  0.00     0.034 C 
ATOM      8  C   UNL     1      31.903  11.309  28.380  1.00  0.00    -0.029 C 
ATOM      9  C   UNL     1      31.468  12.730  28.011  1.00  0.00     0.012 C 
ATOM     10  C   UNL     1      32.165  10.330  27.233  1.00  0.00     0.012 C 
ENDROOT
TORSDOF 0
ENDMDL
MODEL 4
REMARK VINA RESULT:    -4.376      2.051      4.585
REMARK INTER + INTRA:          -4.376
REMARK INTER:                  -4.376
REMARK INTRA:                   0.000
REMARK UNBOUND:                 0.000
REMARK SMILES CC1=CC[C@H]2[C@H](C1)C2(C)C
REMARK SMILES IDX 1 1 2 2 3 3 4 4 5 5 6 6 7 7 8 8 9 9 10 10
REMARK H PARENT
REMARK Flexibility Score: inf
ROOT
ATOM      1  C   UNL     1      30.125   6.899  30.116  1.00  0.00     0.039 C 
ATOM      2  C   UNL     1      30.802   7.869  31.040  1.00  0.00    -0.077 C 
ATOM      3  C   UNL     1      31.295   7.427  32.236  1.00  0.00    -0.028 C 
ATOM      4  C   UNL     1      32.016   8.358  33.207  1.00  0.00     0.031 C 
ATOM      5  C   UNL     1      32.562   9.545  32.404  1.00  0.00     0.003 C 
ATOM      6  C   UNL     1      31.229  10.177  31.852  1.00  0.00     0.003 C 
ATOM      7  C   UNL     1      30.989   9.326  30.600  1.00  0.00     0.034 C 
ATOM      8  C   UNL     1      32.348  11.042  32.387  1.00  0.00    -0.029 C 
ATOM      9  C   UNL     1      33.125  11.842  31.338  1.00  0.00     0.012 C 
ATOM     10  C   UNL     1      32.129  11.694  33.755  1.00  0.00     0.012 C 
ENDROOT
TORSDOF 0
ENDMDL
MODEL 5
REMARK VINA RESULT:    -4.374      3.382      6.085
REMARK INTER + INTRA:          -4.374
REMARK INTER:                  -4.374
REMARK INTRA:                   0.000
REMARK UNBOUND:                 0.000
REMARK SMILES CC1=CC[C@H]2[C@H](C1)C2(C)C
REMARK SMILES IDX 1 1 2 2 3 3 4 4 5 5 6 6 7 7 8 8 9 9 10 10
REMARK H PARENT
REMARK Flexibility Score: inf
ROOT
ATOM      1  C   UNL     1      32.191   9.353  33.200  1.00  0.00     0.039 C 
ATOM      2  C   UNL     1      32.241  10.204  31.964  1.00  0.00    -0.077 C 
ATOM      3  C   UNL     1      32.910  11.396  31.995  1.00  0.00    -0.028 C 
ATOM      4  C   UNL     1      33.019  12.294  30.765  1.00  0.00     0.031 C 
ATOM      5  C   UNL     1      32.818  11.417  29.523  1.00  0.00     0.003 C 
ATOM      6  C   UNL     1      31.349  10.897  29.753  1.00  0.00     0.003 C 
ATOM      7  C   UNL     1      31.597   9.694  30.670  1.00  0.00     0.034 C 
ATOM      8  C   UNL     1      31.822  11.345  28.388  1.00  0.00    -0.029 C 
ATOM      9  C   UNL     1      32.022  10.230  27.357  1.00  0.00     0.012 C 
ATOM     10  C   UNL     1      31.300  12.692  27.880  1.00  0.00     0.012 C 
ENDROOT
TORSDOF 0
ENDMDL
MODEL 6
REMARK VINA RESULT:    -4.331      1.819      4.680
REMARK INTER + INTRA:          -4.331
REMARK INTER:                  -4.331
REMARK INTRA:                   0.000
REMARK UNBOUND:                 0.000
REMARK SMILES CC1=CC[C@H]2[C@H](C1)C2(C)C
REMARK SMILES IDX 1 1 2 2 3 3 4 4 5 5 6 6 7 7 8 8 9 9 10 10
REMARK H PARENT
REMARK Flexibility Score: inf
ROOT
ATOM      1  C   UNL     1      31.587   7.267  34.271  1.00  0.00     0.039 C 
ATOM      2  C   UNL     1      31.602   8.192  33.089  1.00  0.00    -0.077 C 
ATOM      3  C   UNL     1      31.123   7.754  31.886  1.00  0.00    -0.028 C 
ATOM      4  C   UNL     1      31.087   8.656  30.654  1.00  0.00     0.031 C 
ATOM      5  C   UNL     1      31.088  10.111  31.135  1.00  0.00     0.003 C 
ATOM      6  C   UNL     1      32.471  10.182  31.885  1.00  0.00     0.003 C 
ATOM      7  C   UNL     1      32.093   9.634  33.266  1.00  0.00     0.034 C 
ATOM      8  C   UNL     1      32.001  11.308  30.991  1.00  0.00    -0.029 C 
ATOM      9  C   UNL     1      31.581  12.593  31.710  1.00  0.00     0.012 C 
ATOM     10  C   UNL     1      32.694  11.451  29.633  1.00  0.00     0.012 C 
ENDROOT
TORSDOF 0
ENDMDL
MODEL 7
REMARK VINA RESULT:    -4.239      2.033      3.363
REMARK INTER + INTRA:          -4.239
REMARK INTER:                  -4.239
REMARK INTRA:                   0.000
REMARK UNBOUND:                 0.000
REMARK SMILES CC1=CC[C@H]2[C@H](C1)C2(C)C
REMARK SMILES IDX 1 1 2 2 3 3 4 4 5 5 6 6 7 7 8 8 9 9 10 10
REMARK H PARENT
REMARK Flexibility Score: inf
ROOT
ATOM      1  C   UNL     1      31.969  12.176  29.225  1.00  0.00     0.039 C 
ATOM      2  C   UNL     1      32.053  11.234  30.391  1.00  0.00    -0.077 C 
ATOM      3  C   UNL     1      33.004  11.437  31.352  1.00  0.00    -0.028 C 
ATOM      4  C   UNL     1      33.124  10.530  32.575  1.00  0.00     0.031 C 
ATOM      5  C   UNL     1      31.765   9.854  32.795  1.00  0.00     0.003 C 
ATOM      6  C   UNL     1      31.613   9.035  31.458  1.00  0.00     0.003 C 
ATOM      7  C   UNL     1      31.031  10.099  30.519  1.00  0.00     0.034 C 
ATOM      8  C   UNL     1      31.238   8.436  32.795  1.00  0.00    -0.029 C 
ATOM      9  C   UNL     1      29.738   8.253  33.041  1.00  0.00     0.012 C 
ATOM     10  C   UNL     1      32.184   7.380  33.372  1.00  0.00     0.012 C 
ENDROOT
TORSDOF 0
ENDMDL
MODEL 8
REMARK VINA RESULT:    -4.157      2.545      4.294
REMARK INTER + INTRA:          -4.157
REMARK INTER:                  -4.157
REMARK INTRA:                   0.000
REMARK UNBOUND:                 0.000
REMARK SMILES CC1=CC[C@H]2[C@H](C1)C2(C)C
REMARK SMILES IDX 1 1 2 2 3 3 4 4 5 5 6 6 7 7 8 8 9 9 10 10
REMARK H PARENT
REMARK Flexibility Score: inf
ROOT
ATOM      1  C   UNL     1      33.125  10.890  32.944  1.00  0.00     0.039 C 
ATOM      2  C   UNL     1      32.311   9.891  32.173  1.00  0.00    -0.077 C 
ATOM      3  C   UNL     1      32.116   8.641  32.690  1.00  0.00    -0.028 C 
ATOM      4  C   UNL     1      31.276   7.590  31.966  1.00  0.00     0.031 C 
ATOM      5  C   UNL     1      30.318   8.322  31.020  1.00  0.00     0.003 C 
ATOM      6  C   UNL     1      31.334   9.041  30.055  1.00  0.00     0.003 C 
ATOM      7  C   UNL     1      31.658  10.310  30.851  1.00  0.00     0.034 C 
ATOM      8  C   UNL     1      30.085   8.372  29.527  1.00  0.00    -0.029 C 
ATOM      9  C   UNL     1      28.989   9.317  29.026  1.00  0.00     0.012 C 
ATOM     10  C   UNL     1      30.268   7.046  28.784  1.00  0.00     0.012 C 
ENDROOT
TORSDOF 0
ENDMDL
