MODEL 1
REMARK VINA RESULT:    -2.048      0.000      0.000
REMARK INTER + INTRA:          -3.410
REMARK INTER:                  -3.005
REMARK INTRA:                  -0.405
REMARK UNBOUND:                -0.405
REMARK SMILES O=C([O-])CCCCCCCC(=O)[O-]
REMARK SMILES IDX 7 1 6 2 5 3 4 4 2 5 1 6 3 7 8 8 9 9 10 10 11 11 12 12 13 13
REMARK H PARENT
REMARK Flexibility Score: inf
ROOT
ATOM      1  C   UNL     1      -4.720  -0.478   2.921  1.00  0.00     0.000 C 
ENDROOT
BRANCH   1   2
ATOM      2  C   UNL     1      -4.661  -2.004   3.119  1.00  0.00     0.000 C 
BRANCH   2   3
ATOM      3  C   UNL     1      -4.669  -2.781   1.791  1.00  0.00     0.006 C 
BRANCH   3   4
ATOM      4  C   UNL     1      -5.827  -2.354   0.879  1.00  0.00     0.053 C 
BRANCH   4   5
ATOM      5  C   UNL     1      -5.353  -2.029  -0.505  1.00  0.00     0.041 C 
ATOM      6  O   UNL     1      -4.607  -2.831  -1.125  1.00  0.00    -0.550 OA
ATOM      7  O   UNL     1      -5.757  -0.851  -1.120  1.00  0.00    -0.550 OA
ENDBRANCH   4   5
ENDBRANCH   3   4
ENDBRANCH   2   3
ENDBRANCH   1   2
BRANCH   1   8
ATOM      8  C   UNL     1      -3.354   0.209   2.744  1.00  0.00     0.000 C 
BRANCH   8   9
ATOM      9  C   UNL     1      -2.266  -0.375   3.656  1.00  0.00     0.006 C 
BRANCH   9  10
ATOM     10  C   UNL     1      -1.054   0.559   3.732  1.00  0.00     0.053 C 
BRANCH  10  11
ATOM     11  C   UNL     1      -0.020   0.158   2.726  1.00  0.00     0.041 C 
ATOM     12  O   UNL     1      -0.125   0.530   1.529  1.00  0.00    -0.550 OA
ATOM     13  O   UNL     1       1.033  -0.667   3.102  1.00  0.00    -0.550 OA
ENDBRANCH  10  11
ENDBRANCH   9  10
ENDBRANCH   8   9
ENDBRANCH   1   8
TORSDOF 8
ENDMDL
