MODEL 1
REMARK VINA RESULT:    -3.982      0.000      0.000
REMARK INTER + INTRA:          -3.982
REMARK INTER:                  -3.982
REMARK INTRA:                   0.000
REMARK UNBOUND:                 0.000
REMARK SMILES CC1=CC(=O)[C@H]2C[C@@H]1C2(C)C
REMARK SMILES IDX 1 1 2 2 3 3 4 4 5 5 6 6 7 7 8 8 9 9 10 10 11 11
REMARK H PARENT
REMARK Flexibility Score: inf
ROOT
ATOM      1  C   UNL     1     142.807 134.133 122.026  1.00  0.00     0.040 C 
ATOM      2  C   UNL     1     141.569 134.724 122.622  1.00  0.00    -0.066 C 
ATOM      3  C   UNL     1     141.435 134.879 123.968  1.00  0.00     0.047 C 
ATOM      4  C   UNL     1     140.135 135.453 124.443  1.00  0.00     0.159 C 
ATOM      5  O   UNL     1     139.876 135.610 125.665  1.00  0.00    -0.295 OA
ATOM      6  C   UNL     1     139.146 135.834 123.341  1.00  0.00     0.067 C 
ATOM      7  C   UNL     1     140.007 136.588 122.304  1.00  0.00     0.021 C 
ATOM      8  C   UNL     1     140.392 135.200 121.743  1.00  0.00     0.022 C 
ATOM      9  C   UNL     1     139.056 134.656 122.329  1.00  0.00    -0.019 C 
ATOM     10  C   UNL     1     137.872 134.816 121.342  1.00  0.00     0.012 C 
ATOM     11  C   UNL     1     139.034 133.204 122.885  1.00  0.00     0.012 C 
ENDROOT
TORSDOF 0
ENDMDL
MODEL 2
REMARK VINA RESULT:    -3.981      1.796      3.817
REMARK INTER + INTRA:          -3.981
REMARK INTER:                  -3.981
REMARK INTRA:                   0.000
REMARK UNBOUND:                 0.000
REMARK SMILES CC1=CC(=O)[C@H]2C[C@@H]1C2(C)C
REMARK SMILES IDX 1 1 2 2 3 3 4 4 5 5 6 6 7 7 8 8 9 9 10 10 11 11
REMARK H PARENT
REMARK Flexibility Score: inf
ROOT
ATOM      1  C   UNL     1     139.379 133.257 122.874  1.00  0.00     0.040 C 
ATOM      2  C   UNL     1     140.517 134.159 123.229  1.00  0.00    -0.066 C 
ATOM      3  C   UNL     1     140.500 135.482 122.906  1.00  0.00     0.047 C 
ATOM      4  C   UNL     1     141.713 136.274 123.288  1.00  0.00     0.159 C 
ATOM      5  O   UNL     1     141.834 137.496 123.010  1.00  0.00    -0.295 OA
ATOM      6  C   UNL     1     142.795 135.495 124.037  1.00  0.00     0.067 C 
ATOM      7  C   UNL     1     142.013 134.690 125.099  1.00  0.00     0.021 C 
ATOM      8  C   UNL     1     141.757 133.643 123.991  1.00  0.00     0.022 C 
ATOM      9  C   UNL     1     143.047 134.155 123.288  1.00  0.00    -0.019 C 
ATOM     10  C   UNL     1     144.321 133.428 123.792  1.00  0.00     0.012 C 
ATOM     11  C   UNL     1     143.080 134.172 121.733  1.00  0.00     0.012 C 
ENDROOT
TORSDOF 0
ENDMDL
MODEL 3
REMARK VINA RESULT:    -3.976      0.824      3.145
REMARK INTER + INTRA:          -3.976
REMARK INTER:                  -3.976
REMARK INTRA:                   0.000
REMARK UNBOUND:                 0.000
REMARK SMILES CC1=CC(=O)[C@H]2C[C@@H]1C2(C)C
REMARK SMILES IDX 1 1 2 2 3 3 4 4 5 5 6 6 7 7 8 8 9 9 10 10 11 11
REMARK H PARENT
REMARK Flexibility Score: inf
ROOT
ATOM      1  C   UNL     1     137.536 135.339 120.999  1.00  0.00     0.040 C 
ATOM      2  C   UNL     1     138.505 135.135 122.119  1.00  0.00    -0.066 C 
ATOM      3  C   UNL     1     138.334 135.745 123.325  1.00  0.00     0.047 C 
ATOM      4  C   UNL     1     139.390 135.485 124.355  1.00  0.00     0.159 C 
ATOM      5  O   UNL     1     139.365 136.021 125.494  1.00  0.00    -0.295 OA
ATOM      6  C   UNL     1     140.502 134.527 123.927  1.00  0.00     0.067 C 
ATOM      7  C   UNL     1     139.752 133.354 123.257  1.00  0.00     0.021 C 
ATOM      8  C   UNL     1     139.736 134.214 121.972  1.00  0.00     0.022 C 
ATOM      9  C   UNL     1     140.998 134.945 122.513  1.00  0.00    -0.019 C 
ATOM     10  C   UNL     1     142.312 134.227 122.113  1.00  0.00     0.012 C 
ATOM     11  C   UNL     1     141.158 136.461 122.205  1.00  0.00     0.012 C 
ENDROOT
TORSDOF 0
ENDMDL
MODEL 4
REMARK VINA RESULT:    -3.938      1.627      3.326
REMARK INTER + INTRA:          -3.938
REMARK INTER:                  -3.938
REMARK INTRA:                   0.000
REMARK UNBOUND:                 0.000
REMARK SMILES CC1=CC(=O)[C@H]2C[C@@H]1C2(C)C
REMARK SMILES IDX 1 1 2 2 3 3 4 4 5 5 6 6 7 7 8 8 9 9 10 10 11 11
REMARK H PARENT
REMARK Flexibility Score: inf
ROOT
ATOM      1  C   UNL     1     139.596 136.565 120.608  1.00  0.00     0.040 C 
ATOM      2  C   UNL     1     139.877 135.484 121.603  1.00  0.00    -0.066 C 
ATOM      3  C   UNL     1     139.056 134.404 121.726  1.00  0.00     0.047 C 
ATOM      4  C   UNL     1     139.428 133.405 122.780  1.00  0.00     0.159 C 
ATOM      5  O   UNL     1     138.729 132.386 123.016  1.00  0.00    -0.295 OA
ATOM      6  C   UNL     1     140.714 133.712 123.548  1.00  0.00     0.067 C 
ATOM      7  C   UNL     1     141.725 134.110 122.449  1.00  0.00     0.021 C 
ATOM      8  C   UNL     1     141.115 135.529 122.525  1.00  0.00     0.022 C 
ATOM      9  C   UNL     1     140.685 135.205 123.985  1.00  0.00    -0.019 C 
ATOM     10  C   UNL     1     141.794 135.540 125.014  1.00  0.00     0.012 C 
ATOM     11  C   UNL     1     139.344 135.796 124.505  1.00  0.00     0.012 C 
ENDROOT
TORSDOF 0
ENDMDL
MODEL 5
REMARK VINA RESULT:    -3.934      1.625      2.973
REMARK INTER + INTRA:          -3.934
REMARK INTER:                  -3.934
REMARK INTRA:                   0.000
REMARK UNBOUND:                 0.000
REMARK SMILES CC1=CC(=O)[C@H]2C[C@@H]1C2(C)C
REMARK SMILES IDX 1 1 2 2 3 3 4 4 5 5 6 6 7 7 8 8 9 9 10 10 11 11
REMARK H PARENT
REMARK Flexibility Score: inf
ROOT
ATOM      1  C   UNL     1     140.047 135.965 125.775  1.00  0.00     0.040 C 
ATOM      2  C   UNL     1     140.204 135.250 124.470  1.00  0.00    -0.066 C 
ATOM      3  C   UNL     1     141.435 134.974 123.957  1.00  0.00     0.047 C 
ATOM      4  C   UNL     1     141.459 134.283 122.628  1.00  0.00     0.159 C 
ATOM      5  O   UNL     1     142.534 134.008 122.033  1.00  0.00    -0.295 OA
ATOM      6  C   UNL     1     140.089 133.935 122.045  1.00  0.00     0.067 C 
ATOM      7  C   UNL     1     139.315 133.326 123.235  1.00  0.00     0.021 C 
ATOM      8  C   UNL     1     138.984 134.778 123.650  1.00  0.00     0.022 C 
ATOM      9  C   UNL     1     139.172 135.187 122.160  1.00  0.00    -0.019 C 
ATOM     10  C   UNL     1     137.865 135.037 121.339  1.00  0.00     0.012 C 
ATOM     11  C   UNL     1     139.783 136.583 121.852  1.00  0.00     0.012 C 
ENDROOT
TORSDOF 0
ENDMDL
MODEL 6
REMARK VINA RESULT:    -3.915     13.336     15.012
REMARK INTER + INTRA:          -3.915
REMARK INTER:                  -3.915
REMARK INTRA:                   0.000
REMARK UNBOUND:                 0.000
REMARK SMILES CC1=CC(=O)[C@H]2C[C@@H]1C2(C)C
REMARK SMILES IDX 1 1 2 2 3 3 4 4 5 5 6 6 7 7 8 8 9 9 10 10 11 11
REMARK H PARENT
REMARK Flexibility Score: inf
ROOT
ATOM      1  C   UNL     1     127.179 137.175 117.551  1.00  0.00     0.040 C 
ATOM      2  C   UNL     1     127.833 137.187 116.206  1.00  0.00    -0.066 C 
ATOM      3  C   UNL     1     129.162 137.448 116.067  1.00  0.00     0.047 C 
ATOM      4  C   UNL     1     129.692 137.462 114.665  1.00  0.00     0.159 C 
ATOM      5  O   UNL     1     130.894 137.728 114.403  1.00  0.00    -0.295 OA
ATOM      6  C   UNL     1     128.671 137.133 113.576  1.00  0.00     0.067 C 
ATOM      7  C   UNL     1     127.921 135.897 114.121  1.00  0.00     0.021 C 
ATOM      8  C   UNL     1     127.041 136.890 114.914  1.00  0.00     0.022 C 
ATOM      9  C   UNL     1     127.381 137.963 113.839  1.00  0.00    -0.019 C 
ATOM     10  C   UNL     1     126.401 137.927 112.639  1.00  0.00     0.012 C 
ATOM     11  C   UNL     1     127.535 139.440 114.299  1.00  0.00     0.012 C 
ENDROOT
TORSDOF 0
ENDMDL
MODEL 7
REMARK VINA RESULT:    -3.855     11.931     13.444
REMARK INTER + INTRA:          -3.855
REMARK INTER:                  -3.855
REMARK INTRA:                   0.000
REMARK UNBOUND:                 0.000
REMARK SMILES CC1=CC(=O)[C@H]2C[C@@H]1C2(C)C
REMARK SMILES IDX 1 1 2 2 3 3 4 4 5 5 6 6 7 7 8 8 9 9 10 10 11 11
REMARK H PARENT
REMARK Flexibility Score: inf
ROOT
ATOM      1  C   UNL     1     129.124 141.362 115.300  1.00  0.00     0.040 C 
ATOM      2  C   UNL     1     129.316 139.951 115.757  1.00  0.00    -0.066 C 
ATOM      3  C   UNL     1     130.138 139.650 116.801  1.00  0.00     0.047 C 
ATOM      4  C   UNL     1     130.271 138.197 117.142  1.00  0.00     0.159 C 
ATOM      5  O   UNL     1     131.030 137.789 118.060  1.00  0.00    -0.295 OA
ATOM      6  C   UNL     1     129.423 137.245 116.298  1.00  0.00     0.067 C 
ATOM      7  C   UNL     1     128.034 137.919 116.250  1.00  0.00     0.021 C 
ATOM      8  C   UNL     1     128.583 138.771 115.083  1.00  0.00     0.022 C 
ATOM      9  C   UNL     1     129.598 137.625 114.800  1.00  0.00    -0.019 C 
ATOM     10  C   UNL     1     129.019 136.548 113.847  1.00  0.00     0.012 C 
ATOM     11  C   UNL     1     131.018 138.009 114.295  1.00  0.00     0.012 C 
ENDROOT
TORSDOF 0
ENDMDL
MODEL 8
REMARK VINA RESULT:    -3.854      1.993      2.745
REMARK INTER + INTRA:          -3.854
REMARK INTER:                  -3.854
REMARK INTRA:                   0.000
REMARK UNBOUND:                 0.000
REMARK SMILES CC1=CC(=O)[C@H]2C[C@@H]1C2(C)C
REMARK SMILES IDX 1 1 2 2 3 3 4 4 5 5 6 6 7 7 8 8 9 9 10 10 11 11
REMARK H PARENT
REMARK Flexibility Score: inf
ROOT
ATOM      1  C   UNL     1     144.753 133.764 121.526  1.00  0.00     0.040 C 
ATOM      2  C   UNL     1     143.713 134.470 122.336  1.00  0.00    -0.066 C 
ATOM      3  C   UNL     1     144.056 135.380 123.289  1.00  0.00     0.047 C 
ATOM      4  C   UNL     1     142.924 135.996 124.055  1.00  0.00     0.159 C 
ATOM      5  O   UNL     1     143.113 136.821 124.986  1.00  0.00    -0.295 OA
ATOM      6  C   UNL     1     141.525 135.550 123.628  1.00  0.00     0.067 C 
ATOM      7  C   UNL     1     141.561 135.620 122.085  1.00  0.00     0.021 C 
ATOM      8  C   UNL     1     142.205 134.215 122.124  1.00  0.00     0.022 C 
ATOM      9  C   UNL     1     141.517 134.000 123.503  1.00  0.00    -0.019 C 
ATOM     10  C   UNL     1     140.083 133.427 123.363  1.00  0.00     0.012 C 
ATOM     11  C   UNL     1     142.271 133.168 124.579  1.00  0.00     0.012 C 
ENDROOT
TORSDOF 0
ENDMDL
MODEL 9
REMARK VINA RESULT:    -3.813      2.330      3.856
REMARK INTER + INTRA:          -3.813
REMARK INTER:                  -3.813
REMARK INTRA:                   0.000
REMARK UNBOUND:                 0.000
REMARK SMILES CC1=CC(=O)[C@H]2C[C@@H]1C2(C)C
REMARK SMILES IDX 1 1 2 2 3 3 4 4 5 5 6 6 7 7 8 8 9 9 10 10 11 11
REMARK H PARENT
REMARK Flexibility Score: inf
ROOT
ATOM      1  C   UNL     1     139.789 133.418 123.214  1.00  0.00     0.040 C 
ATOM      2  C   UNL     1     141.226 133.830 123.248  1.00  0.00    -0.066 C 
ATOM      3  C   UNL     1     142.070 133.379 124.216  1.00  0.00     0.047 C 
ATOM      4  C   UNL     1     143.478 133.889 124.160  1.00  0.00     0.159 C 
ATOM      5  O   UNL     1     144.342 133.576 125.020  1.00  0.00    -0.295 OA
ATOM      6  C   UNL     1     143.791 134.818 122.986  1.00  0.00     0.067 C 
ATOM      7  C   UNL     1     143.161 134.111 121.766  1.00  0.00     0.021 C 
ATOM      8  C   UNL     1     141.827 134.772 122.181  1.00  0.00     0.022 C 
ATOM      9  C   UNL     1     142.662 135.883 122.883  1.00  0.00    -0.019 C 
ATOM     10  C   UNL     1     143.029 137.041 121.920  1.00  0.00     0.012 C 
ATOM     11  C   UNL     1     142.106 136.500 124.197  1.00  0.00     0.012 C 
ENDROOT
TORSDOF 0
ENDMDL
