MODEL 1
REMARK VINA RESULT:    -4.727      0.000      0.000
REMARK INTER + INTRA:          -7.204
REMARK INTER:                  -6.524
REMARK INTRA:                  -0.680
REMARK UNBOUND:                -0.680
REMARK SMILES OC[C@H](O)C(O)[C@@H](O)CO
REMARK SMILES IDX 5 1 7 2 9 3 10 4 8 6 3 8 2 9 1 10 4 12 6 14
REMARK H PARENT 10 5 8 7 1 11 4 13 6 15
REMARK Flexibility Score: inf
ROOT
ATOM      1  C   UNL     1       2.732  50.778  -8.826  1.00  0.00     0.176 C 
ENDROOT
BRANCH   1   2
ATOM      2  C   UNL     1       3.725  51.875  -8.349  1.00  0.00     0.171 C 
BRANCH   2   3
ATOM      3  C   UNL     1       5.156  51.755  -8.922  1.00  0.00     0.190 C 
BRANCH   3   4
ATOM      4  O   UNL     1       5.204  52.125 -10.273  1.00  0.00    -0.394 OA
ATOM      5  H   UNL     1       5.255  51.279 -10.789  1.00  0.00     0.210 HD
ENDBRANCH   3   4
ENDBRANCH   2   3
BRANCH   2   6
ATOM      6  O   UNL     1       3.713  52.016  -6.948  1.00  0.00    -0.388 OA
ATOM      7  H   UNL     1       4.452  51.479  -6.565  1.00  0.00     0.211 HD
ENDBRANCH   2   6
ENDBRANCH   1   2
BRANCH   1   8
ATOM      8  C   UNL     1       2.998  49.360  -8.257  1.00  0.00     0.171 C 
BRANCH   8   9
ATOM      9  C   UNL     1       2.309  48.283  -9.118  1.00  0.00     0.190 C 
BRANCH   9  10
ATOM     10  O   UNL     1       3.239  47.652  -9.956  1.00  0.00    -0.394 OA
ATOM     11  H   UNL     1       4.113  48.093  -9.793  1.00  0.00     0.210 HD
ENDBRANCH   9  10
ENDBRANCH   8   9
BRANCH   8  12
ATOM     12  O   UNL     1       2.510  49.272  -6.944  1.00  0.00    -0.388 OA
ATOM     13  H   UNL     1       1.554  49.536  -6.969  1.00  0.00     0.211 HD
ENDBRANCH   8  12
ENDBRANCH   1   8
BRANCH   1  14
ATOM     14  O   UNL     1       2.766  50.733 -10.232  1.00  0.00    -0.388 OA
ATOM     15  H   UNL     1       3.685  50.975 -10.519  1.00  0.00     0.211 HD
ENDBRANCH   1  14
TORSDOF 9
ENDMDL
MODEL 2
REMARK VINA RESULT:    -4.555      1.214      4.053
REMARK INTER + INTRA:          -6.966
REMARK INTER:                  -6.503
REMARK INTRA:                  -0.463
REMARK UNBOUND:                -0.680
REMARK SMILES OC[C@H](O)C(O)[C@@H](O)CO
REMARK SMILES IDX 5 1 7 2 9 3 10 4 8 6 3 8 2 9 1 10 4 12 6 14
REMARK H PARENT 10 5 8 7 1 11 4 13 6 15
REMARK Flexibility Score: inf
ROOT
ATOM      1  C   UNL     1       2.776  49.803  -8.658  1.00  0.00     0.176 C 
ENDROOT
BRANCH   1   2
ATOM      2  C   UNL     1       2.637  48.549  -9.565  1.00  0.00     0.171 C 
BRANCH   2   3
ATOM      3  C   UNL     1       1.451  48.587 -10.557  1.00  0.00     0.190 C 
BRANCH   3   4
ATOM      4  O   UNL     1       1.672  49.509 -11.590  1.00  0.00    -0.394 OA
ATOM      5  H   UNL     1       0.847  50.057 -11.652  1.00  0.00     0.210 HD
ENDBRANCH   3   4
ENDBRANCH   2   3
BRANCH   2   6
ATOM      6  O   UNL     1       2.677  47.357  -8.816  1.00  0.00    -0.388 OA
ATOM      7  H   UNL     1       3.614  47.042  -8.763  1.00  0.00     0.211 HD
ENDBRANCH   2   6
ENDBRANCH   1   2
BRANCH   1   8
ATOM      8  C   UNL     1       4.068  50.632  -8.876  1.00  0.00     0.171 C 
BRANCH   8   9
ATOM      9  C   UNL     1       3.876  52.086  -8.404  1.00  0.00     0.190 C 
BRANCH   9  10
ATOM     10  O   UNL     1       3.557  52.124  -7.040  1.00  0.00    -0.394 OA
ATOM     11  H   UNL     1       4.251  52.681  -6.601  1.00  0.00     0.210 HD
ENDBRANCH   9  10
ENDBRANCH   8   9
BRANCH   8  12
ATOM     12  O   UNL     1       4.409  50.637 -10.238  1.00  0.00    -0.388 OA
ATOM     13  H   UNL     1       3.563  50.719 -10.751  1.00  0.00     0.211 HD
ENDBRANCH   8  12
ENDBRANCH   1   8
BRANCH   1  14
ATOM     14  O   UNL     1       2.706  49.387  -7.315  1.00  0.00    -0.388 OA
ATOM     15  H   UNL     1       2.679  50.203  -6.750  1.00  0.00     0.211 HD
ENDBRANCH   1  14
TORSDOF 9
ENDMDL
MODEL 3
REMARK VINA RESULT:    -4.503      1.067      2.559
REMARK INTER + INTRA:          -6.895
REMARK INTER:                  -6.610
REMARK INTRA:                  -0.285
REMARK UNBOUND:                -0.680
REMARK SMILES OC[C@H](O)C(O)[C@@H](O)CO
REMARK SMILES IDX 5 1 7 2 9 3 10 4 8 6 3 8 2 9 1 10 4 12 6 14
REMARK H PARENT 10 5 8 7 1 11 4 13 6 15
REMARK Flexibility Score: inf
ROOT
ATOM      1  C   UNL     1       3.187  49.167  -8.631  1.00  0.00     0.176 C 
ENDROOT
BRANCH   1   2
ATOM      2  C   UNL     1       4.131  50.386  -8.828  1.00  0.00     0.171 C 
BRANCH   2   3
ATOM      3  C   UNL     1       3.474  51.766  -8.597  1.00  0.00     0.190 C 
BRANCH   3   4
ATOM      4  O   UNL     1       3.431  52.095  -7.235  1.00  0.00    -0.394 OA
ATOM      5  H   UNL     1       2.488  52.329  -7.036  1.00  0.00     0.210 HD
ENDBRANCH   3   4
ENDBRANCH   2   3
BRANCH   2   6
ATOM      6  O   UNL     1       4.824  50.316 -10.053  1.00  0.00    -0.388 OA
ATOM      7  H   UNL     1       4.278  49.806 -10.702  1.00  0.00     0.211 HD
ENDBRANCH   2   6
ENDBRANCH   1   2
BRANCH   1   8
ATOM      8  C   UNL     1       2.038  49.052  -9.664  1.00  0.00     0.171 C 
BRANCH   8   9
ATOM      9  C   UNL     1       1.892  47.603 -10.167  1.00  0.00     0.190 C 
BRANCH   9  10
ATOM     10  O   UNL     1       3.149  46.993 -10.285  1.00  0.00    -0.394 OA
ATOM     11  H   UNL     1       3.501  47.238 -11.180  1.00  0.00     0.210 HD
ENDBRANCH   9  10
ENDBRANCH   8   9
BRANCH   8  12
ATOM     12  O   UNL     1       2.294  49.890 -10.761  1.00  0.00    -0.388 OA
ATOM     13  H   UNL     1       3.279  49.991 -10.827  1.00  0.00     0.211 HD
ENDBRANCH   8  12
ENDBRANCH   1   8
BRANCH   1  14
ATOM     14  O   UNL     1       2.647  49.233  -7.333  1.00  0.00    -0.388 OA
ATOM     15  H   UNL     1       1.801  49.751  -7.386  1.00  0.00     0.211 HD
ENDBRANCH   1  14
TORSDOF 9
ENDMDL
MODEL 4
REMARK VINA RESULT:    -4.341      1.152      3.921
REMARK INTER + INTRA:          -6.671
REMARK INTER:                  -6.147
REMARK INTRA:                  -0.524
REMARK UNBOUND:                -0.680
REMARK SMILES OC[C@H](O)C(O)[C@@H](O)CO
REMARK SMILES IDX 5 1 7 2 9 3 10 4 8 6 3 8 2 9 1 10 4 12 6 14
REMARK H PARENT 10 5 8 7 1 11 4 13 6 15
REMARK Flexibility Score: inf
ROOT
ATOM      1  C   UNL     1       4.262  50.585  -9.100  1.00  0.00     0.176 C 
ENDROOT
BRANCH   1   2
ATOM      2  C   UNL     1       2.787  50.116  -9.242  1.00  0.00     0.171 C 
BRANCH   2   3
ATOM      3  C   UNL     1       2.399  48.901  -8.369  1.00  0.00     0.190 C 
BRANCH   3   4
ATOM      4  O   UNL     1       2.580  49.168  -7.004  1.00  0.00    -0.394 OA
ATOM      5  H   UNL     1       2.446  50.145  -6.894  1.00  0.00     0.210 HD
ENDBRANCH   3   4
ENDBRANCH   2   3
BRANCH   2   6
ATOM      6  O   UNL     1       2.420  49.951 -10.592  1.00  0.00    -0.388 OA
ATOM      7  H   UNL     1       1.438  49.838 -10.647  1.00  0.00     0.211 HD
ENDBRANCH   2   6
ENDBRANCH   1   2
BRANCH   1   8
ATOM      8  C   UNL     1       4.451  51.956  -8.402  1.00  0.00     0.171 C 
BRANCH   8   9
ATOM      9  C   UNL     1       5.899  52.125  -7.904  1.00  0.00     0.190 C 
BRANCH   9  10
ATOM     10  O   UNL     1       6.796  52.121  -8.982  1.00  0.00    -0.394 OA
ATOM     11  H   UNL     1       7.670  51.815  -8.624  1.00  0.00     0.210 HD
ENDBRANCH   9  10
ENDBRANCH   8   9
BRANCH   8  12
ATOM     12  O   UNL     1       3.579  52.060  -7.306  1.00  0.00    -0.388 OA
ATOM     13  H   UNL     1       3.700  51.241  -6.758  1.00  0.00     0.211 HD
ENDBRANCH   8  12
ENDBRANCH   1   8
BRANCH   1  14
ATOM     14  O   UNL     1       4.837  50.628 -10.384  1.00  0.00    -0.388 OA
ATOM     15  H   UNL     1       5.665  51.173 -10.323  1.00  0.00     0.211 HD
ENDBRANCH   1  14
TORSDOF 9
ENDMDL
MODEL 5
REMARK VINA RESULT:    -3.288     21.429     23.447
REMARK INTER + INTRA:          -5.218
REMARK INTER:                  -4.754
REMARK INTRA:                  -0.464
REMARK UNBOUND:                -0.680
REMARK SMILES OC[C@H](O)C(O)[C@@H](O)CO
REMARK SMILES IDX 5 1 7 2 9 3 10 4 8 6 3 8 2 9 1 10 4 12 6 14
REMARK H PARENT 10 5 8 7 1 11 4 13 6 15
REMARK Flexibility Score: inf
ROOT
ATOM      1  C   UNL     1      -8.811  36.566 -23.240  1.00  0.00     0.176 C 
ENDROOT
BRANCH   1   2
ATOM      2  C   UNL     1      -8.220  37.533 -22.177  1.00  0.00     0.171 C 
BRANCH   2   3
ATOM      3  C   UNL     1      -6.736  37.910 -22.389  1.00  0.00     0.190 C 
BRANCH   3   4
ATOM      4  O   UNL     1      -6.071  36.962 -23.179  1.00  0.00    -0.394 OA
ATOM      5  H   UNL     1      -5.126  37.260 -23.231  1.00  0.00     0.210 HD
ENDBRANCH   3   4
ENDBRANCH   2   3
BRANCH   2   6
ATOM      6  O   UNL     1      -8.484  37.091 -20.865  1.00  0.00    -0.388 OA
ATOM      7  H   UNL     1      -8.752  36.138 -20.896  1.00  0.00     0.211 HD
ENDBRANCH   2   6
ENDBRANCH   1   2
BRANCH   1   8
ATOM      8  C   UNL     1     -10.357  36.450 -23.236  1.00  0.00     0.171 C 
BRANCH   8   9
ATOM      9  C   UNL     1     -10.809  35.093 -23.810  1.00  0.00     0.190 C 
BRANCH   9  10
ATOM     10  O   UNL     1     -10.811  34.110 -22.809  1.00  0.00    -0.394 OA
ATOM     11  H   UNL     1     -11.744  33.776 -22.741  1.00  0.00     0.210 HD
ENDBRANCH   9  10
ENDBRANCH   8   9
BRANCH   8  12
ATOM     12  O   UNL     1     -10.917  37.479 -24.009  1.00  0.00    -0.388 OA
ATOM     13  H   UNL     1     -10.164  37.966 -24.435  1.00  0.00     0.211 HD
ENDBRANCH   8  12
ENDBRANCH   1   8
BRANCH   1  14
ATOM     14  O   UNL     1      -8.245  35.293 -23.042  1.00  0.00    -0.388 OA
ATOM     15  H   UNL     1      -7.380  35.419 -22.570  1.00  0.00     0.211 HD
ENDBRANCH   1  14
TORSDOF 9
ENDMDL
MODEL 6
REMARK VINA RESULT:    -3.263     21.326     22.724
REMARK INTER + INTRA:          -5.183
REMARK INTER:                  -4.674
REMARK INTRA:                  -0.508
REMARK UNBOUND:                -0.680
REMARK SMILES OC[C@H](O)C(O)[C@@H](O)CO
REMARK SMILES IDX 5 1 7 2 9 3 10 4 8 6 3 8 2 9 1 10 4 12 6 14
REMARK H PARENT 10 5 8 7 1 11 4 13 6 15
REMARK Flexibility Score: inf
ROOT
ATOM      1  C   UNL     1      -9.098  36.710 -21.890  1.00  0.00     0.176 C 
ENDROOT
BRANCH   1   2
ATOM      2  C   UNL     1      -9.521  37.854 -20.927  1.00  0.00     0.171 C 
BRANCH   2   3
ATOM      3  C   UNL     1     -11.025  38.212 -20.958  1.00  0.00     0.190 C 
BRANCH   3   4
ATOM      4  O   UNL     1     -11.388  38.808 -22.174  1.00  0.00    -0.394 OA
ATOM      5  H   UNL     1     -10.728  38.494 -22.844  1.00  0.00     0.210 HD
ENDBRANCH   3   4
ENDBRANCH   2   3
BRANCH   2   6
ATOM      6  O   UNL     1      -8.693  38.985 -21.065  1.00  0.00    -0.388 OA
ATOM      7  H   UNL     1      -9.015  39.527 -21.829  1.00  0.00     0.211 HD
ENDBRANCH   2   6
ENDBRANCH   1   2
BRANCH   1   8
ATOM      8  C   UNL     1      -8.116  37.126 -23.014  1.00  0.00     0.171 C 
BRANCH   8   9
ATOM      9  C   UNL     1      -7.977  36.009 -24.067  1.00  0.00     0.190 C 
BRANCH   9  10
ATOM     10  O   UNL     1      -6.664  35.516 -24.093  1.00  0.00    -0.394 OA
ATOM     11  H   UNL     1      -6.133  36.152 -24.640  1.00  0.00     0.210 HD
ENDBRANCH   9  10
ENDBRANCH   8   9
BRANCH   8  12
ATOM     12  O   UNL     1      -6.851  37.395 -22.469  1.00  0.00    -0.388 OA
ATOM     13  H   UNL     1      -6.185  37.250 -23.190  1.00  0.00     0.211 HD
ENDBRANCH   8  12
ENDBRANCH   1   8
BRANCH   1  14
ATOM     14  O   UNL     1     -10.262  36.162 -22.463  1.00  0.00    -0.388 OA
ATOM     15  H   UNL     1     -10.024  35.271 -22.831  1.00  0.00     0.211 HD
ENDBRANCH   1  14
TORSDOF 9
ENDMDL
MODEL 7
REMARK VINA RESULT:    -3.182     21.100     22.569
REMARK INTER + INTRA:          -5.072
REMARK INTER:                  -4.645
REMARK INTRA:                  -0.427
REMARK UNBOUND:                -0.680
REMARK SMILES OC[C@H](O)C(O)[C@@H](O)CO
REMARK SMILES IDX 5 1 7 2 9 3 10 4 8 6 3 8 2 9 1 10 4 12 6 14
REMARK H PARENT 10 5 8 7 1 11 4 13 6 15
REMARK Flexibility Score: inf
ROOT
ATOM      1  C   UNL     1      -8.528  37.465 -21.703  1.00  0.00     0.176 C 
ENDROOT
BRANCH   1   2
ATOM      2  C   UNL     1      -7.973  37.165 -23.123  1.00  0.00     0.171 C 
BRANCH   2   3
ATOM      3  C   UNL     1      -8.608  35.945 -23.829  1.00  0.00     0.190 C 
BRANCH   3   4
ATOM      4  O   UNL     1      -8.783  34.871 -22.946  1.00  0.00    -0.394 OA
ATOM      5  H   UNL     1      -9.757  34.812 -22.771  1.00  0.00     0.210 HD
ENDBRANCH   3   4
ENDBRANCH   2   3
BRANCH   2   6
ATOM      6  O   UNL     1      -6.565  37.122 -23.134  1.00  0.00    -0.388 OA
ATOM      7  H   UNL     1      -6.259  36.834 -24.031  1.00  0.00     0.211 HD
ENDBRANCH   2   6
ENDBRANCH   1   2
BRANCH   1   8
ATOM      8  C   UNL     1     -10.041  37.797 -21.646  1.00  0.00     0.171 C 
BRANCH   8   9
ATOM      9  C   UNL     1     -10.346  38.782 -20.500  1.00  0.00     0.190 C 
BRANCH   9  10
ATOM     10  O   UNL     1     -10.191  40.107 -20.935  1.00  0.00    -0.394 OA
ATOM     11  H   UNL     1      -9.528  40.088 -21.673  1.00  0.00     0.210 HD
ENDBRANCH   9  10
ENDBRANCH   8   9
BRANCH   8  12
ATOM     12  O   UNL     1     -10.782  36.622 -21.443  1.00  0.00    -0.388 OA
ATOM     13  H   UNL     1     -10.720  36.401 -20.477  1.00  0.00     0.211 HD
ENDBRANCH   8  12
ENDBRANCH   1   8
BRANCH   1  14
ATOM     14  O   UNL     1      -7.792  38.534 -21.158  1.00  0.00    -0.388 OA
ATOM     15  H   UNL     1      -8.200  38.763 -20.282  1.00  0.00     0.211 HD
ENDBRANCH   1  14
TORSDOF 9
ENDMDL
MODEL 8
REMARK VINA RESULT:    -3.180     20.860     22.045
REMARK INTER + INTRA:          -5.069
REMARK INTER:                  -4.381
REMARK INTRA:                  -0.688
REMARK UNBOUND:                -0.680
REMARK SMILES OC[C@H](O)C(O)[C@@H](O)CO
REMARK SMILES IDX 5 1 7 2 9 3 10 4 8 6 3 8 2 9 1 10 4 12 6 14
REMARK H PARENT 10 5 8 7 1 11 4 13 6 15
REMARK Flexibility Score: inf
ROOT
ATOM      1  C   UNL     1      -8.886  37.793 -21.159  1.00  0.00     0.176 C 
ENDROOT
BRANCH   1   2
ATOM      2  C   UNL     1      -9.271  37.077 -22.484  1.00  0.00     0.171 C 
BRANCH   2   3
ATOM      3  C   UNL     1      -8.159  37.046 -23.557  1.00  0.00     0.190 C 
BRANCH   3   4
ATOM      4  O   UNL     1      -6.883  37.016 -22.978  1.00  0.00    -0.394 OA
ATOM      5  H   UNL     1      -6.486  37.911 -23.137  1.00  0.00     0.210 HD
ENDBRANCH   3   4
ENDBRANCH   2   3
BRANCH   2   6
ATOM      6  O   UNL     1     -10.500  37.543 -22.991  1.00  0.00    -0.388 OA
ATOM      7  H   UNL     1     -10.830  36.903 -23.672  1.00  0.00     0.211 HD
ENDBRANCH   2   6
ENDBRANCH   1   2
BRANCH   1   8
ATOM      8  C   UNL     1     -10.082  38.189 -20.255  1.00  0.00     0.171 C 
BRANCH   8   9
ATOM      9  C   UNL     1     -10.328  39.710 -20.303  1.00  0.00     0.190 C 
BRANCH   9  10
ATOM     10  O   UNL     1     -11.064  40.055 -21.445  1.00  0.00    -0.394 OA
ATOM     11  H   UNL     1     -11.370  40.990 -21.314  1.00  0.00     0.210 HD
ENDBRANCH   9  10
ENDBRANCH   8   9
BRANCH   8  12
ATOM     12  O   UNL     1      -9.823  37.812 -18.928  1.00  0.00    -0.388 OA
ATOM     13  H   UNL     1      -9.926  36.827 -18.879  1.00  0.00     0.211 HD
ENDBRANCH   8  12
ENDBRANCH   1   8
BRANCH   1  14
ATOM     14  O   UNL     1      -8.139  38.942 -21.479  1.00  0.00    -0.388 OA
ATOM     15  H   UNL     1      -8.649  39.450 -22.163  1.00  0.00     0.211 HD
ENDBRANCH   1  14
TORSDOF 9
ENDMDL
MODEL 9
REMARK VINA RESULT:    -3.126     21.401     22.333
REMARK INTER + INTRA:          -4.994
REMARK INTER:                  -4.087
REMARK INTRA:                  -0.908
REMARK UNBOUND:                -0.680
REMARK SMILES OC[C@H](O)C(O)[C@@H](O)CO
REMARK SMILES IDX 5 1 7 2 9 3 10 4 8 6 3 8 2 9 1 10 4 12 6 14
REMARK H PARENT 10 5 8 7 1 11 4 13 6 15
REMARK Flexibility Score: inf
ROOT
ATOM      1  C   UNL     1     -10.409  37.071 -21.784  1.00  0.00     0.176 C 
ENDROOT
BRANCH   1   2
ATOM      2  C   UNL     1     -10.781  37.812 -20.469  1.00  0.00     0.171 C 
BRANCH   2   3
ATOM      3  C   UNL     1     -11.300  39.256 -20.657  1.00  0.00     0.190 C 
BRANCH   3   4
ATOM      4  O   UNL     1     -10.253  40.150 -20.922  1.00  0.00    -0.394 OA
ATOM      5  H   UNL     1      -9.414  39.657 -20.731  1.00  0.00     0.210 HD
ENDBRANCH   3   4
ENDBRANCH   2   3
BRANCH   2   6
ATOM      6  O   UNL     1      -9.749  37.728 -19.513  1.00  0.00    -0.388 OA
ATOM      7  H   UNL     1      -9.859  38.462 -18.857  1.00  0.00     0.211 HD
ENDBRANCH   2   6
ENDBRANCH   1   2
BRANCH   1   8
ATOM      8  C   UNL     1      -8.954  36.540 -21.850  1.00  0.00     0.171 C 
BRANCH   8   9
ATOM      9  C   UNL     1      -8.010  37.595 -22.458  1.00  0.00     0.190 C 
BRANCH   9  10
ATOM     10  O   UNL     1      -7.795  38.645 -21.553  1.00  0.00    -0.394 OA
ATOM     11  H   UNL     1      -8.651  39.144 -21.489  1.00  0.00     0.210 HD
ENDBRANCH   9  10
ENDBRANCH   8   9
BRANCH   8  12
ATOM     12  O   UNL     1      -8.905  35.379 -22.638  1.00  0.00    -0.388 OA
ATOM     13  H   UNL     1      -9.817  35.232 -22.999  1.00  0.00     0.211 HD
ENDBRANCH   8  12
ENDBRANCH   1   8
BRANCH   1  14
ATOM     14  O   UNL     1     -10.640  37.945 -22.863  1.00  0.00    -0.388 OA
ATOM     15  H   UNL     1     -11.501  38.409 -22.695  1.00  0.00     0.211 HD
ENDBRANCH   1  14
TORSDOF 9
ENDMDL
