MODEL 1
REMARK VINA RESULT:    34.215      0.000      0.000
REMARK INTER + INTRA:          37.215
REMARK INTER:                  37.215
REMARK INTRA:                   0.000
REMARK UNBOUND:                 0.000
REMARK SMILES Cc1cc(O)c2c(c1)C(=O)c1cc(O)cc(O)c1C2=O
REMARK SMILES IDX 1 1 2 2 8 3 7 4 6 5 4 6 3 7 19 8 20 9 18 10 11 11 9 12 10 13
REMARK SMILES IDX 12 14 13 15 15 16 16 17 5 18 17 20 14 22
REMARK H PARENT 5 19 17 21 14 23
REMARK Flexibility Score: inf
ROOT
ATOM      1  C   UNL     1      34.394   8.767  39.021  1.00  0.00     0.044 C 
ATOM      2  C   UNL     1      34.085   9.875  39.984  1.00  0.00    -0.047 A 
ATOM      3  C   UNL     1      35.088  10.770  40.373  1.00  0.00     0.016 A 
ATOM      4  C   UNL     1      34.819  11.784  41.308  1.00  0.00     0.038 A 
ATOM      5  C   UNL     1      33.533  11.888  41.884  1.00  0.00     0.076 A 
ATOM      6  C   UNL     1      32.508  11.007  41.451  1.00  0.00     0.127 A 
ATOM      7  C   UNL     1      32.805   9.994  40.535  1.00  0.00     0.050 A 
ATOM      8  C   UNL     1      33.331  12.876  42.975  1.00  0.00     0.201 C 
ATOM      9  O   UNL     1      32.478  12.652  43.875  1.00  0.00    -0.288 OA
ATOM     10  C   UNL     1      34.260  14.029  43.109  1.00  0.00     0.076 A 
ATOM     11  C   UNL     1      35.545  13.921  42.531  1.00  0.00     0.041 A 
ATOM     12  C   UNL     1      35.880  12.747  41.691  1.00  0.00     0.194 C 
ATOM     13  O   UNL     1      37.061  12.581  41.280  1.00  0.00    -0.289 OA
ATOM     14  C   UNL     1      36.497  14.930  42.753  1.00  0.00     0.059 A 
ATOM     15  C   UNL     1      36.180  16.047  43.527  1.00  0.00     0.120 A 
ATOM     16  C   UNL     1      34.900  16.178  44.065  1.00  0.00     0.093 A 
ATOM     17  C   UNL     1      33.927  15.198  43.842  1.00  0.00     0.131 A 
ENDROOT
BRANCH   6  18
ATOM     18  O   UNL     1      31.184  11.122  41.879  1.00  0.00    -0.507 OA
ATOM     19  H   UNL     1      30.416  11.356  41.265  1.00  0.00     0.293 HD
ENDBRANCH   6  18
BRANCH  17  20
ATOM     20  O   UNL     1      32.642  15.441  44.335  1.00  0.00    -0.507 OA
ATOM     21  H   UNL     1      32.414  15.448  45.320  1.00  0.00     0.293 HD
ENDBRANCH  17  20
BRANCH  15  22
ATOM     22  O   UNL     1      37.125  17.044  43.759  1.00  0.00    -0.508 OA
ATOM     23  H   UNL     1      36.853  18.009  43.904  1.00  0.00     0.293 HD
ENDBRANCH  15  22
TORSDOF 3
ENDMDL
MODEL 2
REMARK VINA RESULT:    36.134      1.777      6.486
REMARK INTER + INTRA:          39.303
REMARK INTER:                  39.303
REMARK INTRA:                   0.000
REMARK UNBOUND:                 0.000
REMARK SMILES Cc1cc(O)c2c(c1)C(=O)c1cc(O)cc(O)c1C2=O
REMARK SMILES IDX 1 1 2 2 8 3 7 4 6 5 4 6 3 7 19 8 20 9 18 10 11 11 9 12 10 13
REMARK SMILES IDX 12 14 13 15 15 16 16 17 5 18 17 20 14 22
REMARK H PARENT 5 19 17 21 14 23
REMARK Flexibility Score: inf
ROOT
ATOM      1  C   UNL     1      35.406  15.719  43.921  1.00  0.00     0.044 C 
ATOM      2  C   UNL     1      35.255  14.530  43.020  1.00  0.00    -0.047 A 
ATOM      3  C   UNL     1      34.138  13.696  43.134  1.00  0.00     0.016 A 
ATOM      4  C   UNL     1      34.010  12.555  42.325  1.00  0.00     0.038 A 
ATOM      5  C   UNL     1      35.030  12.227  41.404  1.00  0.00     0.076 A 
ATOM      6  C   UNL     1      36.138  13.101  41.259  1.00  0.00     0.127 A 
ATOM      7  C   UNL     1      36.253  14.220  42.089  1.00  0.00     0.050 A 
ATOM      8  C   UNL     1      34.928  10.937  40.674  1.00  0.00     0.201 C 
ATOM      9  O   UNL     1      35.976  10.332  40.320  1.00  0.00    -0.288 OA
ATOM     10  C   UNL     1      33.606  10.272  40.530  1.00  0.00     0.076 A 
ATOM     11  C   UNL     1      32.589  10.603  41.453  1.00  0.00     0.041 A 
ATOM     12  C   UNL     1      32.807  11.694  42.432  1.00  0.00     0.194 C 
ATOM     13  O   UNL     1      31.957  11.907  43.339  1.00  0.00    -0.289 OA
ATOM     14  C   UNL     1      31.374   9.897  41.436  1.00  0.00     0.059 A 
ATOM     15  C   UNL     1      31.157   8.881  40.503  1.00  0.00     0.120 A 
ATOM     16  C   UNL     1      32.142   8.580  39.563  1.00  0.00     0.093 A 
ATOM     17  C   UNL     1      33.353   9.281  39.546  1.00  0.00     0.131 A 
ENDROOT
BRANCH   6  18
ATOM     18  O   UNL     1      37.124  12.915  40.288  1.00  0.00    -0.507 OA
ATOM     19  H   UNL     1      37.175  12.101  39.691  1.00  0.00     0.293 HD
ENDBRANCH   6  18
BRANCH  17  20
ATOM     20  O   UNL     1      34.254   8.986  38.519  1.00  0.00    -0.507 OA
ATOM     21  H   UNL     1      35.120   8.486  38.664  1.00  0.00     0.293 HD
ENDBRANCH  17  20
BRANCH  15  22
ATOM     22  O   UNL     1      29.958   8.172  40.490  1.00  0.00    -0.508 OA
ATOM     23  H   UNL     1      29.117   8.561  40.080  1.00  0.00     0.293 HD
ENDBRANCH  15  22
TORSDOF 3
ENDMDL
MODEL 3
REMARK VINA RESULT:    36.652      2.342      5.979
REMARK INTER + INTRA:          39.866
REMARK INTER:                  39.866
REMARK INTRA:                   0.000
REMARK UNBOUND:                 0.000
REMARK SMILES Cc1cc(O)c2c(c1)C(=O)c1cc(O)cc(O)c1C2=O
REMARK SMILES IDX 1 1 2 2 8 3 7 4 6 5 4 6 3 7 19 8 20 9 18 10 11 11 9 12 10 13
REMARK SMILES IDX 12 14 13 15 15 16 16 17 5 18 17 20 14 22
REMARK H PARENT 5 19 17 21 14 23
REMARK Flexibility Score: inf
ROOT
ATOM      1  C   UNL     1      35.675  17.302  45.276  1.00  0.00     0.044 C 
ATOM      2  C   UNL     1      35.176  16.564  44.069  1.00  0.00    -0.047 A 
ATOM      3  C   UNL     1      35.295  15.172  43.995  1.00  0.00     0.016 A 
ATOM      4  C   UNL     1      34.870  14.476  42.851  1.00  0.00     0.038 A 
ATOM      5  C   UNL     1      34.343  15.187  41.750  1.00  0.00     0.076 A 
ATOM      6  C   UNL     1      34.182  16.594  41.848  1.00  0.00     0.127 A 
ATOM      7  C   UNL     1      34.630  17.266  42.989  1.00  0.00     0.050 A 
ATOM      8  C   UNL     1      34.044  14.433  40.505  1.00  0.00     0.201 C 
ATOM      9  O   UNL     1      34.134  15.007  39.387  1.00  0.00    -0.288 OA
ATOM     10  C   UNL     1      33.827  12.964  40.567  1.00  0.00     0.076 A 
ATOM     11  C   UNL     1      34.356  12.257  41.670  1.00  0.00     0.041 A 
ATOM     12  C   UNL     1      34.972  12.998  42.795  1.00  0.00     0.194 C 
ATOM     13  O   UNL     1      35.559  12.370  43.719  1.00  0.00    -0.289 OA
ATOM     14  C   UNL     1      34.291  10.853  41.695  1.00  0.00     0.059 A 
ATOM     15  C   UNL     1      33.694  10.151  40.646  1.00  0.00     0.120 A 
ATOM     16  C   UNL     1      33.135  10.847  39.575  1.00  0.00     0.093 A 
ATOM     17  C   UNL     1      33.167  12.245  39.535  1.00  0.00     0.131 A 
ENDROOT
BRANCH   6  18
ATOM     18  O   UNL     1      33.557  17.353  40.856  1.00  0.00    -0.507 OA
ATOM     19  H   UNL     1      33.241  18.302  40.994  1.00  0.00     0.293 HD
ENDBRANCH   6  18
BRANCH  17  20
ATOM     20  O   UNL     1      32.506  12.875  38.478  1.00  0.00    -0.507 OA
ATOM     21  H   UNL     1      31.740  12.457  37.969  1.00  0.00     0.293 HD
ENDBRANCH  17  20
BRANCH  15  22
ATOM     22  O   UNL     1      33.639   8.759  40.662  1.00  0.00    -0.508 OA
ATOM     23  H   UNL     1      33.235   8.254  41.442  1.00  0.00     0.293 HD
ENDBRANCH  15  22
TORSDOF 3
ENDMDL
MODEL 4
REMARK VINA RESULT:    36.883      2.159      2.509
REMARK INTER + INTRA:          40.118
REMARK INTER:                  40.118
REMARK INTRA:                   0.000
REMARK UNBOUND:                 0.000
REMARK SMILES Cc1cc(O)c2c(c1)C(=O)c1cc(O)cc(O)c1C2=O
REMARK SMILES IDX 1 1 2 2 8 3 7 4 6 5 4 6 3 7 19 8 20 9 18 10 11 11 9 12 10 13
REMARK SMILES IDX 12 14 13 15 15 16 16 17 5 18 17 20 14 22
REMARK H PARENT 5 19 17 21 14 23
REMARK Flexibility Score: inf
ROOT
ATOM      1  C   UNL     1      32.804  10.255  39.123  1.00  0.00     0.044 C 
ATOM      2  C   UNL     1      33.344  11.114  40.228  1.00  0.00    -0.047 A 
ATOM      3  C   UNL     1      33.515  12.489  40.033  1.00  0.00     0.016 A 
ATOM      4  C   UNL     1      34.062  13.294  41.046  1.00  0.00     0.038 A 
ATOM      5  C   UNL     1      34.469  12.709  42.266  1.00  0.00     0.076 A 
ATOM      6  C   UNL     1      34.251  11.323  42.477  1.00  0.00     0.127 A 
ATOM      7  C   UNL     1      33.724  10.539  41.446  1.00  0.00     0.050 A 
ATOM      8  C   UNL     1      35.177  13.567  43.252  1.00  0.00     0.201 C 
ATOM      9  O   UNL     1      36.029  13.057  44.029  1.00  0.00    -0.288 OA
ATOM     10  C   UNL     1      35.019  15.044  43.195  1.00  0.00     0.076 A 
ATOM     11  C   UNL     1      34.611  15.623  41.972  1.00  0.00     0.041 A 
ATOM     12  C   UNL     1      34.210  14.755  40.841  1.00  0.00     0.194 C 
ATOM     13  O   UNL     1      33.970  15.261  39.711  1.00  0.00    -0.289 OA
ATOM     14  C   UNL     1      34.584  17.022  41.838  1.00  0.00     0.059 A 
ATOM     15  C   UNL     1      34.943  17.845  42.907  1.00  0.00     0.120 A 
ATOM     16  C   UNL     1      35.306  17.277  44.128  1.00  0.00     0.093 A 
ATOM     17  C   UNL     1      35.322  15.888  44.295  1.00  0.00     0.131 A 
ENDROOT
BRANCH   6  18
ATOM     18  O   UNL     1      34.512  10.695  43.696  1.00  0.00    -0.507 OA
ATOM     19  H   UNL     1      33.980  10.865  44.538  1.00  0.00     0.293 HD
ENDBRANCH   6  18
BRANCH  17  20
ATOM     20  O   UNL     1      35.608  15.395  45.570  1.00  0.00    -0.507 OA
ATOM     21  H   UNL     1      35.109  15.677  46.403  1.00  0.00     0.293 HD
ENDBRANCH  17  20
BRANCH  15  22
ATOM     22  O   UNL     1      34.928  19.231  42.774  1.00  0.00    -0.508 OA
ATOM     23  H   UNL     1      35.085  19.679  41.878  1.00  0.00     0.293 HD
ENDBRANCH  15  22
TORSDOF 3
ENDMDL
