MODEL 1
REMARK VINA RESULT:     2.998      0.000      0.000
REMARK INTER + INTRA:           4.828
REMARK INTER:                   4.575
REMARK INTRA:                   0.253
REMARK UNBOUND:                 0.253
REMARK SMILES CCCCCCCCCC=CC(=O)[O-]
REMARK SMILES IDX 7 1 8 2 9 3 10 4 11 5 12 6 13 7 14 8 6 9 5 10 4 11 3 12 2 13
REMARK SMILES IDX 1 14
REMARK H PARENT
REMARK Flexibility Score: inf
ROOT
ATOM      1  C   UNL     1     -18.875  61.841  -3.090  1.00  0.00     0.000 C 
ENDROOT
BRANCH   1   2
ATOM      2  C   UNL     1     -17.756  61.501  -2.090  1.00  0.00     0.004 C 
BRANCH   2   3
ATOM      3  C   UNL     1     -16.357  61.851  -2.618  1.00  0.00     0.027 C 
BRANCH   3   4
ATOM      4  C   UNL     1     -15.285  61.310  -1.716  1.00  0.00    -0.025 C 
ATOM      5  C   UNL     1     -14.021  61.181  -2.132  1.00  0.00     0.020 C 
BRANCH   5   6
ATOM      6  C   UNL     1     -12.958  60.638  -1.270  1.00  0.00     0.064 C 
ATOM      7  O   UNL     1     -13.015  60.752  -0.016  1.00  0.00    -0.545 OA
ATOM      8  O   UNL     1     -11.875  59.989  -1.848  1.00  0.00    -0.545 OA
ENDBRANCH   5   6
ENDBRANCH   3   4
ENDBRANCH   2   3
ENDBRANCH   1   2
BRANCH   1   9
ATOM      9  C   UNL     1     -20.133  60.954  -2.990  1.00  0.00     0.000 C 
BRANCH   9  10
ATOM     10  C   UNL     1     -20.994  61.181  -1.735  1.00  0.00     0.000 C 
BRANCH  10  11
ATOM     11  C   UNL     1     -20.270  61.995  -0.653  1.00  0.00    -0.000 C 
BRANCH  11  12
ATOM     12  C   UNL     1     -20.868  63.404  -0.534  1.00  0.00    -0.000 C 
BRANCH  12  13
ATOM     13  C   UNL     1     -19.793  64.491  -0.378  1.00  0.00    -0.003 C 
ATOM     14  C   UNL     1     -18.380  63.915  -0.280  1.00  0.00     0.004 C 
ENDBRANCH  12  13
ENDBRANCH  11  12
ENDBRANCH  10  11
ENDBRANCH   9  10
ENDBRANCH   1   9
TORSDOF 9
ENDMDL
MODEL 2
REMARK VINA RESULT:     3.193      2.880      6.075
REMARK INTER + INTRA:           5.126
REMARK INTER:                   4.801
REMARK INTRA:                   0.325
REMARK UNBOUND:                 0.253
REMARK SMILES CCCCCCCCCC=CC(=O)[O-]
REMARK SMILES IDX 7 1 8 2 9 3 10 4 11 5 12 6 13 7 14 8 6 9 5 10 4 11 3 12 2 13
REMARK SMILES IDX 1 14
REMARK H PARENT
REMARK Flexibility Score: inf
ROOT
ATOM      1  C   UNL     1     -18.821  61.566  -3.185  1.00  0.00     0.000 C 
ENDROOT
BRANCH   1   2
ATOM      2  C   UNL     1     -20.140  60.786  -3.045  1.00  0.00     0.004 C 
BRANCH   2   3
ATOM      3  C   UNL     1     -20.943  61.191  -1.799  1.00  0.00     0.027 C 
BRANCH   3   4
ATOM      4  C   UNL     1     -20.176  62.168  -0.955  1.00  0.00    -0.025 C 
ATOM      5  C   UNL     1     -20.348  63.488  -1.084  1.00  0.00     0.020 C 
BRANCH   5   6
ATOM      6  C   UNL     1     -19.597  64.464  -0.278  1.00  0.00     0.064 C 
ATOM      7  O   UNL     1     -20.193  65.336   0.411  1.00  0.00    -0.545 OA
ATOM      8  O   UNL     1     -18.209  64.425  -0.277  1.00  0.00    -0.545 OA
ENDBRANCH   5   6
ENDBRANCH   3   4
ENDBRANCH   2   3
ENDBRANCH   1   2
BRANCH   1   9
ATOM      9  C   UNL     1     -17.725  61.184  -2.169  1.00  0.00     0.000 C 
BRANCH   9  10
ATOM     10  C   UNL     1     -16.388  61.927  -2.341  1.00  0.00     0.000 C 
BRANCH  10  11
ATOM     11  C   UNL     1     -15.176  61.076  -1.934  1.00  0.00    -0.000 C 
BRANCH  11  12
ATOM     12  C   UNL     1     -13.905  61.555  -2.649  1.00  0.00    -0.000 C 
BRANCH  12  13
ATOM     13  C   UNL     1     -12.621  61.161  -1.902  1.00  0.00    -0.003 C 
ATOM     14  C   UNL     1     -12.902  60.374  -0.622  1.00  0.00     0.004 C 
ENDBRANCH  12  13
ENDBRANCH  11  12
ENDBRANCH  10  11
ENDBRANCH   9  10
ENDBRANCH   1   9
TORSDOF 9
ENDMDL
MODEL 3
REMARK VINA RESULT:     3.499      3.452      6.551
REMARK INTER + INTRA:           5.592
REMARK INTER:                   5.324
REMARK INTRA:                   0.268
REMARK UNBOUND:                 0.253
REMARK SMILES CCCCCCCCCC=CC(=O)[O-]
REMARK SMILES IDX 7 1 8 2 9 3 10 4 11 5 12 6 13 7 14 8 6 9 5 10 4 11 3 12 2 13
REMARK SMILES IDX 1 14
REMARK H PARENT
REMARK Flexibility Score: inf
ROOT
ATOM      1  C   UNL     1     -17.296  62.957  -0.581  1.00  0.00     0.000 C 
ENDROOT
BRANCH   1   2
ATOM      2  C   UNL     1     -18.576  63.781  -0.803  1.00  0.00     0.004 C 
BRANCH   2   3
ATOM      3  C   UNL     1     -19.780  63.234  -0.022  1.00  0.00     0.027 C 
BRANCH   3   4
ATOM      4  C   UNL     1     -20.578  62.275  -0.858  1.00  0.00    -0.025 C 
ATOM      5  C   UNL     1     -20.047  61.672  -1.927  1.00  0.00     0.020 C 
BRANCH   5   6
ATOM      6  C   UNL     1     -20.814  60.740  -2.769  1.00  0.00     0.064 C 
ATOM      7  O   UNL     1     -20.384  60.378  -3.898  1.00  0.00    -0.545 OA
ATOM      8  O   UNL     1     -22.031  60.251  -2.313  1.00  0.00    -0.545 OA
ENDBRANCH   5   6
ENDBRANCH   3   4
ENDBRANCH   2   3
ENDBRANCH   1   2
BRANCH   1   9
ATOM      9  C   UNL     1     -17.097  61.781  -1.559  1.00  0.00     0.000 C 
BRANCH   9  10
ATOM     10  C   UNL     1     -15.801  61.832  -2.387  1.00  0.00     0.000 C 
BRANCH  10  11
ATOM     11  C   UNL     1     -14.731  60.854  -1.882  1.00  0.00    -0.000 C 
BRANCH  11  12
ATOM     12  C   UNL     1     -13.320  61.376  -2.192  1.00  0.00    -0.000 C 
BRANCH  12  13
ATOM     13  C   UNL     1     -12.222  60.576  -1.473  1.00  0.00    -0.003 C 
ATOM     14  C   UNL     1     -12.759  59.765  -0.294  1.00  0.00     0.004 C 
ENDBRANCH  12  13
ENDBRANCH  11  12
ENDBRANCH  10  11
ENDBRANCH   9  10
ENDBRANCH   1   9
TORSDOF 9
ENDMDL
MODEL 4
REMARK VINA RESULT:     3.653      1.281      3.106
REMARK INTER + INTRA:           5.828
REMARK INTER:                   6.151
REMARK INTRA:                  -0.323
REMARK UNBOUND:                 0.253
REMARK SMILES CCCCCCCCCC=CC(=O)[O-]
REMARK SMILES IDX 7 1 8 2 9 3 10 4 11 5 12 6 13 7 14 8 6 9 5 10 4 11 3 12 2 13
REMARK SMILES IDX 1 14
REMARK H PARENT
REMARK Flexibility Score: inf
ROOT
ATOM      1  C   UNL     1     -18.321  63.799  -0.747  1.00  0.00     0.000 C 
ENDROOT
BRANCH   1   2
ATOM      2  C   UNL     1     -17.209  62.781  -0.436  1.00  0.00     0.004 C 
BRANCH   2   3
ATOM      3  C   UNL     1     -16.872  61.880  -1.634  1.00  0.00     0.027 C 
BRANCH   3   4
ATOM      4  C   UNL     1     -15.397  61.885  -1.917  1.00  0.00    -0.025 C 
ATOM      5  C   UNL     1     -14.596  60.913  -1.468  1.00  0.00     0.020 C 
BRANCH   5   6
ATOM      6  C   UNL     1     -13.146  60.906  -1.720  1.00  0.00     0.064 C 
ATOM      7  O   UNL     1     -12.372  60.177  -1.043  1.00  0.00    -0.545 OA
ATOM      8  O   UNL     1     -12.623  61.714  -2.721  1.00  0.00    -0.545 OA
ENDBRANCH   5   6
ENDBRANCH   3   4
ENDBRANCH   2   3
ENDBRANCH   1   2
BRANCH   1   9
ATOM      9  C   UNL     1     -19.726  63.405  -0.248  1.00  0.00     0.000 C 
BRANCH   9  10
ATOM     10  C   UNL     1     -20.346  62.179  -0.943  1.00  0.00     0.000 C 
BRANCH  10  11
ATOM     11  C   UNL     1     -20.099  62.163  -2.458  1.00  0.00    -0.000 C 
BRANCH  11  12
ATOM     12  C   UNL     1     -20.029  60.724  -2.988  1.00  0.00    -0.000 C 
BRANCH  12  13
ATOM     13  C   UNL     1     -21.375  60.232  -3.543  1.00  0.00    -0.003 C 
ATOM     14  C   UNL     1     -21.254  59.647  -4.950  1.00  0.00     0.004 C 
ENDBRANCH  12  13
ENDBRANCH  11  12
ENDBRANCH  10  11
ENDBRANCH   9  10
ENDBRANCH   1   9
TORSDOF 9
ENDMDL
MODEL 5
REMARK VINA RESULT:     3.726      1.656      3.572
REMARK INTER + INTRA:           5.940
REMARK INTER:                   6.059
REMARK INTRA:                  -0.118
REMARK UNBOUND:                 0.253
REMARK SMILES CCCCCCCCCC=CC(=O)[O-]
REMARK SMILES IDX 7 1 8 2 9 3 10 4 11 5 12 6 13 7 14 8 6 9 5 10 4 11 3 12 2 13
REMARK SMILES IDX 1 14
REMARK H PARENT
REMARK Flexibility Score: inf
ROOT
ATOM      1  C   UNL     1     -19.400  63.370  -0.358  1.00  0.00     0.000 C 
ENDROOT
BRANCH   1   2
ATOM      2  C   UNL     1     -17.863  63.326  -0.429  1.00  0.00     0.004 C 
BRANCH   2   3
ATOM      3  C   UNL     1     -17.342  62.290  -1.438  1.00  0.00     0.027 C 
BRANCH   3   4
ATOM      4  C   UNL     1     -15.842  62.225  -1.420  1.00  0.00    -0.025 C 
ATOM      5  C   UNL     1     -15.185  61.144  -1.855  1.00  0.00     0.020 C 
BRANCH   5   6
ATOM      6  C   UNL     1     -13.716  61.052  -1.833  1.00  0.00     0.064 C 
ATOM      7  O   UNL     1     -13.124  60.286  -1.025  1.00  0.00    -0.545 OA
ATOM      8  O   UNL     1     -12.970  61.821  -2.716  1.00  0.00    -0.545 OA
ENDBRANCH   5   6
ENDBRANCH   3   4
ENDBRANCH   2   3
ENDBRANCH   1   2
BRANCH   1   9
ATOM      9  C   UNL     1     -20.127  62.883  -1.628  1.00  0.00     0.000 C 
BRANCH   9  10
ATOM     10  C   UNL     1     -20.448  61.378  -1.660  1.00  0.00     0.000 C 
BRANCH  10  11
ATOM     11  C   UNL     1     -20.026  60.706  -2.974  1.00  0.00    -0.000 C 
BRANCH  11  12
ATOM     12  C   UNL     1     -21.254  60.270  -3.787  1.00  0.00    -0.000 C 
BRANCH  12  13
ATOM     13  C   UNL     1     -20.876  59.520  -5.074  1.00  0.00    -0.003 C 
ATOM     14  C   UNL     1     -22.088  59.205  -5.950  1.00  0.00     0.004 C 
ENDBRANCH  12  13
ENDBRANCH  11  12
ENDBRANCH  10  11
ENDBRANCH   9  10
ENDBRANCH   1   9
TORSDOF 9
ENDMDL
MODEL 6
REMARK VINA RESULT:     3.964      4.178      6.989
REMARK INTER + INTRA:           6.303
REMARK INTER:                   6.632
REMARK INTRA:                  -0.329
REMARK UNBOUND:                 0.253
REMARK SMILES CCCCCCCCCC=CC(=O)[O-]
REMARK SMILES IDX 7 1 8 2 9 3 10 4 11 5 12 6 13 7 14 8 6 9 5 10 4 11 3 12 2 13
REMARK SMILES IDX 1 14
REMARK H PARENT
REMARK Flexibility Score: inf
ROOT
ATOM      1  C   UNL     1     -18.310  62.284  -1.375  1.00  0.00     0.000 C 
ENDROOT
BRANCH   1   2
ATOM      2  C   UNL     1     -19.670  62.442  -2.079  1.00  0.00     0.004 C 
BRANCH   2   3
ATOM      3  C   UNL     1     -20.477  61.136  -2.118  1.00  0.00     0.027 C 
BRANCH   3   4
ATOM      4  C   UNL     1     -20.462  60.530  -3.492  1.00  0.00    -0.025 C 
ATOM      5  C   UNL     1     -21.579  60.070  -4.065  1.00  0.00     0.020 C 
BRANCH   5   6
ATOM      6  C   UNL     1     -21.585  59.458  -5.404  1.00  0.00     0.064 C 
ATOM      7  O   UNL     1     -22.633  59.437  -6.105  1.00  0.00    -0.545 OA
ATOM      8  O   UNL     1     -20.418  58.896  -5.903  1.00  0.00    -0.545 OA
ENDBRANCH   5   6
ENDBRANCH   3   4
ENDBRANCH   2   3
ENDBRANCH   1   2
BRANCH   1   9
ATOM      9  C   UNL     1     -17.217  61.592  -2.213  1.00  0.00     0.000 C 
BRANCH   9  10
ATOM     10  C   UNL     1     -15.771  61.927  -1.806  1.00  0.00     0.000 C 
BRANCH  10  11
ATOM     11  C   UNL     1     -14.751  60.904  -2.326  1.00  0.00    -0.000 C 
BRANCH  11  12
ATOM     12  C   UNL     1     -13.361  61.539  -2.471  1.00  0.00    -0.000 C 
BRANCH  12  13
ATOM     13  C   UNL     1     -12.312  60.881  -1.562  1.00  0.00    -0.003 C 
ATOM     14  C   UNL     1     -12.938  60.015  -0.469  1.00  0.00     0.004 C 
ENDBRANCH  12  13
ENDBRANCH  11  12
ENDBRANCH  10  11
ENDBRANCH   9  10
ENDBRANCH   1   9
TORSDOF 9
ENDMDL
MODEL 7
REMARK VINA RESULT:     4.907      5.213      7.210
REMARK INTER + INTRA:           7.742
REMARK INTER:                   8.096
REMARK INTRA:                  -0.355
REMARK UNBOUND:                 0.253
REMARK SMILES CCCCCCCCCC=CC(=O)[O-]
REMARK SMILES IDX 7 1 8 2 9 3 10 4 11 5 12 6 13 7 14 8 6 9 5 10 4 11 3 12 2 13
REMARK SMILES IDX 1 14
REMARK H PARENT
REMARK Flexibility Score: inf
ROOT
ATOM      1  C   UNL     1     -17.503  66.092  -1.064  1.00  0.00     0.000 C 
ENDROOT
BRANCH   1   2
ATOM      2  C   UNL     1     -17.813  64.624  -0.723  1.00  0.00     0.004 C 
BRANCH   2   3
ATOM      3  C   UNL     1     -19.229  64.428  -0.161  1.00  0.00     0.027 C 
BRANCH   3   4
ATOM      4  C   UNL     1     -19.884  63.213  -0.753  1.00  0.00    -0.025 C 
ATOM      5  C   UNL     1     -19.374  62.597  -1.826  1.00  0.00     0.020 C 
BRANCH   5   6
ATOM      6  C   UNL     1     -20.007  61.415  -2.432  1.00  0.00     0.064 C 
ATOM      7  O   UNL     1     -19.548  60.900  -3.487  1.00  0.00    -0.545 OA
ATOM      8  O   UNL     1     -21.128  60.857  -1.832  1.00  0.00    -0.545 OA
ENDBRANCH   5   6
ENDBRANCH   3   4
ENDBRANCH   2   3
ENDBRANCH   1   2
BRANCH   1   9
ATOM      9  C   UNL     1     -16.010  66.414  -1.272  1.00  0.00     0.000 C 
BRANCH   9  10
ATOM     10  C   UNL     1     -15.719  67.552  -2.267  1.00  0.00     0.000 C 
BRANCH  10  11
ATOM     11  C   UNL     1     -14.543  68.439  -1.833  1.00  0.00    -0.000 C 
BRANCH  11  12
ATOM     12  C   UNL     1     -13.346  67.585  -1.391  1.00  0.00    -0.000 C 
BRANCH  12  13
ATOM     13  C   UNL     1     -11.997  68.230  -1.744  1.00  0.00    -0.003 C 
ATOM     14  C   UNL     1     -12.038  69.757  -1.683  1.00  0.00     0.004 C 
ENDBRANCH  12  13
ENDBRANCH  11  12
ENDBRANCH  10  11
ENDBRANCH   9  10
ENDBRANCH   1   9
TORSDOF 9
ENDMDL
MODEL 8
REMARK VINA RESULT:     5.296      4.465      5.550
REMARK INTER + INTRA:           8.335
REMARK INTER:                   8.698
REMARK INTRA:                  -0.362
REMARK UNBOUND:                 0.253
REMARK SMILES CCCCCCCCCC=CC(=O)[O-]
REMARK SMILES IDX 7 1 8 2 9 3 10 4 11 5 12 6 13 7 14 8 6 9 5 10 4 11 3 12 2 13
REMARK SMILES IDX 1 14
REMARK H PARENT
REMARK Flexibility Score: inf
ROOT
ATOM      1  C   UNL     1     -17.963  65.721  -1.129  1.00  0.00     0.000 C 
ENDROOT
BRANCH   1   2
ATOM      2  C   UNL     1     -16.516  66.222  -0.967  1.00  0.00     0.004 C 
BRANCH   2   3
ATOM      3  C   UNL     1     -16.064  67.124  -2.125  1.00  0.00     0.027 C 
BRANCH   3   4
ATOM      4  C   UNL     1     -14.859  67.935  -1.741  1.00  0.00    -0.025 C 
ATOM      5  C   UNL     1     -13.674  67.359  -1.510  1.00  0.00     0.020 C 
BRANCH   5   6
ATOM      6  C   UNL     1     -12.484  68.132  -1.117  1.00  0.00     0.064 C 
ATOM      7  O   UNL     1     -12.010  69.023  -1.872  1.00  0.00    -0.545 OA
ATOM      8  O   UNL     1     -11.875  67.874   0.103  1.00  0.00    -0.545 OA
ENDBRANCH   5   6
ENDBRANCH   3   4
ENDBRANCH   2   3
ENDBRANCH   1   2
BRANCH   1   9
ATOM      9  C   UNL     1     -18.195  64.251  -0.724  1.00  0.00     0.000 C 
BRANCH   9  10
ATOM     10  C   UNL     1     -19.638  63.906  -0.317  1.00  0.00     0.000 C 
BRANCH  10  11
ATOM     11  C   UNL     1     -20.124  62.576  -0.909  1.00  0.00    -0.000 C 
BRANCH  11  12
ATOM     12  C   UNL     1     -19.115  62.028  -1.929  1.00  0.00    -0.000 C 
BRANCH  12  13
ATOM     13  C   UNL     1     -19.772  61.125  -2.984  1.00  0.00    -0.003 C 
ATOM     14  C   UNL     1     -21.130  60.586  -2.537  1.00  0.00     0.004 C 
ENDBRANCH  12  13
ENDBRANCH  11  12
ENDBRANCH  10  11
ENDBRANCH   9  10
ENDBRANCH   1   9
TORSDOF 9
ENDMDL
