MODEL 1
REMARK VINA RESULT:    -4.782      0.000      0.000
REMARK INTER + INTRA:          -5.149
REMARK INTER:                  -5.061
REMARK INTRA:                  -0.088
REMARK UNBOUND:                -0.088
REMARK SMILES C=C(C)[C@H]1CC=C(C)C(=O)C1
REMARK SMILES IDX 8 1 7 2 6 3 5 4 4 5 11 6 9 7 10 8 2 9 1 10 3 11
REMARK H PARENT
REMARK Flexibility Score: inf
ROOT
ATOM      1  C   UNL     1      -8.092 -24.264 -18.104  1.00  0.00     0.048 C 
ATOM      2  C   UNL     1      -8.372 -25.735 -18.252  1.00  0.00    -0.012 C 
ATOM      3  C   UNL     1      -9.639 -26.182 -18.280  1.00  0.00    -0.019 C 
ATOM      4  C   UNL     1      -9.968 -27.650 -18.346  1.00  0.00     0.036 C 
ATOM      5  C   UNL     1      -8.874 -28.432 -19.101  1.00  0.00     0.025 C 
ATOM      6  C   UNL     1      -7.495 -28.169 -18.467  1.00  0.00     0.089 C 
ATOM      7  C   UNL     1      -7.241 -26.692 -18.340  1.00  0.00     0.158 C 
ATOM      8  O   UNL     1      -6.054 -26.277 -18.265  1.00  0.00    -0.295 OA
ENDROOT
BRANCH   5   9
ATOM      9  C   UNL     1      -9.189 -29.921 -19.164  1.00  0.00    -0.077 C 
ATOM     10  C   UNL     1      -9.619 -30.497 -20.302  1.00  0.00     0.008 C 
ATOM     11  C   UNL     1      -9.021 -30.782 -17.939  1.00  0.00     0.039 C 
ENDBRANCH   5   9
TORSDOF 1
ENDMDL
MODEL 2
REMARK VINA RESULT:    -4.758      0.257      1.076
REMARK INTER + INTRA:          -5.124
REMARK INTER:                  -5.031
REMARK INTRA:                  -0.093
REMARK UNBOUND:                -0.088
REMARK SMILES C=C(C)[C@H]1CC=C(C)C(=O)C1
REMARK SMILES IDX 8 1 7 2 6 3 5 4 4 5 11 6 9 7 10 8 2 9 1 10 3 11
REMARK H PARENT
REMARK Flexibility Score: inf
ROOT
ATOM      1  C   UNL     1      -8.477 -24.249 -17.911  1.00  0.00     0.048 C 
ATOM      2  C   UNL     1      -8.660 -25.732 -18.088  1.00  0.00    -0.012 C 
ATOM      3  C   UNL     1      -9.892 -26.268 -18.077  1.00  0.00    -0.019 C 
ATOM      4  C   UNL     1     -10.119 -27.754 -18.170  1.00  0.00     0.036 C 
ATOM      5  C   UNL     1      -9.007 -28.436 -18.992  1.00  0.00     0.025 C 
ATOM      6  C   UNL     1      -7.624 -28.092 -18.410  1.00  0.00     0.089 C 
ATOM      7  C   UNL     1      -7.469 -26.604 -18.252  1.00  0.00     0.158 C 
ATOM      8  O   UNL     1      -6.312 -26.108 -18.214  1.00  0.00    -0.295 OA
ENDROOT
BRANCH   5   9
ATOM      9  C   UNL     1      -9.220 -29.942 -19.084  1.00  0.00    -0.077 C 
ATOM     10  C   UNL     1      -9.050 -30.739 -18.014  1.00  0.00     0.008 C 
ATOM     11  C   UNL     1      -9.629 -30.569 -20.392  1.00  0.00     0.039 C 
ENDBRANCH   5   9
TORSDOF 1
ENDMDL
MODEL 3
REMARK VINA RESULT:    -4.642      1.256      4.276
REMARK INTER + INTRA:          -5.002
REMARK INTER:                  -4.907
REMARK INTRA:                  -0.095
REMARK UNBOUND:                -0.088
REMARK SMILES C=C(C)[C@H]1CC=C(C)C(=O)C1
REMARK SMILES IDX 8 1 7 2 6 3 5 4 4 5 11 6 9 7 10 8 2 9 1 10 3 11
REMARK H PARENT
REMARK Flexibility Score: inf
ROOT
ATOM      1  C   UNL     1      -9.264 -30.312 -19.253  1.00  0.00     0.048 C 
ATOM      2  C   UNL     1      -9.128 -28.855 -18.903  1.00  0.00    -0.012 C 
ATOM      3  C   UNL     1     -10.224 -28.088 -18.766  1.00  0.00    -0.019 C 
ATOM      4  C   UNL     1     -10.136 -26.610 -18.496  1.00  0.00     0.036 C 
ATOM      5  C   UNL     1      -8.867 -26.266 -17.689  1.00  0.00     0.025 C 
ATOM      6  C   UNL     1      -7.615 -26.805 -18.406  1.00  0.00     0.089 C 
ATOM      7  C   UNL     1      -7.778 -28.263 -18.735  1.00  0.00     0.158 C 
ATOM      8  O   UNL     1      -6.751 -28.971 -18.912  1.00  0.00    -0.295 OA
ENDROOT
BRANCH   5   9
ATOM      9  C   UNL     1      -8.761 -24.770 -17.419  1.00  0.00    -0.077 C 
ATOM     10  C   UNL     1      -8.045 -23.964 -18.223  1.00  0.00     0.008 C 
ATOM     11  C   UNL     1      -9.466 -24.164 -16.233  1.00  0.00     0.039 C 
ENDBRANCH   5   9
TORSDOF 1
ENDMDL
MODEL 4
REMARK VINA RESULT:    -4.608      5.589      7.120
REMARK INTER + INTRA:          -4.966
REMARK INTER:                  -4.877
REMARK INTRA:                  -0.089
REMARK UNBOUND:                -0.088
REMARK SMILES C=C(C)[C@H]1CC=C(C)C(=O)C1
REMARK SMILES IDX 8 1 7 2 6 3 5 4 4 5 11 6 9 7 10 8 2 9 1 10 3 11
REMARK H PARENT
REMARK Flexibility Score: inf
ROOT
ATOM      1  C   UNL     1      -2.679 -20.375 -18.167  1.00  0.00     0.048 C 
ATOM      2  C   UNL     1      -4.082 -20.809 -17.840  1.00  0.00    -0.012 C 
ATOM      3  C   UNL     1      -5.130 -20.223 -18.445  1.00  0.00    -0.019 C 
ATOM      4  C   UNL     1      -6.552 -20.567 -18.093  1.00  0.00     0.036 C 
ATOM      5  C   UNL     1      -6.672 -22.033 -17.629  1.00  0.00     0.025 C 
ATOM      6  C   UNL     1      -5.698 -22.307 -16.467  1.00  0.00     0.089 C 
ATOM      7  C   UNL     1      -4.305 -21.871 -16.827  1.00  0.00     0.158 C 
ATOM      8  O   UNL     1      -3.326 -22.386 -16.225  1.00  0.00    -0.295 OA
ENDROOT
BRANCH   5   9
ATOM      9  C   UNL     1      -8.106 -22.391 -17.258  1.00  0.00    -0.077 C 
ATOM     10  C   UNL     1      -9.006 -22.731 -18.197  1.00  0.00     0.008 C 
ATOM     11  C   UNL     1      -8.541 -22.370 -15.816  1.00  0.00     0.039 C 
ENDBRANCH   5   9
TORSDOF 1
ENDMDL
MODEL 5
REMARK VINA RESULT:    -4.608      5.898      7.234
REMARK INTER + INTRA:          -4.965
REMARK INTER:                  -4.868
REMARK INTRA:                  -0.098
REMARK UNBOUND:                -0.088
REMARK SMILES C=C(C)[C@H]1CC=C(C)C(=O)C1
REMARK SMILES IDX 8 1 7 2 6 3 5 4 4 5 11 6 9 7 10 8 2 9 1 10 3 11
REMARK H PARENT
REMARK Flexibility Score: inf
ROOT
ATOM      1  C   UNL     1      -8.429 -19.560 -19.887  1.00  0.00     0.048 C 
ATOM      2  C   UNL     1      -7.515 -20.432 -19.069  1.00  0.00    -0.012 C 
ATOM      3  C   UNL     1      -6.255 -20.039 -18.815  1.00  0.00    -0.019 C 
ATOM      4  C   UNL     1      -5.280 -20.913 -18.071  1.00  0.00     0.036 C 
ATOM      5  C   UNL     1      -6.007 -21.820 -17.059  1.00  0.00     0.025 C 
ATOM      6  C   UNL     1      -7.104 -22.639 -17.765  1.00  0.00     0.089 C 
ATOM      7  C   UNL     1      -8.005 -21.740 -18.566  1.00  0.00     0.158 C 
ATOM      8  O   UNL     1      -9.170 -22.129 -18.845  1.00  0.00    -0.295 OA
ENDROOT
BRANCH   5   9
ATOM      9  C   UNL     1      -5.032 -22.718 -16.307  1.00  0.00    -0.077 C 
ATOM     10  C   UNL     1      -5.460 -23.787 -15.611  1.00  0.00     0.008 C 
ATOM     11  C   UNL     1      -3.555 -22.419 -16.334  1.00  0.00     0.039 C 
ENDBRANCH   5   9
TORSDOF 1
ENDMDL
MODEL 6
REMARK VINA RESULT:    -4.582      1.362      2.272
REMARK INTER + INTRA:          -4.938
REMARK INTER:                  -4.849
REMARK INTRA:                  -0.088
REMARK UNBOUND:                -0.088
REMARK SMILES C=C(C)[C@H]1CC=C(C)C(=O)C1
REMARK SMILES IDX 8 1 7 2 6 3 5 4 4 5 11 6 9 7 10 8 2 9 1 10 3 11
REMARK H PARENT
REMARK Flexibility Score: inf
ROOT
ATOM      1  C   UNL     1      -6.674 -24.393 -17.850  1.00  0.00     0.048 C 
ATOM      2  C   UNL     1      -7.277 -25.725 -18.205  1.00  0.00    -0.012 C 
ATOM      3  C   UNL     1      -6.507 -26.701 -18.717  1.00  0.00    -0.019 C 
ATOM      4  C   UNL     1      -7.079 -28.021 -19.162  1.00  0.00     0.036 C 
ATOM      5  C   UNL     1      -8.321 -28.397 -18.330  1.00  0.00     0.025 C 
ATOM      6  C   UNL     1      -9.362 -27.263 -18.378  1.00  0.00     0.089 C 
ATOM      7  C   UNL     1      -8.732 -25.948 -18.011  1.00  0.00     0.158 C 
ATOM      8  O   UNL     1      -9.461 -25.017 -17.577  1.00  0.00    -0.295 OA
ENDROOT
BRANCH   5   9
ATOM      9  C   UNL     1      -8.917 -29.726 -18.778  1.00  0.00    -0.077 C 
ATOM     10  C   UNL     1      -9.050 -30.756 -17.923  1.00  0.00     0.008 C 
ATOM     11  C   UNL     1      -9.373 -29.908 -20.202  1.00  0.00     0.039 C 
ENDBRANCH   5   9
TORSDOF 1
ENDMDL
MODEL 7
REMARK VINA RESULT:    -4.568      1.871      2.882
REMARK INTER + INTRA:          -4.924
REMARK INTER:                  -4.830
REMARK INTRA:                  -0.094
REMARK UNBOUND:                -0.088
REMARK SMILES C=C(C)[C@H]1CC=C(C)C(=O)C1
REMARK SMILES IDX 8 1 7 2 6 3 5 4 4 5 11 6 9 7 10 8 2 9 1 10 3 11
REMARK H PARENT
REMARK Flexibility Score: inf
ROOT
ATOM      1  C   UNL     1      -8.174 -22.158 -15.781  1.00  0.00     0.048 C 
ATOM      2  C   UNL     1      -8.368 -23.532 -16.362  1.00  0.00    -0.012 C 
ATOM      3  C   UNL     1      -9.547 -24.162 -16.227  1.00  0.00    -0.019 C 
ATOM      4  C   UNL     1      -9.764 -25.568 -16.721  1.00  0.00     0.036 C 
ATOM      5  C   UNL     1      -8.884 -25.868 -17.951  1.00  0.00     0.025 C 
ATOM      6  C   UNL     1      -7.404 -25.581 -17.633  1.00  0.00     0.089 C 
ATOM      7  C   UNL     1      -7.242 -24.199 -17.062  1.00  0.00     0.158 C 
ATOM      8  O   UNL     1      -6.122 -23.628 -17.146  1.00  0.00    -0.295 OA
ENDROOT
BRANCH   5   9
ATOM      9  C   UNL     1      -9.085 -27.293 -18.453  1.00  0.00    -0.077 C 
ATOM     10  C   UNL     1     -10.314 -27.777 -18.707  1.00  0.00     0.008 C 
ATOM     11  C   UNL     1      -7.896 -28.191 -18.676  1.00  0.00     0.039 C 
ENDBRANCH   5   9
TORSDOF 1
ENDMDL
MODEL 8
REMARK VINA RESULT:    -4.511      2.605      5.871
REMARK INTER + INTRA:          -4.862
REMARK INTER:                  -4.769
REMARK INTRA:                  -0.093
REMARK UNBOUND:                -0.088
REMARK SMILES C=C(C)[C@H]1CC=C(C)C(=O)C1
REMARK SMILES IDX 8 1 7 2 6 3 5 4 4 5 11 6 9 7 10 8 2 9 1 10 3 11
REMARK H PARENT
REMARK Flexibility Score: inf
ROOT
ATOM      1  C   UNL     1      -9.991 -27.320 -18.213  1.00  0.00     0.048 C 
ATOM      2  C   UNL     1      -9.163 -26.134 -17.796  1.00  0.00    -0.012 C 
ATOM      3  C   UNL     1      -7.977 -25.899 -18.382  1.00  0.00    -0.019 C 
ATOM      4  C   UNL     1      -7.078 -24.773 -17.944  1.00  0.00     0.036 C 
ATOM      5  C   UNL     1      -7.898 -23.588 -17.396  1.00  0.00     0.025 C 
ATOM      6  C   UNL     1      -8.834 -24.061 -16.268  1.00  0.00     0.089 C 
ATOM      7  C   UNL     1      -9.652 -25.240 -16.717  1.00  0.00     0.158 C 
ATOM      8  O   UNL     1     -10.741 -25.489 -16.135  1.00  0.00    -0.295 OA
ENDROOT
BRANCH   5   9
ATOM      9  C   UNL     1      -6.999 -22.446 -16.938  1.00  0.00    -0.077 C 
ATOM     10  C   UNL     1      -6.358 -22.492 -15.757  1.00  0.00     0.008 C 
ATOM     11  C   UNL     1      -6.812 -21.234 -17.813  1.00  0.00     0.039 C 
ENDBRANCH   5   9
TORSDOF 1
ENDMDL
MODEL 9
REMARK VINA RESULT:    -4.408      1.935      5.174
REMARK INTER + INTRA:          -4.753
REMARK INTER:                  -4.665
REMARK INTRA:                  -0.088
REMARK UNBOUND:                -0.088
REMARK SMILES C=C(C)[C@H]1CC=C(C)C(=O)C1
REMARK SMILES IDX 8 1 7 2 6 3 5 4 4 5 11 6 9 7 10 8 2 9 1 10 3 11
REMARK H PARENT
REMARK Flexibility Score: inf
ROOT
ATOM      1  C   UNL     1      -8.449 -28.871 -18.871  1.00  0.00     0.048 C 
ATOM      2  C   UNL     1      -8.404 -27.436 -18.422  1.00  0.00    -0.012 C 
ATOM      3  C   UNL     1      -7.233 -26.776 -18.383  1.00  0.00    -0.019 C 
ATOM      4  C   UNL     1      -7.126 -25.366 -17.865  1.00  0.00     0.036 C 
ATOM      5  C   UNL     1      -8.428 -24.580 -18.119  1.00  0.00     0.025 C 
ATOM      6  C   UNL     1      -9.633 -25.332 -17.523  1.00  0.00     0.089 C 
ATOM      7  C   UNL     1      -9.655 -26.760 -17.996  1.00  0.00     0.158 C 
ATOM      8  O   UNL     1     -10.744 -27.393 -17.986  1.00  0.00    -0.295 OA
ENDROOT
BRANCH   5   9
ATOM      9  C   UNL     1      -8.337 -23.155 -17.589  1.00  0.00    -0.077 C 
ATOM     10  C   UNL     1      -8.070 -22.120 -18.406  1.00  0.00     0.008 C 
ATOM     11  C   UNL     1      -8.549 -22.879 -16.123  1.00  0.00     0.039 C 
ENDBRANCH   5   9
TORSDOF 1
ENDMDL
