MODEL 1
REMARK VINA RESULT:    -3.087      0.000      0.000
REMARK INTER + INTRA:          -3.279
REMARK INTER:                  -3.268
REMARK INTRA:                  -0.011
REMARK UNBOUND:                -0.011
REMARK SMILES O=Cc1ccco1
REMARK SMILES IDX 5 1 6 2 7 3 3 4 4 5 2 6 1 7
REMARK H PARENT
REMARK Flexibility Score: inf
ROOT
ATOM      1  C   UNL     1       3.758  12.842  12.084  1.00  0.00     0.043 A 
ATOM      2  C   UNL     1       4.341  12.074  11.096  1.00  0.00     0.196 A 
ATOM      3  O   UNL     1       5.621  11.923  11.352  1.00  0.00    -0.462 OA
ATOM      4  C   UNL     1       5.903  12.559  12.466  1.00  0.00     0.166 A 
ATOM      5  C   UNL     1       4.765  13.158  12.971  1.00  0.00     0.054 A 
ENDROOT
BRANCH   4   6
ATOM      6  C   UNL     1       7.241  12.607  13.059  1.00  0.00     0.298 C 
ATOM      7  O   UNL     1       8.144  13.323  12.551  1.00  0.00    -0.294 OA
ENDBRANCH   4   6
TORSDOF 1
ENDMDL
MODEL 2
REMARK VINA RESULT:    -3.028      1.844      3.315
REMARK INTER + INTRA:          -3.216
REMARK INTER:                  -3.202
REMARK INTRA:                  -0.014
REMARK UNBOUND:                -0.011
REMARK SMILES O=Cc1ccco1
REMARK SMILES IDX 5 1 6 2 7 3 3 4 4 5 2 6 1 7
REMARK H PARENT
REMARK Flexibility Score: inf
ROOT
ATOM      1  C   UNL     1       5.287  13.179  15.301  1.00  0.00     0.043 A 
ATOM      2  C   UNL     1       5.906  14.081  14.458  1.00  0.00     0.196 A 
ATOM      3  O   UNL     1       5.387  13.988  13.255  1.00  0.00    -0.462 OA
ATOM      4  C   UNL     1       4.454  13.064  13.272  1.00  0.00     0.166 A 
ATOM      5  C   UNL     1       4.348  12.520  14.537  1.00  0.00     0.054 A 
ENDROOT
BRANCH   4   6
ATOM      6  C   UNL     1       3.660  12.689  12.099  1.00  0.00     0.298 C 
ATOM      7  O   UNL     1       4.207  12.536  10.975  1.00  0.00    -0.294 OA
ENDBRANCH   4   6
TORSDOF 1
ENDMDL
MODEL 3
REMARK VINA RESULT:    -3.007      2.542      2.850
REMARK INTER + INTRA:          -3.194
REMARK INTER:                  -3.182
REMARK INTRA:                  -0.012
REMARK UNBOUND:                -0.011
REMARK SMILES O=Cc1ccco1
REMARK SMILES IDX 5 1 6 2 7 3 3 4 4 5 2 6 1 7
REMARK H PARENT
REMARK Flexibility Score: inf
ROOT
ATOM      1  C   UNL     1       4.123  12.871  12.112  1.00  0.00     0.043 A 
ATOM      2  C   UNL     1       3.195  12.052  12.724  1.00  0.00     0.196 A 
ATOM      3  O   UNL     1       3.384  12.064  14.024  1.00  0.00    -0.462 OA
ATOM      4  C   UNL     1       4.396  12.857  14.292  1.00  0.00     0.166 A 
ATOM      5  C   UNL     1       4.901  13.393  13.123  1.00  0.00     0.054 A 
ENDROOT
BRANCH   4   6
ATOM      6  C   UNL     1       4.892  13.113  15.646  1.00  0.00     0.298 C 
ATOM      7  O   UNL     1       5.484  12.210  16.295  1.00  0.00    -0.294 OA
ENDBRANCH   4   6
TORSDOF 1
ENDMDL
MODEL 4
REMARK VINA RESULT:    -2.994      1.814      2.293
REMARK INTER + INTRA:          -3.181
REMARK INTER:                  -3.170
REMARK INTRA:                  -0.010
REMARK UNBOUND:                -0.011
REMARK SMILES O=Cc1ccco1
REMARK SMILES IDX 5 1 6 2 7 3 3 4 4 5 2 6 1 7
REMARK H PARENT
REMARK Flexibility Score: inf
ROOT
ATOM      1  C   UNL     1       4.306  12.117  10.986  1.00  0.00     0.043 A 
ATOM      2  C   UNL     1       5.614  11.750  11.230  1.00  0.00     0.196 A 
ATOM      3  O   UNL     1       5.990  12.208  12.402  1.00  0.00    -0.462 OA
ATOM      4  C   UNL     1       4.985  12.861  12.938  1.00  0.00     0.166 A 
ATOM      5  C   UNL     1       3.896  12.836  12.088  1.00  0.00     0.054 A 
ENDROOT
BRANCH   4   6
ATOM      6  C   UNL     1       5.043  13.511  14.250  1.00  0.00     0.298 C 
ATOM      7  O   UNL     1       4.288  13.138  15.186  1.00  0.00    -0.294 OA
ENDBRANCH   4   6
TORSDOF 1
ENDMDL
MODEL 5
REMARK VINA RESULT:    -2.947      1.239      3.078
REMARK INTER + INTRA:          -3.131
REMARK INTER:                  -3.116
REMARK INTRA:                  -0.015
REMARK UNBOUND:                -0.011
REMARK SMILES O=Cc1ccco1
REMARK SMILES IDX 5 1 6 2 7 3 3 4 4 5 2 6 1 7
REMARK H PARENT
REMARK Flexibility Score: inf
ROOT
ATOM      1  C   UNL     1       7.075  13.829  14.015  1.00  0.00     0.043 A 
ATOM      2  C   UNL     1       7.551  12.937  13.074  1.00  0.00     0.196 A 
ATOM      3  O   UNL     1       6.556  12.500  12.336  1.00  0.00    -0.462 OA
ATOM      4  C   UNL     1       5.446  13.066  12.752  1.00  0.00     0.166 A 
ATOM      5  C   UNL     1       5.714  13.914  13.809  1.00  0.00     0.054 A 
ENDROOT
BRANCH   4   6
ATOM      6  C   UNL     1       4.131  12.813  12.158  1.00  0.00     0.298 C 
ATOM      7  O   UNL     1       4.023  12.528  10.936  1.00  0.00    -0.294 OA
ENDBRANCH   4   6
TORSDOF 1
ENDMDL
MODEL 6
REMARK VINA RESULT:    -2.940      1.152      2.833
REMARK INTER + INTRA:          -3.123
REMARK INTER:                  -3.113
REMARK INTRA:                  -0.010
REMARK UNBOUND:                -0.011
REMARK SMILES O=Cc1ccco1
REMARK SMILES IDX 5 1 6 2 7 3 3 4 4 5 2 6 1 7
REMARK H PARENT
REMARK Flexibility Score: inf
ROOT
ATOM      1  C   UNL     1       5.499  13.796  13.727  1.00  0.00     0.043 A 
ATOM      2  C   UNL     1       6.718  13.250  13.378  1.00  0.00     0.196 A 
ATOM      3  O   UNL     1       6.560  12.421  12.372  1.00  0.00    -0.462 OA
ATOM      4  C   UNL     1       5.288  12.399  12.044  1.00  0.00     0.166 A 
ATOM      5  C   UNL     1       4.572  13.248  12.866  1.00  0.00     0.054 A 
ENDROOT
BRANCH   4   6
ATOM      6  C   UNL     1       4.741  11.581  10.959  1.00  0.00     0.298 C 
ATOM      7  O   UNL     1       4.381  12.110   9.875  1.00  0.00    -0.294 OA
ENDBRANCH   4   6
TORSDOF 1
ENDMDL
MODEL 7
REMARK VINA RESULT:    -2.931      2.840      3.204
REMARK INTER + INTRA:          -3.114
REMARK INTER:                  -3.102
REMARK INTRA:                  -0.011
REMARK UNBOUND:                -0.011
REMARK SMILES O=Cc1ccco1
REMARK SMILES IDX 5 1 6 2 7 3 3 4 4 5 2 6 1 7
REMARK H PARENT
REMARK Flexibility Score: inf
ROOT
ATOM      1  C   UNL     1       4.421  12.845  14.790  1.00  0.00     0.043 A 
ATOM      2  C   UNL     1       4.764  13.193  13.499  1.00  0.00     0.196 A 
ATOM      3  O   UNL     1       5.744  14.068  13.522  1.00  0.00    -0.462 OA
ATOM      4  C   UNL     1       6.059  14.309  14.774  1.00  0.00     0.166 A 
ATOM      5  C   UNL     1       5.257  13.565  15.617  1.00  0.00     0.054 A 
ENDROOT
BRANCH   4   6
ATOM      6  C   UNL     1       7.115  15.239  15.183  1.00  0.00     0.298 C 
ATOM      7  O   UNL     1       7.302  15.505  16.399  1.00  0.00    -0.294 OA
ENDBRANCH   4   6
TORSDOF 1
ENDMDL
MODEL 8
REMARK VINA RESULT:    -2.897      1.478      2.406
REMARK INTER + INTRA:          -3.077
REMARK INTER:                  -3.065
REMARK INTRA:                  -0.013
REMARK UNBOUND:                -0.011
REMARK SMILES O=Cc1ccco1
REMARK SMILES IDX 5 1 6 2 7 3 3 4 4 5 2 6 1 7
REMARK H PARENT
REMARK Flexibility Score: inf
ROOT
ATOM      1  C   UNL     1       3.871  12.865  12.063  1.00  0.00     0.043 A 
ATOM      2  C   UNL     1       4.994  12.963  12.861  1.00  0.00     0.196 A 
ATOM      3  O   UNL     1       5.984  12.294  12.315  1.00  0.00    -0.462 OA
ATOM      4  C   UNL     1       5.559  11.760  11.193  1.00  0.00     0.166 A 
ATOM      5  C   UNL     1       4.234  12.088  10.983  1.00  0.00     0.054 A 
ENDROOT
BRANCH   4   6
ATOM      6  C   UNL     1       6.398  10.941  10.313  1.00  0.00     0.298 C 
ATOM      7  O   UNL     1       6.977   9.913  10.753  1.00  0.00    -0.294 OA
ENDBRANCH   4   6
TORSDOF 1
ENDMDL
MODEL 9
REMARK VINA RESULT:    -2.702      2.230      3.877
REMARK INTER + INTRA:          -2.871
REMARK INTER:                  -2.860
REMARK INTRA:                  -0.011
REMARK UNBOUND:                -0.011
REMARK SMILES O=Cc1ccco1
REMARK SMILES IDX 5 1 6 2 7 3 3 4 4 5 2 6 1 7
REMARK H PARENT
REMARK Flexibility Score: inf
ROOT
ATOM      1  C   UNL     1       8.393  14.719  14.757  1.00  0.00     0.043 A 
ATOM      2  C   UNL     1       7.154  15.183  15.151  1.00  0.00     0.196 A 
ATOM      3  O   UNL     1       6.212  14.518  14.521  1.00  0.00    -0.462 OA
ATOM      4  C   UNL     1       6.780  13.637  13.730  1.00  0.00     0.166 A 
ATOM      5  C   UNL     1       8.154  13.719  13.838  1.00  0.00     0.054 A 
ENDROOT
BRANCH   4   6
ATOM      6  C   UNL     1       6.033  12.716  12.870  1.00  0.00     0.298 C 
ATOM      7  O   UNL     1       6.630  12.000  12.024  1.00  0.00    -0.294 OA
ENDBRANCH   4   6
TORSDOF 1
ENDMDL
