MODEL 1
REMARK VINA RESULT:    -6.041      0.000      0.000
REMARK INTER + INTRA:         -12.590
REMARK INTER:                 -10.986
REMARK INTRA:                  -1.604
REMARK UNBOUND:                -1.604
REMARK SMILES CCCCCCCCCCCCCC[C@H](C)C(=O)[O-]
REMARK SMILES IDX 9 1 10 2 11 3 12 4 13 5 14 6 15 7 16 8 17 9 18 10 19 11 8 12
REMARK SMILES IDX 7 13 6 14 5 15 4 16 3 17 2 18 1 19
REMARK H PARENT
REMARK Flexibility Score: inf
ROOT
ATOM      1  C   UNL     1      -4.095  36.547 101.597  1.00  0.00     0.000 C 
ENDROOT
BRANCH   1   2
ATOM      2  C   UNL     1      -3.247  37.489 102.463  1.00  0.00     0.000 C 
BRANCH   2   3
ATOM      3  C   UNL     1      -2.280  38.345 101.628  1.00  0.00     0.000 C 
BRANCH   3   4
ATOM      4  C   UNL     1      -1.796  39.594 102.383  1.00  0.00     0.000 C 
BRANCH   4   5
ATOM      5  C   UNL     1      -2.782  40.759 102.211  1.00  0.00     0.001 C 
BRANCH   5   6
ATOM      6  C   UNL     1      -2.883  41.634 103.481  1.00  0.00     0.009 C 
BRANCH   6   7
ATOM      7  C   UNL     1      -3.899  42.797 103.392  1.00  0.00     0.032 C 
ATOM      8  C   UNL     1      -4.092  43.317 101.962  1.00  0.00     0.014 C 
BRANCH   7   9
ATOM      9  C   UNL     1      -3.549  43.909 104.350  1.00  0.00     0.044 C 
ATOM     10  O   UNL     1      -2.393  44.407 104.331  1.00  0.00    -0.550 OA
ATOM     11  O   UNL     1      -4.497  44.425 105.226  1.00  0.00    -0.550 OA
ENDBRANCH   7   9
ENDBRANCH   6   7
ENDBRANCH   5   6
ENDBRANCH   4   5
ENDBRANCH   3   4
ENDBRANCH   2   3
ENDBRANCH   1   2
BRANCH   1  12
ATOM     12  C   UNL     1      -3.207  35.651 100.722  1.00  0.00     0.000 C 
BRANCH  12  13
ATOM     13  C   UNL     1      -3.982  34.466 100.122  1.00  0.00    -0.000 C 
BRANCH  13  14
ATOM     14  C   UNL     1      -5.349  34.884  99.557  1.00  0.00    -0.000 C 
BRANCH  14  15
ATOM     15  C   UNL     1      -5.369  34.937  98.017  1.00  0.00    -0.000 C 
BRANCH  15  16
ATOM     16  C   UNL     1      -5.215  36.347  97.414  1.00  0.00    -0.000 C 
BRANCH  16  17
ATOM     17  C   UNL     1      -3.749  36.728  97.145  1.00  0.00    -0.000 C 
BRANCH  17  18
ATOM     18  C   UNL     1      -3.264  37.878  98.043  1.00  0.00    -0.003 C 
ATOM     19  C   UNL     1      -4.414  38.700  98.627  1.00  0.00     0.004 C 
ENDBRANCH  17  18
ENDBRANCH  16  17
ENDBRANCH  15  16
ENDBRANCH  14  15
ENDBRANCH  13  14
ENDBRANCH  12  13
ENDBRANCH   1  12
TORSDOF 14
ENDMDL
MODEL 2
REMARK VINA RESULT:    -6.002      3.549      7.776
REMARK INTER + INTRA:         -12.519
REMARK INTER:                 -11.098
REMARK INTRA:                  -1.421
REMARK UNBOUND:                -1.604
REMARK SMILES CCCCCCCCCCCCCC[C@H](C)C(=O)[O-]
REMARK SMILES IDX 9 1 10 2 11 3 12 4 13 5 14 6 15 7 16 8 17 9 18 10 19 11 8 12
REMARK SMILES IDX 7 13 6 14 5 15 4 16 3 17 2 18 1 19
REMARK H PARENT
REMARK Flexibility Score: inf
ROOT
ATOM      1  C   UNL     1      -3.375  38.631  99.430  1.00  0.00     0.000 C 
ENDROOT
BRANCH   1   2
ATOM      2  C   UNL     1      -4.764  38.283  98.874  1.00  0.00     0.000 C 
BRANCH   2   3
ATOM      3  C   UNL     1      -4.781  38.201  97.338  1.00  0.00     0.000 C 
BRANCH   3   4
ATOM      4  C   UNL     1      -4.901  36.757  96.826  1.00  0.00     0.000 C 
BRANCH   4   5
ATOM      5  C   UNL     1      -5.806  35.920  97.743  1.00  0.00     0.001 C 
BRANCH   5   6
ATOM      6  C   UNL     1      -5.150  34.581  98.148  1.00  0.00     0.009 C 
BRANCH   6   7
ATOM      7  C   UNL     1      -4.602  34.534  99.594  1.00  0.00     0.032 C 
ATOM      8  C   UNL     1      -5.469  35.316 100.589  1.00  0.00     0.014 C 
BRANCH   7   9
ATOM      9  C   UNL     1      -3.158  34.964  99.651  1.00  0.00     0.044 C 
ATOM     10  O   UNL     1      -2.650  35.298 100.753  1.00  0.00    -0.550 OA
ATOM     11  O   UNL     1      -2.362  34.956  98.511  1.00  0.00    -0.550 OA
ENDBRANCH   7   9
ENDBRANCH   6   7
ENDBRANCH   5   6
ENDBRANCH   4   5
ENDBRANCH   3   4
ENDBRANCH   2   3
ENDBRANCH   1   2
BRANCH   1  12
ATOM     12  C   UNL     1      -3.381  38.638 100.965  1.00  0.00     0.000 C 
BRANCH  12  13
ATOM     13  C   UNL     1      -1.961  38.639 101.555  1.00  0.00    -0.000 C 
BRANCH  13  14
ATOM     14  C   UNL     1      -1.667  39.909 102.371  1.00  0.00    -0.000 C 
BRANCH  14  15
ATOM     15  C   UNL     1      -2.872  40.866 102.444  1.00  0.00    -0.000 C 
BRANCH  15  16
ATOM     16  C   UNL     1      -2.659  42.112 103.325  1.00  0.00    -0.000 C 
BRANCH  16  17
ATOM     17  C   UNL     1      -3.906  43.011 103.405  1.00  0.00    -0.000 C 
BRANCH  17  18
ATOM     18  C   UNL     1      -4.685  42.823 104.717  1.00  0.00    -0.003 C 
ATOM     19  C   UNL     1      -6.097  43.408 104.657  1.00  0.00     0.004 C 
ENDBRANCH  17  18
ENDBRANCH  16  17
ENDBRANCH  15  16
ENDBRANCH  14  15
ENDBRANCH  13  14
ENDBRANCH  12  13
ENDBRANCH   1  12
TORSDOF 14
ENDMDL
MODEL 3
REMARK VINA RESULT:    -5.993      1.676      2.386
REMARK INTER + INTRA:         -12.503
REMARK INTER:                 -11.087
REMARK INTRA:                  -1.416
REMARK UNBOUND:                -1.604
REMARK SMILES CCCCCCCCCCCCCC[C@H](C)C(=O)[O-]
REMARK SMILES IDX 9 1 10 2 11 3 12 4 13 5 14 6 15 7 16 8 17 9 18 10 19 11 8 12
REMARK SMILES IDX 7 13 6 14 5 15 4 16 3 17 2 18 1 19
REMARK H PARENT
REMARK Flexibility Score: inf
ROOT
ATOM      1  C   UNL     1      -2.926  38.403 101.143  1.00  0.00     0.000 C 
ENDROOT
BRANCH   1   2
ATOM      2  C   UNL     1      -1.514  38.760 101.630  1.00  0.00     0.000 C 
BRANCH   2   3
ATOM      3  C   UNL     1      -1.483  40.067 102.439  1.00  0.00     0.000 C 
BRANCH   3   4
ATOM      4  C   UNL     1      -2.888  40.557 102.823  1.00  0.00     0.000 C 
BRANCH   4   5
ATOM      5  C   UNL     1      -2.868  42.043 103.210  1.00  0.00     0.001 C 
BRANCH   5   6
ATOM      6  C   UNL     1      -4.028  42.833 102.561  1.00  0.00     0.009 C 
BRANCH   6   7
ATOM      7  C   UNL     1      -4.888  43.657 103.548  1.00  0.00     0.032 C 
ATOM      8  C   UNL     1      -5.175  42.913 104.859  1.00  0.00     0.014 C 
BRANCH   7   9
ATOM      9  C   UNL     1      -6.155  44.151 102.897  1.00  0.00     0.044 C 
ATOM     10  O   UNL     1      -6.089  44.820 101.833  1.00  0.00    -0.550 OA
ATOM     11  O   UNL     1      -7.403  43.843 103.429  1.00  0.00    -0.550 OA
ENDBRANCH   7   9
ENDBRANCH   6   7
ENDBRANCH   5   6
ENDBRANCH   4   5
ENDBRANCH   3   4
ENDBRANCH   2   3
ENDBRANCH   1   2
BRANCH   1  12
ATOM     12  C   UNL     1      -3.372  37.042 101.694  1.00  0.00     0.000 C 
BRANCH  12  13
ATOM     13  C   UNL     1      -4.846  36.736 101.377  1.00  0.00    -0.000 C 
BRANCH  13  14
ATOM     14  C   UNL     1      -5.006  35.521 100.448  1.00  0.00    -0.000 C 
BRANCH  14  15
ATOM     15  C   UNL     1      -3.659  34.871 100.076  1.00  0.00    -0.000 C 
BRANCH  15  16
ATOM     16  C   UNL     1      -3.314  34.906  98.575  1.00  0.00    -0.000 C 
BRANCH  16  17
ATOM     17  C   UNL     1      -2.943  36.313  98.076  1.00  0.00    -0.000 C 
BRANCH  17  18
ATOM     18  C   UNL     1      -3.896  36.822  96.982  1.00  0.00    -0.003 C 
ATOM     19  C   UNL     1      -4.914  37.836  97.507  1.00  0.00     0.004 C 
ENDBRANCH  17  18
ENDBRANCH  16  17
ENDBRANCH  15  16
ENDBRANCH  14  15
ENDBRANCH  13  14
ENDBRANCH  12  13
ENDBRANCH   1  12
TORSDOF 14
ENDMDL
MODEL 4
REMARK VINA RESULT:    -5.991      1.202      2.044
REMARK INTER + INTRA:         -12.499
REMARK INTER:                 -11.251
REMARK INTRA:                  -1.248
REMARK UNBOUND:                -1.604
REMARK SMILES CCCCCCCCCCCCCC[C@H](C)C(=O)[O-]
REMARK SMILES IDX 9 1 10 2 11 3 12 4 13 5 14 6 15 7 16 8 17 9 18 10 19 11 8 12
REMARK SMILES IDX 7 13 6 14 5 15 4 16 3 17 2 18 1 19
REMARK H PARENT
REMARK Flexibility Score: inf
ROOT
ATOM      1  C   UNL     1      -2.272  37.987 101.313  1.00  0.00     0.000 C 
ENDROOT
BRANCH   1   2
ATOM      2  C   UNL     1      -2.858  39.380 101.584  1.00  0.00     0.000 C 
BRANCH   2   3
ATOM      3  C   UNL     1      -2.771  39.778 103.067  1.00  0.00     0.000 C 
BRANCH   3   4
ATOM      4  C   UNL     1      -2.561  41.288 103.261  1.00  0.00     0.000 C 
BRANCH   4   5
ATOM      5  C   UNL     1      -3.275  42.090 102.161  1.00  0.00     0.001 C 
BRANCH   5   6
ATOM      6  C   UNL     1      -4.218  43.167 102.741  1.00  0.00     0.009 C 
BRANCH   6   7
ATOM      7  C   UNL     1      -4.159  43.328 104.279  1.00  0.00     0.032 C 
ATOM      8  C   UNL     1      -5.545  43.348 104.934  1.00  0.00     0.014 C 
BRANCH   7   9
ATOM      9  C   UNL     1      -3.334  44.526 104.677  1.00  0.00     0.044 C 
ATOM     10  O   UNL     1      -2.092  44.401 104.843  1.00  0.00    -0.550 OA
ATOM     11  O   UNL     1      -3.916  45.780 104.824  1.00  0.00    -0.550 OA
ENDBRANCH   7   9
ENDBRANCH   6   7
ENDBRANCH   5   6
ENDBRANCH   4   5
ENDBRANCH   3   4
ENDBRANCH   2   3
ENDBRANCH   1   2
BRANCH   1  12
ATOM     12  C   UNL     1      -3.224  36.884 101.798  1.00  0.00     0.000 C 
BRANCH  12  13
ATOM     13  C   UNL     1      -4.632  37.020 101.196  1.00  0.00    -0.000 C 
BRANCH  13  14
ATOM     14  C   UNL     1      -5.291  35.657 100.929  1.00  0.00    -0.000 C 
BRANCH  14  15
ATOM     15  C   UNL     1      -5.262  35.260  99.441  1.00  0.00    -0.000 C 
BRANCH  15  16
ATOM     16  C   UNL     1      -4.098  34.334  99.038  1.00  0.00    -0.000 C 
BRANCH  16  17
ATOM     17  C   UNL     1      -2.915  35.095  98.412  1.00  0.00    -0.000 C 
BRANCH  17  18
ATOM     18  C   UNL     1      -3.269  36.549  98.059  1.00  0.00    -0.003 C 
ATOM     19  C   UNL     1      -3.588  36.738  96.575  1.00  0.00     0.004 C 
ENDBRANCH  17  18
ENDBRANCH  16  17
ENDBRANCH  15  16
ENDBRANCH  14  15
ENDBRANCH  13  14
ENDBRANCH  12  13
ENDBRANCH   1  12
TORSDOF 14
ENDMDL
MODEL 5
REMARK VINA RESULT:    -5.879      3.145      7.148
REMARK INTER + INTRA:         -12.296
REMARK INTER:                 -11.084
REMARK INTRA:                  -1.212
REMARK UNBOUND:                -1.604
REMARK SMILES CCCCCCCCCCCCCC[C@H](C)C(=O)[O-]
REMARK SMILES IDX 9 1 10 2 11 3 12 4 13 5 14 6 15 7 16 8 17 9 18 10 19 11 8 12
REMARK SMILES IDX 7 13 6 14 5 15 4 16 3 17 2 18 1 19
REMARK H PARENT
REMARK Flexibility Score: inf
ROOT
ATOM      1  C   UNL     1      -2.732  37.169 101.679  1.00  0.00     0.000 C 
ENDROOT
BRANCH   1   2
ATOM      2  C   UNL     1      -3.658  36.133 101.026  1.00  0.00     0.000 C 
BRANCH   2   3
ATOM      3  C   UNL     1      -2.910  35.201 100.059  1.00  0.00     0.000 C 
BRANCH   3   4
ATOM      4  C   UNL     1      -3.862  34.314  99.240  1.00  0.00     0.000 C 
BRANCH   4   5
ATOM      5  C   UNL     1      -5.273  34.920  99.189  1.00  0.00     0.001 C 
BRANCH   5   6
ATOM      6  C   UNL     1      -5.528  35.700  97.880  1.00  0.00     0.009 C 
BRANCH   6   7
ATOM      7  C   UNL     1      -5.562  37.239  98.034  1.00  0.00     0.032 C 
ATOM      8  C   UNL     1      -6.487  37.923  97.019  1.00  0.00     0.014 C 
BRANCH   7   9
ATOM      9  C   UNL     1      -4.174  37.827  98.011  1.00  0.00     0.044 C 
ATOM     10  O   UNL     1      -3.924  38.863  98.680  1.00  0.00    -0.550 OA
ATOM     11  O   UNL     1      -3.149  37.219  97.293  1.00  0.00    -0.550 OA
ENDBRANCH   7   9
ENDBRANCH   6   7
ENDBRANCH   5   6
ENDBRANCH   4   5
ENDBRANCH   3   4
ENDBRANCH   2   3
ENDBRANCH   1   2
BRANCH   1  12
ATOM     12  C   UNL     1      -3.130  37.421 103.141  1.00  0.00     0.000 C 
BRANCH  12  13
ATOM     13  C   UNL     1      -2.690  38.809 103.636  1.00  0.00    -0.000 C 
BRANCH  13  14
ATOM     14  C   UNL     1      -2.468  39.800 102.481  1.00  0.00    -0.000 C 
BRANCH  14  15
ATOM     15  C   UNL     1      -1.509  40.947 102.854  1.00  0.00    -0.000 C 
BRANCH  15  16
ATOM     16  C   UNL     1      -2.197  42.280 103.209  1.00  0.00    -0.000 C 
BRANCH  16  17
ATOM     17  C   UNL     1      -3.448  42.555 102.357  1.00  0.00    -0.000 C 
BRANCH  17  18
ATOM     18  C   UNL     1      -4.525  43.338 103.125  1.00  0.00    -0.003 C 
ATOM     19  C   UNL     1      -4.732  42.820 104.549  1.00  0.00     0.004 C 
ENDBRANCH  17  18
ENDBRANCH  16  17
ENDBRANCH  15  16
ENDBRANCH  14  15
ENDBRANCH  13  14
ENDBRANCH  12  13
ENDBRANCH   1  12
TORSDOF 14
ENDMDL
MODEL 6
REMARK VINA RESULT:    -5.873      1.391      2.688
REMARK INTER + INTRA:         -12.284
REMARK INTER:                 -10.673
REMARK INTRA:                  -1.612
REMARK UNBOUND:                -1.604
REMARK SMILES CCCCCCCCCCCCCC[C@H](C)C(=O)[O-]
REMARK SMILES IDX 9 1 10 2 11 3 12 4 13 5 14 6 15 7 16 8 17 9 18 10 19 11 8 12
REMARK SMILES IDX 7 13 6 14 5 15 4 16 3 17 2 18 1 19
REMARK H PARENT
REMARK Flexibility Score: inf
ROOT
ATOM      1  C   UNL     1      -2.903  38.538 100.597  1.00  0.00     0.000 C 
ENDROOT
BRANCH   1   2
ATOM      2  C   UNL     1      -2.962  37.949 102.014  1.00  0.00     0.000 C 
BRANCH   2   3
ATOM      3  C   UNL     1      -2.484  38.942 103.086  1.00  0.00     0.000 C 
BRANCH   3   4
ATOM      4  C   UNL     1      -1.576  40.040 102.509  1.00  0.00     0.000 C 
BRANCH   4   5
ATOM      5  C   UNL     1      -1.864  41.397 103.169  1.00  0.00     0.001 C 
BRANCH   5   6
ATOM      6  C   UNL     1      -3.333  41.839 102.982  1.00  0.00     0.009 C 
BRANCH   6   7
ATOM      7  C   UNL     1      -3.517  43.238 102.348  1.00  0.00     0.032 C 
ATOM      8  C   UNL     1      -2.356  44.192 102.653  1.00  0.00     0.014 C 
BRANCH   7   9
ATOM      9  C   UNL     1      -4.849  43.842 102.719  1.00  0.00     0.044 C 
ATOM     10  O   UNL     1      -5.537  44.421 101.838  1.00  0.00    -0.550 OA
ATOM     11  O   UNL     1      -5.351  43.732 104.011  1.00  0.00    -0.550 OA
ENDBRANCH   7   9
ENDBRANCH   6   7
ENDBRANCH   5   6
ENDBRANCH   4   5
ENDBRANCH   3   4
ENDBRANCH   2   3
ENDBRANCH   1   2
BRANCH   1  12
ATOM     12  C   UNL     1      -4.248  38.376  99.875  1.00  0.00     0.000 C 
BRANCH  12  13
ATOM     13  C   UNL     1      -4.133  38.621  98.362  1.00  0.00    -0.000 C 
BRANCH  13  14
ATOM     14  C   UNL     1      -4.467  37.367  97.537  1.00  0.00    -0.000 C 
BRANCH  14  15
ATOM     15  C   UNL     1      -3.220  36.532  97.187  1.00  0.00    -0.000 C 
BRANCH  15  16
ATOM     16  C   UNL     1      -2.774  35.542  98.280  1.00  0.00    -0.000 C 
BRANCH  16  17
ATOM     17  C   UNL     1      -3.874  34.538  98.666  1.00  0.00    -0.000 C 
BRANCH  17  18
ATOM     18  C   UNL     1      -4.214  34.583 100.166  1.00  0.00    -0.003 C 
ATOM     19  C   UNL     1      -5.579  35.213 100.445  1.00  0.00     0.004 C 
ENDBRANCH  17  18
ENDBRANCH  16  17
ENDBRANCH  15  16
ENDBRANCH  14  15
ENDBRANCH  13  14
ENDBRANCH  12  13
ENDBRANCH   1  12
TORSDOF 14
ENDMDL
MODEL 7
REMARK VINA RESULT:    -5.747      3.690      7.837
REMARK INTER + INTRA:         -12.054
REMARK INTER:                 -10.665
REMARK INTRA:                  -1.389
REMARK UNBOUND:                -1.604
REMARK SMILES CCCCCCCCCCCCCC[C@H](C)C(=O)[O-]
REMARK SMILES IDX 9 1 10 2 11 3 12 4 13 5 14 6 15 7 16 8 17 9 18 10 19 11 8 12
REMARK SMILES IDX 7 13 6 14 5 15 4 16 3 17 2 18 1 19
REMARK H PARENT
REMARK Flexibility Score: inf
ROOT
ATOM      1  C   UNL     1      -2.942  39.360 101.662  1.00  0.00     0.000 C 
ENDROOT
BRANCH   1   2
ATOM      2  C   UNL     1      -2.116  38.083 101.446  1.00  0.00     0.000 C 
BRANCH   2   3
ATOM      3  C   UNL     1      -2.948  36.804 101.636  1.00  0.00     0.000 C 
BRANCH   3   4
ATOM      4  C   UNL     1      -4.412  36.983 101.203  1.00  0.00     0.000 C 
BRANCH   4   5
ATOM      5  C   UNL     1      -5.024  35.645 100.761  1.00  0.00     0.001 C 
BRANCH   5   6
ATOM      6  C   UNL     1      -5.590  35.707  99.324  1.00  0.00     0.009 C 
BRANCH   6   7
ATOM      7  C   UNL     1      -4.575  35.365  98.208  1.00  0.00     0.032 C 
ATOM      8  C   UNL     1      -3.290  34.721  98.743  1.00  0.00     0.014 C 
BRANCH   7   9
ATOM      9  C   UNL     1      -4.281  36.566  97.343  1.00  0.00     0.044 C 
ATOM     10  O   UNL     1      -3.212  37.209  97.513  1.00  0.00    -0.550 OA
ATOM     11  O   UNL     1      -5.152  36.950  96.330  1.00  0.00    -0.550 OA
ENDBRANCH   7   9
ENDBRANCH   6   7
ENDBRANCH   5   6
ENDBRANCH   4   5
ENDBRANCH   3   4
ENDBRANCH   2   3
ENDBRANCH   1   2
BRANCH   1  12
ATOM     12  C   UNL     1      -2.392  40.181 102.836  1.00  0.00     0.000 C 
BRANCH  12  13
ATOM     13  C   UNL     1      -0.865  40.354 102.765  1.00  0.00    -0.000 C 
BRANCH  13  14
ATOM     14  C   UNL     1      -0.416  41.771 103.158  1.00  0.00    -0.000 C 
BRANCH  14  15
ATOM     15  C   UNL     1      -1.583  42.657 103.638  1.00  0.00    -0.000 C 
BRANCH  15  16
ATOM     16  C   UNL     1      -1.480  44.141 103.236  1.00  0.00    -0.000 C 
BRANCH  16  17
ATOM     17  C   UNL     1      -2.583  44.575 102.256  1.00  0.00    -0.000 C 
BRANCH  17  18
ATOM     18  C   UNL     1      -3.752  43.577 102.202  1.00  0.00    -0.003 C 
ATOM     19  C   UNL     1      -4.019  43.052 100.791  1.00  0.00     0.004 C 
ENDBRANCH  17  18
ENDBRANCH  16  17
ENDBRANCH  15  16
ENDBRANCH  14  15
ENDBRANCH  13  14
ENDBRANCH  12  13
ENDBRANCH   1  12
TORSDOF 14
ENDMDL
MODEL 8
REMARK VINA RESULT:    -5.533      1.411      2.877
REMARK INTER + INTRA:         -11.667
REMARK INTER:                 -10.337
REMARK INTRA:                  -1.330
REMARK UNBOUND:                -1.604
REMARK SMILES CCCCCCCCCCCCCC[C@H](C)C(=O)[O-]
REMARK SMILES IDX 9 1 10 2 11 3 12 4 13 5 14 6 15 7 16 8 17 9 18 10 19 11 8 12
REMARK SMILES IDX 7 13 6 14 5 15 4 16 3 17 2 18 1 19
REMARK H PARENT
REMARK Flexibility Score: inf
ROOT
ATOM      1  C   UNL     1      -2.786  38.544 102.886  1.00  0.00     0.000 C 
ENDROOT
BRANCH   1   2
ATOM      2  C   UNL     1      -1.875  39.758 102.651  1.00  0.00     0.000 C 
BRANCH   2   3
ATOM      3  C   UNL     1      -2.647  41.087 102.670  1.00  0.00     0.000 C 
BRANCH   3   4
ATOM      4  C   UNL     1      -1.850  42.223 103.329  1.00  0.00     0.000 C 
BRANCH   4   5
ATOM      5  C   UNL     1      -2.765  43.402 103.692  1.00  0.00     0.001 C 
BRANCH   5   6
ATOM      6  C   UNL     1      -4.183  42.939 104.096  1.00  0.00     0.009 C 
BRANCH   6   7
ATOM      7  C   UNL     1      -5.338  43.633 103.335  1.00  0.00     0.032 C 
ATOM      8  C   UNL     1      -4.918  44.153 101.955  1.00  0.00     0.014 C 
BRANCH   7   9
ATOM      9  C   UNL     1      -5.979  44.713 104.169  1.00  0.00     0.044 C 
ATOM     10  O   UNL     1      -7.224  44.890 104.110  1.00  0.00    -0.550 OA
ATOM     11  O   UNL     1      -5.223  45.493 105.037  1.00  0.00    -0.550 OA
ENDBRANCH   7   9
ENDBRANCH   6   7
ENDBRANCH   5   6
ENDBRANCH   4   5
ENDBRANCH   3   4
ENDBRANCH   2   3
ENDBRANCH   1   2
BRANCH   1  12
ATOM     12  C   UNL     1      -2.755  37.590 101.683  1.00  0.00     0.000 C 
BRANCH  12  13
ATOM     13  C   UNL     1      -3.951  37.801 100.739  1.00  0.00    -0.000 C 
BRANCH  13  14
ATOM     14  C   UNL     1      -3.572  38.601  99.482  1.00  0.00    -0.000 C 
BRANCH  14  15
ATOM     15  C   UNL     1      -4.498  38.310  98.285  1.00  0.00    -0.000 C 
BRANCH  15  16
ATOM     16  C   UNL     1      -4.103  37.082  97.443  1.00  0.00    -0.000 C 
BRANCH  16  17
ATOM     17  C   UNL     1      -4.980  35.850  97.730  1.00  0.00    -0.000 C 
BRANCH  17  18
ATOM     18  C   UNL     1      -4.267  34.811  98.612  1.00  0.00    -0.003 C 
ATOM     19  C   UNL     1      -2.749  34.992  98.632  1.00  0.00     0.004 C 
ENDBRANCH  17  18
ENDBRANCH  16  17
ENDBRANCH  15  16
ENDBRANCH  14  15
ENDBRANCH  13  14
ENDBRANCH  12  13
ENDBRANCH   1  12
TORSDOF 14
ENDMDL
MODEL 9
REMARK VINA RESULT:    -5.502      3.628      8.324
REMARK INTER + INTRA:         -11.610
REMARK INTER:                 -10.663
REMARK INTRA:                  -0.946
REMARK UNBOUND:                -1.604
REMARK SMILES CCCCCCCCCCCCCC[C@H](C)C(=O)[O-]
REMARK SMILES IDX 9 1 10 2 11 3 12 4 13 5 14 6 15 7 16 8 17 9 18 10 19 11 8 12
REMARK SMILES IDX 7 13 6 14 5 15 4 16 3 17 2 18 1 19
REMARK H PARENT
REMARK Flexibility Score: inf
ROOT
ATOM      1  C   UNL     1      -1.780  39.563 102.247  1.00  0.00     0.000 C 
ENDROOT
BRANCH   1   2
ATOM      2  C   UNL     1      -2.490  38.748 101.155  1.00  0.00     0.000 C 
BRANCH   2   3
ATOM      3  C   UNL     1      -2.884  37.341 101.634  1.00  0.00     0.000 C 
BRANCH   3   4
ATOM      4  C   UNL     1      -2.584  36.256 100.587  1.00  0.00     0.000 C 
BRANCH   4   5
ATOM      5  C   UNL     1      -3.674  35.174 100.586  1.00  0.00     0.001 C 
BRANCH   5   6
ATOM      6  C   UNL     1      -5.063  35.741 100.214  1.00  0.00     0.009 C 
BRANCH   6   7
ATOM      7  C   UNL     1      -5.531  35.428  98.773  1.00  0.00     0.032 C 
ATOM      8  C   UNL     1      -5.027  34.072  98.261  1.00  0.00     0.014 C 
BRANCH   7   9
ATOM      9  C   UNL     1      -5.185  36.548  97.825  1.00  0.00     0.044 C 
ATOM     10  O   UNL     1      -4.038  36.596  97.308  1.00  0.00    -0.550 OA
ATOM     11  O   UNL     1      -6.128  37.508  97.475  1.00  0.00    -0.550 OA
ENDBRANCH   7   9
ENDBRANCH   6   7
ENDBRANCH   5   6
ENDBRANCH   4   5
ENDBRANCH   3   4
ENDBRANCH   2   3
ENDBRANCH   1   2
BRANCH   1  12
ATOM     12  C   UNL     1      -2.793  40.194 103.211  1.00  0.00     0.000 C 
BRANCH  12  13
ATOM     13  C   UNL     1      -2.821  41.728 103.110  1.00  0.00    -0.000 C 
BRANCH  13  14
ATOM     14  C   UNL     1      -1.440  42.357 103.358  1.00  0.00    -0.000 C 
BRANCH  14  15
ATOM     15  C   UNL     1      -1.510  43.878 103.595  1.00  0.00    -0.000 C 
BRANCH  15  16
ATOM     16  C   UNL     1      -2.934  44.466 103.627  1.00  0.00    -0.000 C 
BRANCH  16  17
ATOM     17  C   UNL     1      -3.483  44.632 105.055  1.00  0.00    -0.000 C 
BRANCH  17  18
ATOM     18  C   UNL     1      -5.017  44.545 105.112  1.00  0.00    -0.003 C 
ATOM     19  C   UNL     1      -5.533  43.109 105.004  1.00  0.00     0.004 C 
ENDBRANCH  17  18
ENDBRANCH  16  17
ENDBRANCH  15  16
ENDBRANCH  14  15
ENDBRANCH  13  14
ENDBRANCH  12  13
ENDBRANCH   1  12
TORSDOF 14
ENDMDL
