MODEL 1
REMARK VINA RESULT:    -5.423      0.000      0.000
REMARK INTER + INTRA:          -6.834
REMARK INTER:                  -6.532
REMARK INTRA:                  -0.301
REMARK UNBOUND:                -0.301
REMARK SMILES Oc1cc(O)c2c(c1)O[C@@H](c1ccc(O)c(O)c1)[C@H](O)C2
REMARK SMILES IDX 21 1 19 2 10 3 9 4 7 5 8 6 2 7 3 8 4 9 6 10 20 11 11 13
REMARK SMILES IDX 18 14 12 15 16 16 13 17 14 18 17 19 15 21 5 23 1 25
REMARK H PARENT 20 12 17 20 15 22 5 24 1 26
REMARK Flexibility Score: inf
ROOT
ATOM      1  C   UNL     1       5.667 -19.287  14.505  1.00  0.00     0.079 C 
ATOM      2  C   UNL     1       5.171 -17.833  14.398  1.00  0.00     0.164 C 
ATOM      3  C   UNL     1       4.271 -17.497  15.599  1.00  0.00     0.232 C 
ATOM      4  O   UNL     1       4.982 -17.728  16.816  1.00  0.00    -0.482 OA
ATOM      5  C   UNL     1       5.849 -18.813  16.981  1.00  0.00     0.131 A 
ATOM      6  C   UNL     1       6.362 -19.084  18.252  1.00  0.00     0.093 A 
ATOM      7  C   UNL     1       7.219 -20.173  18.449  1.00  0.00     0.122 A 
ATOM      8  C   UNL     1       7.553 -20.996  17.372  1.00  0.00     0.092 A 
ATOM      9  C   UNL     1       7.047 -20.740  16.092  1.00  0.00     0.126 A 
ATOM     10  C   UNL     1       6.216 -19.615  15.879  1.00  0.00     0.039 A 
ENDROOT
BRANCH   2  11
ATOM     11  O   UNL     1       4.452 -17.661  13.205  1.00  0.00    -0.389 OA
ATOM     12  H   UNL     1       4.149 -16.716  13.187  1.00  0.00     0.211 HD
ENDBRANCH   2  11
BRANCH   3  13
ATOM     13  C   UNL     1       3.805 -16.061  15.549  1.00  0.00    -0.001 A 
ATOM     14  C   UNL     1       2.509 -15.746  15.105  1.00  0.00     0.057 A 
ATOM     15  C   UNL     1       4.648 -15.028  15.990  1.00  0.00     0.012 A 
ATOM     16  C   UNL     1       2.067 -14.418  15.085  1.00  0.00     0.157 A 
ATOM     17  C   UNL     1       4.210 -13.702  15.971  1.00  0.00     0.050 A 
ATOM     18  C   UNL     1       2.921 -13.390  15.517  1.00  0.00     0.157 A 
BRANCH  16  19
ATOM     19  O   UNL     1       0.777 -14.141  14.633  1.00  0.00    -0.504 OA
ATOM     20  H   UNL     1       0.542 -14.131  13.647  1.00  0.00     0.293 HD
ENDBRANCH  16  19
BRANCH  18  21
ATOM     21  O   UNL     1       2.487 -12.065  15.498  1.00  0.00    -0.504 OA
ATOM     22  H   UNL     1       2.900 -11.380  14.876  1.00  0.00     0.293 HD
ENDBRANCH  18  21
ENDBRANCH   3  13
BRANCH   9  23
ATOM     23  O   UNL     1       7.381 -21.626  15.065  1.00  0.00    -0.507 OA
ATOM     24  H   UNL     1       6.906 -22.507  14.915  1.00  0.00     0.293 HD
ENDBRANCH   9  23
BRANCH   7  25
ATOM     25  O   UNL     1       7.737 -20.448  19.713  1.00  0.00    -0.508 OA
ATOM     26  H   UNL     1       7.794 -19.733  20.429  1.00  0.00     0.293 HD
ENDBRANCH   7  25
TORSDOF 6
ENDMDL
MODEL 2
REMARK VINA RESULT:    -5.267      2.784      7.896
REMARK INTER + INTRA:          -6.646
REMARK INTER:                  -6.557
REMARK INTRA:                  -0.089
REMARK UNBOUND:                -0.301
REMARK SMILES Oc1cc(O)c2c(c1)O[C@@H](c1ccc(O)c(O)c1)[C@H](O)C2
REMARK SMILES IDX 21 1 19 2 10 3 9 4 7 5 8 6 2 7 3 8 4 9 6 10 20 11 11 13
REMARK SMILES IDX 18 14 12 15 16 16 13 17 14 18 17 19 15 21 5 23 1 25
REMARK H PARENT 20 12 17 20 15 22 5 24 1 26
REMARK Flexibility Score: inf
ROOT
ATOM      1  C   UNL     1       2.856 -11.876  15.838  1.00  0.00     0.079 C 
ATOM      2  C   UNL     1       3.246 -13.312  16.231  1.00  0.00     0.164 C 
ATOM      3  C   UNL     1       3.735 -14.079  14.990  1.00  0.00     0.232 C 
ATOM      4  O   UNL     1       4.825 -13.380  14.388  1.00  0.00    -0.482 OA
ATOM      5  C   UNL     1       4.860 -11.984  14.303  1.00  0.00     0.131 A 
ATOM      6  C   UNL     1       5.859 -11.377  13.536  1.00  0.00     0.093 A 
ATOM      7  C   UNL     1       5.910  -9.984  13.421  1.00  0.00     0.122 A 
ATOM      8  C   UNL     1       4.952  -9.199  14.066  1.00  0.00     0.092 A 
ATOM      9  C   UNL     1       3.945  -9.790  14.836  1.00  0.00     0.126 A 
ATOM     10  C   UNL     1       3.915 -11.196  14.993  1.00  0.00     0.039 A 
ENDROOT
BRANCH   2  11
ATOM     11  O   UNL     1       2.138 -13.971  16.788  1.00  0.00    -0.389 OA
ATOM     12  H   UNL     1       2.468 -14.838  17.141  1.00  0.00     0.211 HD
ENDBRANCH   2  11
BRANCH   3  13
ATOM     13  C   UNL     1       4.169 -15.481  15.350  1.00  0.00    -0.001 A 
ATOM     14  C   UNL     1       4.184 -16.496  14.377  1.00  0.00     0.057 A 
ATOM     15  C   UNL     1       4.608 -15.773  16.651  1.00  0.00     0.012 A 
ATOM     16  C   UNL     1       4.613 -17.787  14.702  1.00  0.00     0.157 A 
ATOM     17  C   UNL     1       5.036 -17.061  16.980  1.00  0.00     0.050 A 
ATOM     18  C   UNL     1       5.039 -18.074  16.010  1.00  0.00     0.157 A 
BRANCH  16  19
ATOM     19  O   UNL     1       4.609 -18.772  13.715  1.00  0.00    -0.504 OA
ATOM     20  H   UNL     1       5.461 -19.090  13.268  1.00  0.00     0.293 HD
ENDBRANCH  16  19
BRANCH  18  21
ATOM     21  O   UNL     1       5.467 -19.359  16.341  1.00  0.00    -0.504 OA
ATOM     22  H   UNL     1       6.405 -19.678  16.127  1.00  0.00     0.293 HD
ENDBRANCH  18  21
ENDBRANCH   3  13
BRANCH   9  23
ATOM     23  O   UNL     1       2.989  -8.954  15.420  1.00  0.00    -0.507 OA
ATOM     24  H   UNL     1       2.053  -8.839  15.053  1.00  0.00     0.293 HD
ENDBRANCH   9  23
BRANCH   7  25
ATOM     25  O   UNL     1       6.904  -9.371  12.661  1.00  0.00    -0.508 OA
ATOM     26  H   UNL     1       6.823  -9.285  11.654  1.00  0.00     0.293 HD
ENDBRANCH   7  25
TORSDOF 6
ENDMDL
MODEL 3
REMARK VINA RESULT:    -5.235      4.109      8.717
REMARK INTER + INTRA:          -6.607
REMARK INTER:                  -6.252
REMARK INTRA:                  -0.355
REMARK UNBOUND:                -0.301
REMARK SMILES Oc1cc(O)c2c(c1)O[C@@H](c1ccc(O)c(O)c1)[C@H](O)C2
REMARK SMILES IDX 21 1 19 2 10 3 9 4 7 5 8 6 2 7 3 8 4 9 6 10 20 11 11 13
REMARK SMILES IDX 18 14 12 15 16 16 13 17 14 18 17 19 15 21 5 23 1 25
REMARK H PARENT 20 12 17 20 15 22 5 24 1 26
REMARK Flexibility Score: inf
ROOT
ATOM      1  C   UNL     1       4.856 -10.014  15.537  1.00  0.00     0.079 C 
ATOM      2  C   UNL     1       4.716 -11.531  15.758  1.00  0.00     0.164 C 
ATOM      3  C   UNL     1       4.323 -12.218  14.440  1.00  0.00     0.232 C 
ATOM      4  O   UNL     1       5.286 -11.915  13.430  1.00  0.00    -0.482 OA
ATOM      5  C   UNL     1       5.875 -10.652  13.314  1.00  0.00     0.131 A 
ATOM      6  C   UNL     1       6.663 -10.371  12.195  1.00  0.00     0.093 A 
ATOM      7  C   UNL     1       7.251  -9.110  12.045  1.00  0.00     0.122 A 
ATOM      8  C   UNL     1       7.041  -8.127  13.014  1.00  0.00     0.092 A 
ATOM      9  C   UNL     1       6.254  -8.391  14.141  1.00  0.00     0.126 A 
ATOM     10  C   UNL     1       5.693  -9.678  14.320  1.00  0.00     0.039 A 
ENDROOT
BRANCH   2  11
ATOM     11  O   UNL     1       3.737 -11.782  16.733  1.00  0.00    -0.389 OA
ATOM     12  H   UNL     1       4.093 -11.433  17.592  1.00  0.00     0.211 HD
ENDBRANCH   2  11
BRANCH   3  13
ATOM     13  C   UNL     1       4.222 -13.715  14.612  1.00  0.00    -0.001 A 
ATOM     14  C   UNL     1       5.372 -14.484  14.862  1.00  0.00     0.057 A 
ATOM     15  C   UNL     1       2.970 -14.349  14.570  1.00  0.00     0.012 A 
ATOM     16  C   UNL     1       5.277 -15.868  15.050  1.00  0.00     0.157 A 
ATOM     17  C   UNL     1       2.871 -15.730  14.756  1.00  0.00     0.050 A 
ATOM     18  C   UNL     1       4.021 -16.495  14.995  1.00  0.00     0.157 A 
BRANCH  16  19
ATOM     19  O   UNL     1       6.438 -16.601  15.290  1.00  0.00    -0.504 OA
ATOM     20  H   UNL     1       7.240 -16.200  15.762  1.00  0.00     0.293 HD
ENDBRANCH  16  19
BRANCH  18  21
ATOM     21  O   UNL     1       3.919 -17.874  15.179  1.00  0.00    -0.504 OA
ATOM     22  H   UNL     1       4.045 -18.523  14.411  1.00  0.00     0.293 HD
ENDBRANCH  18  21
ENDBRANCH   3  13
BRANCH   9  23
ATOM     23  O   UNL     1       6.044  -7.353  15.052  1.00  0.00    -0.507 OA
ATOM     24  H   UNL     1       6.671  -6.565  15.151  1.00  0.00     0.293 HD
ENDBRANCH   9  23
BRANCH   7  25
ATOM     25  O   UNL     1       8.040  -8.823  10.933  1.00  0.00    -0.508 OA
ATOM     26  H   UNL     1       8.213  -9.516  10.213  1.00  0.00     0.293 HD
ENDBRANCH   7  25
TORSDOF 6
ENDMDL
MODEL 4
REMARK VINA RESULT:    -5.105      2.130      7.082
REMARK INTER + INTRA:          -6.451
REMARK INTER:                  -6.216
REMARK INTRA:                  -0.234
REMARK UNBOUND:                -0.301
REMARK SMILES Oc1cc(O)c2c(c1)O[C@@H](c1ccc(O)c(O)c1)[C@H](O)C2
REMARK SMILES IDX 21 1 19 2 10 3 9 4 7 5 8 6 2 7 3 8 4 9 6 10 20 11 11 13
REMARK SMILES IDX 18 14 12 15 16 16 13 17 14 18 17 19 15 21 5 23 1 25
REMARK H PARENT 20 12 17 20 15 22 5 24 1 26
REMARK Flexibility Score: inf
ROOT
ATOM      1  C   UNL     1       6.194 -15.268  16.305  1.00  0.00     0.079 C 
ATOM      2  C   UNL     1       6.837 -16.369  15.442  1.00  0.00     0.164 C 
ATOM      3  C   UNL     1       5.871 -17.557  15.302  1.00  0.00     0.232 C 
ATOM      4  O   UNL     1       4.630 -17.110  14.753  1.00  0.00    -0.482 OA
ATOM      5  C   UNL     1       4.054 -15.886  15.109  1.00  0.00     0.131 A 
ATOM      6  C   UNL     1       2.755 -15.598  14.682  1.00  0.00     0.093 A 
ATOM      7  C   UNL     1       2.148 -14.388  15.036  1.00  0.00     0.122 A 
ATOM      8  C   UNL     1       2.841 -13.471  15.829  1.00  0.00     0.092 A 
ATOM      9  C   UNL     1       4.142 -13.743  16.266  1.00  0.00     0.126 A 
ATOM     10  C   UNL     1       4.777 -14.945  15.874  1.00  0.00     0.039 A 
ENDROOT
BRANCH   2  11
ATOM     11  O   UNL     1       8.035 -16.800  16.035  1.00  0.00    -0.389 OA
ATOM     12  H   UNL     1       8.729 -16.781  15.325  1.00  0.00     0.211 HD
ENDBRANCH   2  11
BRANCH   3  13
ATOM     13  C   UNL     1       6.455 -18.636  14.421  1.00  0.00    -0.001 A 
ATOM     14  C   UNL     1       6.211 -19.993  14.697  1.00  0.00     0.057 A 
ATOM     15  C   UNL     1       7.210 -18.293  13.288  1.00  0.00     0.012 A 
ATOM     16  C   UNL     1       6.728 -20.993  13.865  1.00  0.00     0.157 A 
ATOM     17  C   UNL     1       7.728 -19.288  12.456  1.00  0.00     0.050 A 
ATOM     18  C   UNL     1       7.493 -20.640  12.740  1.00  0.00     0.157 A 
BRANCH  16  19
ATOM     19  O   UNL     1       6.472 -22.329  14.171  1.00  0.00    -0.504 OA
ATOM     20  H   UNL     1       6.822 -22.764  15.017  1.00  0.00     0.293 HD
ENDBRANCH  16  19
BRANCH  18  21
ATOM     21  O   UNL     1       8.012 -21.631  11.908  1.00  0.00    -0.504 OA
ATOM     22  H   UNL     1       8.571 -21.402  11.094  1.00  0.00     0.293 HD
ENDBRANCH  18  21
ENDBRANCH   3  13
BRANCH   9  23
ATOM     23  O   UNL     1       4.765 -12.806  17.094  1.00  0.00    -0.507 OA
ATOM     24  H   UNL     1       5.076 -13.014  18.034  1.00  0.00     0.293 HD
ENDBRANCH   9  23
BRANCH   7  25
ATOM     25  O   UNL     1       0.854 -14.093  14.612  1.00  0.00    -0.508 OA
ATOM     26  H   UNL     1       0.417 -13.204  14.827  1.00  0.00     0.293 HD
ENDBRANCH   7  25
TORSDOF 6
ENDMDL
MODEL 5
REMARK VINA RESULT:    -5.097      1.570      3.093
REMARK INTER + INTRA:          -6.441
REMARK INTER:                  -6.076
REMARK INTRA:                  -0.366
REMARK UNBOUND:                -0.301
REMARK SMILES Oc1cc(O)c2c(c1)O[C@@H](c1ccc(O)c(O)c1)[C@H](O)C2
REMARK SMILES IDX 21 1 19 2 10 3 9 4 7 5 8 6 2 7 3 8 4 9 6 10 20 11 11 13
REMARK SMILES IDX 18 14 12 15 16 16 13 17 14 18 17 19 15 21 5 23 1 25
REMARK H PARENT 20 12 17 20 15 22 5 24 1 26
REMARK Flexibility Score: inf
ROOT
ATOM      1  C   UNL     1       5.775 -19.327  16.458  1.00  0.00     0.079 C 
ATOM      2  C   UNL     1       4.830 -18.115  16.371  1.00  0.00     0.164 C 
ATOM      3  C   UNL     1       5.516 -16.970  15.608  1.00  0.00     0.232 C 
ATOM      4  O   UNL     1       5.919 -17.422  14.315  1.00  0.00    -0.482 OA
ATOM      5  C   UNL     1       6.438 -18.703  14.100  1.00  0.00     0.131 A 
ATOM      6  C   UNL     1       6.986 -19.012  12.852  1.00  0.00     0.093 A 
ATOM      7  C   UNL     1       7.526 -20.281  12.614  1.00  0.00     0.122 A 
ATOM      8  C   UNL     1       7.528 -21.236  13.632  1.00  0.00     0.092 A 
ATOM      9  C   UNL     1       6.984 -20.943  14.888  1.00  0.00     0.126 A 
ATOM     10  C   UNL     1       6.396 -19.677  15.121  1.00  0.00     0.039 A 
ENDROOT
BRANCH   2  11
ATOM     11  O   UNL     1       4.487 -17.685  17.663  1.00  0.00    -0.389 OA
ATOM     12  H   UNL     1       3.973 -16.842  17.556  1.00  0.00     0.211 HD
ENDBRANCH   2  11
BRANCH   3  13
ATOM     13  C   UNL     1       4.597 -15.779  15.465  1.00  0.00    -0.001 A 
ATOM     14  C   UNL     1       3.418 -15.875  14.706  1.00  0.00     0.057 A 
ATOM     15  C   UNL     1       4.888 -14.577  16.129  1.00  0.00     0.012 A 
ATOM     16  C   UNL     1       2.551 -14.782  14.596  1.00  0.00     0.157 A 
ATOM     17  C   UNL     1       4.025 -13.483  16.020  1.00  0.00     0.050 A 
ATOM     18  C   UNL     1       2.856 -13.579  15.254  1.00  0.00     0.157 A 
BRANCH  16  19
ATOM     19  O   UNL     1       1.393 -14.910  13.829  1.00  0.00    -0.504 OA
ATOM     20  H   UNL     1       1.227 -14.346  13.004  1.00  0.00     0.293 HD
ENDBRANCH  16  19
BRANCH  18  21
ATOM     21  O   UNL     1       1.997 -12.486  15.147  1.00  0.00    -0.504 OA
ATOM     22  H   UNL     1       1.926 -11.792  15.883  1.00  0.00     0.293 HD
ENDBRANCH  18  21
ENDBRANCH   3  13
BRANCH   9  23
ATOM     23  O   UNL     1       7.056 -21.925  15.879  1.00  0.00    -0.507 OA
ATOM     24  H   UNL     1       7.320 -22.884  15.694  1.00  0.00     0.293 HD
ENDBRANCH   9  23
BRANCH   7  25
ATOM     25  O   UNL     1       8.072 -20.598  11.372  1.00  0.00    -0.508 OA
ATOM     26  H   UNL     1       7.875 -20.039  10.549  1.00  0.00     0.293 HD
ENDBRANCH   7  25
TORSDOF 6
ENDMDL
MODEL 6
REMARK VINA RESULT:    -5.083      2.777      8.020
REMARK INTER + INTRA:          -6.425
REMARK INTER:                  -6.091
REMARK INTRA:                  -0.334
REMARK UNBOUND:                -0.301
REMARK SMILES Oc1cc(O)c2c(c1)O[C@@H](c1ccc(O)c(O)c1)[C@H](O)C2
REMARK SMILES IDX 21 1 19 2 10 3 9 4 7 5 8 6 2 7 3 8 4 9 6 10 20 11 11 13
REMARK SMILES IDX 18 14 12 15 16 16 13 17 14 18 17 19 15 21 5 23 1 25
REMARK H PARENT 20 12 17 20 15 22 5 24 1 26
REMARK Flexibility Score: inf
ROOT
ATOM      1  C   UNL     1       2.839 -12.440  16.062  1.00  0.00     0.079 C 
ATOM      2  C   UNL     1       3.604 -13.774  16.136  1.00  0.00     0.164 C 
ATOM      3  C   UNL     1       4.175 -14.127  14.752  1.00  0.00     0.232 C 
ATOM      4  O   UNL     1       5.007 -13.063  14.286  1.00  0.00    -0.482 OA
ATOM      5  C   UNL     1       4.685 -11.718  14.495  1.00  0.00     0.131 A 
ATOM      6  C   UNL     1       5.440 -10.733  13.851  1.00  0.00     0.093 A 
ATOM      7  C   UNL     1       5.132  -9.380  14.030  1.00  0.00     0.122 A 
ATOM      8  C   UNL     1       4.059  -9.015  14.846  1.00  0.00     0.092 A 
ATOM      9  C   UNL     1       3.293  -9.988  15.497  1.00  0.00     0.126 A 
ATOM     10  C   UNL     1       3.627 -11.355  15.356  1.00  0.00     0.039 A 
ENDROOT
BRANCH   2  11
ATOM     11  O   UNL     1       2.741 -14.794  16.567  1.00  0.00    -0.389 OA
ATOM     12  H   UNL     1       3.052 -15.069  17.469  1.00  0.00     0.211 HD
ENDBRANCH   2  11
BRANCH   3  13
ATOM     13  C   UNL     1       4.972 -15.409  14.800  1.00  0.00    -0.001 A 
ATOM     14  C   UNL     1       4.452 -16.595  14.252  1.00  0.00     0.057 A 
ATOM     15  C   UNL     1       6.263 -15.419  15.352  1.00  0.00     0.012 A 
ATOM     16  C   UNL     1       5.201 -17.776  14.270  1.00  0.00     0.157 A 
ATOM     17  C   UNL     1       7.013 -16.597  15.374  1.00  0.00     0.050 A 
ATOM     18  C   UNL     1       6.487 -17.780  14.836  1.00  0.00     0.157 A 
BRANCH  16  19
ATOM     19  O   UNL     1       4.652 -18.935  13.723  1.00  0.00    -0.504 OA
ATOM     20  H   UNL     1       3.903 -18.907  13.040  1.00  0.00     0.293 HD
ENDBRANCH  16  19
BRANCH  18  21
ATOM     21  O   UNL     1       7.238 -18.955  14.859  1.00  0.00    -0.504 OA
ATOM     22  H   UNL     1       8.126 -19.026  14.376  1.00  0.00     0.293 HD
ENDBRANCH  18  21
ENDBRANCH   3  13
BRANCH   9  23
ATOM     23  O   UNL     1       2.205  -9.562  16.263  1.00  0.00    -0.507 OA
ATOM     24  H   UNL     1       1.289  -9.989  16.215  1.00  0.00     0.293 HD
ENDBRANCH   9  23
BRANCH   7  25
ATOM     25  O   UNL     1       5.881  -8.392  13.394  1.00  0.00    -0.508 OA
ATOM     26  H   UNL     1       5.557  -7.433  13.343  1.00  0.00     0.293 HD
ENDBRANCH   7  25
TORSDOF 6
ENDMDL
MODEL 7
REMARK VINA RESULT:    -4.953      3.666      5.527
REMARK INTER + INTRA:          -6.268
REMARK INTER:                  -6.038
REMARK INTRA:                  -0.230
REMARK UNBOUND:                -0.301
REMARK SMILES Oc1cc(O)c2c(c1)O[C@@H](c1ccc(O)c(O)c1)[C@H](O)C2
REMARK SMILES IDX 21 1 19 2 10 3 9 4 7 5 8 6 2 7 3 8 4 9 6 10 20 11 11 13
REMARK SMILES IDX 18 14 12 15 16 16 13 17 14 18 17 19 15 21 5 23 1 25
REMARK H PARENT 20 12 17 20 15 22 5 24 1 26
REMARK Flexibility Score: inf
ROOT
ATOM      1  C   UNL     1       3.908 -14.730  15.167  1.00  0.00     0.079 C 
ATOM      2  C   UNL     1       4.151 -13.286  14.690  1.00  0.00     0.164 C 
ATOM      3  C   UNL     1       5.588 -12.857  15.028  1.00  0.00     0.232 C 
ATOM      4  O   UNL     1       6.517 -13.772  14.444  1.00  0.00    -0.482 OA
ATOM      5  C   UNL     1       6.279 -15.150  14.399  1.00  0.00     0.131 A 
ATOM      6  C   UNL     1       7.308 -16.002  13.987  1.00  0.00     0.093 A 
ATOM      7  C   UNL     1       7.104 -17.385  13.947  1.00  0.00     0.122 A 
ATOM      8  C   UNL     1       5.870 -17.916  14.331  1.00  0.00     0.092 A 
ATOM      9  C   UNL     1       4.830 -17.077  14.747  1.00  0.00     0.126 A 
ATOM     10  C   UNL     1       5.016 -15.675  14.747  1.00  0.00     0.039 A 
ENDROOT
BRANCH   2  11
ATOM     11  O   UNL     1       3.239 -12.419  15.312  1.00  0.00    -0.389 OA
ATOM     12  H   UNL     1       3.765 -11.651  15.657  1.00  0.00     0.211 HD
ENDBRANCH   2  11
BRANCH   3  13
ATOM     13  C   UNL     1       5.874 -11.459  14.531  1.00  0.00    -0.001 A 
ATOM     14  C   UNL     1       6.289 -11.243  13.206  1.00  0.00     0.057 A 
ATOM     15  C   UNL     1       5.682 -10.355  15.377  1.00  0.00     0.012 A 
ATOM     16  C   UNL     1       6.526  -9.947  12.736  1.00  0.00     0.157 A 
ATOM     17  C   UNL     1       5.918  -9.060  14.912  1.00  0.00     0.050 A 
ATOM     18  C   UNL     1       6.342  -8.849  13.593  1.00  0.00     0.157 A 
BRANCH  16  19
ATOM     19  O   UNL     1       6.943  -9.769  11.417  1.00  0.00    -0.504 OA
ATOM     20  H   UNL     1       7.862 -10.054  11.099  1.00  0.00     0.293 HD
ENDBRANCH  16  19
BRANCH  18  21
ATOM     21  O   UNL     1       6.579  -7.554  13.132  1.00  0.00    -0.504 OA
ATOM     22  H   UNL     1       7.488  -7.273  12.781  1.00  0.00     0.293 HD
ENDBRANCH  18  21
ENDBRANCH   3  13
BRANCH   9  23
ATOM     23  O   UNL     1       3.635 -17.671  15.162  1.00  0.00    -0.507 OA
ATOM     24  H   UNL     1       2.724 -17.262  14.997  1.00  0.00     0.293 HD
ENDBRANCH   9  23
BRANCH   7  25
ATOM     25  O   UNL     1       8.123 -18.241  13.535  1.00  0.00    -0.508 OA
ATOM     26  H   UNL     1       8.941 -17.894  13.047  1.00  0.00     0.293 HD
ENDBRANCH   7  25
TORSDOF 6
ENDMDL
MODEL 8
REMARK VINA RESULT:    -4.941      4.075      6.840
REMARK INTER + INTRA:          -6.253
REMARK INTER:                  -5.885
REMARK INTRA:                  -0.368
REMARK UNBOUND:                -0.301
REMARK SMILES Oc1cc(O)c2c(c1)O[C@@H](c1ccc(O)c(O)c1)[C@H](O)C2
REMARK SMILES IDX 21 1 19 2 10 3 9 4 7 5 8 6 2 7 3 8 4 9 6 10 20 11 11 13
REMARK SMILES IDX 18 14 12 15 16 16 13 17 14 18 17 19 15 21 5 23 1 25
REMARK H PARENT 20 12 17 20 15 22 5 24 1 26
REMARK Flexibility Score: inf
ROOT
ATOM      1  C   UNL     1       6.287 -14.164  14.890  1.00  0.00     0.079 C 
ATOM      2  C   UNL     1       6.633 -12.686  15.144  1.00  0.00     0.164 C 
ATOM      3  C   UNL     1       5.731 -11.782  14.287  1.00  0.00     0.232 C 
ATOM      4  O   UNL     1       4.359 -12.061  14.568  1.00  0.00    -0.482 OA
ATOM      5  C   UNL     1       3.893 -13.360  14.795  1.00  0.00     0.131 A 
ATOM      6  C   UNL     1       2.515 -13.581  14.876  1.00  0.00     0.093 A 
ATOM      7  C   UNL     1       2.019 -14.872  15.086  1.00  0.00     0.122 A 
ATOM      8  C   UNL     1       2.906 -15.945  15.205  1.00  0.00     0.092 A 
ATOM      9  C   UNL     1       4.288 -15.742  15.125  1.00  0.00     0.126 A 
ATOM     10  C   UNL     1       4.797 -14.432  14.957  1.00  0.00     0.039 A 
ENDROOT
BRANCH   2  11
ATOM     11  O   UNL     1       7.980 -12.451  14.824  1.00  0.00    -0.389 OA
ATOM     12  H   UNL     1       8.498 -13.218  15.184  1.00  0.00     0.211 HD
ENDBRANCH   2  11
BRANCH   3  13
ATOM     13  C   UNL     1       6.015 -10.321  14.547  1.00  0.00    -0.001 A 
ATOM     14  C   UNL     1       6.385  -9.467  13.494  1.00  0.00     0.057 A 
ATOM     15  C   UNL     1       5.866  -9.791  15.839  1.00  0.00     0.012 A 
ATOM     16  C   UNL     1       6.620  -8.107  13.729  1.00  0.00     0.157 A 
ATOM     17  C   UNL     1       6.101  -8.435  16.077  1.00  0.00     0.050 A 
ATOM     18  C   UNL     1       6.480  -7.588  15.027  1.00  0.00     0.157 A 
BRANCH  16  19
ATOM     19  O   UNL     1       6.992  -7.289  12.663  1.00  0.00    -0.504 OA
ATOM     20  H   UNL     1       6.523  -6.412  12.468  1.00  0.00     0.293 HD
ENDBRANCH  16  19
BRANCH  18  21
ATOM     21  O   UNL     1       6.715  -6.235  15.268  1.00  0.00    -0.504 OA
ATOM     22  H   UNL     1       5.960  -5.598  15.497  1.00  0.00     0.293 HD
ENDBRANCH  18  21
ENDBRANCH   3  13
BRANCH   9  23
ATOM     23  O   UNL     1       5.121 -16.860  15.206  1.00  0.00    -0.507 OA
ATOM     24  H   UNL     1       5.528 -17.189  16.072  1.00  0.00     0.293 HD
ENDBRANCH   9  23
BRANCH   7  25
ATOM     25  O   UNL     1       0.647 -15.101  15.171  1.00  0.00    -0.508 OA
ATOM     26  H   UNL     1       0.241 -15.602  15.953  1.00  0.00     0.293 HD
ENDBRANCH   7  25
TORSDOF 6
ENDMDL
MODEL 9
REMARK VINA RESULT:    -4.908      6.680      8.837
REMARK INTER + INTRA:          -6.213
REMARK INTER:                  -6.110
REMARK INTRA:                  -0.103
REMARK UNBOUND:                -0.301
REMARK SMILES Oc1cc(O)c2c(c1)O[C@@H](c1ccc(O)c(O)c1)[C@H](O)C2
REMARK SMILES IDX 21 1 19 2 10 3 9 4 7 5 8 6 2 7 3 8 4 9 6 10 20 11 11 13
REMARK SMILES IDX 18 14 12 15 16 16 13 17 14 18 17 19 15 21 5 23 1 25
REMARK H PARENT 20 12 17 20 15 22 5 24 1 26
REMARK Flexibility Score: inf
ROOT
ATOM      1  C   UNL     1       3.610 -10.901  16.570  1.00  0.00     0.079 C 
ATOM      2  C   UNL     1       2.272 -10.333  16.065  1.00  0.00     0.164 C 
ATOM      3  C   UNL     1       2.505  -8.976  15.379  1.00  0.00     0.232 C 
ATOM      4  O   UNL     1       3.452  -9.126  14.320  1.00  0.00    -0.482 OA
ATOM      5  C   UNL     1       4.569  -9.961  14.430  1.00  0.00     0.131 A 
ATOM      6  C   UNL     1       5.550  -9.915  13.436  1.00  0.00     0.093 A 
ATOM      7  C   UNL     1       6.685 -10.728  13.527  1.00  0.00     0.122 A 
ATOM      8  C   UNL     1       6.842 -11.580  14.623  1.00  0.00     0.092 A 
ATOM      9  C   UNL     1       5.869 -11.638  15.628  1.00  0.00     0.126 A 
ATOM     10  C   UNL     1       4.698 -10.851  15.518  1.00  0.00     0.039 A 
ENDROOT
BRANCH   2  11
ATOM     11  O   UNL     1       1.385 -10.172  17.141  1.00  0.00    -0.389 OA
ATOM     12  H   UNL     1       1.046 -11.077  17.370  1.00  0.00     0.211 HD
ENDBRANCH   2  11
BRANCH   3  13
ATOM     13  C   UNL     1       1.216  -8.412  14.829  1.00  0.00    -0.001 A 
ATOM     14  C   UNL     1       0.159  -9.265  14.469  1.00  0.00     0.057 A 
ATOM     15  C   UNL     1       1.044  -7.023  14.716  1.00  0.00     0.012 A 
ATOM     16  C   UNL     1      -1.046  -8.742  13.987  1.00  0.00     0.157 A 
ATOM     17  C   UNL     1      -0.157  -6.497  14.234  1.00  0.00     0.050 A 
ATOM     18  C   UNL     1      -1.205  -7.351  13.866  1.00  0.00     0.157 A 
BRANCH  16  19
ATOM     19  O   UNL     1      -2.072  -9.617  13.633  1.00  0.00    -0.504 OA
ATOM     20  H   UNL     1      -3.012  -9.521  13.998  1.00  0.00     0.293 HD
ENDBRANCH  16  19
BRANCH  18  21
ATOM     21  O   UNL     1      -2.403  -6.823  13.384  1.00  0.00    -0.504 OA
ATOM     22  H   UNL     1      -3.298  -7.232  13.626  1.00  0.00     0.293 HD
ENDBRANCH  18  21
ENDBRANCH   3  13
BRANCH   9  23
ATOM     23  O   UNL     1       6.104 -12.476  16.720  1.00  0.00    -0.507 OA
ATOM     24  H   UNL     1       7.031 -12.704  17.057  1.00  0.00     0.293 HD
ENDBRANCH   9  23
BRANCH   7  25
ATOM     25  O   UNL     1       7.667 -10.690  12.539  1.00  0.00    -0.508 OA
ATOM     26  H   UNL     1       7.762 -11.436  11.858  1.00  0.00     0.293 HD
ENDBRANCH   7  25
TORSDOF 6
ENDMDL
