MODEL 1
REMARK VINA RESULT:    -8.590      0.000      0.000
REMARK INTER + INTRA:         -18.469
REMARK INTER:                 -16.374
REMARK INTRA:                  -2.095
REMARK UNBOUND:                -2.095
REMARK SMILES C[C@@H]1O[C@@H](O[C@H]2[C@@H](O)[C@@H](OCCc3ccc(O)c(O)c3)O[C@@H](CO)[C@@H]2OC(=O)C=Cc2ccc(O)c(O)c2)[C@H](O)[C@H](O)[C@@H]1O
REMARK SMILES IDX 6 1 7 2 9 3 21 4 22 5 25 6 5 7 4 8 1 9 2 10 43 11 3 12 41 13
REMARK SMILES IDX 39 14 44 15 42 17 40 19 8 21 26 23 27 24 28 25 29 26 30 27
REMARK SMILES IDX 31 28 38 29 32 30 36 31 33 32 34 33 37 34 35 36 10 38 11 39
REMARK SMILES IDX 12 40 13 41 20 42 14 43 18 44 15 45 16 46 19 47 17 49 23 51
REMARK SMILES IDX 24 52
REMARK H PARENT 44 16 42 18 40 20 8 22 37 35 35 37 19 48 17 50 24 53
REMARK Flexibility Score: inf
ROOT
ATOM      1  C   UNL     1      37.644  32.422  -4.178  1.00  0.00     0.199 C 
ATOM      2  C   UNL     1      36.258  31.830  -4.501  1.00  0.00     0.203 C 
ATOM      3  C   UNL     1      35.466  31.649  -3.161  1.00  0.00     0.282 C 
ATOM      4  O   UNL     1      35.893  32.597  -2.165  1.00  0.00    -0.340 OA
ATOM      5  C   UNL     1      36.134  33.872  -2.711  1.00  0.00     0.190 C 
ATOM      6  C   UNL     1      37.379  33.852  -3.661  1.00  0.00     0.240 C 
ENDROOT
BRANCH   1   7
ATOM      7  O   UNL     1      38.326  31.739  -3.126  1.00  0.00    -0.340 OA
BRANCH   7   8
ATOM      8  C   UNL     1      39.668  31.374  -3.409  1.00  0.00     0.282 C 
ATOM      9  C   UNL     1      42.286  33.997  -3.431  1.00  0.00     0.041 C 
ATOM     10  C   UNL     1      41.394  32.911  -4.021  1.00  0.00     0.150 C 
ATOM     11  C   UNL     1      42.221  31.718  -4.537  1.00  0.00     0.174 C 
ATOM     12  O   UNL     1      40.467  32.496  -3.043  1.00  0.00    -0.344 OA
ATOM     13  C   UNL     1      41.297  30.652  -5.199  1.00  0.00     0.179 C 
ATOM     14  C   UNL     1      39.814  30.925  -4.889  1.00  0.00     0.202 C 
BRANCH  11  15
ATOM     15  O   UNL     1      42.928  31.171  -3.462  1.00  0.00    -0.388 OA
ATOM     16  H   UNL     1      43.906  31.290  -3.638  1.00  0.00     0.211 HD
ENDBRANCH  11  15
BRANCH  13  17
ATOM     17  O   UNL     1      41.657  29.374  -4.757  1.00  0.00    -0.387 OA
ATOM     18  H   UNL     1      42.416  29.496  -4.142  1.00  0.00     0.211 HD
ENDBRANCH  13  17
BRANCH  14  19
ATOM     19  O   UNL     1      39.043  29.778  -5.120  1.00  0.00    -0.385 OA
ATOM     20  H   UNL     1      39.184  29.200  -4.320  1.00  0.00     0.211 HD
ENDBRANCH  14  19
ENDBRANCH   7   8
ENDBRANCH   1   7
BRANCH   2  21
ATOM     21  O   UNL     1      36.360  30.693  -5.342  1.00  0.00    -0.385 OA
ATOM     22  H   UNL     1      37.318  30.453  -5.489  1.00  0.00     0.211 HD
ENDBRANCH   2  21
BRANCH   6  23
ATOM     23  O   UNL     1      37.145  34.730  -4.762  1.00  0.00    -0.453 OA
BRANCH  23  24
ATOM     24  C   UNL     1      35.867  35.108  -5.173  1.00  0.00     0.331 C 
ATOM     25  O   UNL     1      35.233  34.409  -6.010  1.00  0.00    -0.247 OA
BRANCH  24  26
ATOM     26  C   UNL     1      35.250  36.317  -4.595  1.00  0.00     0.094 C 
ATOM     27  C   UNL     1      34.006  36.303  -4.090  1.00  0.00     0.016 C 
BRANCH  27  28
ATOM     28  C   UNL     1      33.317  37.479  -3.474  1.00  0.00    -0.021 A 
ATOM     29  C   UNL     1      33.323  37.744  -2.099  1.00  0.00     0.058 A 
ATOM     30  C   UNL     1      32.636  38.373  -4.324  1.00  0.00     0.012 A 
ATOM     31  C   UNL     1      32.630  38.831  -1.567  1.00  0.00     0.157 A 
ATOM     32  C   UNL     1      31.926  39.454  -3.794  1.00  0.00     0.051 A 
ATOM     33  C   UNL     1      31.929  39.694  -2.416  1.00  0.00     0.157 A 
BRANCH  31  34
ATOM     34  O   UNL     1      32.646  39.075  -0.194  1.00  0.00    -0.504 OA
ATOM     35  H   UNL     1      33.324  39.700   0.226  1.00  0.00     0.293 HD
ENDBRANCH  31  34
BRANCH  33  36
ATOM     36  O   UNL     1      31.254  40.803  -1.916  1.00  0.00    -0.504 OA
ATOM     37  H   UNL     1      30.337  41.066  -2.263  1.00  0.00     0.293 HD
ENDBRANCH  33  36
ENDBRANCH  27  28
ENDBRANCH  24  26
ENDBRANCH  23  24
ENDBRANCH   6  23
BRANCH   3  38
ATOM     38  O   UNL     1      35.632  30.321  -2.680  1.00  0.00    -0.350 OA
BRANCH  38  39
ATOM     39  C   UNL     1      34.537  29.862  -1.912  1.00  0.00     0.168 C 
BRANCH  39  40
ATOM     40  C   UNL     1      34.839  29.744  -0.398  1.00  0.00     0.064 C 
BRANCH  40  41
ATOM     41  C   UNL     1      34.137  30.819   0.370  1.00  0.00    -0.042 A 
ATOM     42  C   UNL     1      34.856  31.696   1.204  1.00  0.00     0.054 A 
ATOM     43  C   UNL     1      32.760  30.976   0.232  1.00  0.00     0.008 A 
ATOM     44  C   UNL     1      34.194  32.676   1.942  1.00  0.00     0.157 A 
ATOM     45  C   UNL     1      32.091  31.974   0.929  1.00  0.00     0.050 A 
ATOM     46  C   UNL     1      32.800  32.811   1.804  1.00  0.00     0.157 A 
BRANCH  44  47
ATOM     47  O   UNL     1      34.941  33.498   2.803  1.00  0.00    -0.504 OA
ATOM     48  H   UNL     1      34.491  33.965   3.581  1.00  0.00     0.293 HD
ENDBRANCH  44  47
BRANCH  46  49
ATOM     49  O   UNL     1      32.115  33.790   2.520  1.00  0.00    -0.504 OA
ATOM     50  H   UNL     1      32.527  34.691   2.732  1.00  0.00     0.293 HD
ENDBRANCH  46  49
ENDBRANCH  40  41
ENDBRANCH  39  40
ENDBRANCH  38  39
ENDBRANCH   3  38
BRANCH   5  51
ATOM     51  C   UNL     1      36.336  34.866  -1.550  1.00  0.00     0.192 C 
BRANCH  51  52
ATOM     52  O   UNL     1      37.259  35.847  -1.916  1.00  0.00    -0.394 OA
ATOM     53  H   UNL     1      36.757  36.620  -2.247  1.00  0.00     0.210 HD
ENDBRANCH  51  52
ENDBRANCH   5  51
TORSDOF 20
ENDMDL
MODEL 2
REMARK VINA RESULT:    -8.511      1.908      8.467
REMARK INTER + INTRA:         -18.319
REMARK INTER:                 -16.156
REMARK INTRA:                  -2.163
REMARK UNBOUND:                -2.095
REMARK SMILES C[C@@H]1O[C@@H](O[C@H]2[C@@H](O)[C@@H](OCCc3ccc(O)c(O)c3)O[C@@H](CO)[C@@H]2OC(=O)C=Cc2ccc(O)c(O)c2)[C@H](O)[C@H](O)[C@@H]1O
REMARK SMILES IDX 6 1 7 2 9 3 21 4 22 5 25 6 5 7 4 8 1 9 2 10 43 11 3 12 41 13
REMARK SMILES IDX 39 14 44 15 42 17 40 19 8 21 26 23 27 24 28 25 29 26 30 27
REMARK SMILES IDX 31 28 38 29 32 30 36 31 33 32 34 33 37 34 35 36 10 38 11 39
REMARK SMILES IDX 12 40 13 41 20 42 14 43 18 44 15 45 16 46 19 47 17 49 23 51
REMARK SMILES IDX 24 52
REMARK H PARENT 44 16 42 18 40 20 8 22 37 35 35 37 19 48 17 50 24 53
REMARK Flexibility Score: inf
ROOT
ATOM      1  C   UNL     1      35.865  32.731  -3.341  1.00  0.00     0.199 C 
ATOM      2  C   UNL     1      34.849  33.123  -4.431  1.00  0.00     0.203 C 
ATOM      3  C   UNL     1      35.034  34.643  -4.764  1.00  0.00     0.282 C 
ATOM      4  O   UNL     1      36.385  35.076  -4.515  1.00  0.00    -0.340 OA
ATOM      5  C   UNL     1      37.335  34.114  -4.910  1.00  0.00     0.190 C 
ATOM      6  C   UNL     1      37.255  32.838  -4.004  1.00  0.00     0.240 C 
ENDROOT
BRANCH   1   7
ATOM      7  O   UNL     1      35.885  33.625  -2.228  1.00  0.00    -0.340 OA
BRANCH   7   8
ATOM      8  C   UNL     1      35.635  33.028  -0.965  1.00  0.00     0.282 C 
ATOM      9  C   UNL     1      34.230  29.602  -0.833  1.00  0.00     0.041 C 
ATOM     10  C   UNL     1      34.251  31.110  -0.618  1.00  0.00     0.150 C 
ATOM     11  C   UNL     1      34.195  31.470   0.880  1.00  0.00     0.174 C 
ATOM     12  O   UNL     1      35.407  31.645  -1.221  1.00  0.00    -0.344 OA
ATOM     13  C   UNL     1      34.146  33.015   1.075  1.00  0.00     0.179 C 
ATOM     14  C   UNL     1      34.474  33.756  -0.234  1.00  0.00     0.202 C 
BRANCH  11  15
ATOM     15  O   UNL     1      35.315  30.919   1.509  1.00  0.00    -0.388 OA
ATOM     16  H   UNL     1      35.054  30.655   2.438  1.00  0.00     0.211 HD
ENDBRANCH  11  15
BRANCH  13  17
ATOM     17  O   UNL     1      35.041  33.393   2.082  1.00  0.00    -0.387 OA
ATOM     18  H   UNL     1      35.227  32.582   2.608  1.00  0.00     0.211 HD
ENDBRANCH  13  17
BRANCH  14  19
ATOM     19  O   UNL     1      34.831  35.085   0.028  1.00  0.00    -0.385 OA
ATOM     20  H   UNL     1      34.020  35.624  -0.184  1.00  0.00     0.211 HD
ENDBRANCH  14  19
ENDBRANCH   7   8
ENDBRANCH   1   7
BRANCH   2  21
ATOM     21  O   UNL     1      33.537  32.697  -4.099  1.00  0.00    -0.385 OA
ATOM     22  H   UNL     1      33.114  33.338  -3.462  1.00  0.00     0.211 HD
ENDBRANCH   2  21
BRANCH   6  23
ATOM     23  O   UNL     1      37.503  31.680  -4.801  1.00  0.00    -0.453 OA
BRANCH  23  24
ATOM     24  C   UNL     1      38.759  31.084  -4.904  1.00  0.00     0.331 C 
ATOM     25  O   UNL     1      38.994  30.245  -5.816  1.00  0.00    -0.247 OA
BRANCH  24  26
ATOM     26  C   UNL     1      39.822  31.469  -3.956  1.00  0.00     0.094 C 
ATOM     27  C   UNL     1      41.111  31.165  -4.177  1.00  0.00     0.016 C 
BRANCH  27  28
ATOM     28  C   UNL     1      42.246  31.531  -3.274  1.00  0.00    -0.021 A 
ATOM     29  C   UNL     1      43.400  32.191  -3.715  1.00  0.00     0.058 A 
ATOM     30  C   UNL     1      42.143  31.206  -1.908  1.00  0.00     0.012 A 
ATOM     31  C   UNL     1      44.451  32.474  -2.843  1.00  0.00     0.157 A 
ATOM     32  C   UNL     1      43.199  31.473  -1.032  1.00  0.00     0.051 A 
ATOM     33  C   UNL     1      44.352  32.117  -1.494  1.00  0.00     0.157 A 
BRANCH  31  34
ATOM     34  O   UNL     1      45.592  33.129  -3.302  1.00  0.00    -0.504 OA
ATOM     35  H   UNL     1      46.132  33.741  -2.702  1.00  0.00     0.293 HD
ENDBRANCH  31  34
BRANCH  33  36
ATOM     36  O   UNL     1      45.372  32.415  -0.596  1.00  0.00    -0.504 OA
ATOM     37  H   UNL     1      46.182  31.812  -0.494  1.00  0.00     0.293 HD
ENDBRANCH  33  36
ENDBRANCH  27  28
ENDBRANCH  24  26
ENDBRANCH  23  24
ENDBRANCH   6  23
BRANCH   3  38
ATOM     38  O   UNL     1      34.119  35.418  -3.999  1.00  0.00    -0.350 OA
BRANCH  38  39
ATOM     39  C   UNL     1      34.728  36.502  -3.327  1.00  0.00     0.168 C 
BRANCH  39  40
ATOM     40  C   UNL     1      34.204  37.890  -3.770  1.00  0.00     0.064 C 
BRANCH  40  41
ATOM     41  C   UNL     1      33.285  38.466  -2.740  1.00  0.00    -0.042 A 
ATOM     42  C   UNL     1      32.097  39.119  -3.118  1.00  0.00     0.054 A 
ATOM     43  C   UNL     1      33.591  38.325  -1.389  1.00  0.00     0.008 A 
ATOM     44  C   UNL     1      31.259  39.681  -2.156  1.00  0.00     0.157 A 
ATOM     45  C   UNL     1      32.747  38.843  -0.416  1.00  0.00     0.050 A 
ATOM     46  C   UNL     1      31.591  39.544  -0.795  1.00  0.00     0.157 A 
BRANCH  44  47
ATOM     47  O   UNL     1      30.108  40.370  -2.577  1.00  0.00    -0.504 OA
ATOM     48  H   UNL     1      30.190  41.182  -3.175  1.00  0.00     0.293 HD
ENDBRANCH  44  47
BRANCH  46  49
ATOM     49  O   UNL     1      30.765  40.085   0.187  1.00  0.00    -0.504 OA
ATOM     50  H   UNL     1      31.121  40.689   0.918  1.00  0.00     0.293 HD
ENDBRANCH  46  49
ENDBRANCH  40  41
ENDBRANCH  39  40
ENDBRANCH  38  39
ENDBRANCH   3  38
BRANCH   5  51
ATOM     51  C   UNL     1      38.733  34.759  -4.841  1.00  0.00     0.192 C 
BRANCH  51  52
ATOM     52  O   UNL     1      39.035  35.106  -3.522  1.00  0.00    -0.394 OA
ATOM     53  H   UNL     1      38.500  35.893  -3.292  1.00  0.00     0.210 HD
ENDBRANCH  51  52
ENDBRANCH   5  51
TORSDOF 20
ENDMDL
MODEL 3
REMARK VINA RESULT:    -8.356      2.123      6.706
REMARK INTER + INTRA:         -18.023
REMARK INTER:                 -15.186
REMARK INTRA:                  -2.837
REMARK UNBOUND:                -2.095
REMARK SMILES C[C@@H]1O[C@@H](O[C@H]2[C@@H](O)[C@@H](OCCc3ccc(O)c(O)c3)O[C@@H](CO)[C@@H]2OC(=O)C=Cc2ccc(O)c(O)c2)[C@H](O)[C@H](O)[C@@H]1O
REMARK SMILES IDX 6 1 7 2 9 3 21 4 22 5 25 6 5 7 4 8 1 9 2 10 43 11 3 12 41 13
REMARK SMILES IDX 39 14 44 15 42 17 40 19 8 21 26 23 27 24 28 25 29 26 30 27
REMARK SMILES IDX 31 28 38 29 32 30 36 31 33 32 34 33 37 34 35 36 10 38 11 39
REMARK SMILES IDX 12 40 13 41 20 42 14 43 18 44 15 45 16 46 19 47 17 49 23 51
REMARK SMILES IDX 24 52
REMARK H PARENT 44 16 42 18 40 20 8 22 37 35 35 37 19 48 17 50 24 53
REMARK Flexibility Score: inf
ROOT
ATOM      1  C   UNL     1      36.641  33.500  -2.620  1.00  0.00     0.199 C 
ATOM      2  C   UNL     1      36.184  34.848  -2.029  1.00  0.00     0.203 C 
ATOM      3  C   UNL     1      34.936  35.350  -2.833  1.00  0.00     0.282 C 
ATOM      4  O   UNL     1      34.194  34.251  -3.394  1.00  0.00    -0.340 OA
ATOM      5  C   UNL     1      34.110  33.158  -2.510  1.00  0.00     0.190 C 
ATOM      6  C   UNL     1      35.514  32.496  -2.297  1.00  0.00     0.240 C 
ENDROOT
BRANCH   1   7
ATOM      7  O   UNL     1      36.766  33.513  -4.043  1.00  0.00    -0.340 OA
BRANCH   7   8
ATOM      8  C   UNL     1      36.613  32.252  -4.677  1.00  0.00     0.282 C 
ATOM      9  C   UNL     1      39.635  30.350  -5.668  1.00  0.00     0.041 C 
ATOM     10  C   UNL     1      38.338  31.120  -5.885  1.00  0.00     0.150 C 
ATOM     11  C   UNL     1      37.253  30.232  -6.525  1.00  0.00     0.174 C 
ATOM     12  O   UNL     1      37.899  31.639  -4.650  1.00  0.00    -0.344 OA
ATOM     13  C   UNL     1      35.959  31.056  -6.803  1.00  0.00     0.179 C 
ATOM     14  C   UNL     1      36.002  32.422  -6.095  1.00  0.00     0.202 C 
BRANCH  11  15
ATOM     15  O   UNL     1      36.992  29.162  -5.665  1.00  0.00    -0.388 OA
ATOM     16  H   UNL     1      37.863  28.734  -5.426  1.00  0.00     0.211 HD
ENDBRANCH  11  15
BRANCH  13  17
ATOM     17  O   UNL     1      34.838  30.329  -6.387  1.00  0.00    -0.387 OA
ATOM     18  H   UNL     1      34.613  29.717  -7.124  1.00  0.00     0.211 HD
ENDBRANCH  13  17
BRANCH  14  19
ATOM     19  O   UNL     1      34.715  32.968  -6.000  1.00  0.00    -0.385 OA
ATOM     20  H   UNL     1      34.323  32.882  -6.912  1.00  0.00     0.211 HD
ENDBRANCH  14  19
ENDBRANCH   7   8
ENDBRANCH   1   7
BRANCH   2  21
ATOM     21  O   UNL     1      37.268  35.755  -1.899  1.00  0.00    -0.385 OA
ATOM     22  H   UNL     1      37.087  36.590  -2.415  1.00  0.00     0.211 HD
ENDBRANCH   2  21
BRANCH   6  23
ATOM     23  O   UNL     1      35.627  32.060  -0.942  1.00  0.00    -0.453 OA
BRANCH  23  24
ATOM     24  C   UNL     1      34.870  31.015  -0.415  1.00  0.00     0.331 C 
ATOM     25  O   UNL     1      34.910  29.869  -0.942  1.00  0.00    -0.247 OA
BRANCH  24  26
ATOM     26  C   UNL     1      34.047  31.252   0.787  1.00  0.00     0.094 C 
ATOM     27  C   UNL     1      33.744  32.492   1.202  1.00  0.00     0.016 C 
BRANCH  27  28
ATOM     28  C   UNL     1      32.906  32.816   2.397  1.00  0.00    -0.021 A 
ATOM     29  C   UNL     1      33.356  33.601   3.466  1.00  0.00     0.058 A 
ATOM     30  C   UNL     1      31.590  32.315   2.445  1.00  0.00     0.012 A 
ATOM     31  C   UNL     1      32.552  33.840   4.580  1.00  0.00     0.157 A 
ATOM     32  C   UNL     1      30.785  32.538   3.566  1.00  0.00     0.051 A 
ATOM     33  C   UNL     1      31.258  33.310   4.632  1.00  0.00     0.157 A 
BRANCH  31  34
ATOM     34  O   UNL     1      33.021  34.622   5.635  1.00  0.00    -0.504 OA
ATOM     35  H   UNL     1      32.780  35.602   5.717  1.00  0.00     0.293 HD
ENDBRANCH  31  34
BRANCH  33  36
ATOM     36  O   UNL     1      30.423  33.559   5.716  1.00  0.00    -0.504 OA
ATOM     37  H   UNL     1      30.463  32.991   6.557  1.00  0.00     0.293 HD
ENDBRANCH  33  36
ENDBRANCH  27  28
ENDBRANCH  24  26
ENDBRANCH  23  24
ENDBRANCH   6  23
BRANCH   3  38
ATOM     38  O   UNL     1      35.353  36.240  -3.861  1.00  0.00    -0.350 OA
BRANCH  38  39
ATOM     39  C   UNL     1      34.288  36.972  -4.434  1.00  0.00     0.168 C 
BRANCH  39  40
ATOM     40  C   UNL     1      34.332  38.489  -4.125  1.00  0.00     0.064 C 
BRANCH  40  41
ATOM     41  C   UNL     1      33.378  38.838  -3.028  1.00  0.00    -0.042 A 
ATOM     42  C   UNL     1      32.121  39.401  -3.317  1.00  0.00     0.054 A 
ATOM     43  C   UNL     1      33.722  38.570  -1.705  1.00  0.00     0.008 A 
ATOM     44  C   UNL     1      31.247  39.753  -2.289  1.00  0.00     0.157 A 
ATOM     45  C   UNL     1      32.846  38.876  -0.672  1.00  0.00     0.050 A 
ATOM     46  C   UNL     1      31.617  39.490  -0.957  1.00  0.00     0.157 A 
BRANCH  44  47
ATOM     47  O   UNL     1      30.023  40.362  -2.617  1.00  0.00    -0.504 OA
ATOM     48  H   UNL     1      29.151  39.872  -2.462  1.00  0.00     0.293 HD
ENDBRANCH  44  47
BRANCH  46  49
ATOM     49  O   UNL     1      30.757  39.820   0.088  1.00  0.00    -0.504 OA
ATOM     50  H   UNL     1      30.168  39.132   0.540  1.00  0.00     0.293 HD
ENDBRANCH  46  49
ENDBRANCH  40  41
ENDBRANCH  39  40
ENDBRANCH  38  39
ENDBRANCH   3  38
BRANCH   5  51
ATOM     51  C   UNL     1      33.100  32.146  -3.086  1.00  0.00     0.192 C 
BRANCH  51  52
ATOM     52  O   UNL     1      33.778  31.066  -3.656  1.00  0.00    -0.394 OA
ATOM     53  H   UNL     1      34.468  30.781  -3.023  1.00  0.00     0.210 HD
ENDBRANCH  51  52
ENDBRANCH   5  51
TORSDOF 20
ENDMDL
MODEL 4
REMARK VINA RESULT:    -8.351      2.175      9.016
REMARK INTER + INTRA:         -18.013
REMARK INTER:                 -15.652
REMARK INTRA:                  -2.361
REMARK UNBOUND:                -2.095
REMARK SMILES C[C@@H]1O[C@@H](O[C@H]2[C@@H](O)[C@@H](OCCc3ccc(O)c(O)c3)O[C@@H](CO)[C@@H]2OC(=O)C=Cc2ccc(O)c(O)c2)[C@H](O)[C@H](O)[C@@H]1O
REMARK SMILES IDX 6 1 7 2 9 3 21 4 22 5 25 6 5 7 4 8 1 9 2 10 43 11 3 12 41 13
REMARK SMILES IDX 39 14 44 15 42 17 40 19 8 21 26 23 27 24 28 25 29 26 30 27
REMARK SMILES IDX 31 28 38 29 32 30 36 31 33 32 34 33 37 34 35 36 10 38 11 39
REMARK SMILES IDX 12 40 13 41 20 42 14 43 18 44 15 45 16 46 19 47 17 49 23 51
REMARK SMILES IDX 24 52
REMARK H PARENT 44 16 42 18 40 20 8 22 37 35 35 37 19 48 17 50 24 53
REMARK Flexibility Score: inf
ROOT
ATOM      1  C   UNL     1      33.784  33.163  -0.896  1.00  0.00     0.199 C 
ATOM      2  C   UNL     1      32.810  33.962  -1.783  1.00  0.00     0.203 C 
ATOM      3  C   UNL     1      33.327  35.437  -1.891  1.00  0.00     0.282 C 
ATOM      4  O   UNL     1      34.757  35.507  -1.736  1.00  0.00    -0.340 OA
ATOM      5  C   UNL     1      35.416  34.447  -2.387  1.00  0.00     0.190 C 
ATOM      6  C   UNL     1      35.104  33.078  -1.692  1.00  0.00     0.240 C 
ENDROOT
BRANCH   1   7
ATOM      7  O   UNL     1      34.103  33.814   0.334  1.00  0.00    -0.340 OA
BRANCH   7   8
ATOM      8  C   UNL     1      33.848  33.055   1.507  1.00  0.00     0.282 C 
ATOM      9  C   UNL     1      35.333  29.675   1.828  1.00  0.00     0.041 C 
ATOM     10  C   UNL     1      34.213  30.701   1.707  1.00  0.00     0.150 C 
ATOM     11  C   UNL     1      33.315  30.708   2.960  1.00  0.00     0.174 C 
ATOM     12  O   UNL     1      34.776  31.974   1.485  1.00  0.00    -0.344 OA
ATOM     13  C   UNL     1      32.135  31.712   2.787  1.00  0.00     0.179 C 
ATOM     14  C   UNL     1      32.355  32.631   1.573  1.00  0.00     0.202 C 
BRANCH  11  15
ATOM     15  O   UNL     1      34.101  31.042   4.066  1.00  0.00    -0.388 OA
ATOM     16  H   UNL     1      33.985  32.018   4.250  1.00  0.00     0.211 HD
ENDBRANCH  11  15
BRANCH  13  17
ATOM     17  O   UNL     1      31.990  32.474   3.952  1.00  0.00    -0.387 OA
ATOM     18  H   UNL     1      32.825  32.367   4.461  1.00  0.00     0.211 HD
ENDBRANCH  13  17
BRANCH  14  19
ATOM     19  O   UNL     1      31.539  33.767   1.660  1.00  0.00    -0.385 OA
ATOM     20  H   UNL     1      31.585  34.196   0.761  1.00  0.00     0.211 HD
ENDBRANCH  14  19
ENDBRANCH   7   8
ENDBRANCH   1   7
BRANCH   2  21
ATOM     21  O   UNL     1      31.464  33.785  -1.371  1.00  0.00    -0.385 OA
ATOM     22  H   UNL     1      31.292  32.827  -1.149  1.00  0.00     0.211 HD
ENDBRANCH   2  21
BRANCH   6  23
ATOM     23  O   UNL     1      35.006  32.057  -2.686  1.00  0.00    -0.453 OA
BRANCH  23  24
ATOM     24  C   UNL     1      35.648  30.825  -2.575  1.00  0.00     0.331 C 
ATOM     25  O   UNL     1      35.245  29.968  -1.741  1.00  0.00    -0.247 OA
BRANCH  24  26
ATOM     26  C   UNL     1      36.783  30.518  -3.467  1.00  0.00     0.094 C 
ATOM     27  C   UNL     1      37.868  31.307  -3.527  1.00  0.00     0.016 C 
BRANCH  27  28
ATOM     28  C   UNL     1      39.063  31.058  -4.391  1.00  0.00    -0.021 A 
ATOM     29  C   UNL     1      39.013  30.329  -5.586  1.00  0.00     0.058 A 
ATOM     30  C   UNL     1      40.300  31.596  -3.988  1.00  0.00     0.012 A 
ATOM     31  C   UNL     1      40.163  30.087  -6.337  1.00  0.00     0.157 A 
ATOM     32  C   UNL     1      41.459  31.343  -4.728  1.00  0.00     0.051 A 
ATOM     33  C   UNL     1      41.393  30.598  -5.910  1.00  0.00     0.157 A 
BRANCH  31  34
ATOM     34  O   UNL     1      40.091  29.356  -7.522  1.00  0.00    -0.504 OA
ATOM     35  H   UNL     1      40.789  28.662  -7.760  1.00  0.00     0.293 HD
ENDBRANCH  31  34
BRANCH  33  36
ATOM     36  O   UNL     1      42.550  30.399  -6.656  1.00  0.00    -0.504 OA
ATOM     37  H   UNL     1      43.418  30.872  -6.424  1.00  0.00     0.293 HD
ENDBRANCH  33  36
ENDBRANCH  27  28
ENDBRANCH  24  26
ENDBRANCH  23  24
ENDBRANCH   6  23
BRANCH   3  38
ATOM     38  O   UNL     1      32.686  36.245  -0.911  1.00  0.00    -0.350 OA
BRANCH  38  39
ATOM     39  C   UNL     1      33.462  37.353  -0.502  1.00  0.00     0.168 C 
BRANCH  39  40
ATOM     40  C   UNL     1      32.817  38.724  -0.821  1.00  0.00     0.064 C 
BRANCH  40  41
ATOM     41  C   UNL     1      32.893  39.020  -2.286  1.00  0.00    -0.042 A 
ATOM     42  C   UNL     1      34.100  38.858  -2.992  1.00  0.00     0.054 A 
ATOM     43  C   UNL     1      31.749  39.427  -2.966  1.00  0.00     0.008 A 
ATOM     44  C   UNL     1      34.174  39.165  -4.350  1.00  0.00     0.157 A 
ATOM     45  C   UNL     1      31.796  39.698  -4.328  1.00  0.00     0.050 A 
ATOM     46  C   UNL     1      33.012  39.591  -5.019  1.00  0.00     0.157 A 
BRANCH  44  47
ATOM     47  O   UNL     1      35.410  39.040  -5.007  1.00  0.00    -0.504 OA
ATOM     48  H   UNL     1      36.274  39.060  -4.479  1.00  0.00     0.293 HD
ENDBRANCH  44  47
BRANCH  46  49
ATOM     49  O   UNL     1      33.056  39.892  -6.379  1.00  0.00    -0.504 OA
ATOM     50  H   UNL     1      32.224  39.903  -6.956  1.00  0.00     0.293 HD
ENDBRANCH  46  49
ENDBRANCH  40  41
ENDBRANCH  39  40
ENDBRANCH  38  39
ENDBRANCH   3  38
BRANCH   5  51
ATOM     51  C   UNL     1      36.929  34.741  -2.382  1.00  0.00     0.192 C 
BRANCH  51  52
ATOM     52  O   UNL     1      37.169  35.997  -1.820  1.00  0.00    -0.394 OA
ATOM     53  H   UNL     1      38.111  36.216  -1.973  1.00  0.00     0.210 HD
ENDBRANCH  51  52
ENDBRANCH   5  51
TORSDOF 20
ENDMDL
MODEL 5
REMARK VINA RESULT:    -8.313      1.784      6.684
REMARK INTER + INTRA:         -17.940
REMARK INTER:                 -15.366
REMARK INTRA:                  -2.573
REMARK UNBOUND:                -2.095
REMARK SMILES C[C@@H]1O[C@@H](O[C@H]2[C@@H](O)[C@@H](OCCc3ccc(O)c(O)c3)O[C@@H](CO)[C@@H]2OC(=O)C=Cc2ccc(O)c(O)c2)[C@H](O)[C@H](O)[C@@H]1O
REMARK SMILES IDX 6 1 7 2 9 3 21 4 22 5 25 6 5 7 4 8 1 9 2 10 43 11 3 12 41 13
REMARK SMILES IDX 39 14 44 15 42 17 40 19 8 21 26 23 27 24 28 25 29 26 30 27
REMARK SMILES IDX 31 28 38 29 32 30 36 31 33 32 34 33 37 34 35 36 10 38 11 39
REMARK SMILES IDX 12 40 13 41 20 42 14 43 18 44 15 45 16 46 19 47 17 49 23 51
REMARK SMILES IDX 24 52
REMARK H PARENT 44 16 42 18 40 20 8 22 37 35 35 37 19 48 17 50 24 53
REMARK Flexibility Score: inf
ROOT
ATOM      1  C   UNL     1      36.388  33.721  -3.430  1.00  0.00     0.199 C 
ATOM      2  C   UNL     1      37.718  34.313  -3.935  1.00  0.00     0.203 C 
ATOM      3  C   UNL     1      38.607  33.147  -4.487  1.00  0.00     0.282 C 
ATOM      4  O   UNL     1      37.803  32.054  -4.969  1.00  0.00    -0.340 OA
ATOM      5  C   UNL     1      36.659  32.498  -5.659  1.00  0.00     0.190 C 
ATOM      6  C   UNL     1      35.654  33.206  -4.687  1.00  0.00     0.240 C 
ENDROOT
BRANCH   1   7
ATOM      7  O   UNL     1      36.553  32.589  -2.575  1.00  0.00    -0.340 OA
BRANCH   7   8
ATOM      8  C   UNL     1      35.365  32.112  -1.962  1.00  0.00     0.282 C 
ATOM      9  C   UNL     1      34.573  33.160   1.502  1.00  0.00     0.041 C 
ATOM     10  C   UNL     1      34.923  32.184   0.386  1.00  0.00     0.150 C 
ATOM     11  C   UNL     1      33.803  31.148   0.168  1.00  0.00     0.174 C 
ATOM     12  O   UNL     1      35.176  32.909  -0.797  1.00  0.00    -0.344 OA
ATOM     13  C   UNL     1      34.212  30.118  -0.928  1.00  0.00     0.179 C 
ATOM     14  C   UNL     1      35.460  30.584  -1.699  1.00  0.00     0.202 C 
BRANCH  11  15
ATOM     15  O   UNL     1      32.636  31.827  -0.191  1.00  0.00    -0.388 OA
ATOM     16  H   UNL     1      31.918  31.581   0.462  1.00  0.00     0.211 HD
ENDBRANCH  11  15
BRANCH  13  17
ATOM     17  O   UNL     1      33.144  29.918  -1.810  1.00  0.00    -0.387 OA
ATOM     18  H   UNL     1      32.383  29.618  -1.262  1.00  0.00     0.211 HD
ENDBRANCH  13  17
BRANCH  14  19
ATOM     19  O   UNL     1      35.575  29.895  -2.913  1.00  0.00    -0.385 OA
ATOM     20  H   UNL     1      34.639  29.691  -3.191  1.00  0.00     0.211 HD
ENDBRANCH  14  19
ENDBRANCH   7   8
ENDBRANCH   1   7
BRANCH   2  21
ATOM     21  O   UNL     1      38.310  35.165  -2.967  1.00  0.00    -0.385 OA
ATOM     22  H   UNL     1      38.822  34.630  -2.298  1.00  0.00     0.211 HD
ENDBRANCH   2  21
BRANCH   6  23
ATOM     23  O   UNL     1      35.032  34.296  -5.367  1.00  0.00    -0.453 OA
BRANCH  23  24
ATOM     24  C   UNL     1      33.657  34.526  -5.334  1.00  0.00     0.331 C 
ATOM     25  O   UNL     1      32.890  33.922  -6.133  1.00  0.00    -0.247 OA
BRANCH  24  26
ATOM     26  C   UNL     1      33.104  35.460  -4.335  1.00  0.00     0.094 C 
ATOM     27  C   UNL     1      33.864  36.396  -3.745  1.00  0.00     0.016 C 
BRANCH  27  28
ATOM     28  C   UNL     1      33.377  37.387  -2.736  1.00  0.00    -0.021 A 
ATOM     29  C   UNL     1      32.635  38.527  -3.069  1.00  0.00     0.058 A 
ATOM     30  C   UNL     1      33.671  37.154  -1.378  1.00  0.00     0.012 A 
ATOM     31  C   UNL     1      32.238  39.444  -2.096  1.00  0.00     0.157 A 
ATOM     32  C   UNL     1      33.290  38.078  -0.401  1.00  0.00     0.051 A 
ATOM     33  C   UNL     1      32.564  39.220  -0.754  1.00  0.00     0.157 A 
BRANCH  31  34
ATOM     34  O   UNL     1      31.502  40.574  -2.450  1.00  0.00    -0.504 OA
ATOM     35  H   UNL     1      31.720  41.111  -3.280  1.00  0.00     0.293 HD
ENDBRANCH  31  34
BRANCH  33  36
ATOM     36  O   UNL     1      32.155  40.103   0.240  1.00  0.00    -0.504 OA
ATOM     37  H   UNL     1      31.566  39.798   1.009  1.00  0.00     0.293 HD
ENDBRANCH  33  36
ENDBRANCH  27  28
ENDBRANCH  24  26
ENDBRANCH  23  24
ENDBRANCH   6  23
BRANCH   3  38
ATOM     38  O   UNL     1      39.495  32.697  -3.472  1.00  0.00    -0.350 OA
BRANCH  38  39
ATOM     39  C   UNL     1      39.851  31.335  -3.603  1.00  0.00     0.168 C 
BRANCH  39  40
ATOM     40  C   UNL     1      41.251  31.109  -4.224  1.00  0.00     0.064 C 
BRANCH  40  41
ATOM     41  C   UNL     1      42.329  31.476  -3.254  1.00  0.00    -0.042 A 
ATOM     42  C   UNL     1      43.426  32.262  -3.657  1.00  0.00     0.054 A 
ATOM     43  C   UNL     1      42.230  31.066  -1.927  1.00  0.00     0.008 A 
ATOM     44  C   UNL     1      44.443  32.576  -2.758  1.00  0.00     0.157 A 
ATOM     45  C   UNL     1      43.215  31.404  -1.008  1.00  0.00     0.050 A 
ATOM     46  C   UNL     1      44.336  32.139  -1.424  1.00  0.00     0.157 A 
BRANCH  44  47
ATOM     47  O   UNL     1      45.547  33.318  -3.213  1.00  0.00    -0.504 OA
ATOM     48  H   UNL     1      46.367  33.424  -2.629  1.00  0.00     0.293 HD
ENDBRANCH  44  47
BRANCH  46  49
ATOM     49  O   UNL     1      45.333  32.449  -0.502  1.00  0.00    -0.504 OA
ATOM     50  H   UNL     1      46.307  32.225  -0.664  1.00  0.00     0.293 HD
ENDBRANCH  46  49
ENDBRANCH  40  41
ENDBRANCH  39  40
ENDBRANCH  38  39
ENDBRANCH   3  38
BRANCH   5  51
ATOM     51  C   UNL     1      36.006  31.282  -6.345  1.00  0.00     0.192 C 
BRANCH  51  52
ATOM     52  O   UNL     1      36.417  30.103  -5.720  1.00  0.00    -0.394 OA
ATOM     53  H   UNL     1      37.076  30.343  -5.036  1.00  0.00     0.210 HD
ENDBRANCH  51  52
ENDBRANCH   5  51
TORSDOF 20
ENDMDL
MODEL 6
REMARK VINA RESULT:    -8.306      3.301      6.314
REMARK INTER + INTRA:         -17.927
REMARK INTER:                 -14.933
REMARK INTRA:                  -2.994
REMARK UNBOUND:                -2.095
REMARK SMILES C[C@@H]1O[C@@H](O[C@H]2[C@@H](O)[C@@H](OCCc3ccc(O)c(O)c3)O[C@@H](CO)[C@@H]2OC(=O)C=Cc2ccc(O)c(O)c2)[C@H](O)[C@H](O)[C@@H]1O
REMARK SMILES IDX 6 1 7 2 9 3 21 4 22 5 25 6 5 7 4 8 1 9 2 10 43 11 3 12 41 13
REMARK SMILES IDX 39 14 44 15 42 17 40 19 8 21 26 23 27 24 28 25 29 26 30 27
REMARK SMILES IDX 31 28 38 29 32 30 36 31 33 32 34 33 37 34 35 36 10 38 11 39
REMARK SMILES IDX 12 40 13 41 20 42 14 43 18 44 15 45 16 46 19 47 17 49 23 51
REMARK SMILES IDX 24 52
REMARK H PARENT 44 16 42 18 40 20 8 22 37 35 35 37 19 48 17 50 24 53
REMARK Flexibility Score: inf
ROOT
ATOM      1  C   UNL     1      34.135  33.721   0.184  1.00  0.00     0.199 C 
ATOM      2  C   UNL     1      34.927  33.027   1.308  1.00  0.00     0.203 C 
ATOM      3  C   UNL     1      34.725  31.479   1.180  1.00  0.00     0.282 C 
ATOM      4  O   UNL     1      34.460  31.093  -0.182  1.00  0.00    -0.340 OA
ATOM      5  C   UNL     1      35.246  31.812  -1.102  1.00  0.00     0.190 C 
ATOM      6  C   UNL     1      34.838  33.324  -1.132  1.00  0.00     0.240 C 
ENDROOT
BRANCH   1   7
ATOM      7  O   UNL     1      32.787  33.265   0.068  1.00  0.00    -0.340 OA
BRANCH   7   8
ATOM      8  C   UNL     1      32.213  33.387  -1.225  1.00  0.00     0.282 C 
ATOM      9  C   UNL     1      30.130  36.351  -2.003  1.00  0.00     0.041 C 
ATOM     10  C   UNL     1      30.425  34.873  -1.783  1.00  0.00     0.150 C 
ATOM     11  C   UNL     1      30.197  34.053  -3.068  1.00  0.00     0.174 C 
ATOM     12  O   UNL     1      31.751  34.731  -1.325  1.00  0.00    -0.344 OA
ATOM     13  C   UNL     1      30.435  32.536  -2.803  1.00  0.00     0.179 C 
ATOM     14  C   UNL     1      31.121  32.305  -1.445  1.00  0.00     0.202 C 
BRANCH  11  15
ATOM     15  O   UNL     1      31.059  34.532  -4.058  1.00  0.00    -0.388 OA
ATOM     16  H   UNL     1      30.585  34.481  -4.938  1.00  0.00     0.211 HD
ENDBRANCH  11  15
BRANCH  13  17
ATOM     17  O   UNL     1      31.208  31.992  -3.835  1.00  0.00    -0.387 OA
ATOM     18  H   UNL     1      31.878  31.413  -3.406  1.00  0.00     0.211 HD
ENDBRANCH  13  17
BRANCH  14  19
ATOM     19  O   UNL     1      31.696  31.028  -1.394  1.00  0.00    -0.385 OA
ATOM     20  H   UNL     1      32.281  30.969  -2.200  1.00  0.00     0.211 HD
ENDBRANCH  14  19
ENDBRANCH   7   8
ENDBRANCH   1   7
BRANCH   2  21
ATOM     21  O   UNL     1      34.651  33.605   2.574  1.00  0.00    -0.385 OA
ATOM     22  H   UNL     1      35.090  34.498   2.652  1.00  0.00     0.211 HD
ENDBRANCH   2  21
BRANCH   6  23
ATOM     23  O   UNL     1      36.006  34.123  -1.318  1.00  0.00    -0.453 OA
BRANCH  23  24
ATOM     24  C   UNL     1      36.122  35.076  -2.330  1.00  0.00     0.331 C 
ATOM     25  O   UNL     1      37.134  35.088  -3.082  1.00  0.00    -0.247 OA
BRANCH  24  26
ATOM     26  C   UNL     1      35.032  36.050  -2.533  1.00  0.00     0.094 C 
ATOM     27  C   UNL     1      34.661  36.907  -1.568  1.00  0.00     0.016 C 
BRANCH  27  28
ATOM     28  C   UNL     1      33.579  37.931  -1.700  1.00  0.00    -0.021 A 
ATOM     29  C   UNL     1      32.925  38.508  -0.604  1.00  0.00     0.058 A 
ATOM     30  C   UNL     1      33.208  38.346  -2.994  1.00  0.00     0.012 A 
ATOM     31  C   UNL     1      31.893  39.429  -0.779  1.00  0.00     0.157 A 
ATOM     32  C   UNL     1      32.163  39.257  -3.175  1.00  0.00     0.051 A 
ATOM     33  C   UNL     1      31.509  39.809  -2.070  1.00  0.00     0.157 A 
BRANCH  31  34
ATOM     34  O   UNL     1      31.252  39.990   0.325  1.00  0.00    -0.504 OA
ATOM     35  H   UNL     1      30.245  39.964   0.425  1.00  0.00     0.293 HD
ENDBRANCH  31  34
BRANCH  33  36
ATOM     36  O   UNL     1      30.504  40.749  -2.272  1.00  0.00    -0.504 OA
ATOM     37  H   UNL     1      29.682  40.782  -1.678  1.00  0.00     0.293 HD
ENDBRANCH  33  36
ENDBRANCH  27  28
ENDBRANCH  24  26
ENDBRANCH  23  24
ENDBRANCH   6  23
BRANCH   3  38
ATOM     38  O   UNL     1      33.662  31.060   2.027  1.00  0.00    -0.350 OA
BRANCH  38  39
ATOM     39  C   UNL     1      34.084  30.739   3.338  1.00  0.00     0.168 C 
BRANCH  39  40
ATOM     40  C   UNL     1      32.922  30.585   4.350  1.00  0.00     0.064 C 
BRANCH  40  41
ATOM     41  C   UNL     1      32.222  31.890   4.560  1.00  0.00    -0.042 A 
ATOM     42  C   UNL     1      31.141  32.268   3.742  1.00  0.00     0.054 A 
ATOM     43  C   UNL     1      32.622  32.726   5.600  1.00  0.00     0.008 A 
ATOM     44  C   UNL     1      30.512  33.499   3.922  1.00  0.00     0.157 A 
ATOM     45  C   UNL     1      31.979  33.937   5.818  1.00  0.00     0.050 A 
ATOM     46  C   UNL     1      30.939  34.340   4.967  1.00  0.00     0.157 A 
BRANCH  44  47
ATOM     47  O   UNL     1      29.470  33.863   3.050  1.00  0.00    -0.504 OA
ATOM     48  H   UNL     1      29.665  34.416   2.225  1.00  0.00     0.293 HD
ENDBRANCH  44  47
BRANCH  46  49
ATOM     49  O   UNL     1      30.319  35.569   5.176  1.00  0.00    -0.504 OA
ATOM     50  H   UNL     1      30.503  36.373   4.588  1.00  0.00     0.293 HD
ENDBRANCH  46  49
ENDBRANCH  40  41
ENDBRANCH  39  40
ENDBRANCH  38  39
ENDBRANCH   3  38
BRANCH   5  51
ATOM     51  C   UNL     1      35.081  31.163  -2.491  1.00  0.00     0.192 C 
BRANCH  51  52
ATOM     52  O   UNL     1      35.553  29.849  -2.463  1.00  0.00    -0.394 OA
ATOM     53  H   UNL     1      35.076  29.347  -3.156  1.00  0.00     0.210 HD
ENDBRANCH  51  52
ENDBRANCH   5  51
TORSDOF 20
ENDMDL
MODEL 7
REMARK VINA RESULT:    -8.288      2.271      6.648
REMARK INTER + INTRA:         -17.893
REMARK INTER:                 -15.583
REMARK INTRA:                  -2.310
REMARK UNBOUND:                -2.095
REMARK SMILES C[C@@H]1O[C@@H](O[C@H]2[C@@H](O)[C@@H](OCCc3ccc(O)c(O)c3)O[C@@H](CO)[C@@H]2OC(=O)C=Cc2ccc(O)c(O)c2)[C@H](O)[C@H](O)[C@@H]1O
REMARK SMILES IDX 6 1 7 2 9 3 21 4 22 5 25 6 5 7 4 8 1 9 2 10 43 11 3 12 41 13
REMARK SMILES IDX 39 14 44 15 42 17 40 19 8 21 26 23 27 24 28 25 29 26 30 27
REMARK SMILES IDX 31 28 38 29 32 30 36 31 33 32 34 33 37 34 35 36 10 38 11 39
REMARK SMILES IDX 12 40 13 41 20 42 14 43 18 44 15 45 16 46 19 47 17 49 23 51
REMARK SMILES IDX 24 52
REMARK H PARENT 44 16 42 18 40 20 8 22 37 35 35 37 19 48 17 50 24 53
REMARK Flexibility Score: inf
ROOT
ATOM      1  C   UNL     1      35.643  32.317  -1.962  1.00  0.00     0.199 C 
ATOM      2  C   UNL     1      35.615  33.850  -1.806  1.00  0.00     0.203 C 
ATOM      3  C   UNL     1      34.274  34.390  -2.411  1.00  0.00     0.282 C 
ATOM      4  O   UNL     1      33.229  33.402  -2.340  1.00  0.00    -0.340 OA
ATOM      5  C   UNL     1      33.254  32.685  -1.129  1.00  0.00     0.190 C 
ATOM      6  C   UNL     1      34.530  31.781  -1.036  1.00  0.00     0.240 C 
ENDROOT
BRANCH   1   7
ATOM      7  O   UNL     1      35.315  31.870  -3.278  1.00  0.00    -0.340 OA
BRANCH   7   8
ATOM      8  C   UNL     1      36.343  31.159  -3.951  1.00  0.00     0.282 C 
ATOM      9  C   UNL     1      39.754  32.603  -4.073  1.00  0.00     0.041 C 
ATOM     10  C   UNL     1      38.427  32.109  -4.637  1.00  0.00     0.150 C 
ATOM     11  C   UNL     1      38.625  30.902  -5.575  1.00  0.00     0.174 C 
ATOM     12  O   UNL     1      37.567  31.782  -3.569  1.00  0.00    -0.344 OA
ATOM     13  C   UNL     1      37.266  30.459  -6.195  1.00  0.00     0.179 C 
ATOM     14  C   UNL     1      36.078  31.128  -5.481  1.00  0.00     0.202 C 
BRANCH  11  15
ATOM     15  O   UNL     1      39.206  29.864  -4.843  1.00  0.00    -0.388 OA
ATOM     16  H   UNL     1      38.560  29.101  -4.813  1.00  0.00     0.211 HD
ENDBRANCH  11  15
BRANCH  13  17
ATOM     17  O   UNL     1      37.149  29.066  -6.128  1.00  0.00    -0.387 OA
ATOM     18  H   UNL     1      37.769  28.701  -6.799  1.00  0.00     0.211 HD
ENDBRANCH  13  17
BRANCH  14  19
ATOM     19  O   UNL     1      34.889  30.436  -5.747  1.00  0.00    -0.385 OA
ATOM     20  H   UNL     1      34.189  31.139  -5.843  1.00  0.00     0.211 HD
ENDBRANCH  14  19
ENDBRANCH   7   8
ENDBRANCH   1   7
BRANCH   2  21
ATOM     21  O   UNL     1      36.814  34.444  -2.277  1.00  0.00    -0.385 OA
ATOM     22  H   UNL     1      36.993  35.299  -1.793  1.00  0.00     0.211 HD
ENDBRANCH   2  21
BRANCH   6  23
ATOM     23  O   UNL     1      34.992  31.757   0.315  1.00  0.00    -0.453 OA
BRANCH  23  24
ATOM     24  C   UNL     1      34.515  30.856   1.265  1.00  0.00     0.331 C 
ATOM     25  O   UNL     1      34.745  29.621   1.146  1.00  0.00    -0.247 OA
BRANCH  24  26
ATOM     26  C   UNL     1      33.766  31.364   2.431  1.00  0.00     0.094 C 
ATOM     27  C   UNL     1      33.239  32.598   2.449  1.00  0.00     0.016 C 
BRANCH  27  28
ATOM     28  C   UNL     1      32.456  33.180   3.583  1.00  0.00    -0.021 A 
ATOM     29  C   UNL     1      33.012  33.473   4.835  1.00  0.00     0.058 A 
ATOM     30  C   UNL     1      31.091  33.460   3.376  1.00  0.00     0.012 A 
ATOM     31  C   UNL     1      32.231  33.977   5.875  1.00  0.00     0.157 A 
ATOM     32  C   UNL     1      30.300  33.949   4.420  1.00  0.00     0.051 A 
ATOM     33  C   UNL     1      30.869  34.219   5.669  1.00  0.00     0.157 A 
BRANCH  31  34
ATOM     34  O   UNL     1      32.804  34.259   7.114  1.00  0.00    -0.504 OA
ATOM     35  H   UNL     1      33.444  35.034   7.239  1.00  0.00     0.293 HD
ENDBRANCH  31  34
BRANCH  33  36
ATOM     36  O   UNL     1      30.074  34.749   6.679  1.00  0.00    -0.504 OA
ATOM     37  H   UNL     1      29.194  34.317   6.944  1.00  0.00     0.293 HD
ENDBRANCH  33  36
ENDBRANCH  27  28
ENDBRANCH  24  26
ENDBRANCH  23  24
ENDBRANCH   6  23
BRANCH   3  38
ATOM     38  O   UNL     1      34.482  34.793  -3.759  1.00  0.00    -0.350 OA
BRANCH  38  39
ATOM     39  C   UNL     1      33.769  35.961  -4.111  1.00  0.00     0.168 C 
BRANCH  39  40
ATOM     40  C   UNL     1      34.390  37.267  -3.554  1.00  0.00     0.064 C 
BRANCH  40  41
ATOM     41  C   UNL     1      33.433  37.962  -2.638  1.00  0.00    -0.042 A 
ATOM     42  C   UNL     1      32.258  38.555  -3.137  1.00  0.00     0.054 A 
ATOM     43  C   UNL     1      33.689  37.992  -1.270  1.00  0.00     0.008 A 
ATOM     44  C   UNL     1      31.385  39.229  -2.285  1.00  0.00     0.157 A 
ATOM     45  C   UNL     1      32.809  38.623  -0.400  1.00  0.00     0.050 A 
ATOM     46  C   UNL     1      31.668  39.264  -0.906  1.00  0.00     0.157 A 
BRANCH  44  47
ATOM     47  O   UNL     1      30.250  39.853  -2.830  1.00  0.00    -0.504 OA
ATOM     48  H   UNL     1      29.724  39.402  -3.567  1.00  0.00     0.293 HD
ENDBRANCH  44  47
BRANCH  46  49
ATOM     49  O   UNL     1      30.806  39.920  -0.030  1.00  0.00    -0.504 OA
ATOM     50  H   UNL     1      30.173  39.418   0.581  1.00  0.00     0.293 HD
ENDBRANCH  46  49
ENDBRANCH  40  41
ENDBRANCH  39  40
ENDBRANCH  38  39
ENDBRANCH   3  38
BRANCH   5  51
ATOM     51  C   UNL     1      31.967  31.842  -1.039  1.00  0.00     0.192 C 
BRANCH  51  52
ATOM     52  O   UNL     1      32.192  30.569  -1.569  1.00  0.00    -0.394 OA
ATOM     53  H   UNL     1      32.506  29.995  -0.841  1.00  0.00     0.210 HD
ENDBRANCH  51  52
ENDBRANCH   5  51
TORSDOF 20
ENDMDL
MODEL 8
REMARK VINA RESULT:    -8.147      2.457      7.995
REMARK INTER + INTRA:         -17.625
REMARK INTER:                 -14.172
REMARK INTRA:                  -3.452
REMARK UNBOUND:                -2.095
REMARK SMILES C[C@@H]1O[C@@H](O[C@H]2[C@@H](O)[C@@H](OCCc3ccc(O)c(O)c3)O[C@@H](CO)[C@@H]2OC(=O)C=Cc2ccc(O)c(O)c2)[C@H](O)[C@H](O)[C@@H]1O
REMARK SMILES IDX 6 1 7 2 9 3 21 4 22 5 25 6 5 7 4 8 1 9 2 10 43 11 3 12 41 13
REMARK SMILES IDX 39 14 44 15 42 17 40 19 8 21 26 23 27 24 28 25 29 26 30 27
REMARK SMILES IDX 31 28 38 29 32 30 36 31 33 32 34 33 37 34 35 36 10 38 11 39
REMARK SMILES IDX 12 40 13 41 20 42 14 43 18 44 15 45 16 46 19 47 17 49 23 51
REMARK SMILES IDX 24 52
REMARK H PARENT 44 16 42 18 40 20 8 22 37 35 35 37 19 48 17 50 24 53
REMARK Flexibility Score: inf
ROOT
ATOM      1  C   UNL     1      34.799  33.579  -4.289  1.00  0.00     0.199 C 
ATOM      2  C   UNL     1      34.340  34.088  -5.669  1.00  0.00     0.203 C 
ATOM      3  C   UNL     1      35.085  35.430  -5.982  1.00  0.00     0.282 C 
ATOM      4  O   UNL     1      36.361  35.491  -5.316  1.00  0.00    -0.340 OA
ATOM      5  C   UNL     1      37.032  34.254  -5.335  1.00  0.00     0.190 C 
ATOM      6  C   UNL     1      36.284  33.193  -4.457  1.00  0.00     0.240 C 
ENDROOT
BRANCH   1   7
ATOM      7  O   UNL     1      34.761  34.578  -3.269  1.00  0.00    -0.340 OA
BRANCH   7   8
ATOM      8  C   UNL     1      33.665  34.488  -2.371  1.00  0.00     0.282 C 
ATOM      9  C   UNL     1      30.397  35.926  -3.362  1.00  0.00     0.041 C 
ATOM     10  C   UNL     1      31.667  35.791  -2.531  1.00  0.00     0.150 C 
ATOM     11  C   UNL     1      31.351  35.415  -1.071  1.00  0.00     0.174 C 
ATOM     12  O   UNL     1      32.507  34.829  -3.129  1.00  0.00    -0.344 OA
ATOM     13  C   UNL     1      32.657  35.351  -0.223  1.00  0.00     0.179 C 
ATOM     14  C   UNL     1      33.908  35.373  -1.118  1.00  0.00     0.202 C 
BRANCH  11  15
ATOM     15  O   UNL     1      30.687  34.185  -1.064  1.00  0.00    -0.388 OA
ATOM     16  H   UNL     1      31.055  33.626  -1.808  1.00  0.00     0.211 HD
ENDBRANCH  11  15
BRANCH  13  17
ATOM     17  O   UNL     1      32.649  34.198   0.570  1.00  0.00    -0.387 OA
ATOM     18  H   UNL     1      31.983  33.592   0.174  1.00  0.00     0.211 HD
ENDBRANCH  13  17
BRANCH  14  19
ATOM     19  O   UNL     1      35.027  34.909  -0.414  1.00  0.00    -0.385 OA
ATOM     20  H   UNL     1      35.817  35.273  -0.902  1.00  0.00     0.211 HD
ENDBRANCH  14  19
ENDBRANCH   7   8
ENDBRANCH   1   7
BRANCH   2  21
ATOM     21  O   UNL     1      32.925  34.103  -5.774  1.00  0.00    -0.385 OA
ATOM     22  H   UNL     1      32.561  33.176  -5.706  1.00  0.00     0.211 HD
ENDBRANCH   2  21
BRANCH   6  23
ATOM     23  O   UNL     1      36.385  31.912  -5.080  1.00  0.00    -0.453 OA
BRANCH  23  24
ATOM     24  C   UNL     1      36.570  30.731  -4.362  1.00  0.00     0.331 C 
ATOM     25  O   UNL     1      36.912  29.671  -4.954  1.00  0.00    -0.247 OA
BRANCH  24  26
ATOM     26  C   UNL     1      36.394  30.741  -2.897  1.00  0.00     0.094 C 
ATOM     27  C   UNL     1      35.181  30.639  -2.330  1.00  0.00     0.016 C 
BRANCH  27  28
ATOM     28  C   UNL     1      34.920  30.626  -0.857  1.00  0.00    -0.021 A 
ATOM     29  C   UNL     1      35.017  31.764  -0.046  1.00  0.00     0.058 A 
ATOM     30  C   UNL     1      34.546  29.408  -0.257  1.00  0.00     0.012 A 
ATOM     31  C   UNL     1      34.806  31.693   1.330  1.00  0.00     0.157 A 
ATOM     32  C   UNL     1      34.349  29.328   1.125  1.00  0.00     0.051 A 
ATOM     33  C   UNL     1      34.467  30.471   1.922  1.00  0.00     0.157 A 
BRANCH  31  34
ATOM     34  O   UNL     1      34.910  32.838   2.120  1.00  0.00    -0.504 OA
ATOM     35  H   UNL     1      35.500  32.863   2.943  1.00  0.00     0.293 HD
ENDBRANCH  31  34
BRANCH  33  36
ATOM     36  O   UNL     1      34.221  30.379   3.287  1.00  0.00    -0.504 OA
ATOM     37  H   UNL     1      34.664  29.667   3.859  1.00  0.00     0.293 HD
ENDBRANCH  33  36
ENDBRANCH  27  28
ENDBRANCH  24  26
ENDBRANCH  23  24
ENDBRANCH   6  23
BRANCH   3  38
ATOM     38  O   UNL     1      34.274  36.532  -5.596  1.00  0.00    -0.350 OA
BRANCH  38  39
ATOM     39  C   UNL     1      34.913  37.407  -4.688  1.00  0.00     0.168 C 
BRANCH  39  40
ATOM     40  C   UNL     1      34.323  38.839  -4.675  1.00  0.00     0.064 C 
BRANCH  40  41
ATOM     41  C   UNL     1      33.373  39.012  -3.533  1.00  0.00    -0.042 A 
ATOM     42  C   UNL     1      32.030  39.371  -3.760  1.00  0.00     0.054 A 
ATOM     43  C   UNL     1      33.811  38.783  -2.232  1.00  0.00     0.008 A 
ATOM     44  C   UNL     1      31.156  39.561  -2.692  1.00  0.00     0.157 A 
ATOM     45  C   UNL     1      32.942  38.929  -1.158  1.00  0.00     0.050 A 
ATOM     46  C   UNL     1      31.620  39.341  -1.381  1.00  0.00     0.157 A 
BRANCH  44  47
ATOM     47  O   UNL     1      29.837  39.970  -2.958  1.00  0.00    -0.504 OA
ATOM     48  H   UNL     1      29.599  40.372  -3.855  1.00  0.00     0.293 HD
ENDBRANCH  44  47
BRANCH  46  49
ATOM     49  O   UNL     1      30.763  39.513  -0.296  1.00  0.00    -0.504 OA
ATOM     50  H   UNL     1      31.045  40.009   0.541  1.00  0.00     0.293 HD
ENDBRANCH  46  49
ENDBRANCH  40  41
ENDBRANCH  39  40
ENDBRANCH  38  39
ENDBRANCH   3  38
BRANCH   5  51
ATOM     51  C   UNL     1      38.472  34.476  -4.832  1.00  0.00     0.192 C 
BRANCH  51  52
ATOM     52  O   UNL     1      38.450  35.065  -3.566  1.00  0.00    -0.394 OA
ATOM     53  H   UNL     1      38.967  35.895  -3.614  1.00  0.00     0.210 HD
ENDBRANCH  51  52
ENDBRANCH   5  51
TORSDOF 20
ENDMDL
MODEL 9
REMARK VINA RESULT:    -8.141      3.345      8.547
REMARK INTER + INTRA:         -17.613
REMARK INTER:                 -14.674
REMARK INTRA:                  -2.938
REMARK UNBOUND:                -2.095
REMARK SMILES C[C@@H]1O[C@@H](O[C@H]2[C@@H](O)[C@@H](OCCc3ccc(O)c(O)c3)O[C@@H](CO)[C@@H]2OC(=O)C=Cc2ccc(O)c(O)c2)[C@H](O)[C@H](O)[C@@H]1O
REMARK SMILES IDX 6 1 7 2 9 3 21 4 22 5 25 6 5 7 4 8 1 9 2 10 43 11 3 12 41 13
REMARK SMILES IDX 39 14 44 15 42 17 40 19 8 21 26 23 27 24 28 25 29 26 30 27
REMARK SMILES IDX 31 28 38 29 32 30 36 31 33 32 34 33 37 34 35 36 10 38 11 39
REMARK SMILES IDX 12 40 13 41 20 42 14 43 18 44 15 45 16 46 19 47 17 49 23 51
REMARK SMILES IDX 24 52
REMARK H PARENT 44 16 42 18 40 20 8 22 37 35 35 37 19 48 17 50 24 53
REMARK Flexibility Score: inf
ROOT
ATOM      1  C   UNL     1      32.159  32.802   0.353  1.00  0.00     0.199 C 
ATOM      2  C   UNL     1      31.815  31.669  -0.633  1.00  0.00     0.203 C 
ATOM      3  C   UNL     1      33.102  30.808  -0.874  1.00  0.00     0.282 C 
ATOM      4  O   UNL     1      33.985  30.852   0.263  1.00  0.00    -0.340 OA
ATOM      5  C   UNL     1      33.286  30.806   1.484  1.00  0.00     0.190 C 
ATOM      6  C   UNL     1      32.448  32.112   1.703  1.00  0.00     0.240 C 
ENDROOT
BRANCH   1   7
ATOM      7  O   UNL     1      33.346  33.518   0.010  1.00  0.00    -0.340 OA
BRANCH   7   8
ATOM      8  C   UNL     1      33.174  34.910  -0.209  1.00  0.00     0.282 C 
ATOM      9  C   UNL     1      30.306  36.076  -2.245  1.00  0.00     0.041 C 
ATOM     10  C   UNL     1      31.774  35.857  -1.900  1.00  0.00     0.150 C 
ATOM     11  C   UNL     1      32.518  37.193  -1.713  1.00  0.00     0.174 C 
ATOM     12  O   UNL     1      31.860  35.066  -0.736  1.00  0.00    -0.344 OA
ATOM     13  C   UNL     1      34.031  36.948  -1.431  1.00  0.00     0.179 C 
ATOM     14  C   UNL     1      34.308  35.468  -1.112  1.00  0.00     0.202 C 
BRANCH  11  15
ATOM     15  O   UNL     1      31.917  37.891  -0.661  1.00  0.00    -0.388 OA
ATOM     16  H   UNL     1      31.552  38.749  -1.023  1.00  0.00     0.211 HD
ENDBRANCH  11  15
BRANCH  13  17
ATOM     17  O   UNL     1      34.451  37.758  -0.371  1.00  0.00    -0.387 OA
ATOM     18  H   UNL     1      35.334  37.422  -0.096  1.00  0.00     0.211 HD
ENDBRANCH  13  17
BRANCH  14  19
ATOM     19  O   UNL     1      35.546  35.325  -0.470  1.00  0.00    -0.385 OA
ATOM     20  H   UNL     1      35.363  34.767   0.335  1.00  0.00     0.211 HD
ENDBRANCH  14  19
ENDBRANCH   7   8
ENDBRANCH   1   7
BRANCH   2  21
ATOM     21  O   UNL     1      31.152  32.164  -1.786  1.00  0.00    -0.385 OA
ATOM     22  H   UNL     1      31.468  31.684  -2.602  1.00  0.00     0.211 HD
ENDBRANCH   2  21
BRANCH   6  23
ATOM     23  O   UNL     1      31.220  31.779   2.350  1.00  0.00    -0.453 OA
BRANCH  23  24
ATOM     24  C   UNL     1      30.176  32.689   2.514  1.00  0.00     0.331 C 
ATOM     25  O   UNL     1      29.104  32.553   1.864  1.00  0.00    -0.247 OA
BRANCH  24  26
ATOM     26  C   UNL     1      30.327  33.794   3.479  1.00  0.00     0.094 C 
ATOM     27  C   UNL     1      31.095  33.677   4.574  1.00  0.00     0.016 C 
BRANCH  27  28
ATOM     28  C   UNL     1      31.310  34.753   5.590  1.00  0.00    -0.021 A 
ATOM     29  C   UNL     1      30.292  35.254   6.412  1.00  0.00     0.058 A 
ATOM     30  C   UNL     1      32.608  35.282   5.737  1.00  0.00     0.012 A 
ATOM     31  C   UNL     1      30.533  36.288   7.316  1.00  0.00     0.157 A 
ATOM     32  C   UNL     1      32.851  36.329   6.630  1.00  0.00     0.051 A 
ATOM     33  C   UNL     1      31.818  36.829   7.430  1.00  0.00     0.157 A 
BRANCH  31  34
ATOM     34  O   UNL     1      29.505  36.773   8.123  1.00  0.00    -0.504 OA
ATOM     35  H   UNL     1      28.531  36.631   7.885  1.00  0.00     0.293 HD
ENDBRANCH  31  34
BRANCH  33  36
ATOM     36  O   UNL     1      32.093  37.839   8.346  1.00  0.00    -0.504 OA
ATOM     37  H   UNL     1      32.223  38.801   8.050  1.00  0.00     0.293 HD
ENDBRANCH  33  36
ENDBRANCH  27  28
ENDBRANCH  24  26
ENDBRANCH  23  24
ENDBRANCH   6  23
BRANCH   3  38
ATOM     38  O   UNL     1      33.775  31.264  -2.040  1.00  0.00    -0.350 OA
BRANCH  38  39
ATOM     39  C   UNL     1      35.176  31.086  -1.984  1.00  0.00     0.168 C 
BRANCH  39  40
ATOM     40  C   UNL     1      35.862  31.058  -3.372  1.00  0.00     0.064 C 
BRANCH  40  41
ATOM     41  C   UNL     1      36.976  32.054  -3.436  1.00  0.00    -0.042 A 
ATOM     42  C   UNL     1      36.803  33.362  -2.945  1.00  0.00     0.054 A 
ATOM     43  C   UNL     1      38.211  31.674  -3.955  1.00  0.00     0.008 A 
ATOM     44  C   UNL     1      37.833  34.296  -3.034  1.00  0.00     0.157 A 
ATOM     45  C   UNL     1      39.261  32.580  -4.014  1.00  0.00     0.050 A 
ATOM     46  C   UNL     1      39.070  33.900  -3.577  1.00  0.00     0.157 A 
BRANCH  44  47
ATOM     47  O   UNL     1      37.603  35.607  -2.581  1.00  0.00    -0.504 OA
ATOM     48  H   UNL     1      38.100  35.962  -1.774  1.00  0.00     0.293 HD
ENDBRANCH  44  47
BRANCH  46  49
ATOM     49  O   UNL     1      40.121  34.810  -3.667  1.00  0.00    -0.504 OA
ATOM     50  H   UNL     1      40.130  35.677  -3.144  1.00  0.00     0.293 HD
ENDBRANCH  46  49
ENDBRANCH  40  41
ENDBRANCH  39  40
ENDBRANCH  38  39
ENDBRANCH   3  38
BRANCH   5  51
ATOM     51  C   UNL     1      34.309  30.605   2.619  1.00  0.00     0.192 C 
BRANCH  51  52
ATOM     52  O   UNL     1      33.666  30.668   3.858  1.00  0.00    -0.394 OA
ATOM     53  H   UNL     1      33.203  29.817   3.997  1.00  0.00     0.210 HD
ENDBRANCH  51  52
ENDBRANCH   5  51
TORSDOF 20
ENDMDL
