MODEL 1
REMARK VINA RESULT:    -4.292      0.000      0.000
REMARK INTER + INTRA:         -10.472
REMARK INTER:                  -7.804
REMARK INTRA:                  -2.668
REMARK UNBOUND:                -2.668
REMARK SMILES CCCCCC=CCC=CCCCCCCCC(=O)[O-]
REMARK SMILES IDX 11 1 12 2 13 3 14 4 15 5 16 6 17 7 18 8 19 9 20 10 10 11
REMARK SMILES IDX 9 12 8 13 7 14 6 15 5 16 4 17 3 18 2 19 1 20
REMARK H PARENT
REMARK Flexibility Score: inf
ROOT
ATOM      1  C   UNL     1      98.166  90.171  79.823  1.00  0.00     0.027 C 
ENDROOT
BRANCH   1   2
ATOM      2  C   UNL     1      97.822  89.718  81.249  1.00  0.00     0.004 C 
BRANCH   2   3
ATOM      3  C   UNL     1      97.683  90.896  82.224  1.00  0.00     0.000 C 
BRANCH   3   4
ATOM      4  C   UNL     1      98.776  90.899  83.309  1.00  0.00     0.000 C 
BRANCH   4   5
ATOM      5  C   UNL     1      99.947  91.860  83.014  1.00  0.00     0.000 C 
BRANCH   5   6
ATOM      6  C   UNL     1      99.727  92.672  81.723  1.00  0.00     0.006 C 
BRANCH   6   7
ATOM      7  C   UNL     1     101.039  93.213  81.142  1.00  0.00     0.053 C 
BRANCH   7   8
ATOM      8  C   UNL     1     101.359  94.579  81.666  1.00  0.00     0.041 C 
ATOM      9  O   UNL     1     102.539  94.873  81.990  1.00  0.00    -0.550 OA
ATOM     10  O   UNL     1     100.347  95.517  81.828  1.00  0.00    -0.550 OA
ENDBRANCH   7   8
ENDBRANCH   6   7
ENDBRANCH   5   6
ENDBRANCH   4   5
ENDBRANCH   3   4
ENDBRANCH   2   3
ENDBRANCH   1   2
BRANCH   1  11
ATOM     11  C   UNL     1      98.886  89.105  79.034  1.00  0.00    -0.031 C 
ATOM     12  C   UNL     1     100.208  88.844  79.106  1.00  0.00    -0.027 C 
BRANCH  12  13
ATOM     13  C   UNL     1     101.205  89.617  79.934  1.00  0.00     0.054 C 
BRANCH  13  14
ATOM     14  C   UNL     1     101.409  88.930  81.261  1.00  0.00    -0.027 C 
ATOM     15  C   UNL     1     102.351  89.268  82.161  1.00  0.00    -0.031 C 
BRANCH  15  16
ATOM     16  C   UNL     1     103.364  90.366  81.943  1.00  0.00     0.027 C 
BRANCH  16  17
ATOM     17  C   UNL     1     103.672  91.100  83.256  1.00  0.00     0.004 C 
BRANCH  17  18
ATOM     18  C   UNL     1     103.010  90.439  84.474  1.00  0.00     0.000 C 
BRANCH  18  19
ATOM     19  C   UNL     1     103.999  90.193  85.623  1.00  0.00    -0.003 C 
ATOM     20  C   UNL     1     104.710  88.853  85.455  1.00  0.00     0.004 C 
ENDBRANCH  18  19
ENDBRANCH  17  18
ENDBRANCH  16  17
ENDBRANCH  15  16
ENDBRANCH  13  14
ENDBRANCH  12  13
ENDBRANCH   1  11
TORSDOF 14
ENDMDL
MODEL 2
REMARK VINA RESULT:    -4.111      2.724      3.911
REMARK INTER + INTRA:         -10.143
REMARK INTER:                  -7.201
REMARK INTRA:                  -2.942
REMARK UNBOUND:                -2.668
REMARK SMILES CCCCCC=CCC=CCCCCCCCC(=O)[O-]
REMARK SMILES IDX 11 1 12 2 13 3 14 4 15 5 16 6 17 7 18 8 19 9 20 10 10 11
REMARK SMILES IDX 9 12 8 13 7 14 6 15 5 16 4 17 3 18 2 19 1 20
REMARK H PARENT
REMARK Flexibility Score: inf
ROOT
ATOM      1  C   UNL     1     100.408  92.886  79.623  1.00  0.00     0.027 C 
ENDROOT
BRANCH   1   2
ATOM      2  C   UNL     1     101.017  93.027  81.025  1.00  0.00     0.004 C 
BRANCH   2   3
ATOM      3  C   UNL     1      99.951  93.067  82.129  1.00  0.00     0.000 C 
BRANCH   3   4
ATOM      4  C   UNL     1     100.347  92.239  83.366  1.00  0.00     0.000 C 
BRANCH   4   5
ATOM      5  C   UNL     1      99.345  91.118  83.714  1.00  0.00     0.000 C 
BRANCH   5   6
ATOM      6  C   UNL     1      97.949  91.373  83.114  1.00  0.00     0.006 C 
BRANCH   6   7
ATOM      7  C   UNL     1      96.983  90.208  83.364  1.00  0.00     0.053 C 
BRANCH   7   8
ATOM      8  C   UNL     1      95.937  90.559  84.376  1.00  0.00     0.041 C 
ATOM      9  O   UNL     1      94.977  91.310  84.061  1.00  0.00    -0.550 OA
ATOM     10  O   UNL     1      96.039  90.083  85.677  1.00  0.00    -0.550 OA
ENDBRANCH   7   8
ENDBRANCH   6   7
ENDBRANCH   5   6
ENDBRANCH   4   5
ENDBRANCH   3   4
ENDBRANCH   2   3
ENDBRANCH   1   2
BRANCH   1  11
ATOM     11  C   UNL     1      99.065  92.197  79.641  1.00  0.00    -0.031 C 
ATOM     12  C   UNL     1      98.876  90.862  79.586  1.00  0.00    -0.027 C 
BRANCH  12  13
ATOM     13  C   UNL     1      99.968  89.833  79.426  1.00  0.00     0.054 C 
BRANCH  13  14
ATOM     14  C   UNL     1     100.138  89.064  80.713  1.00  0.00    -0.027 C 
ATOM     15  C   UNL     1     101.299  88.936  81.380  1.00  0.00    -0.031 C 
BRANCH  15  16
ATOM     16  C   UNL     1     102.609  89.517  80.904  1.00  0.00     0.027 C 
BRANCH  16  17
ATOM     17  C   UNL     1     103.286  90.333  82.015  1.00  0.00     0.004 C 
BRANCH  17  18
ATOM     18  C   UNL     1     103.004  89.774  83.417  1.00  0.00     0.000 C 
BRANCH  18  19
ATOM     19  C   UNL     1     103.980  90.310  84.474  1.00  0.00    -0.003 C 
ATOM     20  C   UNL     1     104.269  89.254  85.538  1.00  0.00     0.004 C 
ENDBRANCH  18  19
ENDBRANCH  17  18
ENDBRANCH  16  17
ENDBRANCH  15  16
ENDBRANCH  13  14
ENDBRANCH  12  13
ENDBRANCH   1  11
TORSDOF 14
ENDMDL
MODEL 3
REMARK VINA RESULT:    -4.103      2.247      4.706
REMARK INTER + INTRA:         -10.129
REMARK INTER:                  -7.415
REMARK INTRA:                  -2.714
REMARK UNBOUND:                -2.668
REMARK SMILES CCCCCC=CCC=CCCCCCCCC(=O)[O-]
REMARK SMILES IDX 11 1 12 2 13 3 14 4 15 5 16 6 17 7 18 8 19 9 20 10 10 11
REMARK SMILES IDX 9 12 8 13 7 14 6 15 5 16 4 17 3 18 2 19 1 20
REMARK H PARENT
REMARK Flexibility Score: inf
ROOT
ATOM      1  C   UNL     1      98.670  90.300  79.518  1.00  0.00     0.027 C 
ENDROOT
BRANCH   1   2
ATOM      2  C   UNL     1     100.182  90.145  79.302  1.00  0.00     0.004 C 
BRANCH   2   3
ATOM      3  C   UNL     1     100.725  88.824  79.866  1.00  0.00     0.000 C 
BRANCH   3   4
ATOM      4  C   UNL     1     101.404  88.999  81.238  1.00  0.00     0.000 C 
BRANCH   4   5
ATOM      5  C   UNL     1     102.742  89.765  81.179  1.00  0.00     0.000 C 
BRANCH   5   6
ATOM      6  C   UNL     1     103.593  89.556  82.447  1.00  0.00     0.006 C 
BRANCH   6   7
ATOM      7  C   UNL     1     102.773  89.711  83.733  1.00  0.00     0.053 C 
BRANCH   7   8
ATOM      8  C   UNL     1     103.649  89.849  84.939  1.00  0.00     0.041 C 
ATOM      9  O   UNL     1     103.373  90.695  85.831  1.00  0.00    -0.550 OA
ATOM     10  O   UNL     1     104.791  89.067  85.064  1.00  0.00    -0.550 OA
ENDBRANCH   7   8
ENDBRANCH   6   7
ENDBRANCH   5   6
ENDBRANCH   4   5
ENDBRANCH   3   4
ENDBRANCH   2   3
ENDBRANCH   1   2
BRANCH   1  11
ATOM     11  C   UNL     1      98.097  89.220  80.402  1.00  0.00    -0.031 C 
ATOM     12  C   UNL     1      97.608  89.411  81.645  1.00  0.00    -0.027 C 
BRANCH  12  13
ATOM     13  C   UNL     1      97.614  90.722  82.392  1.00  0.00     0.054 C 
BRANCH  13  14
ATOM     14  C   UNL     1      98.875  90.836  83.213  1.00  0.00    -0.027 C 
ATOM     15  C   UNL     1      99.833  91.759  83.018  1.00  0.00    -0.031 C 
BRANCH  15  16
ATOM     16  C   UNL     1      99.795  92.789  81.914  1.00  0.00     0.027 C 
BRANCH  16  17
ATOM     17  C   UNL     1     101.211  93.112  81.413  1.00  0.00     0.004 C 
BRANCH  17  18
ATOM     18  C   UNL     1     102.233  93.220  82.554  1.00  0.00     0.000 C 
BRANCH  18  19
ATOM     19  C   UNL     1     102.348  94.647  83.110  1.00  0.00    -0.003 C 
ATOM     20  C   UNL     1     103.231  95.513  82.216  1.00  0.00     0.004 C 
ENDBRANCH  18  19
ENDBRANCH  17  18
ENDBRANCH  16  17
ENDBRANCH  15  16
ENDBRANCH  13  14
ENDBRANCH  12  13
ENDBRANCH   1  11
TORSDOF 14
ENDMDL
MODEL 4
REMARK VINA RESULT:    -4.103      1.163      4.732
REMARK INTER + INTRA:         -10.128
REMARK INTER:                  -7.406
REMARK INTRA:                  -2.722
REMARK UNBOUND:                -2.668
REMARK SMILES CCCCCC=CCC=CCCCCCCCC(=O)[O-]
REMARK SMILES IDX 11 1 12 2 13 3 14 4 15 5 16 6 17 7 18 8 19 9 20 10 10 11
REMARK SMILES IDX 9 12 8 13 7 14 6 15 5 16 4 17 3 18 2 19 1 20
REMARK H PARENT
REMARK Flexibility Score: inf
ROOT
ATOM      1  C   UNL     1     103.640  90.502  81.993  1.00  0.00     0.027 C 
ENDROOT
BRANCH   1   2
ATOM      2  C   UNL     1     103.494  91.518  83.135  1.00  0.00     0.004 C 
BRANCH   2   3
ATOM      3  C   UNL     1     102.620  90.992  84.283  1.00  0.00     0.000 C 
BRANCH   3   4
ATOM      4  C   UNL     1     101.394  91.884  84.551  1.00  0.00     0.000 C 
BRANCH   4   5
ATOM      5  C   UNL     1     100.211  91.626  83.594  1.00  0.00     0.000 C 
BRANCH   5   6
ATOM      6  C   UNL     1      99.866  92.863  82.742  1.00  0.00     0.006 C 
BRANCH   6   7
ATOM      7  C   UNL     1     100.561  92.844  81.375  1.00  0.00     0.053 C 
BRANCH   7   8
ATOM      8  C   UNL     1     101.344  94.097  81.133  1.00  0.00     0.041 C 
ATOM      9  O   UNL     1     101.347  94.633  79.993  1.00  0.00    -0.550 OA
ATOM     10  O   UNL     1     102.099  94.656  82.156  1.00  0.00    -0.550 OA
ENDBRANCH   7   8
ENDBRANCH   6   7
ENDBRANCH   5   6
ENDBRANCH   4   5
ENDBRANCH   3   4
ENDBRANCH   2   3
ENDBRANCH   1   2
BRANCH   1  11
ATOM     11  C   UNL     1     102.689  89.338  82.128  1.00  0.00    -0.031 C 
ATOM     12  C   UNL     1     101.790  88.957  81.196  1.00  0.00    -0.027 C 
BRANCH  12  13
ATOM     13  C   UNL     1     101.533  89.670  79.891  1.00  0.00     0.054 C 
BRANCH  13  14
ATOM     14  C   UNL     1     100.543  88.884  79.067  1.00  0.00    -0.027 C 
ATOM     15  C   UNL     1      99.207  89.020  79.145  1.00  0.00    -0.031 C 
BRANCH  15  16
ATOM     16  C   UNL     1      98.512  89.957  80.103  1.00  0.00     0.027 C 
BRANCH  16  17
ATOM     17  C   UNL     1      98.271  89.278  81.460  1.00  0.00     0.004 C 
BRANCH  17  18
ATOM     18  C   UNL     1      97.122  89.923  82.249  1.00  0.00     0.000 C 
BRANCH  18  19
ATOM     19  C   UNL     1      96.807  91.349  81.774  1.00  0.00    -0.003 C 
ATOM     20  C   UNL     1      95.756  92.003  82.666  1.00  0.00     0.004 C 
ENDBRANCH  18  19
ENDBRANCH  17  18
ENDBRANCH  16  17
ENDBRANCH  15  16
ENDBRANCH  13  14
ENDBRANCH  12  13
ENDBRANCH   1  11
TORSDOF 14
ENDMDL
MODEL 5
REMARK VINA RESULT:    -4.090      3.350      4.629
REMARK INTER + INTRA:         -10.105
REMARK INTER:                  -7.095
REMARK INTRA:                  -3.011
REMARK UNBOUND:                -2.668
REMARK SMILES CCCCCC=CCC=CCCCCCCCC(=O)[O-]
REMARK SMILES IDX 11 1 12 2 13 3 14 4 15 5 16 6 17 7 18 8 19 9 20 10 10 11
REMARK SMILES IDX 9 12 8 13 7 14 6 15 5 16 4 17 3 18 2 19 1 20
REMARK H PARENT
REMARK Flexibility Score: inf
ROOT
ATOM      1  C   UNL     1      97.958  89.797  79.691  1.00  0.00     0.027 C 
ENDROOT
BRANCH   1   2
ATOM      2  C   UNL     1      98.121  89.046  81.020  1.00  0.00     0.004 C 
BRANCH   2   3
ATOM      3  C   UNL     1      97.426  89.759  82.189  1.00  0.00     0.000 C 
BRANCH   3   4
ATOM      4  C   UNL     1      96.858  91.134  81.791  1.00  0.00     0.000 C 
BRANCH   4   5
ATOM      5  C   UNL     1      97.191  92.261  82.791  1.00  0.00     0.000 C 
BRANCH   5   6
ATOM      6  C   UNL     1      97.280  91.749  84.242  1.00  0.00     0.006 C 
BRANCH   6   7
ATOM      7  C   UNL     1      96.007  92.042  85.045  1.00  0.00     0.053 C 
BRANCH   7   8
ATOM      8  C   UNL     1      95.097  90.854  85.097  1.00  0.00     0.041 C 
ATOM      9  O   UNL     1      95.518  89.750  85.533  1.00  0.00    -0.550 OA
ATOM     10  O   UNL     1      93.791  90.956  84.634  1.00  0.00    -0.550 OA
ENDBRANCH   7   8
ENDBRANCH   6   7
ENDBRANCH   5   6
ENDBRANCH   4   5
ENDBRANCH   3   4
ENDBRANCH   2   3
ENDBRANCH   1   2
BRANCH   1  11
ATOM     11  C   UNL     1      99.273  90.018  78.985  1.00  0.00    -0.031 C 
ATOM     12  C   UNL     1     100.071  91.094  79.147  1.00  0.00    -0.027 C 
BRANCH  12  13
ATOM     13  C   UNL     1      99.753  92.293  80.006  1.00  0.00     0.054 C 
BRANCH  13  14
ATOM     14  C   UNL     1     100.997  92.747  80.729  1.00  0.00    -0.027 C 
ATOM     15  C   UNL     1     101.453  92.212  81.875  1.00  0.00    -0.031 C 
BRANCH  15  16
ATOM     16  C   UNL     1     100.753  91.101  82.621  1.00  0.00     0.027 C 
BRANCH  16  17
ATOM     17  C   UNL     1     101.681  89.890  82.803  1.00  0.00     0.004 C 
BRANCH  17  18
ATOM     18  C   UNL     1     101.736  88.994  81.558  1.00  0.00     0.000 C 
BRANCH  18  19
ATOM     19  C   UNL     1     103.007  89.217  80.726  1.00  0.00    -0.003 C 
ATOM     20  C   UNL     1     102.835  88.676  79.309  1.00  0.00     0.004 C 
ENDBRANCH  18  19
ENDBRANCH  17  18
ENDBRANCH  16  17
ENDBRANCH  15  16
ENDBRANCH  13  14
ENDBRANCH  12  13
ENDBRANCH   1  11
TORSDOF 14
ENDMDL
MODEL 6
REMARK VINA RESULT:    -4.065      2.253      4.882
REMARK INTER + INTRA:         -10.060
REMARK INTER:                  -7.153
REMARK INTRA:                  -2.907
REMARK UNBOUND:                -2.668
REMARK SMILES CCCCCC=CCC=CCCCCCCCC(=O)[O-]
REMARK SMILES IDX 11 1 12 2 13 3 14 4 15 5 16 6 17 7 18 8 19 9 20 10 10 11
REMARK SMILES IDX 9 12 8 13 7 14 6 15 5 16 4 17 3 18 2 19 1 20
REMARK H PARENT
REMARK Flexibility Score: inf
ROOT
ATOM      1  C   UNL     1      98.299  89.370  80.421  1.00  0.00     0.027 C 
ENDROOT
BRANCH   1   2
ATOM      2  C   UNL     1      99.712  89.009  80.900  1.00  0.00     0.004 C 
BRANCH   2   3
ATOM      3  C   UNL     1     100.732  88.971  79.753  1.00  0.00     0.000 C 
BRANCH   3   4
ATOM      4  C   UNL     1     102.158  89.325  80.215  1.00  0.00     0.000 C 
BRANCH   4   5
ATOM      5  C   UNL     1     102.274  89.597  81.730  1.00  0.00     0.000 C 
BRANCH   5   6
ATOM      6  C   UNL     1     103.615  90.258  82.104  1.00  0.00     0.006 C 
BRANCH   6   7
ATOM      7  C   UNL     1     103.507  91.123  83.366  1.00  0.00     0.053 C 
BRANCH   7   8
ATOM      8  C   UNL     1     103.951  90.381  84.589  1.00  0.00     0.041 C 
ATOM      9  O   UNL     1     104.536  89.271  84.480  1.00  0.00    -0.550 OA
ATOM     10  O   UNL     1     103.689  90.898  85.851  1.00  0.00    -0.550 OA
ENDBRANCH   7   8
ENDBRANCH   6   7
ENDBRANCH   5   6
ENDBRANCH   4   5
ENDBRANCH   3   4
ENDBRANCH   2   3
ENDBRANCH   1   2
BRANCH   1  11
ATOM     11  C   UNL     1      98.309  90.189  79.154  1.00  0.00    -0.031 C 
ATOM     12  C   UNL     1      98.471  91.527  79.095  1.00  0.00    -0.027 C 
BRANCH  12  13
ATOM     13  C   UNL     1      98.600  92.443  80.288  1.00  0.00     0.054 C 
BRANCH  13  14
ATOM     14  C   UNL     1     100.058  92.693  80.584  1.00  0.00    -0.027 C 
ATOM     15  C   UNL     1     100.571  92.852  81.817  1.00  0.00    -0.031 C 
BRANCH  15  16
ATOM     16  C   UNL     1      99.742  92.841  83.079  1.00  0.00     0.027 C 
BRANCH  16  17
ATOM     17  C   UNL     1      99.560  91.409  83.606  1.00  0.00     0.004 C 
BRANCH  17  18
ATOM     18  C   UNL     1      98.215  91.207  84.320  1.00  0.00     0.000 C 
BRANCH  18  19
ATOM     19  C   UNL     1      97.220  90.390  83.483  1.00  0.00    -0.003 C 
ATOM     20  C   UNL     1      96.147  91.291  82.876  1.00  0.00     0.004 C 
ENDBRANCH  18  19
ENDBRANCH  17  18
ENDBRANCH  16  17
ENDBRANCH  15  16
ENDBRANCH  13  14
ENDBRANCH  12  13
ENDBRANCH   1  11
TORSDOF 14
ENDMDL
MODEL 7
REMARK VINA RESULT:    -3.993      2.359      4.087
REMARK INTER + INTRA:          -9.929
REMARK INTER:                  -6.941
REMARK INTRA:                  -2.988
REMARK UNBOUND:                -2.668
REMARK SMILES CCCCCC=CCC=CCCCCCCCC(=O)[O-]
REMARK SMILES IDX 11 1 12 2 13 3 14 4 15 5 16 6 17 7 18 8 19 9 20 10 10 11
REMARK SMILES IDX 9 12 8 13 7 14 6 15 5 16 4 17 3 18 2 19 1 20
REMARK H PARENT
REMARK Flexibility Score: inf
ROOT
ATOM      1  C   UNL     1     100.766  90.132  79.549  1.00  0.00     0.027 C 
ENDROOT
BRANCH   1   2
ATOM      2  C   UNL     1      99.876  89.019  80.122  1.00  0.00     0.004 C 
BRANCH   2   3
ATOM      3  C   UNL     1      98.386  89.388  80.101  1.00  0.00     0.000 C 
BRANCH   3   4
ATOM      4  C   UNL     1      97.661  88.998  81.403  1.00  0.00     0.000 C 
BRANCH   4   5
ATOM      5  C   UNL     1      97.497  90.165  82.400  1.00  0.00     0.000 C 
BRANCH   5   6
ATOM      6  C   UNL     1      96.866  91.409  81.747  1.00  0.00     0.006 C 
BRANCH   6   7
ATOM      7  C   UNL     1      95.558  91.828  82.429  1.00  0.00     0.053 C 
BRANCH   7   8
ATOM      8  C   UNL     1      95.799  92.398  83.793  1.00  0.00     0.041 C 
ATOM      9  O   UNL     1      96.677  93.284  83.964  1.00  0.00    -0.550 OA
ATOM     10  O   UNL     1      95.077  91.928  84.883  1.00  0.00    -0.550 OA
ENDBRANCH   7   8
ENDBRANCH   6   7
ENDBRANCH   5   6
ENDBRANCH   4   5
ENDBRANCH   3   4
ENDBRANCH   2   3
ENDBRANCH   1   2
BRANCH   1  11
ATOM     11  C   UNL     1      99.968  91.312  79.050  1.00  0.00    -0.031 C 
ATOM     12  C   UNL     1     100.043  92.565  79.545  1.00  0.00    -0.027 C 
BRANCH  12  13
ATOM     13  C   UNL     1     100.882  92.987  80.725  1.00  0.00     0.054 C 
BRANCH  13  14
ATOM     14  C   UNL     1      99.992  93.264  81.912  1.00  0.00    -0.027 C 
ATOM     15  C   UNL     1     100.226  92.825  83.162  1.00  0.00    -0.031 C 
BRANCH  15  16
ATOM     16  C   UNL     1     101.401  91.956  83.540  1.00  0.00     0.027 C 
BRANCH  16  17
ATOM     17  C   UNL     1     101.101  90.474  83.268  1.00  0.00     0.004 C 
BRANCH  17  18
ATOM     18  C   UNL     1     102.375  89.634  83.096  1.00  0.00     0.000 C 
BRANCH  18  19
ATOM     19  C   UNL     1     103.391  90.291  82.151  1.00  0.00    -0.003 C 
ATOM     20  C   UNL     1     103.984  89.266  81.187  1.00  0.00     0.004 C 
ENDBRANCH  18  19
ENDBRANCH  17  18
ENDBRANCH  16  17
ENDBRANCH  15  16
ENDBRANCH  13  14
ENDBRANCH  12  13
ENDBRANCH   1  11
TORSDOF 14
ENDMDL
MODEL 8
REMARK VINA RESULT:    -3.987      2.631      3.746
REMARK INTER + INTRA:          -9.918
REMARK INTER:                  -7.150
REMARK INTRA:                  -2.768
REMARK UNBOUND:                -2.668
REMARK SMILES CCCCCC=CCC=CCCCCCCCC(=O)[O-]
REMARK SMILES IDX 11 1 12 2 13 3 14 4 15 5 16 6 17 7 18 8 19 9 20 10 10 11
REMARK SMILES IDX 9 12 8 13 7 14 6 15 5 16 4 17 3 18 2 19 1 20
REMARK H PARENT
REMARK Flexibility Score: inf
ROOT
ATOM      1  C   UNL     1     100.612  90.183  78.875  1.00  0.00     0.027 C 
ENDROOT
BRANCH   1   2
ATOM      2  C   UNL     1      99.599  91.331  78.993  1.00  0.00     0.004 C 
BRANCH   2   3
ATOM      3  C   UNL     1     100.259  92.661  79.384  1.00  0.00     0.000 C 
BRANCH   3   4
ATOM      4  C   UNL     1      99.797  93.170  80.762  1.00  0.00     0.000 C 
BRANCH   4   5
ATOM      5  C   UNL     1      98.649  92.343  81.380  1.00  0.00     0.000 C 
BRANCH   5   6
ATOM      6  C   UNL     1      98.681  92.359  82.921  1.00  0.00     0.006 C 
BRANCH   6   7
ATOM      7  C   UNL     1      98.619  90.949  83.521  1.00  0.00     0.053 C 
BRANCH   7   8
ATOM      8  C   UNL     1      97.346  90.247  83.162  1.00  0.00     0.041 C 
ATOM      9  O   UNL     1      97.319  89.432  82.202  1.00  0.00    -0.550 OA
ATOM     10  O   UNL     1      96.179  90.516  83.867  1.00  0.00    -0.550 OA
ENDBRANCH   7   8
ENDBRANCH   6   7
ENDBRANCH   5   6
ENDBRANCH   4   5
ENDBRANCH   3   4
ENDBRANCH   2   3
ENDBRANCH   1   2
BRANCH   1  11
ATOM     11  C   UNL     1     100.329  89.059  79.841  1.00  0.00    -0.031 C 
ATOM     12  C   UNL     1     100.744  89.014  81.124  1.00  0.00    -0.027 C 
BRANCH  12  13
ATOM     13  C   UNL     1     101.621  90.044  81.793  1.00  0.00     0.054 C 
BRANCH  13  14
ATOM     14  C   UNL     1     103.072  89.666  81.622  1.00  0.00    -0.027 C 
ATOM     15  C   UNL     1     103.952  89.539  82.632  1.00  0.00    -0.031 C 
BRANCH  15  16
ATOM     16  C   UNL     1     103.613  89.799  84.080  1.00  0.00     0.027 C 
BRANCH  16  17
ATOM     17  C   UNL     1     104.073  91.200  84.511  1.00  0.00     0.004 C 
BRANCH  17  18
ATOM     18  C   UNL     1     102.965  91.995  85.218  1.00  0.00     0.000 C 
BRANCH  18  19
ATOM     19  C   UNL     1     102.102  92.804  84.239  1.00  0.00    -0.003 C 
ATOM     20  C   UNL     1     102.939  93.323  83.073  1.00  0.00     0.004 C 
ENDBRANCH  18  19
ENDBRANCH  17  18
ENDBRANCH  16  17
ENDBRANCH  15  16
ENDBRANCH  13  14
ENDBRANCH  12  13
ENDBRANCH   1  11
TORSDOF 14
ENDMDL
