MODEL 1
REMARK VINA RESULT:    -5.655      0.000      0.000
REMARK INTER + INTRA:          -6.537
REMARK INTER:                  -6.317
REMARK INTRA:                  -0.220
REMARK UNBOUND:                -0.220
REMARK SMILES CC(C)c1ccc(C(=O)[O-])cc1
REMARK SMILES IDX 7 1 6 2 11 3 5 4 12 5 4 6 8 7 9 8 10 9 2 10 1 11 3 12
REMARK H PARENT
REMARK Flexibility Score: inf
ROOT
ATOM      1  C   UNL     1       4.145 -36.221  19.557  1.00  0.00    -0.003 A 
ATOM      2  C   UNL     1       4.514 -34.894  19.839  1.00  0.00     0.010 A 
ATOM      3  C   UNL     1       4.414 -37.218  20.510  1.00  0.00     0.010 A 
ATOM      4  C   UNL     1       5.138 -34.572  21.048  1.00  0.00     0.004 A 
ATOM      5  C   UNL     1       5.037 -36.895  21.719  1.00  0.00     0.004 A 
ATOM      6  C   UNL     1       5.407 -35.568  22.001  1.00  0.00    -0.045 A 
ENDROOT
BRANCH   1   7
ATOM      7  C   UNL     1       3.485 -36.566  18.279  1.00  0.00     0.071 C 
ATOM      8  O   UNL     1       2.842 -37.644  18.161  1.00  0.00    -0.545 OA
ATOM      9  O   UNL     1       3.567 -35.707  17.190  1.00  0.00    -0.545 OA
ENDBRANCH   1   7
BRANCH   6  10
ATOM     10  C   UNL     1       6.084 -35.205  23.310  1.00  0.00     0.013 C 
ATOM     11  C   UNL     1       5.979 -33.701  23.587  1.00  0.00     0.012 C 
ATOM     12  C   UNL     1       5.511 -36.023  24.473  1.00  0.00     0.012 C 
ENDBRANCH   6  10
TORSDOF 2
ENDMDL
MODEL 2
REMARK VINA RESULT:    -5.653      0.076      1.400
REMARK INTER + INTRA:          -6.535
REMARK INTER:                  -6.315
REMARK INTRA:                  -0.220
REMARK UNBOUND:                -0.220
REMARK SMILES CC(C)c1ccc(C(=O)[O-])cc1
REMARK SMILES IDX 7 1 6 2 11 3 5 4 12 5 4 6 8 7 9 8 10 9 2 10 1 11 3 12
REMARK H PARENT
REMARK Flexibility Score: inf
ROOT
ATOM      1  C   UNL     1       4.148 -36.195  19.495  1.00  0.00    -0.003 A 
ATOM      2  C   UNL     1       4.402 -37.191  20.455  1.00  0.00     0.010 A 
ATOM      3  C   UNL     1       4.520 -34.869  19.776  1.00  0.00     0.010 A 
ATOM      4  C   UNL     1       5.017 -36.866  21.668  1.00  0.00     0.004 A 
ATOM      5  C   UNL     1       5.135 -34.546  20.989  1.00  0.00     0.004 A 
ATOM      6  C   UNL     1       5.389 -35.541  21.949  1.00  0.00    -0.045 A 
ENDROOT
BRANCH   1   7
ATOM      7  C   UNL     1       3.498 -36.533  18.210  1.00  0.00     0.071 C 
ATOM      8  O   UNL     1       2.899 -37.633  18.065  1.00  0.00    -0.545 OA
ATOM      9  O   UNL     1       3.539 -35.643  17.144  1.00  0.00    -0.545 OA
ENDBRANCH   1   7
BRANCH   6  10
ATOM     10  C   UNL     1       6.056 -35.204  23.270  1.00  0.00     0.013 C 
ATOM     11  C   UNL     1       6.022 -33.695  23.537  1.00  0.00     0.012 C 
ATOM     12  C   UNL     1       5.418 -35.984  24.425  1.00  0.00     0.012 C 
ENDBRANCH   6  10
TORSDOF 2
ENDMDL
MODEL 3
REMARK VINA RESULT:    -5.597      3.423      5.307
REMARK INTER + INTRA:          -6.472
REMARK INTER:                  -6.261
REMARK INTRA:                  -0.211
REMARK UNBOUND:                -0.220
REMARK SMILES CC(C)c1ccc(C(=O)[O-])cc1
REMARK SMILES IDX 7 1 6 2 11 3 5 4 12 5 4 6 8 7 9 8 10 9 2 10 1 11 3 12
REMARK H PARENT
REMARK Flexibility Score: inf
ROOT
ATOM      1  C   UNL     1       5.084 -36.339  23.446  1.00  0.00    -0.003 A 
ATOM      2  C   UNL     1       4.978 -37.460  22.604  1.00  0.00     0.010 A 
ATOM      3  C   UNL     1       5.096 -35.057  22.873  1.00  0.00     0.010 A 
ATOM      4  C   UNL     1       4.887 -37.300  21.218  1.00  0.00     0.004 A 
ATOM      5  C   UNL     1       5.004 -34.898  21.487  1.00  0.00     0.004 A 
ATOM      6  C   UNL     1       4.899 -36.018  20.644  1.00  0.00    -0.045 A 
ENDROOT
BRANCH   1   7
ATOM      7  C   UNL     1       5.181 -36.504  24.913  1.00  0.00     0.071 C 
ATOM      8  O   UNL     1       6.125 -35.971  25.556  1.00  0.00    -0.545 OA
ATOM      9  O   UNL     1       4.232 -37.250  25.602  1.00  0.00    -0.545 OA
ENDBRANCH   1   7
BRANCH   6  10
ATOM     10  C   UNL     1       4.798 -35.859  19.138  1.00  0.00     0.013 C 
ATOM     11  C   UNL     1       3.499 -36.471  18.603  1.00  0.00     0.012 C 
ATOM     12  C   UNL     1       4.926 -34.387  18.728  1.00  0.00     0.012 C 
ENDBRANCH   6  10
TORSDOF 2
ENDMDL
MODEL 4
REMARK VINA RESULT:    -5.391      3.004      5.213
REMARK INTER + INTRA:          -6.242
REMARK INTER:                  -6.027
REMARK INTRA:                  -0.214
REMARK UNBOUND:                -0.220
REMARK SMILES CC(C)c1ccc(C(=O)[O-])cc1
REMARK SMILES IDX 7 1 6 2 11 3 5 4 12 5 4 6 8 7 9 8 10 9 2 10 1 11 3 12
REMARK H PARENT
REMARK Flexibility Score: inf
ROOT
ATOM      1  C   UNL     1       5.166 -35.170  22.011  1.00  0.00    -0.003 A 
ATOM      2  C   UNL     1       5.021 -36.566  21.923  1.00  0.00     0.010 A 
ATOM      3  C   UNL     1       4.772 -34.375  20.922  1.00  0.00     0.010 A 
ATOM      4  C   UNL     1       4.492 -37.152  20.769  1.00  0.00     0.004 A 
ATOM      5  C   UNL     1       4.242 -34.963  19.769  1.00  0.00     0.004 A 
ATOM      6  C   UNL     1       4.098 -36.359  19.679  1.00  0.00    -0.045 A 
ENDROOT
BRANCH   1   7
ATOM      7  C   UNL     1       5.725 -34.545  23.229  1.00  0.00     0.071 C 
ATOM      8  O   UNL     1       6.098 -35.256  24.201  1.00  0.00    -0.545 OA
ATOM      9  O   UNL     1       5.846 -33.163  23.320  1.00  0.00    -0.545 OA
ENDBRANCH   1   7
BRANCH   6  10
ATOM     10  C   UNL     1       3.525 -37.009  18.434  1.00  0.00     0.013 C 
ATOM     11  C   UNL     1       2.138 -37.602  18.708  1.00  0.00     0.012 C 
ATOM     12  C   UNL     1       3.482 -36.019  17.264  1.00  0.00     0.012 C 
ENDBRANCH   6  10
TORSDOF 2
ENDMDL
MODEL 5
REMARK VINA RESULT:    -5.372      1.345      1.828
REMARK INTER + INTRA:          -6.221
REMARK INTER:                  -6.010
REMARK INTRA:                  -0.211
REMARK UNBOUND:                -0.220
REMARK SMILES CC(C)c1ccc(C(=O)[O-])cc1
REMARK SMILES IDX 7 1 6 2 11 3 5 4 12 5 4 6 8 7 9 8 10 9 2 10 1 11 3 12
REMARK H PARENT
REMARK Flexibility Score: inf
ROOT
ATOM      1  C   UNL     1       3.529 -36.279  17.921  1.00  0.00    -0.003 A 
ATOM      2  C   UNL     1       4.200 -35.052  18.069  1.00  0.00     0.010 A 
ATOM      3  C   UNL     1       3.497 -37.172  19.004  1.00  0.00     0.010 A 
ATOM      4  C   UNL     1       4.824 -34.727  19.277  1.00  0.00     0.004 A 
ATOM      5  C   UNL     1       4.122 -36.846  20.212  1.00  0.00     0.004 A 
ATOM      6  C   UNL     1       4.793 -35.619  20.361  1.00  0.00    -0.045 A 
ENDROOT
BRANCH   1   7
ATOM      7  C   UNL     1       2.867 -36.627  16.645  1.00  0.00     0.071 C 
ATOM      8  O   UNL     1       3.211 -37.657  16.004  1.00  0.00    -0.545 OA
ATOM      9  O   UNL     1       1.856 -35.822  16.133  1.00  0.00    -0.545 OA
ENDBRANCH   1   7
BRANCH   6  10
ATOM     10  C   UNL     1       5.475 -35.253  21.667  1.00  0.00     0.013 C 
ATOM     11  C   UNL     1       4.977 -33.902  22.190  1.00  0.00     0.012 C 
ATOM     12  C   UNL     1       5.288 -36.356  22.715  1.00  0.00     0.012 C 
ENDBRANCH   6  10
TORSDOF 2
ENDMDL
MODEL 6
REMARK VINA RESULT:    -5.339      1.555      2.525
REMARK INTER + INTRA:          -6.184
REMARK INTER:                  -5.973
REMARK INTRA:                  -0.211
REMARK UNBOUND:                -0.220
REMARK SMILES CC(C)c1ccc(C(=O)[O-])cc1
REMARK SMILES IDX 7 1 6 2 11 3 5 4 12 5 4 6 8 7 9 8 10 9 2 10 1 11 3 12
REMARK H PARENT
REMARK Flexibility Score: inf
ROOT
ATOM      1  C   UNL     1       3.487 -36.287  17.668  1.00  0.00    -0.003 A 
ATOM      2  C   UNL     1       3.408 -37.234  18.703  1.00  0.00     0.010 A 
ATOM      3  C   UNL     1       4.191 -35.092  17.891  1.00  0.00     0.010 A 
ATOM      4  C   UNL     1       4.020 -36.990  19.936  1.00  0.00     0.004 A 
ATOM      5  C   UNL     1       4.803 -34.849  19.124  1.00  0.00     0.004 A 
ATOM      6  C   UNL     1       4.724 -35.795  20.161  1.00  0.00    -0.045 A 
ENDROOT
BRANCH   1   7
ATOM      7  C   UNL     1       2.840 -36.541  16.362  1.00  0.00     0.071 C 
ATOM      8  O   UNL     1       1.715 -36.039  16.095  1.00  0.00    -0.545 OA
ATOM      9  O   UNL     1       3.465 -37.339  15.410  1.00  0.00    -0.545 OA
ENDBRANCH   1   7
BRANCH   6  10
ATOM     10  C   UNL     1       5.384 -35.544  21.504  1.00  0.00     0.013 C 
ATOM     11  C   UNL     1       5.042 -34.148  22.036  1.00  0.00     0.012 C 
ATOM     12  C   UNL     1       5.005 -36.630  22.518  1.00  0.00     0.012 C 
ENDBRANCH   6  10
TORSDOF 2
ENDMDL
MODEL 7
REMARK VINA RESULT:    -5.285      1.464      2.601
REMARK INTER + INTRA:          -6.124
REMARK INTER:                  -5.905
REMARK INTRA:                  -0.219
REMARK UNBOUND:                -0.220
REMARK SMILES CC(C)c1ccc(C(=O)[O-])cc1
REMARK SMILES IDX 7 1 6 2 11 3 5 4 12 5 4 6 8 7 9 8 10 9 2 10 1 11 3 12
REMARK H PARENT
REMARK Flexibility Score: inf
ROOT
ATOM      1  C   UNL     1       4.801 -35.617  19.923  1.00  0.00    -0.003 A 
ATOM      2  C   UNL     1       4.736 -37.020  19.996  1.00  0.00     0.010 A 
ATOM      3  C   UNL     1       5.017 -34.884  21.101  1.00  0.00     0.010 A 
ATOM      4  C   UNL     1       4.884 -37.673  21.223  1.00  0.00     0.004 A 
ATOM      5  C   UNL     1       5.166 -35.539  22.328  1.00  0.00     0.004 A 
ATOM      6  C   UNL     1       5.100 -36.941  22.402  1.00  0.00    -0.045 A 
ENDROOT
BRANCH   1   7
ATOM      7  C   UNL     1       4.645 -34.921  18.627  1.00  0.00     0.071 C 
ATOM      8  O   UNL     1       5.275 -33.855  18.392  1.00  0.00    -0.545 OA
ATOM      9  O   UNL     1       3.799 -35.433  17.650  1.00  0.00    -0.545 OA
ENDBRANCH   1   7
BRANCH   6  10
ATOM     10  C   UNL     1       5.259 -37.664  23.727  1.00  0.00     0.013 C 
ATOM     11  C   UNL     1       4.705 -36.826  24.884  1.00  0.00     0.012 C 
ATOM     12  C   UNL     1       4.603 -39.049  23.683  1.00  0.00     0.012 C 
ENDBRANCH   6  10
TORSDOF 2
ENDMDL
MODEL 8
REMARK VINA RESULT:    -5.172      2.604      5.669
REMARK INTER + INTRA:          -5.997
REMARK INTER:                  -5.787
REMARK INTRA:                  -0.210
REMARK UNBOUND:                -0.220
REMARK SMILES CC(C)c1ccc(C(=O)[O-])cc1
REMARK SMILES IDX 7 1 6 2 11 3 5 4 12 5 4 6 8 7 9 8 10 9 2 10 1 11 3 12
REMARK H PARENT
REMARK Flexibility Score: inf
ROOT
ATOM      1  C   UNL     1       4.634 -36.130  20.048  1.00  0.00    -0.003 A 
ATOM      2  C   UNL     1       3.894 -37.235  19.593  1.00  0.00     0.010 A 
ATOM      3  C   UNL     1       4.809 -35.029  19.192  1.00  0.00     0.010 A 
ATOM      4  C   UNL     1       3.342 -37.238  18.309  1.00  0.00     0.004 A 
ATOM      5  C   UNL     1       4.255 -35.033  17.909  1.00  0.00     0.004 A 
ATOM      6  C   UNL     1       3.515 -36.139  17.452  1.00  0.00    -0.045 A 
ENDROOT
BRANCH   1   7
ATOM      7  C   UNL     1       5.222 -36.122  21.406  1.00  0.00     0.071 C 
ATOM      8  O   UNL     1       6.049 -35.232  21.741  1.00  0.00    -0.545 OA
ATOM      9  O   UNL     1       4.870 -37.098  22.330  1.00  0.00    -0.545 OA
ENDBRANCH   1   7
BRANCH   6  10
ATOM     10  C   UNL     1       2.909 -36.155  16.061  1.00  0.00     0.013 C 
ATOM     11  C   UNL     1       3.455 -37.324  15.234  1.00  0.00     0.012 C 
ATOM     12  C   UNL     1       1.378 -36.193  16.128  1.00  0.00     0.012 C 
ENDBRANCH   6  10
TORSDOF 2
ENDMDL
MODEL 9
REMARK VINA RESULT:    -5.145      2.610      5.431
REMARK INTER + INTRA:          -5.967
REMARK INTER:                  -5.759
REMARK INTRA:                  -0.208
REMARK UNBOUND:                -0.220
REMARK SMILES CC(C)c1ccc(C(=O)[O-])cc1
REMARK SMILES IDX 7 1 6 2 11 3 5 4 12 5 4 6 8 7 9 8 10 9 2 10 1 11 3 12
REMARK H PARENT
REMARK Flexibility Score: inf
ROOT
ATOM      1  C   UNL     1       4.633 -36.129  20.048  1.00  0.00    -0.003 A 
ATOM      2  C   UNL     1       4.803 -35.037  19.180  1.00  0.00     0.010 A 
ATOM      3  C   UNL     1       3.881 -37.233  19.613  1.00  0.00     0.010 A 
ATOM      4  C   UNL     1       4.232 -35.049  17.904  1.00  0.00     0.004 A 
ATOM      5  C   UNL     1       3.312 -37.246  18.336  1.00  0.00     0.004 A 
ATOM      6  C   UNL     1       3.480 -36.153  17.468  1.00  0.00    -0.045 A 
ENDROOT
BRANCH   1   7
ATOM      7  C   UNL     1       5.234 -36.120  21.400  1.00  0.00     0.071 C 
ATOM      8  O   UNL     1       5.049 -37.084  22.191  1.00  0.00    -0.545 OA
ATOM      9  O   UNL     1       6.012 -35.046  21.818  1.00  0.00    -0.545 OA
ENDBRANCH   1   7
BRANCH   6  10
ATOM     10  C   UNL     1       2.867 -36.153  16.079  1.00  0.00     0.013 C 
ATOM     11  C   UNL     1       3.432 -37.295  15.226  1.00  0.00     0.012 C 
ATOM     12  C   UNL     1       1.338 -36.221  16.151  1.00  0.00     0.012 C 
ENDBRANCH   6  10
TORSDOF 2
ENDMDL
