MODEL 1
REMARK VINA RESULT:    -1.507      0.000      0.000
REMARK INTER + INTRA:          -1.973
REMARK INTER:                  -1.859
REMARK INTRA:                  -0.114
REMARK UNBOUND:                -0.114
REMARK SMILES CCCCCC(=O)[O-]
REMARK SMILES IDX 4 1 5 2 6 3 7 4 8 5 3 6 2 7 1 8
REMARK H PARENT
REMARK Flexibility Score: inf
ROOT
ATOM      1  C   UNL     1      24.585  32.113  -7.135  1.00  0.00     0.006 C 
ENDROOT
BRANCH   1   2
ATOM      2  C   UNL     1      24.222  30.806  -7.844  1.00  0.00     0.053 C 
BRANCH   2   3
ATOM      3  C   UNL     1      22.736  30.648  -7.928  1.00  0.00     0.041 C 
ATOM      4  O   UNL     1      21.984  31.648  -7.779  1.00  0.00    -0.550 OA
ATOM      5  O   UNL     1      22.180  29.391  -8.120  1.00  0.00    -0.550 OA
ENDBRANCH   2   3
ENDBRANCH   1   2
BRANCH   1   6
ATOM      6  C   UNL     1      25.165  33.134  -8.125  1.00  0.00     0.000 C 
BRANCH   6   7
ATOM      7  C   UNL     1      24.436  34.485  -8.075  1.00  0.00    -0.003 C 
ATOM      8  C   UNL     1      25.396  35.674  -8.066  1.00  0.00     0.004 C 
ENDBRANCH   6   7
ENDBRANCH   1   6
TORSDOF 4
ENDMDL
MODEL 2
REMARK VINA RESULT:    -0.870      2.455      4.720
REMARK INTER + INTRA:          -1.188
REMARK INTER:                  -1.083
REMARK INTRA:                  -0.105
REMARK UNBOUND:                -0.114
REMARK SMILES CCCCCC(=O)[O-]
REMARK SMILES IDX 4 1 5 2 6 3 7 4 8 5 3 6 2 7 1 8
REMARK H PARENT
REMARK Flexibility Score: inf
ROOT
ATOM      1  C   UNL     1      23.395  31.067  -7.218  1.00  0.00     0.006 C 
ENDROOT
BRANCH   1   2
ATOM      2  C   UNL     1      24.620  31.215  -8.125  1.00  0.00     0.053 C 
BRANCH   2   3
ATOM      3  C   UNL     1      25.153  32.611  -8.064  1.00  0.00     0.041 C 
ATOM      4  O   UNL     1      26.394  32.819  -8.123  1.00  0.00    -0.550 OA
ATOM      5  O   UNL     1      24.285  33.680  -7.892  1.00  0.00    -0.550 OA
ENDBRANCH   2   3
ENDBRANCH   1   2
BRANCH   1   6
ATOM      6  C   UNL     1      22.222  30.431  -7.978  1.00  0.00     0.000 C 
BRANCH   6   7
ATOM      7  C   UNL     1      22.368  28.909  -8.125  1.00  0.00    -0.003 C 
ATOM      8  C   UNL     1      21.876  28.146  -6.895  1.00  0.00     0.004 C 
ENDBRANCH   6   7
ENDBRANCH   1   6
TORSDOF 4
ENDMDL
MODEL 3
REMARK VINA RESULT:    -0.855      2.125      3.950
REMARK INTER + INTRA:          -1.169
REMARK INTER:                  -1.083
REMARK INTRA:                  -0.087
REMARK UNBOUND:                -0.114
REMARK SMILES CCCCCC(=O)[O-]
REMARK SMILES IDX 4 1 5 2 6 3 7 4 8 5 3 6 2 7 1 8
REMARK H PARENT
REMARK Flexibility Score: inf
ROOT
ATOM      1  C   UNL     1      24.658  32.081  -6.841  1.00  0.00     0.006 C 
ENDROOT
BRANCH   1   2
ATOM      2  C   UNL     1      24.907  32.878  -8.125  1.00  0.00     0.053 C 
BRANCH   2   3
ATOM      3  C   UNL     1      24.179  34.184  -8.082  1.00  0.00     0.041 C 
ATOM      4  O   UNL     1      24.819  35.263  -7.965  1.00  0.00    -0.550 OA
ATOM      5  O   UNL     1      22.791  34.209  -8.122  1.00  0.00    -0.550 OA
ENDBRANCH   2   3
ENDBRANCH   1   2
BRANCH   1   6
ATOM      6  C   UNL     1      24.499  30.585  -7.145  1.00  0.00     0.000 C 
BRANCH   6   7
ATOM      7  C   UNL     1      23.345  30.297  -8.117  1.00  0.00    -0.003 C 
ATOM      8  C   UNL     1      22.029  30.939  -7.677  1.00  0.00     0.004 C 
ENDBRANCH   6   7
ENDBRANCH   1   6
TORSDOF 4
ENDMDL
MODEL 4
REMARK VINA RESULT:     0.217     15.539     17.020
REMARK INTER + INTRA:           0.154
REMARK INTER:                   0.203
REMARK INTRA:                  -0.049
REMARK UNBOUND:                -0.114
REMARK SMILES CCCCCC(=O)[O-]
REMARK SMILES IDX 4 1 5 2 6 3 7 4 8 5 3 6 2 7 1 8
REMARK H PARENT
REMARK Flexibility Score: inf
ROOT
ATOM      1  C   UNL     1      25.777  43.248   3.496  1.00  0.00     0.006 C 
ENDROOT
BRANCH   1   2
ATOM      2  C   UNL     1      26.398  43.800   4.781  1.00  0.00     0.053 C 
BRANCH   2   3
ATOM      3  C   UNL     1      27.492  44.769   4.462  1.00  0.00     0.041 C 
ATOM      4  O   UNL     1      27.483  45.924   4.964  1.00  0.00    -0.550 OA
ATOM      5  O   UNL     1      28.496  44.415   3.570  1.00  0.00    -0.550 OA
ENDBRANCH   2   3
ENDBRANCH   1   2
BRANCH   1   6
ATOM      6  C   UNL     1      24.525  42.414   3.804  1.00  0.00     0.000 C 
BRANCH   6   7
ATOM      7  C   UNL     1      23.705  42.090   2.546  1.00  0.00    -0.003 C 
ATOM      8  C   UNL     1      22.228  42.456   2.692  1.00  0.00     0.004 C 
ENDBRANCH   6   7
ENDBRANCH   1   6
TORSDOF 4
ENDMDL
MODEL 5
REMARK VINA RESULT:     0.335     14.579     15.953
REMARK INTER + INTRA:           0.299
REMARK INTER:                   0.354
REMARK INTRA:                  -0.056
REMARK UNBOUND:                -0.114
REMARK SMILES CCCCCC(=O)[O-]
REMARK SMILES IDX 4 1 5 2 6 3 7 4 8 5 3 6 2 7 1 8
REMARK H PARENT
REMARK Flexibility Score: inf
ROOT
ATOM      1  C   UNL     1      25.550  43.268   3.464  1.00  0.00     0.006 C 
ENDROOT
BRANCH   1   2
ATOM      2  C   UNL     1      24.425  42.308   3.860  1.00  0.00     0.053 C 
BRANCH   2   3
ATOM      3  C   UNL     1      23.344  42.310   2.826  1.00  0.00     0.041 C 
ATOM      4  O   UNL     1      23.439  41.572   1.809  1.00  0.00    -0.550 OA
ATOM      5  O   UNL     1      22.256  43.162   2.958  1.00  0.00    -0.550 OA
ENDBRANCH   2   3
ENDBRANCH   1   2
BRANCH   1   6
ATOM      6  C   UNL     1      26.383  43.675   4.688  1.00  0.00     0.000 C 
BRANCH   6   7
ATOM      7  C   UNL     1      27.306  44.870   4.405  1.00  0.00    -0.003 C 
ATOM      8  C   UNL     1      28.539  44.485   3.589  1.00  0.00     0.004 C 
ENDBRANCH   6   7
ENDBRANCH   1   6
TORSDOF 4
ENDMDL
MODEL 6
REMARK VINA RESULT:     0.823     13.861     14.544
REMARK INTER + INTRA:           0.901
REMARK INTER:                   1.000
REMARK INTRA:                  -0.100
REMARK UNBOUND:                -0.114
REMARK SMILES CCCCCC(=O)[O-]
REMARK SMILES IDX 4 1 5 2 6 3 7 4 8 5 3 6 2 7 1 8
REMARK H PARENT
REMARK Flexibility Score: inf
ROOT
ATOM      1  C   UNL     1      35.277  28.516   0.191  1.00  0.00     0.006 C 
ENDROOT
BRANCH   1   2
ATOM      2  C   UNL     1      34.964  30.013   0.137  1.00  0.00     0.053 C 
BRANCH   2   3
ATOM      3  C   UNL     1      35.802  30.762   1.124  1.00  0.00     0.041 C 
ATOM      4  O   UNL     1      35.298  31.692   1.807  1.00  0.00    -0.550 OA
ATOM      5  O   UNL     1      37.152  30.466   1.256  1.00  0.00    -0.550 OA
ENDBRANCH   2   3
ENDBRANCH   1   2
BRANCH   1   6
ATOM      6  C   UNL     1      35.189  27.884  -1.205  1.00  0.00     0.000 C 
BRANCH   6   7
ATOM      7  C   UNL     1      33.918  28.298  -1.963  1.00  0.00    -0.003 C 
ATOM      8  C   UNL     1      33.957  27.906  -3.440  1.00  0.00     0.004 C 
ENDBRANCH   6   7
ENDBRANCH   1   6
TORSDOF 4
ENDMDL
MODEL 7
REMARK VINA RESULT:     1.346     26.207     26.876
REMARK INTER + INTRA:           1.546
REMARK INTER:                   1.639
REMARK INTRA:                  -0.093
REMARK UNBOUND:                -0.114
REMARK SMILES CCCCCC(=O)[O-]
REMARK SMILES IDX 4 1 5 2 6 3 7 4 8 5 3 6 2 7 1 8
REMARK H PARENT
REMARK Flexibility Score: inf
ROOT
ATOM      1  C   UNL     1      41.114  39.753   9.465  1.00  0.00     0.006 C 
ENDROOT
BRANCH   1   2
ATOM      2  C   UNL     1      41.818  38.486   9.958  1.00  0.00     0.053 C 
BRANCH   2   3
ATOM      3  C   UNL     1      42.042  38.550  11.436  1.00  0.00     0.041 C 
ATOM      4  O   UNL     1      42.112  37.490  12.113  1.00  0.00    -0.550 OA
ATOM      5  O   UNL     1      42.125  39.781  12.073  1.00  0.00    -0.550 OA
ENDBRANCH   2   3
ENDBRANCH   1   2
BRANCH   1   6
ATOM      6  C   UNL     1      42.123  40.748   8.872  1.00  0.00     0.000 C 
BRANCH   6   7
ATOM      7  C   UNL     1      41.598  42.191   8.870  1.00  0.00    -0.003 C 
ATOM      8  C   UNL     1      41.674  42.850  10.247  1.00  0.00     0.004 C 
ENDBRANCH   6   7
ENDBRANCH   1   6
TORSDOF 4
ENDMDL
